REMARK SMILES CC(=O)N1CCCN(S(=O)(=O)c2ccc(C)c(C(=O)NCCCCCCNC(=O)c3ccc(-c4c5nc(c(-c6cccc(S(=O)(=O)[O-])c6F)c6ccc([nH]6)c(-c6cccc(S(=O)(=O)[O-])c6F)c6nc(c(-c7cccc(S(=O)(=O)[O-])c7F)c7ccc4[nH]7)C=C6)C=C5)cc3)c2)CC1
REMARK SMILES IDX 22 1 21 2 20 3 18 4 19 5 17 7 12 8 13 9 93 10 14 11 15 12
REMARK SMILES IDX 16 13 9 14 10 15 11 16 8 17 94 18 95 19 4 20 2 21 1 22 3 23
REMARK SMILES IDX 5 24 7 26 6 27 23 29 24 30 25 31 26 32 27 33 28 34 29 36
REMARK SMILES IDX 30 37 31 38 92 39 32 40 91 41 33 42 34 43 35 44 85 45 36 46
REMARK SMILES IDX 90 47 84 48 86 49 37 50 89 51 83 52 82 53 38 55 70 56 50 57
REMARK SMILES IDX 69 58 51 59 54 60 68 61 87 62 52 63 53 64 67 66 88 67 55 68
REMARK SMILES IDX 39 69 40 70 48 71 41 72 43 73 49 74 42 75 44 76 45 77 46 78
REMARK SMILES IDX 47 79 71 80 72 81 80 82 73 83 75 84 81 85 74 86 76 87 77 88
REMARK SMILES IDX 78 89 79 90 56 91 57 92 65 93 58 94 60 95 66 96 59 97 61 98
REMARK SMILES IDX 62 99 63 100 64 101
REMARK H PARENT 20 6 27 35 86 54 54 65
REMARK Flexibility Score: 90.00
ROOT
ATOM      1  C   UNL     1      -3.150  11.371  -4.285  1.00  0.00     0.021 C 
ENDROOT
BRANCH   1   2
ATOM      2  C   UNL     1      -2.799   9.982  -4.794  1.00  0.00     0.116 C 
BRANCH   2   3
ATOM      3  N   UNL     1      -1.590   9.800  -5.546  1.00  0.00    -0.352 N 
ATOM      4  C   UNL     1      -0.927   8.628  -5.853  1.00  0.00     0.251 C 
ATOM      5  O   UNL     1      -0.005   8.708  -6.669  1.00  0.00    -0.269 OA
ATOM      6  H   UNL     1      -1.176  10.625  -5.891  1.00  0.00     0.163 HD
BRANCH   4   7
ATOM      7  C   UNL     1      -1.167   7.300  -5.171  1.00  0.00     0.044 A 
ATOM      8  C   UNL     1       0.023   5.341  -4.271  1.00  0.00     0.083 A 
ATOM      9  C   UNL     1      -1.137   4.949  -3.621  1.00  0.00     0.022 A 
ATOM     10  C   UNL     1       0.021   6.538  -4.997  1.00  0.00     0.035 A 
ATOM     11  C   UNL     1      -2.328   5.609  -3.869  1.00  0.00     0.005 A 
ATOM     12  C   UNL     1      -2.378   6.738  -4.707  1.00  0.00    -0.038 A 
ATOM     13  C   UNL     1      -3.774   7.184  -5.028  1.00  0.00     0.045 C 
BRANCH   8  14
ATOM     14  S   UNL     1       1.535   4.437  -4.014  1.00  0.00     0.243 S 
ATOM     15  O   UNL     1       1.714   4.374  -2.568  1.00  0.00    -0.207 OA
ATOM     16  O   UNL     1       2.556   5.018  -4.838  1.00  0.00    -0.207 OA
BRANCH  14  17
ATOM     17  N   UNL     1       1.296   2.848  -4.593  1.00  0.00    -0.196 NA
BRANCH  17  18
ATOM     18  C   UNL     1       0.100   2.036  -4.265  1.00  0.00     0.124 C 
BRANCH  18  19
ATOM     19  C   UNL     1      -0.050   1.693  -2.791  1.00  0.00     0.136 C 
BRANCH  19  20
ATOM     20  N   UNL     1       0.996   0.863  -2.196  1.00  0.00    -0.342 N 
BRANCH  20  21
ATOM     21  C   UNL     1       0.523  -0.174  -1.394  1.00  0.00     0.219 C 
ATOM     22  C   UNL     1       1.202  -0.377  -0.063  1.00  0.00     0.114 C 
ATOM     23  O   UNL     1      -0.480  -0.825  -1.687  1.00  0.00    -0.275 OA
ENDBRANCH  20  21
BRANCH  20  24
ATOM     24  C   UNL     1       2.326   1.451  -2.059  1.00  0.00     0.121 CG0
ATOM     25  G   UNL     1       3.154   1.633  -3.337  1.00  0.00     0.000 G0
ENDBRANCH  20  24
ENDBRANCH  19  20
ENDBRANCH  18  19
ENDBRANCH  17  18
BRANCH  17  26
ATOM     26  C   UNL     1       2.502   1.991  -4.668  1.00  0.00     0.104 C 
BRANCH  26  27
ATOM     27  C   UNL     1       3.154   1.633  -3.337  1.00  0.00     0.038 CG0
ATOM     28  G   UNL     1       2.326   1.451  -2.059  1.00  0.00     0.000 G0
ENDBRANCH  26  27
ENDBRANCH  17  26
ENDBRANCH  14  17
ENDBRANCH   8  14
ENDBRANCH   4   7
ENDBRANCH   2   3
ENDBRANCH   1   2
BRANCH   1  29
ATOM     29  C   UNL     1      -3.389  12.499  -5.293  1.00  0.00     0.002 C 
BRANCH  29  30
ATOM     30  C   UNL     1      -4.175  12.222  -6.581  1.00  0.00     0.002 C 
BRANCH  30  31
ATOM     31  C   UNL     1      -5.478  11.430  -6.497  1.00  0.00     0.021 C 
BRANCH  31  32
ATOM     32  C   UNL     1      -6.540  11.996  -5.575  1.00  0.00     0.116 C 
BRANCH  32  33
ATOM     33  N   UNL     1      -7.336  13.041  -6.186  1.00  0.00    -0.352 N 
ATOM     34  C   UNL     1      -8.489  13.659  -5.742  1.00  0.00     0.251 C 
ATOM     35  H   UNL     1      -7.002  13.362  -7.055  1.00  0.00     0.163 HD
ATOM     36  O   UNL     1      -9.117  14.348  -6.542  1.00  0.00    -0.269 OA
BRANCH  34  37
ATOM     37  C   UNL     1      -8.851  13.644  -4.298  1.00  0.00     0.039 A 
ATOM     38  C   UNL     1      -9.353  14.839  -3.761  1.00  0.00     0.014 A 
ATOM     39  C   UNL     1      -8.430  12.632  -3.444  1.00  0.00     0.014 A 
ATOM     40  C   UNL     1      -9.129  15.138  -2.421  1.00  0.00     0.010 A 
ATOM     41  C   UNL     1      -8.113  12.957  -2.148  1.00  0.00     0.010 A 
ATOM     42  C   UNL     1      -8.378  14.243  -1.675  1.00  0.00    -0.014 A 
BRANCH  42  43
ATOM     43  C   UNL     1      -7.758  14.531  -0.398  1.00  0.00     0.031 A 
ATOM     44  C   UNL     1      -8.417  14.058   0.834  1.00  0.00     0.074 A 
ATOM     45  C   UNL     1      -6.470  14.945  -0.411  1.00  0.00     0.049 A 
ATOM     46  N   UNL     1      -8.011  14.329   2.023  1.00  0.00    -0.248 NA
ATOM     47  C   UNL     1      -9.619  13.232   0.807  1.00  0.00     0.031 C 
ATOM     48  C   UNL     1      -5.492  14.822   0.665  1.00  0.00     0.029 A 
ATOM     49  N   UNL     1      -5.752  15.649  -1.377  1.00  0.00    -0.354 N 
ATOM     50  C   UNL     1      -8.672  13.480   2.886  1.00  0.00     0.074 A 
ATOM     51  C   UNL     1      -9.739  12.916   2.099  1.00  0.00     0.031 C 
ATOM     52  C   UNL     1      -4.482  15.678   0.431  1.00  0.00     0.029 A 
ATOM     53  C   UNL     1      -4.911  16.518  -0.671  1.00  0.00     0.049 A 
ATOM     54  H   UNL     1      -5.822  15.554  -2.355  1.00  0.00     0.167 HD
ATOM     55  C   UNL     1      -8.111  13.245   4.106  1.00  0.00     0.034 A 
ATOM     56  C   UNL     1      -5.109  17.873  -0.569  1.00  0.00     0.034 A 
ATOM     57  C   UNL     1      -6.981  14.165   4.334  1.00  0.00     0.049 A 
ATOM     58  C   UNL     1      -5.258  18.357   0.874  1.00  0.00     0.074 A 
ATOM     59  C   UNL     1      -5.606  14.020   4.242  1.00  0.00     0.029 A 
ATOM     60  N   UNL     1      -7.224  15.534   4.411  1.00  0.00    -0.354 N 
ATOM     61  N   UNL     1      -5.476  17.567   1.891  1.00  0.00    -0.248 NA
ATOM     62  C   UNL     1      -5.169  19.756   1.289  1.00  0.00     0.031 C 
ATOM     63  C   UNL     1      -5.033  15.320   4.155  1.00  0.00     0.029 A 
ATOM     64  C   UNL     1      -6.053  16.255   4.231  1.00  0.00     0.049 A 
ATOM     65  H   UNL     1      -8.108  15.936   4.571  1.00  0.00     0.167 HD
ATOM     66  C   UNL     1      -5.665  18.297   3.034  1.00  0.00     0.074 A 
ATOM     67  C   UNL     1      -5.389  19.662   2.614  1.00  0.00     0.031 C 
ATOM     68  C   UNL     1      -6.081  17.716   4.205  1.00  0.00     0.034 A 
BRANCH  55  69
ATOM     69  C   UNL     1      -8.357  12.017   4.980  1.00  0.00     0.023 A 
ATOM     70  C   UNL     1      -7.417  11.767   6.008  1.00  0.00     0.012 A 
ATOM     71  C   UNL     1      -9.366  11.036   4.830  1.00  0.00     0.148 A 
ATOM     72  C   UNL     1      -7.421  10.593   6.771  1.00  0.00     0.002 A 
ATOM     73  C   UNL     1      -9.360   9.850   5.572  1.00  0.00     0.091 A 
ATOM     74  F   UNL     1     -10.383  11.239   3.997  1.00  0.00    -0.205 F 
ATOM     75  C   UNL     1      -8.381   9.621   6.539  1.00  0.00     0.022 A 
BRANCH  73  76
ATOM     76  S   UNL     1     -10.561   8.529   5.306  1.00  0.00     0.127 S 
ATOM     77  O   UNL     1      -9.696   7.382   5.022  1.00  0.00    -0.237 OA
ATOM     78  O   UNL     1     -11.249   8.468   6.594  1.00  0.00    -0.237 OA
ATOM     79  O   UNL     1     -11.391   8.943   4.181  1.00  0.00    -0.744 OA
ENDBRANCH  73  76
ENDBRANCH  55  69
BRANCH  56  80
ATOM     80  C   UNL     1      -5.804  18.466  -1.754  1.00  0.00     0.023 A 
ATOM     81  C   UNL     1      -5.159  18.315  -3.006  1.00  0.00     0.012 A 
ATOM     82  C   UNL     1      -7.175  18.778  -1.734  1.00  0.00     0.148 A 
ATOM     83  C   UNL     1      -5.894  18.279  -4.191  1.00  0.00     0.002 A 
ATOM     84  C   UNL     1      -7.899  18.767  -2.927  1.00  0.00     0.091 A 
ATOM     85  F   UNL     1      -7.764  19.025  -0.556  1.00  0.00    -0.205 F 
ATOM     86  C   UNL     1      -7.271  18.462  -4.146  1.00  0.00     0.022 A 
BRANCH  84  87
ATOM     87  S   UNL     1      -9.681  19.021  -2.952  1.00  0.00     0.127 S 
ATOM     88  O   UNL     1      -9.769  20.457  -3.199  1.00  0.00    -0.237 OA
ATOM     89  O   UNL     1     -10.109  18.180  -4.070  1.00  0.00    -0.237 OA
ATOM     90  O   UNL     1     -10.142  18.558  -1.652  1.00  0.00    -0.744 OA
ENDBRANCH  84  87
ENDBRANCH  56  80
BRANCH  68  91
ATOM     91  C   UNL     1      -6.570  18.460   5.440  1.00  0.00     0.023 A 
ATOM     92  C   UNL     1      -7.009  19.797   5.392  1.00  0.00     0.012 A 
ATOM     93  C   UNL     1      -6.752  17.782   6.676  1.00  0.00     0.148 A 
ATOM     94  C   UNL     1      -7.541  20.447   6.513  1.00  0.00     0.002 A 
ATOM     95  C   UNL     1      -7.391  18.396   7.751  1.00  0.00     0.091 A 
ATOM     96  F   UNL     1      -6.287  16.534   6.832  1.00  0.00    -0.205 F 
ATOM     97  C   UNL     1      -7.757  19.740   7.686  1.00  0.00     0.022 A 
BRANCH  95  98
ATOM     98  S   UNL     1      -7.913  17.438   9.183  1.00  0.00     0.127 S 
ATOM     99  O   UNL     1      -6.775  17.593  10.086  1.00  0.00    -0.237 OA
ATOM    100  O   UNL     1      -9.126  18.140   9.609  1.00  0.00    -0.237 OA
ATOM    101  O   UNL     1      -8.154  16.096   8.669  1.00  0.00    -0.744 OA
ENDBRANCH  95  98
ENDBRANCH  68  91
ENDBRANCH  42  43
ENDBRANCH  34  37
ENDBRANCH  32  33
ENDBRANCH  31  32
ENDBRANCH  30  31
ENDBRANCH  29  30
ENDBRANCH   1  29
TORSDOF 19
