REMARK SMILES [NH3+]CCOCC(=O)N[C@]1(C(=O)NCCCCCCNC(=O)c2ccc(-c3c4nc(c(-c5cccc(S(=O)(=O)[O-])c5F)c5ccc([nH]5)c(-c5cccc(S(=O)(=O)[O-])c5F)c5nc(c(-c6cccc(S(=O)(=O)[O-])c6F)c6ccc3[nH]6)C=C5)C=C4)cc2)CCOC1
REMARK SMILES IDX 14 1 13 2 12 3 10 4 11 5 9 7 85 8 88 9 86 10 87 11 8 12 6 13
REMARK SMILES IDX 7 14 5 16 4 17 3 18 2 19 1 20 15 24 16 25 17 26 18 27 19 28
REMARK SMILES IDX 20 29 21 31 22 32 23 33 84 34 24 35 83 36 25 37 26 38 27 39
REMARK SMILES IDX 77 40 28 41 82 42 76 43 78 44 29 45 81 46 75 47 74 48 30 50
REMARK SMILES IDX 62 51 42 52 61 53 43 54 46 55 60 56 79 57 44 58 45 59 59 61
REMARK SMILES IDX 80 62 47 63 31 64 32 65 40 66 33 67 35 68 41 69 34 70 36 71
REMARK SMILES IDX 37 72 38 73 39 74 63 75 64 76 72 77 65 78 67 79 73 80 66 81
REMARK SMILES IDX 68 82 69 83 70 84 71 85 48 86 49 87 57 88 50 89 52 90 58 91
REMARK SMILES IDX 51 92 53 93 54 94 55 95 56 96
REMARK H PARENT 12 6 8 15 1 21 1 22 1 23 19 30 78 49 46 60
REMARK Flexibility Score: inf
ROOT
ATOM      1  C   UNL     1      -0.920   6.237   2.025  1.00  0.00     0.021 C 
ENDROOT
BRANCH   1   2
ATOM      2  C   UNL     1       0.563   6.454   1.722  1.00  0.00     0.116 C 
BRANCH   2   3
ATOM      3  N   UNL     1       1.316   5.258   2.027  1.00  0.00    -0.354 N 
ATOM      4  C   UNL     1       2.233   4.540   1.349  1.00  0.00     0.248 C 
ATOM      5  O   UNL     1       2.813   3.678   2.030  1.00  0.00    -0.272 OA
ATOM      6  H   UNL     1       1.117   4.890   2.919  1.00  0.00     0.163 HD
BRANCH   4   7
ATOM      7  C   UNL     1       2.706   4.834  -0.099  1.00  0.00     0.144 C 
ATOM      8  C   UNL     1       1.782   5.364  -1.189  1.00  0.00     0.069 C 
ATOM      9  C   UNL     1       3.736   5.974   0.082  1.00  0.00     0.198 C 
ATOM     10  C   UNL     1       2.486   6.581  -1.752  1.00  0.00     0.163 C 
ATOM     11  O   UNL     1       3.337   7.080  -0.733  1.00  0.00    -0.378 OA
BRANCH   7  12
ATOM     12  N   UNL     1       3.339   3.575  -0.572  1.00  0.00    -0.338 N 
ATOM     13  C   UNL     1       2.745   2.373  -0.851  1.00  0.00     0.246 C 
ATOM     14  O   UNL     1       3.466   1.410  -1.127  1.00  0.00    -0.272 OA
ATOM     15  H   UNL     1       4.314   3.610  -0.703  1.00  0.00     0.164 HD
BRANCH  13  16
ATOM     16  C   UNL     1       1.207   2.215  -0.830  1.00  0.00     0.260 C 
BRANCH  16  17
ATOM     17  O   UNL     1       0.509   2.301   0.395  1.00  0.00    -0.366 OA
BRANCH  17  18
ATOM     18  C   UNL     1       0.944   1.386   1.404  1.00  0.00     0.222 C 
BRANCH  18  19
ATOM     19  C   UNL     1       0.336  -0.020   1.280  1.00  0.00     0.287 C 
BRANCH  19  20
ATOM     20  N   UNL     1       0.913  -0.850   0.219  1.00  0.00    -0.356 N 
ATOM     21  H   UNL     1       0.452  -1.759   0.210  1.00  0.00     0.344 HD
ATOM     22  H   UNL     1       1.910  -0.976   0.391  1.00  0.00     0.344 HD
ATOM     23  H   UNL     1       0.778  -0.391  -0.682  1.00  0.00     0.344 HD
ENDBRANCH  19  20
ENDBRANCH  18  19
ENDBRANCH  17  18
ENDBRANCH  16  17
ENDBRANCH  13  16
ENDBRANCH   7  12
ENDBRANCH   4   7
ENDBRANCH   2   3
ENDBRANCH   1   2
BRANCH   1  24
ATOM     24  C   UNL     1      -1.223   5.914   3.497  1.00  0.00     0.002 C 
BRANCH  24  25
ATOM     25  C   UNL     1      -0.628   6.894   4.514  1.00  0.00     0.002 C 
BRANCH  25  26
ATOM     26  C   UNL     1      -0.976   8.363   4.274  1.00  0.00     0.021 C 
BRANCH  26  27
ATOM     27  C   UNL     1      -2.468   8.655   4.178  1.00  0.00     0.116 C 
BRANCH  27  28
ATOM     28  N   UNL     1      -3.177   8.309   5.400  1.00  0.00    -0.352 N 
ATOM     29  C   UNL     1      -4.017   9.086   6.158  1.00  0.00     0.251 C 
ATOM     30  H   UNL     1      -3.036   7.391   5.728  1.00  0.00     0.163 HD
ATOM     31  O   UNL     1      -4.399   8.694   7.257  1.00  0.00    -0.269 OA
BRANCH  29  32
ATOM     32  C   UNL     1      -4.432  10.411   5.653  1.00  0.00     0.039 A 
ATOM     33  C   UNL     1      -4.322  11.518   6.495  1.00  0.00     0.014 A 
ATOM     34  C   UNL     1      -4.890  10.562   4.340  1.00  0.00     0.014 A 
ATOM     35  C   UNL     1      -4.602  12.792   5.998  1.00  0.00     0.010 A 
ATOM     36  C   UNL     1      -5.099  11.838   3.827  1.00  0.00     0.010 A 
ATOM     37  C   UNL     1      -4.949  12.967   4.647  1.00  0.00    -0.014 A 
BRANCH  37  38
ATOM     38  C   UNL     1      -5.107  14.323   4.063  1.00  0.00     0.031 A 
ATOM     39  C   UNL     1      -6.429  14.764   3.502  1.00  0.00     0.074 A 
ATOM     40  C   UNL     1      -4.026  15.121   3.951  1.00  0.00     0.049 A 
ATOM     41  N   UNL     1      -6.733  15.880   2.892  1.00  0.00    -0.248 NA
ATOM     42  C   UNL     1      -7.553  13.821   3.621  1.00  0.00     0.031 C 
ATOM     43  C   UNL     1      -2.672  14.777   4.392  1.00  0.00     0.029 A 
ATOM     44  N   UNL     1      -3.888  16.373   3.405  1.00  0.00    -0.354 N 
ATOM     45  C   UNL     1      -8.068  15.764   2.526  1.00  0.00     0.074 A 
ATOM     46  C   UNL     1      -8.510  14.455   2.958  1.00  0.00     0.031 C 
ATOM     47  C   UNL     1      -1.842  15.790   4.098  1.00  0.00     0.029 A 
ATOM     48  C   UNL     1      -2.593  16.837   3.414  1.00  0.00     0.049 A 
ATOM     49  H   UNL     1      -4.643  16.889   3.041  1.00  0.00     0.167 HD
ATOM     50  C   UNL     1      -8.860  16.672   1.909  1.00  0.00     0.034 A 
ATOM     51  C   UNL     1      -2.063  17.969   2.909  1.00  0.00     0.034 A 
ATOM     52  C   UNL     1      -8.423  17.982   1.505  1.00  0.00     0.049 A 
ATOM     53  C   UNL     1      -2.967  18.963   2.233  1.00  0.00     0.074 A 
ATOM     54  C   UNL     1      -9.174  19.006   0.954  1.00  0.00     0.029 A 
ATOM     55  N   UNL     1      -7.119  18.444   1.587  1.00  0.00    -0.354 N 
ATOM     56  N   UNL     1      -4.263  18.904   2.046  1.00  0.00    -0.248 NA
ATOM     57  C   UNL     1      -2.342  20.192   1.725  1.00  0.00     0.031 C 
ATOM     58  C   UNL     1      -8.316  20.073   0.668  1.00  0.00     0.029 A 
ATOM     59  C   UNL     1      -7.037  19.728   1.074  1.00  0.00     0.049 A 
ATOM     60  H   UNL     1      -6.362  17.934   1.956  1.00  0.00     0.167 HD
ATOM     61  C   UNL     1      -4.612  20.096   1.422  1.00  0.00     0.074 A 
ATOM     62  C   UNL     1      -3.395  20.870   1.291  1.00  0.00     0.031 C 
ATOM     63  C   UNL     1      -5.828  20.505   0.981  1.00  0.00     0.034 A 
BRANCH  50  64
ATOM     64  C   UNL     1     -10.299  16.296   1.663  1.00  0.00     0.023 A 
ATOM     65  C   UNL     1     -11.192  16.205   2.750  1.00  0.00     0.012 A 
ATOM     66  C   UNL     1     -10.781  16.097   0.354  1.00  0.00     0.148 A 
ATOM     67  C   UNL     1     -12.534  15.889   2.543  1.00  0.00     0.002 A 
ATOM     68  C   UNL     1     -12.130  15.828   0.152  1.00  0.00     0.091 A 
ATOM     69  F   UNL     1      -9.913  16.168  -0.665  1.00  0.00    -0.205 F 
ATOM     70  C   UNL     1     -13.004  15.711   1.245  1.00  0.00     0.022 A 
BRANCH  68  71
ATOM     71  S   UNL     1     -12.851  15.660  -1.484  1.00  0.00     0.127 S 
ATOM     72  O   UNL     1     -13.175  14.235  -1.519  1.00  0.00    -0.237 OA
ATOM     73  O   UNL     1     -14.011  16.547  -1.401  1.00  0.00    -0.237 OA
ATOM     74  O   UNL     1     -11.823  16.088  -2.423  1.00  0.00    -0.744 OA
ENDBRANCH  68  71
ENDBRANCH  50  64
BRANCH  51  75
ATOM     75  C   UNL     1      -0.605  18.239   3.057  1.00  0.00     0.023 A 
ATOM     76  C   UNL     1      -0.173  19.276   3.906  1.00  0.00     0.012 A 
ATOM     77  C   UNL     1       0.355  17.461   2.380  1.00  0.00     0.148 A 
ATOM     78  C   UNL     1       1.187  19.554   4.054  1.00  0.00     0.002 A 
ATOM     79  C   UNL     1       1.708  17.706   2.576  1.00  0.00     0.091 A 
ATOM     80  F   UNL     1      -0.077  16.487   1.567  1.00  0.00    -0.205 F 
ATOM     81  C   UNL     1       2.127  18.764   3.398  1.00  0.00     0.022 A 
BRANCH  79  82
ATOM     82  S   UNL     1       2.988  16.655   1.880  1.00  0.00     0.127 S 
ATOM     83  O   UNL     1       3.597  17.541   0.892  1.00  0.00    -0.237 OA
ATOM     84  O   UNL     1       3.817  16.374   3.052  1.00  0.00    -0.237 OA
ATOM     85  O   UNL     1       2.294  15.492   1.344  1.00  0.00    -0.744 OA
ENDBRANCH  79  82
ENDBRANCH  51  75
BRANCH  63  86
ATOM     86  C   UNL     1      -5.913  21.862   0.330  1.00  0.00     0.023 A 
ATOM     87  C   UNL     1      -5.363  22.058  -0.953  1.00  0.00     0.012 A 
ATOM     88  C   UNL     1      -6.598  22.921   0.957  1.00  0.00     0.148 A 
ATOM     89  C   UNL     1      -5.463  23.297  -1.585  1.00  0.00     0.002 A 
ATOM     90  C   UNL     1      -6.739  24.137   0.299  1.00  0.00     0.091 A 
ATOM     91  F   UNL     1      -7.102  22.719   2.184  1.00  0.00    -0.205 F 
ATOM     92  C   UNL     1      -6.161  24.331  -0.966  1.00  0.00     0.022 A 
BRANCH  90  93
ATOM     93  S   UNL     1      -7.699  25.497   0.974  1.00  0.00     0.127 S 
ATOM     94  O   UNL     1      -6.657  26.476   1.276  1.00  0.00    -0.237 OA
ATOM     95  O   UNL     1      -8.563  25.853  -0.152  1.00  0.00    -0.237 OA
ATOM     96  O   UNL     1      -8.402  24.960   2.131  1.00  0.00    -0.744 OA
ENDBRANCH  90  93
ENDBRANCH  63  86
ENDBRANCH  37  38
ENDBRANCH  29  32
ENDBRANCH  27  28
ENDBRANCH  26  27
ENDBRANCH  25  26
ENDBRANCH  24  25
ENDBRANCH   1  24
TORSDOF 22
