REMARK SMILES Cc1ccc(C(=O)NCCCCCCNC(=O)c2ccc(-c3c4nc(c(-c5cccc(S(=O)(=O)[O-])c5F)c5ccc([nH]5)c(-c5cccc(S(=O)(=O)[O-])c5F)c5nc(c(-c6cccc(S(=O)(=O)[O-])c6F)c6ccc3[nH]6)C=C5)C=C4)cc2)c(Oc2cccc(F)c2C(N)=O)c1
REMARK SMILES IDX 11 1 10 2 9 3 8 4 6 5 7 6 5 8 1 9 2 10 3 11 93 12 4 13 81 14
REMARK SMILES IDX 82 15 83 16 84 17 89 18 85 19 87 20 86 21 88 22 90 23 91 24
REMARK SMILES IDX 92 25 12 28 13 29 14 30 15 31 16 32 17 34 18 35 19 36 80 37
REMARK SMILES IDX 20 38 79 39 21 40 22 41 23 42 73 43 24 44 78 45 72 46 74 47
REMARK SMILES IDX 25 48 77 49 71 50 70 51 26 53 58 54 38 55 57 56 39 57 42 58
REMARK SMILES IDX 56 59 75 60 40 61 41 62 55 64 76 65 43 66 27 67 28 68 36 69
REMARK SMILES IDX 29 70 31 71 37 72 30 73 32 74 33 75 34 76 35 77 59 78 60 79
REMARK SMILES IDX 68 80 61 81 63 82 69 83 62 84 64 85 65 86 66 87 67 88 44 89
REMARK SMILES IDX 45 90 53 91 46 92 48 93 54 94 47 95 49 96 50 97 51 98 52 99
REMARK H PARENT 8 7 91 26 91 27 15 33 74 52 42 63
REMARK Flexibility Score: inf
ROOT
ATOM      1  C   UNL     1      -5.965   3.422  -1.053  1.00  0.00     0.002 C 
ENDROOT
BRANCH   1   2
ATOM      2  C   UNL     1      -4.531   3.115  -1.483  1.00  0.00     0.021 C 
BRANCH   2   3
ATOM      3  C   UNL     1      -3.614   2.410  -0.493  1.00  0.00     0.116 C 
BRANCH   3   4
ATOM      4  N   UNL     1      -3.897   1.034  -0.196  1.00  0.00    -0.352 N 
ATOM      5  C   UNL     1      -3.050   0.026   0.208  1.00  0.00     0.255 C 
ATOM      6  O   UNL     1      -3.591  -1.021   0.581  1.00  0.00    -0.269 OA
ATOM      7  H   UNL     1      -4.840   0.771  -0.297  1.00  0.00     0.163 HD
BRANCH   5   8
ATOM      8  C   UNL     1      -1.544   0.058   0.158  1.00  0.00     0.082 A 
ATOM      9  C   UNL     1       2.768  -0.478   0.032  1.00  0.00     0.044 C 
ATOM     10  C   UNL     1       1.279  -0.312   0.099  1.00  0.00    -0.047 A 
ATOM     11  C   UNL     1       0.426  -1.373  -0.188  1.00  0.00     0.004 A 
ATOM     12  C   UNL     1       0.720   0.912   0.472  1.00  0.00     0.051 A 
ATOM     13  C   UNL     1      -0.961  -1.192  -0.145  1.00  0.00     0.018 A 
ATOM     14  C   UNL     1      -0.673   1.123   0.449  1.00  0.00     0.140 A 
BRANCH  14  15
ATOM     15  O   UNL     1      -1.165   2.340   0.836  1.00  0.00    -0.456 OA
BRANCH  15  16
ATOM     16  C   UNL     1      -0.610   3.531   0.400  1.00  0.00     0.143 A 
ATOM     17  C   UNL     1      -0.857   4.574   1.315  1.00  0.00     0.048 A 
ATOM     18  C   UNL     1       0.048   3.829  -0.808  1.00  0.00     0.117 A 
ATOM     19  C   UNL     1      -0.440   5.880   1.062  1.00  0.00     0.007 A 
ATOM     20  C   UNL     1       0.460   5.148  -1.046  1.00  0.00     0.139 A 
ATOM     21  C   UNL     1       0.220   6.167  -0.127  1.00  0.00     0.040 A 
ATOM     22  F   UNL     1       1.083   5.475  -2.188  1.00  0.00    -0.206 F 
BRANCH  18  23
ATOM     23  C   UNL     1       0.456   2.862  -1.846  1.00  0.00     0.255 C 
ATOM     24  N   UNL     1      -0.513   2.214  -2.555  1.00  0.00    -0.365 N 
ATOM     25  O   UNL     1       1.644   2.656  -2.065  1.00  0.00    -0.269 OA
ATOM     26  H   UNL     1      -1.462   2.392  -2.366  1.00  0.00     0.159 HD
ATOM     27  H   UNL     1      -0.262   1.569  -3.255  1.00  0.00     0.159 HD
ENDBRANCH  18  23
ENDBRANCH  15  16
ENDBRANCH  14  15
ENDBRANCH   5   8
ENDBRANCH   3   4
ENDBRANCH   2   3
ENDBRANCH   1   2
BRANCH   1  28
ATOM     28  C   UNL     1      -6.207   4.009   0.344  1.00  0.00     0.002 C 
BRANCH  28  29
ATOM     29  C   UNL     1      -5.288   5.128   0.832  1.00  0.00     0.021 C 
BRANCH  29  30
ATOM     30  C   UNL     1      -5.230   6.373  -0.035  1.00  0.00     0.116 C 
BRANCH  30  31
ATOM     31  N   UNL     1      -6.128   7.433   0.389  1.00  0.00    -0.352 N 
ATOM     32  C   UNL     1      -6.261   8.715  -0.112  1.00  0.00     0.251 C 
ATOM     33  H   UNL     1      -6.725   7.207   1.139  1.00  0.00     0.163 HD
ATOM     34  O   UNL     1      -6.957   9.524   0.501  1.00  0.00    -0.269 OA
BRANCH  32  35
ATOM     35  C   UNL     1      -5.670   9.057  -1.429  1.00  0.00     0.039 A 
ATOM     36  C   UNL     1      -6.488   9.694  -2.371  1.00  0.00     0.014 A 
ATOM     37  C   UNL     1      -4.422   8.568  -1.808  1.00  0.00     0.014 A 
ATOM     38  C   UNL     1      -6.176   9.604  -3.727  1.00  0.00     0.010 A 
ATOM     39  C   UNL     1      -4.153   8.397  -3.147  1.00  0.00     0.010 A 
ATOM     40  C   UNL     1      -5.066   8.854  -4.101  1.00  0.00    -0.014 A 
BRANCH  40  41
ATOM     41  C   UNL     1      -4.800   8.402  -5.455  1.00  0.00     0.031 A 
ATOM     42  C   UNL     1      -3.911   9.168  -6.340  1.00  0.00     0.074 A 
ATOM     43  C   UNL     1      -5.227   7.170  -5.809  1.00  0.00     0.049 A 
ATOM     44  N   UNL     1      -3.913   9.062  -7.624  1.00  0.00    -0.248 NA
ATOM     45  C   UNL     1      -2.942  10.127  -5.826  1.00  0.00     0.031 C 
ATOM     46  C   UNL     1      -4.771   6.356  -6.927  1.00  0.00     0.029 A 
ATOM     47  N   UNL     1      -6.342   6.486  -5.318  1.00  0.00    -0.354 N 
ATOM     48  C   UNL     1      -2.777   9.693  -8.077  1.00  0.00     0.074 A 
ATOM     49  C   UNL     1      -2.253  10.410  -6.936  1.00  0.00     0.031 C 
ATOM     50  C   UNL     1      -5.728   5.464  -7.225  1.00  0.00     0.029 A 
ATOM     51  C   UNL     1      -6.889   5.806  -6.420  1.00  0.00     0.049 A 
ATOM     52  H   UNL     1      -6.676   6.480  -4.392  1.00  0.00     0.167 HD
ATOM     53  C   UNL     1      -2.290   9.394  -9.314  1.00  0.00     0.034 A 
ATOM     54  C   UNL     1      -8.148   6.036  -6.895  1.00  0.00     0.034 A 
ATOM     55  C   UNL     1      -3.129   8.401  -9.992  1.00  0.00     0.049 A 
ATOM     56  C   UNL     1      -8.165   6.439  -8.359  1.00  0.00     0.074 A 
ATOM     57  C   UNL     1      -3.035   7.023 -10.118  1.00  0.00     0.029 A 
ATOM     58  N   UNL     1      -4.412   8.742 -10.398  1.00  0.00    -0.354 N 
ATOM     59  N   UNL     1      -7.101   6.744  -9.050  1.00  0.00    -0.248 NA
ATOM     60  C   UNL     1      -9.382   6.550  -9.155  1.00  0.00     0.031 C 
ATOM     61  C   UNL     1      -4.291   6.530 -10.555  1.00  0.00     0.029 A 
ATOM     62  C   UNL     1      -5.145   7.607 -10.715  1.00  0.00     0.049 A 
ATOM     63  H   UNL     1      -4.756   9.663 -10.454  1.00  0.00     0.167 HD
ATOM     64  C   UNL     1      -7.456   7.185 -10.302  1.00  0.00     0.074 A 
ATOM     65  C   UNL     1      -8.894   6.973 -10.336  1.00  0.00     0.031 C 
ATOM     66  C   UNL     1      -6.531   7.723 -11.162  1.00  0.00     0.034 A 
BRANCH  53  67
ATOM     67  C   UNL     1      -0.865   9.713  -9.719  1.00  0.00     0.023 A 
ATOM     68  C   UNL     1      -0.184   8.773 -10.523  1.00  0.00     0.012 A 
ATOM     69  C   UNL     1      -0.121  10.838  -9.302  1.00  0.00     0.148 A 
ATOM     70  C   UNL     1       1.183   8.873 -10.799  1.00  0.00     0.002 A 
ATOM     71  C   UNL     1       1.260  10.903  -9.514  1.00  0.00     0.091 A 
ATOM     72  F   UNL     1      -0.757  11.878  -8.744  1.00  0.00    -0.205 F 
ATOM     73  C   UNL     1       1.915   9.917 -10.258  1.00  0.00     0.022 A 
BRANCH  71  74
ATOM     74  S   UNL     1       2.293  12.158  -8.735  1.00  0.00     0.127 S 
ATOM     75  O   UNL     1       3.443  11.376  -8.273  1.00  0.00    -0.237 OA
ATOM     76  O   UNL     1       2.583  13.064  -9.843  1.00  0.00    -0.237 OA
ATOM     77  O   UNL     1       1.487  12.709  -7.652  1.00  0.00    -0.744 OA
ENDBRANCH  71  74
ENDBRANCH  53  67
BRANCH  54  78
ATOM     78  C   UNL     1      -9.105   6.507  -5.848  1.00  0.00     0.023 A 
ATOM     79  C   UNL     1      -9.327   5.639  -4.750  1.00  0.00     0.012 A 
ATOM     80  C   UNL     1      -9.446   7.864  -5.715  1.00  0.00     0.148 A 
ATOM     81  C   UNL     1      -9.721   6.137  -3.507  1.00  0.00     0.002 A 
ATOM     82  C   UNL     1      -9.857   8.351  -4.472  1.00  0.00     0.091 A 
ATOM     83  F   UNL     1      -9.293   8.674  -6.770  1.00  0.00    -0.205 F 
ATOM     84  C   UNL     1      -9.949   7.500  -3.360  1.00  0.00     0.022 A 
BRANCH  82  85
ATOM     85  S   UNL     1     -10.165  10.104  -4.218  1.00  0.00     0.127 S 
ATOM     86  O   UNL     1     -11.585  10.201  -4.542  1.00  0.00    -0.237 OA
ATOM     87  O   UNL     1      -9.844  10.284  -2.803  1.00  0.00    -0.237 OA
ATOM     88  O   UNL     1      -9.242  10.770  -5.126  1.00  0.00    -0.744 OA
ENDBRANCH  82  85
ENDBRANCH  54  78
BRANCH  66  89
ATOM     89  C   UNL     1      -6.799   8.417 -12.496  1.00  0.00     0.023 A 
ATOM     90  C   UNL     1      -8.083   8.806 -12.916  1.00  0.00     0.012 A 
ATOM     91  C   UNL     1      -5.722   8.816 -13.341  1.00  0.00     0.148 A 
ATOM     92  C   UNL     1      -8.299   9.520 -14.104  1.00  0.00     0.002 A 
ATOM     93  C   UNL     1      -5.931   9.620 -14.460  1.00  0.00     0.091 A 
ATOM     94  F   UNL     1      -4.476   8.389 -13.093  1.00  0.00    -0.205 F 
ATOM     95  C   UNL     1      -7.222   9.954 -14.860  1.00  0.00     0.022 A 
BRANCH  93  96
ATOM     96  S   UNL     1      -4.551  10.375 -15.335  1.00  0.00     0.127 S 
ATOM     97  O   UNL     1      -4.330   9.429 -16.427  1.00  0.00    -0.237 OA
ATOM     98  O   UNL     1      -5.109  11.663 -15.749  1.00  0.00    -0.237 OA
ATOM     99  O   UNL     1      -3.486  10.479 -14.347  1.00  0.00    -0.744 OA
ENDBRANCH  93  96
ENDBRANCH  66  89
ENDBRANCH  40  41
ENDBRANCH  32  35
ENDBRANCH  30  31
ENDBRANCH  29  30
ENDBRANCH  28  29
ENDBRANCH   1  28
TORSDOF 19
