REMARK SMILES COc1ccc(-c2sc(N)nc2C(=O)NCCCCCCNC(=O)c2ccc(-c3c4nc(c(-c5cccc(S(=O)(=O)[O-])c5F)c5ccc([nH]5)c(-c5cccc(S(=O)(=O)[O-])c5F)c5nc(c(-c6cccc(S(=O)(=O)[O-])c6F)c6ccc3[nH]6)C=C5)C=C4)cc2)cc1OC
REMARK SMILES IDX 19 1 18 2 17 3 16 4 15 5 13 6 14 7 12 9 7 10 8 11 9 12 11 13
REMARK SMILES IDX 6 14 3 15 4 16 89 17 5 18 88 19 2 20 1 21 90 22 91 23 10 24
REMARK SMILES IDX 20 27 21 28 22 29 23 30 24 32 25 33 26 34 87 35 27 36 86 37
REMARK SMILES IDX 28 38 29 39 30 40 80 41 31 42 85 43 79 44 81 45 32 46 84 47
REMARK SMILES IDX 78 48 77 49 33 51 65 52 45 53 64 54 46 55 49 56 63 57 82 58
REMARK SMILES IDX 47 59 48 60 62 62 83 63 50 64 34 65 35 66 43 67 36 68 38 69
REMARK SMILES IDX 44 70 37 71 39 72 40 73 41 74 42 75 66 76 67 77 75 78 68 79
REMARK SMILES IDX 70 80 76 81 69 82 71 83 72 84 73 85 74 86 51 87 52 88 60 89
REMARK SMILES IDX 53 90 55 91 61 92 54 93 56 94 57 95 58 96 59 97
REMARK H PARENT 15 8 10 25 10 26 22 31 81 50 49 61
REMARK Flexibility Score: inf
ROOT
ATOM      1  C   UNL     1       6.709  -9.022  -5.113  1.00  0.00     0.002 C 
ENDROOT
BRANCH   1   2
ATOM      2  C   UNL     1       6.909  -7.509  -5.253  1.00  0.00     0.002 C 
BRANCH   2   3
ATOM      3  C   UNL     1       5.934  -6.806  -6.205  1.00  0.00     0.021 C 
BRANCH   3   4
ATOM      4  C   UNL     1       4.458  -7.050  -5.891  1.00  0.00     0.116 C 
BRANCH   4   5
ATOM      5  N   UNL     1       4.091  -6.480  -4.608  1.00  0.00    -0.351 N 
ATOM      6  C   UNL     1       3.196  -5.504  -4.250  1.00  0.00     0.271 C 
ATOM      7  O   UNL     1       3.137  -5.254  -3.041  1.00  0.00    -0.267 OA
ATOM      8  H   UNL     1       4.580  -6.869  -3.846  1.00  0.00     0.163 HD
BRANCH   6   9
ATOM      9  C   UNL     1       2.353  -4.817  -5.245  1.00  0.00     0.149 A 
ATOM     10  C   UNL     1       1.498  -3.751  -4.961  1.00  0.00     0.069 A 
ATOM     11  S   UNL     1       0.641  -3.295  -6.385  1.00  0.00    -0.096 S 
ATOM     12  C   UNL     1       1.458  -4.507  -7.268  1.00  0.00     0.181 A 
ATOM     13  N   UNL     1       2.309  -5.213  -6.579  1.00  0.00    -0.215 NA
BRANCH  10  14
ATOM     14  C   UNL     1       1.268  -3.014  -3.714  1.00  0.00    -0.002 A 
ATOM     15  C   UNL     1       0.939  -1.753  -1.220  1.00  0.00     0.160 A 
ATOM     16  C   UNL     1      -0.151  -2.362  -1.859  1.00  0.00     0.051 A 
ATOM     17  C   UNL     1       2.201  -1.761  -1.823  1.00  0.00     0.161 A 
ATOM     18  C   UNL     1       0.012  -2.987  -3.101  1.00  0.00     0.014 A 
ATOM     19  C   UNL     1       2.341  -2.375  -3.076  1.00  0.00     0.060 A 
BRANCH  15  20
ATOM     20  O   UNL     1       0.735  -1.272   0.045  1.00  0.00    -0.493 OA
ATOM     21  C   UNL     1       0.183   0.042   0.028  1.00  0.00     0.278 C 
ENDBRANCH  15  20
BRANCH  17  22
ATOM     22  O   UNL     1       3.387  -1.266  -1.357  1.00  0.00    -0.493 OA
ATOM     23  C   UNL     1       3.417  -0.592  -0.113  1.00  0.00     0.278 C 
ENDBRANCH  17  22
ENDBRANCH  10  14
BRANCH  12  24
ATOM     24  N   UNL     1       1.238  -4.723  -8.568  1.00  0.00    -0.375 N 
ATOM     25  H   UNL     1       0.587  -4.169  -9.056  1.00  0.00     0.159 HD
ATOM     26  H   UNL     1       1.728  -5.436  -9.038  1.00  0.00     0.159 HD
ENDBRANCH  12  24
ENDBRANCH   6   9
ENDBRANCH   4   5
ENDBRANCH   3   4
ENDBRANCH   2   3
ENDBRANCH   1   2
BRANCH   1  27
ATOM     27  C   UNL     1       6.696  -9.799  -6.431  1.00  0.00     0.021 C 
BRANCH  27  28
ATOM     28  C   UNL     1       7.960  -9.647  -7.268  1.00  0.00     0.116 C 
BRANCH  28  29
ATOM     29  N   UNL     1       9.130 -10.191  -6.594  1.00  0.00    -0.352 N 
ATOM     30  C   UNL     1      10.032 -11.120  -7.052  1.00  0.00     0.251 C 
ATOM     31  H   UNL     1       9.298  -9.846  -5.687  1.00  0.00     0.163 HD
ATOM     32  O   UNL     1      10.853 -11.618  -6.287  1.00  0.00    -0.269 OA
BRANCH  30  33
ATOM     33  C   UNL     1       9.992 -11.529  -8.471  1.00  0.00     0.039 A 
ATOM     34  C   UNL     1      10.025 -12.889  -8.790  1.00  0.00     0.014 A 
ATOM     35  C   UNL     1       9.896 -10.568  -9.481  1.00  0.00     0.014 A 
ATOM     36  C   UNL     1       9.895 -13.287 -10.123  1.00  0.00     0.010 A 
ATOM     37  C   UNL     1       9.690 -10.970 -10.796  1.00  0.00     0.010 A 
ATOM     38  C   UNL     1       9.690 -12.332 -11.132  1.00  0.00    -0.014 A 
BRANCH  38  39
ATOM     39  C   UNL     1       9.458 -12.729 -12.545  1.00  0.00     0.031 A 
ATOM     40  C   UNL     1      10.416 -12.285 -13.617  1.00  0.00     0.074 A 
ATOM     41  C   UNL     1       8.333 -13.393 -12.877  1.00  0.00     0.049 A 
ATOM     42  N   UNL     1      10.329 -12.433 -14.913  1.00  0.00    -0.248 NA
ATOM     43  C   UNL     1      11.616 -11.553 -13.177  1.00  0.00     0.031 C 
ATOM     44  C   UNL     1       7.294 -13.820 -11.937  1.00  0.00     0.029 A 
ATOM     45  N   UNL     1       7.857 -13.794 -14.101  1.00  0.00    -0.354 N 
ATOM     46  C   UNL     1      11.434 -11.780 -15.445  1.00  0.00     0.074 A 
ATOM     47  C   UNL     1      12.163 -11.209 -14.334  1.00  0.00     0.031 C 
ATOM     48  C   UNL     1       6.303 -14.416 -12.618  1.00  0.00     0.029 A 
ATOM     49  C   UNL     1       6.613 -14.378 -14.044  1.00  0.00     0.049 A 
ATOM     50  H   UNL     1       8.358 -13.674 -14.940  1.00  0.00     0.167 HD
ATOM     51  C   UNL     1      11.819 -11.681 -16.739  1.00  0.00     0.034 A 
ATOM     52  C   UNL     1       5.801 -14.812 -15.028  1.00  0.00     0.034 A 
ATOM     53  C   UNL     1      11.110 -12.281 -17.837  1.00  0.00     0.049 A 
ATOM     54  C   UNL     1       6.263 -14.708 -16.457  1.00  0.00     0.074 A 
ATOM     55  C   UNL     1      11.467 -12.315 -19.173  1.00  0.00     0.029 A 
ATOM     56  N   UNL     1       9.894 -12.937 -17.731  1.00  0.00    -0.354 N 
ATOM     57  N   UNL     1       7.384 -14.219 -16.928  1.00  0.00    -0.248 NA
ATOM     58  C   UNL     1       5.362 -15.243 -17.489  1.00  0.00     0.031 C 
ATOM     59  C   UNL     1      10.448 -12.958 -19.881  1.00  0.00     0.029 A 
ATOM     60  C   UNL     1       9.477 -13.364 -18.979  1.00  0.00     0.049 A 
ATOM     61  H   UNL     1       9.400 -13.078 -16.891  1.00  0.00     0.167 HD
ATOM     62  C   UNL     1       7.343 -14.424 -18.302  1.00  0.00     0.074 A 
ATOM     63  C   UNL     1       6.091 -15.095 -18.587  1.00  0.00     0.031 C 
ATOM     64  C   UNL     1       8.255 -14.079 -19.244  1.00  0.00     0.034 A 
BRANCH  51  65
ATOM     65  C   UNL     1      13.087 -10.925 -17.041  1.00  0.00     0.023 A 
ATOM     66  C   UNL     1      14.333 -11.469 -16.667  1.00  0.00     0.012 A 
ATOM     67  C   UNL     1      13.050  -9.709 -17.751  1.00  0.00     0.148 A 
ATOM     68  C   UNL     1      15.519 -10.798 -16.963  1.00  0.00     0.002 A 
ATOM     69  C   UNL     1      14.238  -9.071 -18.085  1.00  0.00     0.091 A 
ATOM     70  F   UNL     1      11.855  -9.198 -18.081  1.00  0.00    -0.205 F 
ATOM     71  C   UNL     1      15.472  -9.606 -17.681  1.00  0.00     0.022 A 
BRANCH  69  72
ATOM     72  S   UNL     1      14.289  -7.576 -19.080  1.00  0.00     0.127 S 
ATOM     73  O   UNL     1      14.742  -6.587 -18.103  1.00  0.00    -0.237 OA
ATOM     74  O   UNL     1      15.279  -7.922 -20.101  1.00  0.00    -0.237 OA
ATOM     75  O   UNL     1      12.937  -7.380 -19.584  1.00  0.00    -0.744 OA
ENDBRANCH  69  72
ENDBRANCH  51  65
BRANCH  52  76
ATOM     76  C   UNL     1       4.483 -15.423 -14.694  1.00  0.00     0.023 A 
ATOM     77  C   UNL     1       4.282 -16.801 -14.906  1.00  0.00     0.012 A 
ATOM     78  C   UNL     1       3.436 -14.652 -14.153  1.00  0.00     0.148 A 
ATOM     79  C   UNL     1       3.052 -17.393 -14.620  1.00  0.00     0.002 A 
ATOM     80  C   UNL     1       2.232 -15.259 -13.816  1.00  0.00     0.091 A 
ATOM     81  F   UNL     1       3.644 -13.341 -13.967  1.00  0.00    -0.205 F 
ATOM     82  C   UNL     1       2.030 -16.625 -14.067  1.00  0.00     0.022 A 
BRANCH  80  83
ATOM     83  S   UNL     1       0.908 -14.377 -12.982  1.00  0.00     0.127 S 
ATOM     84  O   UNL     1      -0.120 -14.330 -14.019  1.00  0.00    -0.237 OA
ATOM     85  O   UNL     1       0.613 -15.270 -11.861  1.00  0.00    -0.237 OA
ATOM     86  O   UNL     1       1.473 -13.092 -12.594  1.00  0.00    -0.744 OA
ENDBRANCH  80  83
ENDBRANCH  52  76
BRANCH  64  87
ATOM     87  C   UNL     1       7.973 -14.462 -20.673  1.00  0.00     0.023 A 
ATOM     88  C   UNL     1       6.981 -13.781 -21.405  1.00  0.00     0.012 A 
ATOM     89  C   UNL     1       8.763 -15.435 -21.317  1.00  0.00     0.148 A 
ATOM     90  C   UNL     1       6.761 -14.083 -22.749  1.00  0.00     0.002 A 
ATOM     91  C   UNL     1       8.576 -15.692 -22.668  1.00  0.00     0.091 A 
ATOM     92  F   UNL     1       9.692 -16.082 -20.596  1.00  0.00    -0.205 F 
ATOM     93  C   UNL     1       7.567 -15.027 -23.383  1.00  0.00     0.022 A 
BRANCH  91  94
ATOM     94  S   UNL     1       9.629 -16.815 -23.594  1.00  0.00     0.127 S 
ATOM     95  O   UNL     1       8.705 -17.906 -23.900  1.00  0.00    -0.237 OA
ATOM     96  O   UNL     1      10.012 -15.998 -24.745  1.00  0.00    -0.237 OA
ATOM     97  O   UNL     1      10.729 -17.164 -22.704  1.00  0.00    -0.744 OA
ENDBRANCH  91  94
ENDBRANCH  64  87
ENDBRANCH  38  39
ENDBRANCH  30  33
ENDBRANCH  28  29
ENDBRANCH  27  28
ENDBRANCH   1  27
TORSDOF 20
