REMARK SMILES COc1cc([C@@H]2[NH2+][C@@H](C(=O)NCCCCCCNC(=O)c3ccc(-c4c5nc(c(-c6cccc(S(=O)(=O)[O-])c6F)c6ccc([nH]6)c(-c6cccc(S(=O)(=O)[O-])c6F)c6nc(c(-c7cccc(S(=O)(=O)[O-])c7F)c7ccc4[nH]7)C=C6)C=C5)cc3)CS2)cc(Cl)c1O
REMARK SMILES IDX 15 1 14 2 13 3 12 4 11 5 9 6 10 7 8 9 6 10 7 11 85 12 84 15
REMARK SMILES IDX 5 16 3 17 4 18 89 19 87 20 86 21 88 22 2 23 1 24 90 25 16 27
REMARK SMILES IDX 17 28 18 29 19 30 20 32 21 33 22 34 83 35 23 36 82 37 24 38
REMARK SMILES IDX 25 39 26 40 76 41 27 42 81 43 75 44 77 45 28 46 80 47 74 48
REMARK SMILES IDX 73 49 29 51 61 52 41 53 60 54 42 55 45 56 59 57 78 58 43 59
REMARK SMILES IDX 44 60 58 62 79 63 46 64 30 65 31 66 39 67 32 68 34 69 40 70
REMARK SMILES IDX 33 71 35 72 36 73 37 74 38 75 62 76 63 77 71 78 64 79 66 80
REMARK SMILES IDX 72 81 65 82 67 83 68 84 69 85 70 86 47 87 48 88 56 89 49 90
REMARK SMILES IDX 51 91 57 92 50 93 52 94 53 95 54 96 55 97
REMARK H PARENT 11 8 7 13 7 14 90 26 18 31 77 50 45 61
REMARK Flexibility Score: inf
ROOT
ATOM      1  C   UNL     1      -6.403   0.326  -2.062  1.00  0.00     0.002 C 
ENDROOT
BRANCH   1   2
ATOM      2  C   UNL     1      -5.256   0.096  -3.052  1.00  0.00     0.002 C 
BRANCH   2   3
ATOM      3  C   UNL     1      -3.955  -0.413  -2.419  1.00  0.00     0.021 C 
BRANCH   3   4
ATOM      4  C   UNL     1      -4.132  -1.701  -1.617  1.00  0.00     0.116 C 
BRANCH   4   5
ATOM      5  N   UNL     1      -4.506  -2.804  -2.489  1.00  0.00    -0.351 N 
ATOM      6  C   UNL     1      -3.767  -3.886  -2.878  1.00  0.00     0.279 C 
ATOM      7  O   UNL     1      -4.228  -4.658  -3.721  1.00  0.00    -0.268 OA
ATOM      8  H   UNL     1      -5.421  -2.766  -2.850  1.00  0.00     0.163 HD
BRANCH   6   9
ATOM      9  C   UNL     1      -2.439  -4.149  -2.173  1.00  0.00     0.283 C 
ATOM     10  C   UNL     1      -0.418  -5.367  -2.215  1.00  0.00     0.274 C 
ATOM     11  N   UNL     1      -1.455  -4.792  -3.078  1.00  0.00    -0.321 N 
ATOM     12  S   UNL     1      -1.276  -6.133  -0.818  1.00  0.00    -0.088 SA
ATOM     13  H   UNL     1      -1.905  -5.525  -3.626  1.00  0.00     0.348 HD
ATOM     14  H   UNL     1      -1.060  -4.119  -3.735  1.00  0.00     0.348 HD
ATOM     15  C   UNL     1      -2.723  -5.059  -0.975  1.00  0.00     0.151 C 
BRANCH  10  16
ATOM     16  C   UNL     1       0.640  -4.349  -1.797  1.00  0.00     0.025 A 
ATOM     17  C   UNL     1       1.410  -2.436  -0.483  1.00  0.00     0.162 A 
ATOM     18  C   UNL     1       0.430  -3.377  -0.796  1.00  0.00     0.061 A 
ATOM     19  C   UNL     1       2.657  -2.490  -1.099  1.00  0.00     0.176 A 
ATOM     20  C   UNL     1       2.890  -3.440  -2.094  1.00  0.00     0.087 A 
ATOM     21  C   UNL     1       1.886  -4.350  -2.450  1.00  0.00     0.035 A 
ATOM     22  Cl  UNL     1       4.418  -3.550  -2.889  1.00  0.00    -0.080 Cl
BRANCH  17  23
ATOM     23  O   UNL     1       1.132  -1.523   0.500  1.00  0.00    -0.493 OA
ATOM     24  C   UNL     1       0.922  -0.213  -0.040  1.00  0.00     0.278 C 
ENDBRANCH  17  23
BRANCH  19  25
ATOM     25  O   UNL     1       3.652  -1.642  -0.696  1.00  0.00    -0.503 OA
ATOM     26  H   UNL     1       3.485  -1.008  -0.027  1.00  0.00     0.293 HD
ENDBRANCH  19  25
ENDBRANCH  10  16
ENDBRANCH   6   9
ENDBRANCH   4   5
ENDBRANCH   3   4
ENDBRANCH   2   3
ENDBRANCH   1   2
BRANCH   1  27
ATOM     27  C   UNL     1      -6.083   1.298  -0.925  1.00  0.00     0.021 C 
BRANCH  27  28
ATOM     28  C   UNL     1      -5.707   2.702  -1.386  1.00  0.00     0.116 C 
BRANCH  28  29
ATOM     29  N   UNL     1      -6.795   3.347  -2.107  1.00  0.00    -0.352 N 
ATOM     30  C   UNL     1      -7.378   4.568  -1.883  1.00  0.00     0.251 C 
ATOM     31  H   UNL     1      -7.164   2.834  -2.863  1.00  0.00     0.163 HD
ATOM     32  O   UNL     1      -8.422   4.865  -2.461  1.00  0.00    -0.269 OA
BRANCH  30  33
ATOM     33  C   UNL     1      -6.758   5.514  -0.933  1.00  0.00     0.039 A 
ATOM     34  C   UNL     1      -7.569   6.180  -0.012  1.00  0.00     0.014 A 
ATOM     35  C   UNL     1      -5.378   5.739  -0.948  1.00  0.00     0.014 A 
ATOM     36  C   UNL     1      -6.989   7.029   0.932  1.00  0.00     0.010 A 
ATOM     37  C   UNL     1      -4.795   6.523   0.042  1.00  0.00     0.010 A 
ATOM     38  C   UNL     1      -5.593   7.182   0.989  1.00  0.00    -0.014 A 
BRANCH  38  39
ATOM     39  C   UNL     1      -4.952   8.015   2.039  1.00  0.00     0.031 A 
ATOM     40  C   UNL     1      -4.137   9.223   1.660  1.00  0.00     0.074 A 
ATOM     41  C   UNL     1      -5.035   7.637   3.330  1.00  0.00     0.049 A 
ATOM     42  N   UNL     1      -3.461  10.035   2.430  1.00  0.00    -0.248 NA
ATOM     43  C   UNL     1      -4.047   9.547   0.226  1.00  0.00     0.031 C 
ATOM     44  C   UNL     1      -5.730   6.444   3.819  1.00  0.00     0.029 A 
ATOM     45  N   UNL     1      -4.508   8.201   4.466  1.00  0.00    -0.354 N 
ATOM     46  C   UNL     1      -2.840  10.940   1.579  1.00  0.00     0.074 A 
ATOM     47  C   UNL     1      -3.191  10.559   0.229  1.00  0.00     0.031 C 
ATOM     48  C   UNL     1      -5.590   6.368   5.152  1.00  0.00     0.029 A 
ATOM     49  C   UNL     1      -4.768   7.482   5.610  1.00  0.00     0.049 A 
ATOM     50  H   UNL     1      -3.993   9.040   4.462  1.00  0.00     0.167 HD
ATOM     51  C   UNL     1      -2.068  12.008   1.892  1.00  0.00     0.034 A 
ATOM     52  C   UNL     1      -4.376   7.689   6.883  1.00  0.00     0.034 A 
ATOM     53  C   UNL     1      -1.751  12.406   3.236  1.00  0.00     0.049 A 
ATOM     54  C   UNL     1      -3.543   8.900   7.205  1.00  0.00     0.074 A 
ATOM     55  C   UNL     1      -1.051  13.523   3.659  1.00  0.00     0.029 A 
ATOM     56  N   UNL     1      -2.099  11.698   4.376  1.00  0.00    -0.354 N 
ATOM     57  N   UNL     1      -3.096   9.832   6.399  1.00  0.00    -0.248 NA
ATOM     58  C   UNL     1      -3.191   9.108   8.617  1.00  0.00     0.031 C 
ATOM     59  C   UNL     1      -0.944  13.471   5.052  1.00  0.00     0.029 A 
ATOM     60  C   UNL     1      -1.616  12.345   5.500  1.00  0.00     0.049 A 
ATOM     61  H   UNL     1      -2.614  10.860   4.384  1.00  0.00     0.167 HD
ATOM     62  C   UNL     1      -2.447  10.757   7.209  1.00  0.00     0.074 A 
ATOM     63  C   UNL     1      -2.575  10.282   8.571  1.00  0.00     0.031 C 
ATOM     64  C   UNL     1      -1.794  11.891   6.855  1.00  0.00     0.034 A 
BRANCH  51  65
ATOM     65  C   UNL     1      -1.542  12.853   0.760  1.00  0.00     0.023 A 
ATOM     66  C   UNL     1      -2.427  13.663   0.021  1.00  0.00     0.012 A 
ATOM     67  C   UNL     1      -0.163  12.900   0.476  1.00  0.00     0.148 A 
ATOM     68  C   UNL     1      -1.954  14.482  -1.004  1.00  0.00     0.002 A 
ATOM     69  C   UNL     1       0.307  13.754  -0.514  1.00  0.00     0.091 A 
ATOM     70  F   UNL     1       0.661  12.107   1.177  1.00  0.00    -0.205 F 
ATOM     71  C   UNL     1      -0.588  14.536  -1.263  1.00  0.00     0.022 A 
BRANCH  69  72
ATOM     72  S   UNL     1       2.056  13.960  -0.869  1.00  0.00     0.127 S 
ATOM     73  O   UNL     1       2.158  13.366  -2.201  1.00  0.00    -0.237 OA
ATOM     74  O   UNL     1       2.206  15.415  -0.837  1.00  0.00    -0.237 OA
ATOM     75  O   UNL     1       2.768  13.250   0.185  1.00  0.00    -0.744 OA
ENDBRANCH  69  72
ENDBRANCH  51  65
BRANCH  52  76
ATOM     76  C   UNL     1      -4.805   6.750   7.959  1.00  0.00     0.023 A 
ATOM     77  C   UNL     1      -5.716   7.186   8.941  1.00  0.00     0.012 A 
ATOM     78  C   UNL     1      -4.325   5.427   8.007  1.00  0.00     0.148 A 
ATOM     79  C   UNL     1      -6.109   6.334   9.974  1.00  0.00     0.002 A 
ATOM     80  C   UNL     1      -4.766   4.566   9.004  1.00  0.00     0.091 A 
ATOM     81  F   UNL     1      -3.451   5.035   7.069  1.00  0.00    -0.205 F 
ATOM     82  C   UNL     1      -5.643   5.023  10.000  1.00  0.00     0.022 A 
BRANCH  80  83
ATOM     83  S   UNL     1      -4.322   2.826   9.037  1.00  0.00     0.127 S 
ATOM     84  O   UNL     1      -3.442   2.764  10.200  1.00  0.00    -0.237 OA
ATOM     85  O   UNL     1      -5.626   2.186   9.214  1.00  0.00    -0.237 OA
ATOM     86  O   UNL     1      -3.693   2.556   7.751  1.00  0.00    -0.744 OA
ENDBRANCH  80  83
ENDBRANCH  52  76
BRANCH  64  87
ATOM     87  C   UNL     1      -1.206  12.734   7.957  1.00  0.00     0.023 A 
ATOM     88  C   UNL     1      -0.070  12.288   8.660  1.00  0.00     0.012 A 
ATOM     89  C   UNL     1      -1.740  14.007   8.241  1.00  0.00     0.148 A 
ATOM     90  C   UNL     1       0.504  13.081   9.654  1.00  0.00     0.002 A 
ATOM     91  C   UNL     1      -1.131  14.813   9.194  1.00  0.00     0.091 A 
ATOM     92  F   UNL     1      -2.832  14.406   7.572  1.00  0.00    -0.205 F 
ATOM     93  C   UNL     1      -0.018  14.346   9.912  1.00  0.00     0.022 A 
BRANCH  91  94
ATOM     94  S   UNL     1      -1.671  16.494   9.522  1.00  0.00     0.127 S 
ATOM     95  O   UNL     1      -2.255  16.365  10.856  1.00  0.00    -0.237 OA
ATOM     96  O   UNL     1      -0.411  17.238   9.477  1.00  0.00    -0.237 OA
ATOM     97  O   UNL     1      -2.610  16.831   8.460  1.00  0.00    -0.744 OA
ENDBRANCH  91  94
ENDBRANCH  64  87
ENDBRANCH  38  39
ENDBRANCH  30  33
ENDBRANCH  28  29
ENDBRANCH  27  28
ENDBRANCH   1  27
TORSDOF 19
