REMARK SMILES NS(=O)(=O)c1ccc(-n2ccnc2-c2ccc(O)c(C(=O)NCCCCCCNC(=O)c3ccc(-c4c5nc(c(-c6cccc(S(=O)(=O)[O-])c6F)c6ccc([nH]6)c(-c6cccc(S(=O)(=O)[O-])c6F)c6nc(c(-c7cccc(S(=O)(=O)[O-])c7F)c7ccc4[nH]7)C=C6)C=C5)cc3)c2)cc1
REMARK SMILES IDX 25 1 24 2 23 3 22 4 20 5 21 6 19 8 14 9 15 10 95 11 16 12
REMARK SMILES IDX 17 13 13 14 9 15 10 16 11 17 12 18 8 19 5 20 6 21 97 22 7 23
REMARK SMILES IDX 96 24 2 25 3 26 4 27 1 28 18 31 26 33 27 34 28 35 29 36
REMARK SMILES IDX 30 37 31 39 32 40 33 41 94 42 34 43 93 44 35 45 36 46 37 47
REMARK SMILES IDX 87 48 38 49 92 50 86 51 88 52 39 53 91 54 85 55 84 56 40 58
REMARK SMILES IDX 72 59 52 60 71 61 53 62 56 63 70 64 89 65 54 66 55 67 69 69
REMARK SMILES IDX 90 70 57 71 41 72 42 73 50 74 43 75 45 76 51 77 44 78 46 79
REMARK SMILES IDX 47 80 48 81 49 82 73 83 74 84 82 85 75 86 77 87 83 88 76 89
REMARK SMILES IDX 78 90 79 91 80 92 81 93 58 94 59 95 67 96 60 97 62 98 68 99
REMARK SMILES IDX 61 100 63 101 64 102 65 103 66 104
REMARK H PARENT 22 7 1 29 1 30 18 32 29 38 88 57 56 68
REMARK Flexibility Score: inf
ROOT
ATOM      1  C   UNL     1      -0.177   0.798  -6.136  1.00  0.00     0.002 C 
ENDROOT
BRANCH   1   2
ATOM      2  C   UNL     1       0.094  -0.665  -6.479  1.00  0.00     0.021 C 
BRANCH   2   3
ATOM      3  C   UNL     1      -0.328  -1.722  -5.466  1.00  0.00     0.116 C 
BRANCH   3   4
ATOM      4  N   UNL     1      -1.752  -1.784  -5.167  1.00  0.00    -0.352 N 
ATOM      5  C   UNL     1      -2.582  -2.855  -4.890  1.00  0.00     0.255 C 
ATOM      6  O   UNL     1      -3.779  -2.630  -4.689  1.00  0.00    -0.269 OA
ATOM      7  H   UNL     1      -2.204  -0.909  -5.162  1.00  0.00     0.163 HD
BRANCH   5   8
ATOM      8  C   UNL     1      -2.128  -4.278  -4.862  1.00  0.00     0.082 A 
ATOM      9  C   UNL     1      -0.311  -5.929  -4.753  1.00  0.00     0.019 A 
ATOM     10  C   UNL     1      -1.221  -6.937  -5.075  1.00  0.00     0.016 A 
ATOM     11  C   UNL     1      -0.804  -4.622  -4.602  1.00  0.00     0.029 A 
ATOM     12  C   UNL     1      -2.583  -6.641  -5.210  1.00  0.00     0.048 A 
ATOM     13  C   UNL     1      -3.030  -5.321  -5.106  1.00  0.00     0.128 A 
BRANCH   9  14
ATOM     14  C   UNL     1       1.145  -6.183  -4.744  1.00  0.00     0.144 A 
ATOM     15  N   UNL     1       2.110  -5.416  -4.081  1.00  0.00    -0.300 N 
ATOM     16  C   UNL     1       3.287  -5.589  -4.769  1.00  0.00     0.113 A 
ATOM     17  C   UNL     1       3.044  -6.612  -5.654  1.00  0.00     0.132 A 
ATOM     18  N   UNL     1       1.743  -7.030  -5.565  1.00  0.00    -0.236 NA
BRANCH  15  19
ATOM     19  C   UNL     1       1.905  -4.556  -2.970  1.00  0.00     0.047 A 
ATOM     20  C   UNL     1       1.205  -2.757  -0.966  1.00  0.00     0.082 A 
ATOM     21  C   UNL     1       0.649  -4.040  -0.966  1.00  0.00     0.024 A 
ATOM     22  C   UNL     1       2.136  -2.381  -1.941  1.00  0.00     0.024 A 
ATOM     23  C   UNL     1       1.000  -4.941  -1.968  1.00  0.00     0.028 A 
ATOM     24  C   UNL     1       2.505  -3.291  -2.938  1.00  0.00     0.028 A 
BRANCH  20  25
ATOM     25  S   UNL     1       0.671  -1.640   0.294  1.00  0.00     0.238 S 
ATOM     26  O   UNL     1       1.302  -2.007   1.530  1.00  0.00    -0.207 OA
ATOM     27  O   UNL     1      -0.764  -1.465   0.169  1.00  0.00    -0.207 OA
BRANCH  25  28
ATOM     28  N   UNL     1       1.327  -0.153  -0.134  1.00  0.00    -0.225 NA
ATOM     29  H   UNL     1       1.058   0.548   0.555  1.00  0.00     0.137 HD
ATOM     30  H   UNL     1       0.977   0.120  -1.052  1.00  0.00     0.137 HD
ENDBRANCH  25  28
ENDBRANCH  20  25
ENDBRANCH  15  19
ENDBRANCH   9  14
BRANCH  13  31
ATOM     31  O   UNL     1      -4.378  -5.121  -5.260  1.00  0.00    -0.507 OA
ATOM     32  H   UNL     1      -4.944  -5.849  -5.422  1.00  0.00     0.293 HD
ENDBRANCH  13  31
ENDBRANCH   5   8
ENDBRANCH   3   4
ENDBRANCH   2   3
ENDBRANCH   1   2
BRANCH   1  33
ATOM     33  C   UNL     1       0.261   1.320  -4.760  1.00  0.00     0.002 C 
BRANCH  33  34
ATOM     34  C   UNL     1       1.705   1.075  -4.300  1.00  0.00     0.021 C 
BRANCH  34  35
ATOM     35  C   UNL     1       2.784   1.612  -5.223  1.00  0.00     0.116 C 
BRANCH  35  36
ATOM     36  N   UNL     1       2.795   3.075  -5.362  1.00  0.00    -0.352 N 
ATOM     37  C   UNL     1       3.614   3.851  -6.177  1.00  0.00     0.251 C 
ATOM     38  H   UNL     1       2.143   3.566  -4.811  1.00  0.00     0.163 HD
ATOM     39  O   UNL     1       3.776   5.046  -5.960  1.00  0.00    -0.269 OA
BRANCH  37  40
ATOM     40  C   UNL     1       4.275   3.195  -7.319  1.00  0.00     0.039 A 
ATOM     41  C   UNL     1       5.584   3.468  -7.729  1.00  0.00     0.014 A 
ATOM     42  C   UNL     1       3.537   2.208  -7.948  1.00  0.00     0.014 A 
ATOM     43  C   UNL     1       6.145   2.670  -8.728  1.00  0.00     0.010 A 
ATOM     44  C   UNL     1       4.185   1.251  -8.664  1.00  0.00     0.010 A 
ATOM     45  C   UNL     1       5.431   1.551  -9.181  1.00  0.00    -0.014 A 
BRANCH  45  46
ATOM     46  C   UNL     1       5.909   0.662 -10.225  1.00  0.00     0.031 A 
ATOM     47  C   UNL     1       7.228   0.035  -9.998  1.00  0.00     0.074 A 
ATOM     48  C   UNL     1       5.109   0.264 -11.240  1.00  0.00     0.049 A 
ATOM     49  N   UNL     1       8.340   0.342 -10.576  1.00  0.00    -0.248 NA
ATOM     50  C   UNL     1       7.360  -0.963  -8.930  1.00  0.00     0.031 C 
ATOM     51  C   UNL     1       3.674   0.530 -11.456  1.00  0.00     0.029 A 
ATOM     52  N   UNL     1       5.398  -0.599 -12.244  1.00  0.00    -0.354 N 
ATOM     53  C   UNL     1       9.269  -0.588 -10.122  1.00  0.00     0.074 A 
ATOM     54  C   UNL     1       8.670  -1.223  -8.975  1.00  0.00     0.031 C 
ATOM     55  C   UNL     1       3.179  -0.350 -12.352  1.00  0.00     0.029 A 
ATOM     56  C   UNL     1       4.289  -1.081 -12.922  1.00  0.00     0.049 A 
ATOM     57  H   UNL     1       6.319  -0.862 -12.473  1.00  0.00     0.167 HD
ATOM     58  C   UNL     1      10.355  -0.926 -10.872  1.00  0.00     0.034 A 
ATOM     59  C   UNL     1       4.288  -2.035 -13.879  1.00  0.00     0.034 A 
ATOM     60  C   UNL     1      10.509  -0.048 -12.007  1.00  0.00     0.049 A 
ATOM     61  C   UNL     1       5.650  -2.048 -14.462  1.00  0.00     0.074 A 
ATOM     62  C   UNL     1      10.692   1.310 -12.179  1.00  0.00     0.029 A 
ATOM     63  N   UNL     1      10.070  -0.522 -13.221  1.00  0.00    -0.354 N 
ATOM     64  N   UNL     1       6.155  -1.033 -15.109  1.00  0.00    -0.248 NA
ATOM     65  C   UNL     1       6.616  -2.997 -13.936  1.00  0.00     0.031 C 
ATOM     66  C   UNL     1       9.894   1.644 -13.314  1.00  0.00     0.029 A 
ATOM     67  C   UNL     1       9.318   0.467 -13.799  1.00  0.00     0.049 A 
ATOM     68  H   UNL     1      10.261  -1.409 -13.604  1.00  0.00     0.167 HD
ATOM     69  C   UNL     1       7.476  -0.969 -14.682  1.00  0.00     0.074 A 
ATOM     70  C   UNL     1       7.730  -2.269 -14.060  1.00  0.00     0.031 C 
ATOM     71  C   UNL     1       8.144   0.222 -14.613  1.00  0.00     0.034 A 
BRANCH  58  72
ATOM     72  C   UNL     1      11.091  -2.241 -10.810  1.00  0.00     0.023 A 
ATOM     73  C   UNL     1      12.335  -2.317 -11.476  1.00  0.00     0.012 A 
ATOM     74  C   UNL     1      10.522  -3.456 -10.369  1.00  0.00     0.148 A 
ATOM     75  C   UNL     1      12.958  -3.543 -11.731  1.00  0.00     0.002 A 
ATOM     76  C   UNL     1      11.184  -4.665 -10.555  1.00  0.00     0.091 A 
ATOM     77  F   UNL     1       9.275  -3.475  -9.889  1.00  0.00    -0.205 F 
ATOM     78  C   UNL     1      12.386  -4.719 -11.263  1.00  0.00     0.022 A 
BRANCH  76  79
ATOM     79  S   UNL     1      10.511  -6.206  -9.923  1.00  0.00     0.127 S 
ATOM     80  O   UNL     1       9.970  -6.808 -11.137  1.00  0.00    -0.237 OA
ATOM     81  O   UNL     1      11.705  -6.859  -9.384  1.00  0.00    -0.237 OA
ATOM     82  O   UNL     1       9.541  -5.813  -8.908  1.00  0.00    -0.744 OA
ENDBRANCH  76  79
ENDBRANCH  58  72
BRANCH  59  83
ATOM     83  C   UNL     1       3.290  -3.099 -14.101  1.00  0.00     0.023 A 
ATOM     84  C   UNL     1       3.203  -3.736 -15.351  1.00  0.00     0.012 A 
ATOM     85  C   UNL     1       2.607  -3.674 -13.004  1.00  0.00     0.148 A 
ATOM     86  C   UNL     1       2.484  -4.928 -15.499  1.00  0.00     0.002 A 
ATOM     87  C   UNL     1       1.891  -4.856 -13.157  1.00  0.00     0.091 A 
ATOM     88  F   UNL     1       2.736  -3.109 -11.796  1.00  0.00    -0.205 F 
ATOM     89  C   UNL     1       1.837  -5.493 -14.402  1.00  0.00     0.022 A 
BRANCH  87  90
ATOM     90  S   UNL     1       1.060  -5.655 -11.777  1.00  0.00     0.127 S 
ATOM     91  O   UNL     1      -0.272  -5.899 -12.331  1.00  0.00    -0.237 OA
ATOM     92  O   UNL     1       1.878  -6.850 -11.589  1.00  0.00    -0.237 OA
ATOM     93  O   UNL     1       1.088  -4.688 -10.685  1.00  0.00    -0.744 OA
ENDBRANCH  87  90
ENDBRANCH  59  83
BRANCH  71  94
ATOM     94  C   UNL     1       7.468   1.448 -15.191  1.00  0.00     0.023 A 
ATOM     95  C   UNL     1       6.276   1.968 -14.640  1.00  0.00     0.012 A 
ATOM     96  C   UNL     1       8.129   2.193 -16.180  1.00  0.00     0.148 A 
ATOM     97  C   UNL     1       5.744   3.184 -15.076  1.00  0.00     0.002 A 
ATOM     98  C   UNL     1       7.619   3.423 -16.586  1.00  0.00     0.091 A 
ATOM     99  F   UNL     1       9.271   1.702 -16.684  1.00  0.00    -0.205 F 
ATOM    100  C   UNL     1       6.422   3.918 -16.043  1.00  0.00     0.022 A 
BRANCH  98 101
ATOM    101  S   UNL     1       8.495   4.481 -17.740  1.00  0.00     0.127 S 
ATOM    102  O   UNL     1       7.656   4.393 -18.933  1.00  0.00    -0.237 OA
ATOM    103  O   UNL     1       8.460   5.779 -17.063  1.00  0.00    -0.237 OA
ATOM    104  O   UNL     1       9.831   3.914 -17.873  1.00  0.00    -0.744 OA
ENDBRANCH  98 101
ENDBRANCH  71  94
ENDBRANCH  45  46
ENDBRANCH  37  40
ENDBRANCH  35  36
ENDBRANCH  34  35
ENDBRANCH  33  34
ENDBRANCH   1  33
TORSDOF 21
