REMARK SMILES Cc1ccc(S(=O)(=O)n2cc(C(=O)C(=O)NCC(=O)NCCCCCCNC(=O)c3ccc(-c4c5nc(c(-c6cccc(S(=O)(=O)[O-])c6F)c6ccc([nH]6)c(-c6cccc(S(=O)(=O)[O-])c6F)c6nc(c(-c7cccc(S(=O)(=O)[O-])c7F)c7ccc4[nH]7)C=C6)C=C5)cc3)c3ccccc32)cc1
REMARK SMILES IDX 22 1 21 2 20 3 18 4 19 5 17 7 16 8 14 9 15 10 12 12 13 13
REMARK SMILES IDX 11 14 9 15 10 16 98 17 93 18 97 19 94 20 96 21 95 22 6 23
REMARK SMILES IDX 7 24 8 25 5 26 1 27 2 28 3 29 100 30 4 31 99 32 23 33 24 34
REMARK SMILES IDX 25 35 26 36 27 37 28 38 29 40 30 41 31 42 92 43 32 44 91 45
REMARK SMILES IDX 33 46 34 47 35 48 85 49 36 50 90 51 84 52 86 53 37 54 89 55
REMARK SMILES IDX 83 56 82 57 38 59 70 60 50 61 69 62 51 63 54 64 68 65 87 66
REMARK SMILES IDX 52 67 53 68 67 70 88 71 55 72 39 73 40 74 48 75 41 76 43 77
REMARK SMILES IDX 49 78 42 79 44 80 45 81 46 82 47 83 71 84 72 85 80 86 73 87
REMARK SMILES IDX 75 88 81 89 74 90 76 91 77 92 78 93 79 94 56 95 57 96 65 97
REMARK SMILES IDX 58 98 60 99 66 100 59 101 61 102 62 103 63 104 64 105
REMARK H PARENT 20 6 16 11 27 39 86 58 54 69
REMARK Flexibility Score: inf
ROOT
ATOM      1  C   UNL     1     -10.119   3.589   1.311  1.00  0.00     0.021 C 
ENDROOT
BRANCH   1   2
ATOM      2  C   UNL     1      -9.397   4.910   1.062  1.00  0.00     0.116 C 
BRANCH   2   3
ATOM      3  N   UNL     1      -9.873   5.946   1.949  1.00  0.00    -0.355 N 
ATOM      4  C   UNL     1      -9.204   6.628   2.919  1.00  0.00     0.239 C 
ATOM      5  O   UNL     1      -9.791   7.550   3.490  1.00  0.00    -0.273 OA
ATOM      6  H   UNL     1     -10.819   6.195   1.837  1.00  0.00     0.163 HD
BRANCH   4   7
ATOM      7  C   UNL     1      -7.715   6.365   3.166  1.00  0.00     0.216 C 
BRANCH   7   8
ATOM      8  N   UNL     1      -7.373   4.976   3.459  1.00  0.00    -0.340 N 
ATOM      9  C   UNL     1      -6.467   4.116   2.872  1.00  0.00     0.292 C 
ATOM     10  O   UNL     1      -6.310   3.009   3.373  1.00  0.00    -0.265 OA
ATOM     11  H   UNL     1      -7.879   4.584   4.208  1.00  0.00     0.164 HD
BRANCH   9  12
ATOM     12  C   UNL     1      -5.679   4.519   1.595  1.00  0.00     0.252 C 
ATOM     13  O   UNL     1      -5.588   5.713   1.322  1.00  0.00    -0.283 OA
BRANCH  12  14
ATOM     14  C   UNL     1      -5.051   3.518   0.714  1.00  0.00     0.054 A 
ATOM     15  N   UNL     1      -4.169   1.623  -0.086  1.00  0.00    -0.240 N 
ATOM     16  C   UNL     1      -4.850   2.173   0.973  1.00  0.00     0.117 A 
ATOM     17  C   UNL     1      -3.938   2.559  -1.069  1.00  0.00     0.065 A 
ATOM     18  C   UNL     1      -4.483   3.760  -0.593  1.00  0.00     0.012 A 
ATOM     19  C   UNL     1      -3.277   2.482  -2.311  1.00  0.00     0.028 A 
ATOM     20  C   UNL     1      -4.374   4.910  -1.408  1.00  0.00     0.011 A 
ATOM     21  C   UNL     1      -3.163   3.643  -3.076  1.00  0.00     0.002 A 
ATOM     22  C   UNL     1      -3.710   4.842  -2.637  1.00  0.00     0.001 A 
BRANCH  15  23
ATOM     23  S   UNL     1      -3.595   0.016  -0.100  1.00  0.00     0.268 S 
ATOM     24  O   UNL     1      -3.935  -0.477  -1.429  1.00  0.00    -0.201 OA
ATOM     25  O   UNL     1      -4.090  -0.582   1.112  1.00  0.00    -0.201 OA
BRANCH  23  26
ATOM     26  C   UNL     1      -1.823   0.069   0.012  1.00  0.00     0.088 A 
ATOM     27  C   UNL     1       2.479  -0.054   0.021  1.00  0.00     0.044 C 
ATOM     28  C   UNL     1       0.980  -0.005   0.038  1.00  0.00    -0.051 A 
ATOM     29  C   UNL     1       0.242  -1.192  -0.036  1.00  0.00     0.005 A 
ATOM     30  C   UNL     1       0.300   1.216   0.131  1.00  0.00     0.005 A 
ATOM     31  C   UNL     1      -1.153  -1.158  -0.054  1.00  0.00     0.022 A 
ATOM     32  C   UNL     1      -1.098   1.256   0.131  1.00  0.00     0.022 A 
ENDBRANCH  23  26
ENDBRANCH  15  23
ENDBRANCH  12  14
ENDBRANCH   9  12
ENDBRANCH   7   8
ENDBRANCH   4   7
ENDBRANCH   2   3
ENDBRANCH   1   2
BRANCH   1  33
ATOM     33  C   UNL     1     -11.598   3.603   0.900  1.00  0.00     0.002 C 
BRANCH  33  34
ATOM     34  C   UNL     1     -11.882   4.099  -0.525  1.00  0.00     0.002 C 
BRANCH  34  35
ATOM     35  C   UNL     1     -10.987   3.510  -1.612  1.00  0.00     0.021 C 
BRANCH  35  36
ATOM     36  C   UNL     1     -11.155   2.016  -1.811  1.00  0.00     0.116 C 
BRANCH  36  37
ATOM     37  N   UNL     1     -12.224   1.725  -2.743  1.00  0.00    -0.352 N 
ATOM     38  C   UNL     1     -12.386   0.641  -3.583  1.00  0.00     0.251 C 
ATOM     39  H   UNL     1     -12.940   2.400  -2.785  1.00  0.00     0.163 HD
ATOM     40  O   UNL     1     -13.114   0.767  -4.564  1.00  0.00    -0.269 OA
BRANCH  38  41
ATOM     41  C   UNL     1     -11.887  -0.696  -3.162  1.00  0.00     0.039 A 
ATOM     42  C   UNL     1     -12.861  -1.702  -3.201  1.00  0.00     0.014 A 
ATOM     43  C   UNL     1     -10.805  -0.812  -2.297  1.00  0.00     0.014 A 
ATOM     44  C   UNL     1     -12.976  -2.566  -2.126  1.00  0.00     0.010 A 
ATOM     45  C   UNL     1     -10.973  -1.582  -1.178  1.00  0.00     0.010 A 
ATOM     46  C   UNL     1     -12.120  -2.371  -1.058  1.00  0.00    -0.014 A 
BRANCH  46  47
ATOM     47  C   UNL     1     -12.237  -3.017   0.225  1.00  0.00     0.031 A 
ATOM     48  C   UNL     1     -11.543  -4.300   0.381  1.00  0.00     0.074 A 
ATOM     49  C   UNL     1     -12.675  -2.263   1.256  1.00  0.00     0.049 A 
ATOM     50  N   UNL     1     -11.565  -5.011   1.447  1.00  0.00    -0.248 NA
ATOM     51  C   UNL     1     -10.762  -4.897  -0.700  1.00  0.00     0.031 C 
ATOM     52  C   UNL     1     -12.343  -2.393   2.668  1.00  0.00     0.029 A 
ATOM     53  N   UNL     1     -13.571  -1.209   1.264  1.00  0.00    -0.354 N 
ATOM     54  C   UNL     1     -10.571  -5.958   1.320  1.00  0.00     0.074 A 
ATOM     55  C   UNL     1     -10.203  -5.933  -0.071  1.00  0.00     0.031 C 
ATOM     56  C   UNL     1     -13.206  -1.656   3.393  1.00  0.00     0.029 A 
ATOM     57  C   UNL     1     -14.246  -1.208   2.484  1.00  0.00     0.049 A 
ATOM     58  H   UNL     1     -13.708  -0.566   0.531  1.00  0.00     0.167 HD
ATOM     59  C   UNL     1     -10.079  -6.511   2.463  1.00  0.00     0.034 A 
ATOM     60  C   UNL     1     -15.559  -1.602   2.581  1.00  0.00     0.034 A 
ATOM     61  C   UNL     1     -10.923  -6.106   3.605  1.00  0.00     0.049 A 
ATOM     62  C   UNL     1     -15.737  -2.907   3.357  1.00  0.00     0.074 A 
ATOM     63  C   UNL     1     -10.800  -5.118   4.569  1.00  0.00     0.029 A 
ATOM     64  N   UNL     1     -12.259  -6.502   3.625  1.00  0.00    -0.354 N 
ATOM     65  N   UNL     1     -14.761  -3.709   3.694  1.00  0.00    -0.248 NA
ATOM     66  C   UNL     1     -17.027  -3.395   3.837  1.00  0.00     0.031 C 
ATOM     67  C   UNL     1     -12.101  -4.851   5.090  1.00  0.00     0.029 A 
ATOM     68  C   UNL     1     -13.008  -5.702   4.477  1.00  0.00     0.049 A 
ATOM     69  H   UNL     1     -12.624  -7.252   3.102  1.00  0.00     0.167 HD
ATOM     70  C   UNL     1     -15.249  -4.832   4.308  1.00  0.00     0.074 A 
ATOM     71  C   UNL     1     -16.670  -4.542   4.444  1.00  0.00     0.031 C 
ATOM     72  C   UNL     1     -14.453  -5.912   4.607  1.00  0.00     0.034 A 
BRANCH  59  73
ATOM     73  C   UNL     1      -8.718  -7.179   2.624  1.00  0.00     0.023 A 
ATOM     74  C   UNL     1      -8.272  -7.381   3.951  1.00  0.00     0.012 A 
ATOM     75  C   UNL     1      -7.800  -7.558   1.610  1.00  0.00     0.148 A 
ATOM     76  C   UNL     1      -6.995  -7.866   4.257  1.00  0.00     0.002 A 
ATOM     77  C   UNL     1      -6.521  -8.040   1.913  1.00  0.00     0.091 A 
ATOM     78  F   UNL     1      -8.141  -7.477   0.327  1.00  0.00    -0.205 F 
ATOM     79  C   UNL     1      -6.112  -8.186   3.238  1.00  0.00     0.022 A 
BRANCH  77  80
ATOM     80  S   UNL     1      -5.311  -8.482   0.645  1.00  0.00     0.127 S 
ATOM     81  O   UNL     1      -4.186  -7.604   0.973  1.00  0.00    -0.237 OA
ATOM     82  O   UNL     1      -5.074  -9.898   0.921  1.00  0.00    -0.237 OA
ATOM     83  O   UNL     1      -5.934  -8.204  -0.643  1.00  0.00    -0.744 OA
ENDBRANCH  77  80
ENDBRANCH  59  73
BRANCH  60  84
ATOM     84  C   UNL     1     -16.368  -1.178   1.391  1.00  0.00     0.023 A 
ATOM     85  C   UNL     1     -16.437   0.216   1.145  1.00  0.00     0.012 A 
ATOM     86  C   UNL     1     -16.610  -2.065   0.328  1.00  0.00     0.148 A 
ATOM     87  C   UNL     1     -16.508   0.707  -0.160  1.00  0.00     0.002 A 
ATOM     88  C   UNL     1     -16.696  -1.566  -0.972  1.00  0.00     0.091 A 
ATOM     89  F   UNL     1     -16.690  -3.376   0.588  1.00  0.00    -0.205 F 
ATOM     90  C   UNL     1     -16.580  -0.188  -1.222  1.00  0.00     0.022 A 
BRANCH  88  91
ATOM     91  S   UNL     1     -16.826  -2.668  -2.387  1.00  0.00     0.127 S 
ATOM     92  O   UNL     1     -18.271  -2.730  -2.581  1.00  0.00    -0.237 OA
ATOM     93  O   UNL     1     -16.103  -1.941  -3.430  1.00  0.00    -0.237 OA
ATOM     94  O   UNL     1     -16.180  -3.902  -1.964  1.00  0.00    -0.744 OA
ENDBRANCH  88  91
ENDBRANCH  60  84
BRANCH  72  95
ATOM     95  C   UNL     1     -14.953  -7.284   5.053  1.00  0.00     0.023 A 
ATOM     96  C   UNL     1     -16.298  -7.679   4.929  1.00  0.00     0.012 A 
ATOM     97  C   UNL     1     -14.050  -8.287   5.504  1.00  0.00     0.148 A 
ATOM     98  C   UNL     1     -16.744  -8.951   5.307  1.00  0.00     0.002 A 
ATOM     99  C   UNL     1     -14.475  -9.592   5.745  1.00  0.00     0.091 A 
ATOM    100  F   UNL     1     -12.766  -7.984   5.738  1.00  0.00    -0.205 F 
ATOM    101  C   UNL     1     -15.829  -9.917   5.692  1.00  0.00     0.022 A 
BRANCH  99 102
ATOM    102  S   UNL     1     -13.302 -10.937   5.974  1.00  0.00     0.127 S 
ATOM    103  O   UNL     1     -13.307 -11.097   7.426  1.00  0.00    -0.237 OA
ATOM    104  O   UNL     1     -13.940 -12.031   5.238  1.00  0.00    -0.237 OA
ATOM    105  O   UNL     1     -12.056 -10.469   5.383  1.00  0.00    -0.744 OA
ENDBRANCH  99 102
ENDBRANCH  72  95
ENDBRANCH  46  47
ENDBRANCH  38  41
ENDBRANCH  36  37
ENDBRANCH  35  36
ENDBRANCH  34  35
ENDBRANCH  33  34
ENDBRANCH   1  33
TORSDOF 21
