REMARK SMILES O=C(NCCCCCCNC(=O)c1ccc(N2C(=O)/C(=C\c3ccc4c(c3)OCO4)[NH+]=C2c2ccccc2)cc1)c1ccc(-c2c3nc(c(-c4cccc(S(=O)(=O)[O-])c4F)c4ccc([nH]4)c(-c4cccc(S(=O)(=O)[O-])c4F)c4nc(c(-c5cccc(S(=O)(=O)[O-])c5F)c5ccc2[nH]5)C=C4)C=C3)cc1
REMARK SMILES IDX 6 1 5 2 4 3 3 4 1 5 2 6 41 8 42 9 103 10 43 11 102 12 44 13
REMARK SMILES IDX 45 14 46 15 96 16 47 17 101 18 95 19 97 20 48 21 100 22
REMARK SMILES IDX 94 23 93 24 49 26 81 27 61 28 80 29 62 30 65 31 79 32 98 33
REMARK SMILES IDX 63 34 64 35 78 37 99 38 66 39 50 40 51 41 59 42 52 43 54 44
REMARK SMILES IDX 60 45 53 46 55 47 56 48 57 49 58 50 82 51 83 52 91 53 84 54
REMARK SMILES IDX 86 55 92 56 85 57 87 58 88 59 89 60 90 61 67 62 68 63 76 64
REMARK SMILES IDX 69 65 71 66 77 67 70 68 72 69 73 70 74 71 75 72 7 73 8 74
REMARK SMILES IDX 9 75 10 76 11 77 12 79 13 80 14 81 40 82 15 83 39 84 16 85
REMARK SMILES IDX 17 86 18 87 32 88 19 89 20 90 31 91 21 92 33 94 34 95 38 96
REMARK SMILES IDX 35 97 37 98 36 99 22 100 23 101 27 102 24 103 26 104 25 105
REMARK SMILES IDX 28 106 30 107 29 108
REMARK H PARENT 3 7 97 25 65 36 10 78 31 93
REMARK Flexibility Score: inf
ROOT
ATOM      1  C   UNL     1       4.353   3.816   0.940  1.00  0.00     0.002 C 
ENDROOT
BRANCH   1   2
ATOM      2  C   UNL     1       4.818   2.726  -0.026  1.00  0.00     0.021 C 
BRANCH   2   3
ATOM      3  C   UNL     1       4.543   1.302   0.437  1.00  0.00     0.116 C 
BRANCH   3   4
ATOM      4  N   UNL     1       3.123   1.010   0.514  1.00  0.00    -0.352 N 
ATOM      5  O   UNL     1       1.205  -0.038  -0.034  1.00  0.00    -0.269 OA
ATOM      6  C   UNL     1       2.432  -0.041  -0.041  1.00  0.00     0.251 C 
ATOM      7  H   UNL     1       2.583   1.649   1.034  1.00  0.00     0.163 HD
BRANCH   6   8
ATOM      8  C   UNL     1       3.180  -1.158  -0.660  1.00  0.00     0.039 A 
ATOM      9  C   UNL     1       4.287  -1.714  -0.011  1.00  0.00     0.014 A 
ATOM     10  C   UNL     1       2.761  -1.664  -1.893  1.00  0.00     0.014 A 
ATOM     11  C   UNL     1       5.039  -2.696  -0.644  1.00  0.00     0.010 A 
ATOM     12  C   UNL     1       3.472  -2.709  -2.491  1.00  0.00     0.010 A 
ATOM     13  C   UNL     1       4.623  -3.226  -1.876  1.00  0.00    -0.014 A 
BRANCH  13  14
ATOM     14  C   UNL     1       5.325  -4.412  -2.427  1.00  0.00     0.031 A 
ATOM     15  C   UNL     1       6.072  -4.358  -3.729  1.00  0.00     0.074 A 
ATOM     16  C   UNL     1       5.252  -5.565  -1.731  1.00  0.00     0.049 A 
ATOM     17  N   UNL     1       6.738  -5.311  -4.328  1.00  0.00    -0.248 NA
ATOM     18  C   UNL     1       6.070  -3.080  -4.460  1.00  0.00     0.031 C 
ATOM     19  C   UNL     1       4.503  -5.746  -0.483  1.00  0.00     0.029 A 
ATOM     20  N   UNL     1       5.795  -6.801  -1.971  1.00  0.00    -0.354 N 
ATOM     21  C   UNL     1       7.200  -4.769  -5.520  1.00  0.00     0.074 A 
ATOM     22  C   UNL     1       6.744  -3.395  -5.560  1.00  0.00     0.031 C 
ATOM     23  C   UNL     1       4.640  -7.011  -0.064  1.00  0.00     0.029 A 
ATOM     24  C   UNL     1       5.438  -7.746  -1.037  1.00  0.00     0.049 A 
ATOM     25  H   UNL     1       6.383  -6.993  -2.737  1.00  0.00     0.167 HD
ATOM     26  C   UNL     1       7.943  -5.363  -6.485  1.00  0.00     0.034 A 
ATOM     27  C   UNL     1       5.695  -9.066  -0.982  1.00  0.00     0.034 A 
ATOM     28  C   UNL     1       8.421  -6.720  -6.417  1.00  0.00     0.049 A 
ATOM     29  C   UNL     1       6.537  -9.683  -2.060  1.00  0.00     0.074 A 
ATOM     30  C   UNL     1       9.265  -7.376  -7.296  1.00  0.00     0.029 A 
ATOM     31  N   UNL     1       8.083  -7.634  -5.432  1.00  0.00    -0.354 N 
ATOM     32  N   UNL     1       7.110  -9.107  -3.088  1.00  0.00    -0.248 NA
ATOM     33  C   UNL     1       6.790 -11.127  -1.959  1.00  0.00     0.031 C 
ATOM     34  C   UNL     1       9.411  -8.697  -6.861  1.00  0.00     0.029 A 
ATOM     35  C   UNL     1       8.678  -8.856  -5.696  1.00  0.00     0.049 A 
ATOM     36  H   UNL     1       7.504  -7.443  -4.659  1.00  0.00     0.167 HD
ATOM     37  C   UNL     1       7.802 -10.113  -3.749  1.00  0.00     0.074 A 
ATOM     38  C   UNL     1       7.611 -11.326  -2.981  1.00  0.00     0.031 C 
ATOM     39  C   UNL     1       8.512 -10.045  -4.901  1.00  0.00     0.034 A 
BRANCH  26  40
ATOM     40  C   UNL     1       8.329  -4.554  -7.696  1.00  0.00     0.023 A 
ATOM     41  C   UNL     1       9.360  -3.599  -7.595  1.00  0.00     0.012 A 
ATOM     42  C   UNL     1       7.762  -4.833  -8.956  1.00  0.00     0.148 A 
ATOM     43  C   UNL     1       9.815  -2.926  -8.729  1.00  0.00     0.002 A 
ATOM     44  C   UNL     1       8.247  -4.185 -10.087  1.00  0.00     0.091 A 
ATOM     45  F   UNL     1       6.773  -5.734  -9.025  1.00  0.00    -0.205 F 
ATOM     46  C   UNL     1       9.269  -3.228  -9.974  1.00  0.00     0.022 A 
BRANCH  44  47
ATOM     47  S   UNL     1       7.665  -4.555 -11.746  1.00  0.00     0.127 S 
ATOM     48  O   UNL     1       6.998  -3.306 -12.109  1.00  0.00    -0.237 OA
ATOM     49  O   UNL     1       8.917  -4.807 -12.460  1.00  0.00    -0.237 OA
ATOM     50  O   UNL     1       6.790  -5.712 -11.619  1.00  0.00    -0.744 OA
ENDBRANCH  44  47
ENDBRANCH  26  40
BRANCH  27  51
ATOM     51  C   UNL     1       5.157  -9.883   0.141  1.00  0.00     0.023 A 
ATOM     52  C   UNL     1       6.040 -10.435   1.087  1.00  0.00     0.012 A 
ATOM     53  C   UNL     1       3.772 -10.092   0.289  1.00  0.00     0.148 A 
ATOM     54  C   UNL     1       5.556 -11.209   2.143  1.00  0.00     0.002 A 
ATOM     55  C   UNL     1       3.292 -10.809   1.378  1.00  0.00     0.091 A 
ATOM     56  F   UNL     1       2.946  -9.576  -0.633  1.00  0.00    -0.205 F 
ATOM     57  C   UNL     1       4.183 -11.385   2.295  1.00  0.00     0.022 A 
BRANCH  55  58
ATOM     58  S   UNL     1       1.534 -10.945   1.719  1.00  0.00     0.127 S 
ATOM     59  O   UNL     1       1.234 -12.283   1.217  1.00  0.00    -0.237 OA
ATOM     60  O   UNL     1       1.491 -10.809   3.176  1.00  0.00    -0.237 OA
ATOM     61  O   UNL     1       0.919  -9.837   1.001  1.00  0.00    -0.744 OA
ENDBRANCH  55  58
ENDBRANCH  27  51
BRANCH  39  62
ATOM     62  C   UNL     1       9.141 -11.319  -5.398  1.00  0.00     0.023 A 
ATOM     63  C   UNL     1       8.325 -12.327  -5.950  1.00  0.00     0.012 A 
ATOM     64  C   UNL     1      10.537 -11.495  -5.370  1.00  0.00     0.148 A 
ATOM     65  C   UNL     1       8.887 -13.506  -6.434  1.00  0.00     0.002 A 
ATOM     66  C   UNL     1      11.094 -12.653  -5.900  1.00  0.00     0.091 A 
ATOM     67  F   UNL     1      11.293 -10.532  -4.824  1.00  0.00    -0.205 F 
ATOM     68  C   UNL     1      10.271 -13.664  -6.420  1.00  0.00     0.022 A 
BRANCH  66  69
ATOM     69  S   UNL     1      12.869 -12.905  -6.007  1.00  0.00     0.127 S 
ATOM     70  O   UNL     1      13.088 -13.922  -4.980  1.00  0.00    -0.237 OA
ATOM     71  O   UNL     1      13.034 -13.379  -7.381  1.00  0.00    -0.237 OA
ATOM     72  O   UNL     1      13.476 -11.607  -5.740  1.00  0.00    -0.744 OA
ENDBRANCH  66  69
ENDBRANCH  39  62
ENDBRANCH  13  14
ENDBRANCH   6   8
ENDBRANCH   3   4
ENDBRANCH   2   3
ENDBRANCH   1   2
BRANCH   1  73
ATOM     73  C   UNL     1       4.917   3.717   2.361  1.00  0.00     0.002 C 
BRANCH  73  74
ATOM     74  C   UNL     1       6.445   3.636   2.461  1.00  0.00     0.021 C 
BRANCH  74  75
ATOM     75  C   UNL     1       7.199   4.773   1.773  1.00  0.00     0.116 C 
BRANCH  75  76
ATOM     76  N   UNL     1       6.885   6.065   2.363  1.00  0.00    -0.352 N 
ATOM     77  C   UNL     1       7.741   6.996   2.893  1.00  0.00     0.251 C 
ATOM     78  H   UNL     1       5.930   6.303   2.385  1.00  0.00     0.163 HD
ATOM     79  O   UNL     1       7.320   7.967   3.510  1.00  0.00    -0.269 OA
BRANCH  77  80
ATOM     80  C   UNL     1       9.193   6.805   2.726  1.00  0.00     0.040 A 
ATOM     81  C   UNL     1       9.994   6.674   3.859  1.00  0.00     0.018 A 
ATOM     82  C   UNL     1       9.755   6.758   1.449  1.00  0.00     0.018 A 
ATOM     83  C   UNL     1      11.358   6.407   3.711  1.00  0.00     0.053 A 
ATOM     84  C   UNL     1      11.123   6.518   1.308  1.00  0.00     0.053 A 
ATOM     85  C   UNL     1      11.931   6.298   2.434  1.00  0.00     0.136 A 
BRANCH  85  86
ATOM     86  N   UNL     1      13.300   5.988   2.272  1.00  0.00    -0.154 N 
ATOM     87  C   UNL     1      14.112   6.613   1.360  1.00  0.00     0.385 C 
ATOM     88  C   UNL     1      14.078   5.099   2.969  1.00  0.00     0.295 C 
ATOM     89  O   UNL     1      13.833   7.436   0.504  1.00  0.00    -0.236 OA
ATOM     90  C   UNL     1      15.469   6.060   1.694  1.00  0.00     0.216 C 
ATOM     91  N   UNL     1      15.346   5.100   2.673  1.00  0.00    -0.233 N 
ATOM     92  C   UNL     1      16.644   6.472   1.198  1.00  0.00     0.068 C 
ATOM     93  H   UNL     1      16.057   4.540   3.061  1.00  0.00     0.312 HD
BRANCH  88  94
ATOM     94  C   UNL     1      13.522   4.132   3.930  1.00  0.00     0.065 A 
ATOM     95  C   UNL     1      14.100   4.029   5.198  1.00  0.00     0.017 A 
ATOM     96  C   UNL     1      12.486   3.272   3.548  1.00  0.00     0.017 A 
ATOM     97  C   UNL     1      13.616   3.082   6.099  1.00  0.00     0.001 A 
ATOM     98  C   UNL     1      12.010   2.324   4.452  1.00  0.00     0.001 A 
ATOM     99  C   UNL     1      12.573   2.231   5.726  1.00  0.00     0.000 A 
ENDBRANCH  88  94
BRANCH  92 100
ATOM    100  C   UNL     1      16.751   7.658   0.350  1.00  0.00    -0.017 A 
ATOM    101  C   UNL     1      16.832   7.551  -1.052  1.00  0.00     0.012 A 
ATOM    102  C   UNL     1      16.603   8.912   0.962  1.00  0.00     0.059 A 
ATOM    103  C   UNL     1      16.702   8.691  -1.855  1.00  0.00     0.051 A 
ATOM    104  C   UNL     1      16.433  10.003   0.146  1.00  0.00     0.166 A 
ATOM    105  C   UNL     1      16.468   9.896  -1.225  1.00  0.00     0.165 A 
ATOM    106  O   UNL     1      16.144  11.265   0.564  1.00  0.00    -0.454 OA
ATOM    107  O   UNL     1      16.199  11.083  -1.835  1.00  0.00    -0.454 OA
ATOM    108  C   UNL     1      15.790  11.869  -0.696  1.00  0.00     0.468 C 
ENDBRANCH  92 100
ENDBRANCH  85  86
ENDBRANCH  77  80
ENDBRANCH  75  76
ENDBRANCH  74  75
ENDBRANCH  73  74
ENDBRANCH   1  73
TORSDOF 19
