REMARK SMILES O=C(NCCCCCCNC(=O)c1ccccc1Nc1nc(Cl)nc(Nc2ccc(N3CCOCC3=O)cc2)n1)c1ccc(-c2c3nc(c(-c4cccc(S(=O)(=O)[O-])c4F)c4ccc([nH]4)c(-c4cccc(S(=O)(=O)[O-])c4F)c4nc(c(-c5cccc(S(=O)(=O)[O-])c5F)c5ccc2[nH]5)C=C4)C=C3)cc1
REMARK SMILES IDX 7 1 6 2 5 3 4 4 3 5 1 6 2 7 41 9 42 10 103 11 43 12 102 13
REMARK SMILES IDX 44 14 45 15 46 16 96 17 47 18 101 19 95 20 97 21 48 22
REMARK SMILES IDX 100 23 94 24 93 25 49 27 81 28 61 29 80 30 62 31 65 32 79 33
REMARK SMILES IDX 98 34 63 35 64 36 78 38 99 39 66 40 50 41 51 42 59 43 52 44
REMARK SMILES IDX 54 45 60 46 53 47 55 48 56 49 57 50 58 51 82 52 83 53 91 54
REMARK SMILES IDX 84 55 86 56 92 57 85 58 87 59 88 60 89 61 90 62 67 63 68 64
REMARK SMILES IDX 76 65 69 66 71 67 77 68 70 69 72 70 73 71 74 72 75 73 8 74
REMARK SMILES IDX 9 75 10 76 11 77 12 79 13 80 14 81 18 82 15 83 17 84 16 85
REMARK SMILES IDX 19 86 20 88 21 89 40 90 22 91 25 92 23 93 24 94 26 95 27 97
REMARK SMILES IDX 28 98 39 99 29 100 38 101 30 102 31 103 32 104 36 105 33 106
REMARK SMILES IDX 35 107 37 108 34 109
REMARK H PARENT 3 8 97 26 65 37 10 78 19 87 26 96
REMARK Flexibility Score: inf
ROOT
ATOM      1  C   UNL     1       4.830  -3.617   2.402  1.00  0.00     0.002 C 
ENDROOT
BRANCH   1   2
ATOM      2  C   UNL     1       4.356  -2.296   3.016  1.00  0.00     0.002 C 
BRANCH   2   3
ATOM      3  C   UNL     1       4.841  -1.030   2.309  1.00  0.00     0.021 C 
BRANCH   3   4
ATOM      4  C   UNL     1       4.548  -0.975   0.814  1.00  0.00     0.116 C 
BRANCH   4   5
ATOM      5  N   UNL     1       3.124  -1.022   0.528  1.00  0.00    -0.352 N 
ATOM      6  O   UNL     1       1.122  -0.239  -0.137  1.00  0.00    -0.269 OA
ATOM      7  C   UNL     1       2.345  -0.125  -0.158  1.00  0.00     0.251 C 
ATOM      8  H   UNL     1       2.650  -1.811   0.877  1.00  0.00     0.163 HD
BRANCH   7   9
ATOM      9  C   UNL     1       2.981   0.986  -0.898  1.00  0.00     0.039 A 
ATOM     10  C   UNL     1       4.093   0.757  -1.715  1.00  0.00     0.014 A 
ATOM     11  C   UNL     1       2.449   2.271  -0.778  1.00  0.00     0.014 A 
ATOM     12  C   UNL     1       4.749   1.831  -2.311  1.00  0.00     0.010 A 
ATOM     13  C   UNL     1       3.063   3.336  -1.438  1.00  0.00     0.010 A 
ATOM     14  C   UNL     1       4.234   3.130  -2.186  1.00  0.00    -0.014 A 
BRANCH  14  15
ATOM     15  C   UNL     1       4.885   4.267  -2.883  1.00  0.00     0.031 A 
ATOM     16  C   UNL     1       5.473   5.409  -2.105  1.00  0.00     0.074 A 
ATOM     17  C   UNL     1       4.885   4.293  -4.229  1.00  0.00     0.049 A 
ATOM     18  N   UNL     1       5.989   6.527  -2.546  1.00  0.00    -0.248 NA
ATOM     19  C   UNL     1       5.471   5.285  -0.639  1.00  0.00     0.031 C 
ATOM     20  C   UNL     1       4.318   3.253  -5.090  1.00  0.00     0.029 A 
ATOM     21  N   UNL     1       5.344   5.241  -5.108  1.00  0.00    -0.354 N 
ATOM     22  C   UNL     1       6.326   7.263  -1.416  1.00  0.00     0.074 A 
ATOM     23  C   UNL     1       5.954   6.463  -0.268  1.00  0.00     0.031 C 
ATOM     24  C   UNL     1       4.447   3.626  -6.372  1.00  0.00     0.029 A 
ATOM     25  C   UNL     1       5.051   4.953  -6.420  1.00  0.00     0.049 A 
ATOM     26  H   UNL     1       5.833   6.048  -4.827  1.00  0.00     0.167 HD
ATOM     27  C   UNL     1       6.898   8.489  -1.344  1.00  0.00     0.034 A 
ATOM     28  C   UNL     1       5.208   5.689  -7.537  1.00  0.00     0.034 A 
ATOM     29  C   UNL     1       7.275   9.269  -2.494  1.00  0.00     0.049 A 
ATOM     30  C   UNL     1       5.838   7.047  -7.434  1.00  0.00     0.074 A 
ATOM     31  C   UNL     1       7.921  10.492  -2.529  1.00  0.00     0.029 A 
ATOM     32  N   UNL     1       7.021   8.914  -3.810  1.00  0.00    -0.354 N 
ATOM     33  N   UNL     1       6.258   7.679  -6.366  1.00  0.00    -0.248 NA
ATOM     34  C   UNL     1       6.044   7.783  -8.689  1.00  0.00     0.031 C 
ATOM     35  C   UNL     1       8.019  10.896  -3.864  1.00  0.00     0.029 A 
ATOM     36  C   UNL     1       7.480   9.901  -4.665  1.00  0.00     0.049 A 
ATOM     37  H   UNL     1       6.578   8.082  -4.095  1.00  0.00     0.167 HD
ATOM     38  C   UNL     1       6.817   8.867  -6.820  1.00  0.00     0.074 A 
ATOM     39  C   UNL     1       6.683   8.865  -8.263  1.00  0.00     0.031 C 
ATOM     40  C   UNL     1       7.388   9.866  -6.104  1.00  0.00     0.034 A 
BRANCH  27  41
ATOM     41  C   UNL     1       7.151   9.065   0.027  1.00  0.00     0.023 A 
ATOM     42  C   UNL     1       8.138   8.499   0.860  1.00  0.00     0.012 A 
ATOM     43  C   UNL     1       6.434  10.191   0.479  1.00  0.00     0.148 A 
ATOM     44  C   UNL     1       8.372   9.011   2.136  1.00  0.00     0.002 A 
ATOM     45  C   UNL     1       6.707  10.727   1.732  1.00  0.00     0.091 A 
ATOM     46  F   UNL     1       5.485  10.707  -0.315  1.00  0.00    -0.205 F 
ATOM     47  C   UNL     1       7.663  10.128   2.569  1.00  0.00     0.022 A 
BRANCH  45  48
ATOM     48  S   UNL     1       5.909  12.219   2.337  1.00  0.00     0.127 S 
ATOM     49  O   UNL     1       4.977  11.677   3.324  1.00  0.00    -0.237 OA
ATOM     50  O   UNL     1       7.034  12.963   2.905  1.00  0.00    -0.237 OA
ATOM     51  O   UNL     1       5.299  12.844   1.172  1.00  0.00    -0.744 OA
ENDBRANCH  45  48
ENDBRANCH  27  41
BRANCH  28  52
ATOM     52  C   UNL     1       4.777   5.124  -8.845  1.00  0.00     0.023 A 
ATOM     53  C   UNL     1       5.747   4.714  -9.778  1.00  0.00     0.012 A 
ATOM     54  C   UNL     1       3.412   4.918  -9.132  1.00  0.00     0.148 A 
ATOM     55  C   UNL     1       5.365   4.125 -10.984  1.00  0.00     0.002 A 
ATOM     56  C   UNL     1       3.042   4.280 -10.308  1.00  0.00     0.091 A 
ATOM     57  F   UNL     1       2.508   5.318  -8.227  1.00  0.00    -0.205 F 
ATOM     58  C   UNL     1       4.016   3.897 -11.243  1.00  0.00     0.022 A 
BRANCH  56  59
ATOM     59  S   UNL     1       1.343   3.820 -10.667  1.00  0.00     0.127 S 
ATOM     60  O   UNL     1       1.054   4.638 -11.841  1.00  0.00    -0.237 OA
ATOM     61  O   UNL     1       1.474   2.386 -10.931  1.00  0.00    -0.237 OA
ATOM     62  O   UNL     1       0.581   4.148  -9.470  1.00  0.00    -0.744 OA
ENDBRANCH  56  59
ENDBRANCH  28  52
BRANCH  40  63
ATOM     63  C   UNL     1       7.981  11.026  -6.860  1.00  0.00     0.023 A 
ATOM     64  C   UNL     1       7.144  11.989  -7.456  1.00  0.00     0.012 A 
ATOM     65  C   UNL     1       9.378  11.212  -6.881  1.00  0.00     0.148 A 
ATOM     66  C   UNL     1       7.691  13.111  -8.078  1.00  0.00     0.002 A 
ATOM     67  C   UNL     1       9.912  12.358  -7.456  1.00  0.00     0.091 A 
ATOM     68  F   UNL     1      10.155  10.272  -6.325  1.00  0.00    -0.205 F 
ATOM     69  C   UNL     1       9.071  13.303  -8.065  1.00  0.00     0.022 A 
BRANCH  67  70
ATOM     70  S   UNL     1      11.666  12.739  -7.394  1.00  0.00     0.127 S 
ATOM     71  O   UNL     1      12.046  12.621  -8.801  1.00  0.00    -0.237 OA
ATOM     72  O   UNL     1      11.665  14.107  -6.875  1.00  0.00    -0.237 OA
ATOM     73  O   UNL     1      12.265  11.753  -6.505  1.00  0.00    -0.744 OA
ENDBRANCH  67  70
ENDBRANCH  40  63
ENDBRANCH  14  15
ENDBRANCH   7   9
ENDBRANCH   4   5
ENDBRANCH   3   4
ENDBRANCH   2   3
ENDBRANCH   1   2
BRANCH   1  74
ATOM     74  C   UNL     1       6.346  -3.764   2.235  1.00  0.00     0.021 C 
BRANCH  74  75
ATOM     75  C   UNL     1       7.163  -3.573   3.510  1.00  0.00     0.116 C 
BRANCH  75  76
ATOM     76  N   UNL     1       6.829  -4.553   4.532  1.00  0.00    -0.352 N 
ATOM     77  C   UNL     1       7.668  -5.311   5.308  1.00  0.00     0.253 C 
ATOM     78  H   UNL     1       5.867  -4.692   4.688  1.00  0.00     0.163 HD
ATOM     79  O   UNL     1       7.209  -6.160   6.068  1.00  0.00    -0.269 OA
BRANCH  77  80
ATOM     80  C   UNL     1       9.134  -5.133   5.221  1.00  0.00     0.063 A 
ATOM     81  C   UNL     1       9.885  -6.273   4.896  1.00  0.00     0.016 A 
ATOM     82  C   UNL     1       9.763  -3.900   5.478  1.00  0.00     0.054 A 
ATOM     83  C   UNL     1      11.270  -6.186   4.767  1.00  0.00     0.001 A 
ATOM     84  C   UNL     1      11.155  -3.831   5.292  1.00  0.00     0.027 A 
ATOM     85  C   UNL     1      11.902  -4.961   4.951  1.00  0.00     0.002 A 
BRANCH  82  86
ATOM     86  N   UNL     1       9.039  -2.769   5.888  1.00  0.00    -0.323 N 
ATOM     87  H   UNL     1       8.181  -2.960   6.333  1.00  0.00     0.170 HD
BRANCH  86  88
ATOM     88  C   UNL     1       9.352  -1.422   5.760  1.00  0.00     0.233 A 
ATOM     89  N   UNL     1      10.004  -1.002   4.689  1.00  0.00    -0.182 NA
ATOM     90  N   UNL     1       8.973  -0.634   6.760  1.00  0.00    -0.176 NA
ATOM     91  C   UNL     1      10.243   0.297   4.687  1.00  0.00     0.228 A 
ATOM     92  C   UNL     1       9.343   0.641   6.683  1.00  0.00     0.233 A 
ATOM     93  Cl  UNL     1      11.095   0.901   3.336  1.00  0.00    -0.041 Cl
ATOM     94  N   UNL     1       9.961   1.166   5.638  1.00  0.00    -0.182 NA
BRANCH  92  95
ATOM     95  N   UNL     1       9.172   1.387   7.845  1.00  0.00    -0.324 N 
ATOM     96  H   UNL     1       8.723   0.923   8.589  1.00  0.00     0.170 HD
BRANCH  95  97
ATOM     97  C   UNL     1       9.555   2.706   8.094  1.00  0.00     0.041 A 
ATOM     98  C   UNL     1      10.387   2.995   9.181  1.00  0.00     0.028 A 
ATOM     99  C   UNL     1       9.212   3.741   7.222  1.00  0.00     0.028 A 
ATOM    100  C   UNL     1      10.878   4.290   9.384  1.00  0.00     0.028 A 
ATOM    101  C   UNL     1       9.648   5.046   7.457  1.00  0.00     0.028 A 
ATOM    102  C   UNL     1      10.496   5.329   8.531  1.00  0.00     0.044 A 
BRANCH 102 103
ATOM    103  N   UNL     1      10.997   6.647   8.718  1.00  0.00    -0.308 N 
ATOM    104  C   UNL     1      12.453   6.811   8.731  1.00  0.00     0.154 C 
ATOM    105  C   UNL     1      10.153   7.752   8.556  1.00  0.00     0.253 C 
ATOM    106  C   UNL     1      12.890   8.200   9.176  1.00  0.00     0.183 C 
ATOM    107  C   UNL     1      10.842   9.127   8.559  1.00  0.00     0.260 C 
ATOM    108  O   UNL     1       8.923   7.678   8.516  1.00  0.00    -0.272 OA
ATOM    109  O   UNL     1      12.248   9.178   8.367  1.00  0.00    -0.370 OA
ENDBRANCH 102 103
ENDBRANCH  95  97
ENDBRANCH  92  95
ENDBRANCH  86  88
ENDBRANCH  82  86
ENDBRANCH  77  80
ENDBRANCH  75  76
ENDBRANCH  74  75
ENDBRANCH   1  74
TORSDOF 21
