REMARK SMILES Cc1c(C(=O)NCCCCCCNC(=O)c2ccc(-c3c4nc(c(-c5cccc(S(=O)(=O)[O-])c5F)c5ccc([nH]5)c(-c5cccc(S(=O)(=O)[O-])c5F)c5nc(c(-c6cccc(S(=O)(=O)[O-])c6F)c6ccc3[nH]6)C=C5)C=C4)cc2)cnc2nc(CO)nn12
REMARK SMILES IDX 10 1 9 2 8 3 7 4 6 5 4 6 5 7 3 9 1 10 2 11 87 12 79 13 81 14
REMARK SMILES IDX 86 15 80 16 82 17 83 18 84 19 85 20 11 22 12 23 13 24 14 25
REMARK SMILES IDX 15 27 16 28 17 29 78 30 18 31 77 32 19 33 20 34 21 35 71 36
REMARK SMILES IDX 22 37 76 38 70 39 72 40 23 41 75 42 69 43 68 44 24 46 56 47
REMARK SMILES IDX 36 48 55 49 37 50 40 51 54 52 73 53 38 54 39 55 53 57 74 58
REMARK SMILES IDX 41 59 25 60 26 61 34 62 27 63 29 64 35 65 28 66 30 67 31 68
REMARK SMILES IDX 32 69 33 70 57 71 58 72 66 73 59 74 61 75 67 76 60 77 62 78
REMARK SMILES IDX 63 79 64 80 65 81 42 82 43 83 51 84 44 85 46 86 52 87 45 88
REMARK SMILES IDX 47 89 48 90 49 91 50 92
REMARK H PARENT 6 8 85 21 13 26 72 45 40 56
REMARK Flexibility Score: inf
ROOT
ATOM      1  C   UNL     1      -4.308   0.408   5.918  1.00  0.00     0.002 C 
ENDROOT
BRANCH   1   2
ATOM      2  C   UNL     1      -4.550   0.582   4.410  1.00  0.00     0.002 C 
BRANCH   2   3
ATOM      3  C   UNL     1      -3.709   1.680   3.739  1.00  0.00     0.021 C 
BRANCH   3   4
ATOM      4  C   UNL     1      -2.202   1.494   3.944  1.00  0.00     0.116 C 
BRANCH   4   5
ATOM      5  N   UNL     1      -1.723   0.431   3.079  1.00  0.00    -0.352 N 
ATOM      6  C   UNL     1      -1.078   0.391   1.886  1.00  0.00     0.254 C 
ATOM      7  O   UNL     1      -1.005  -0.721   1.361  1.00  0.00    -0.269 OA
ATOM      8  H   UNL     1      -1.909  -0.466   3.441  1.00  0.00     0.163 HD
BRANCH   6   9
ATOM      9  C   UNL     1      -0.439   1.587   1.258  1.00  0.00     0.079 A 
ATOM     10  C   UNL     1       1.222   0.202  -0.118  1.00  0.00     0.068 C 
ATOM     11  C   UNL     1       0.596   1.480   0.382  1.00  0.00     0.057 A 
ATOM     12  N   UNL     1       1.183   2.657  -0.119  1.00  0.00    -0.200 N 
ATOM     13  C   UNL     1      -0.906   2.995   1.461  1.00  0.00     0.131 A 
ATOM     14  C   UNL     1       0.757   3.928   0.280  1.00  0.00     0.252 A 
ATOM     15  N   UNL     1       2.209   2.791  -1.001  1.00  0.00    -0.147 NA
ATOM     16  N   UNL     1      -0.334   4.092   1.070  1.00  0.00    -0.219 NA
ATOM     17  N   UNL     1       1.512   4.841  -0.288  1.00  0.00    -0.191 NA
ATOM     18  C   UNL     1       2.327   4.119  -1.109  1.00  0.00     0.178 A 
BRANCH  18  19
ATOM     19  C   UNL     1       3.285   4.780  -2.046  1.00  0.00     0.235 C 
BRANCH  19  20
ATOM     20  O   UNL     1       4.658   4.492  -1.754  1.00  0.00    -0.388 OA
ATOM     21  H   UNL     1       4.878   4.825  -0.871  1.00  0.00     0.211 HD
ENDBRANCH  19  20
ENDBRANCH  18  19
ENDBRANCH   6   9
ENDBRANCH   4   5
ENDBRANCH   3   4
ENDBRANCH   2   3
ENDBRANCH   1   2
BRANCH   1  22
ATOM     22  C   UNL     1      -4.384   1.697   6.751  1.00  0.00     0.021 C 
BRANCH  22  23
ATOM     23  C   UNL     1      -5.788   2.274   6.804  1.00  0.00     0.116 C 
BRANCH  23  24
ATOM     24  N   UNL     1      -6.681   1.400   7.556  1.00  0.00    -0.352 N 
ATOM     25  C   UNL     1      -7.993   1.612   7.910  1.00  0.00     0.251 C 
ATOM     26  H   UNL     1      -6.293   0.544   7.849  1.00  0.00     0.163 HD
ATOM     27  O   UNL     1      -8.490   0.982   8.833  1.00  0.00    -0.269 OA
BRANCH  25  28
ATOM     28  C   UNL     1      -8.790   2.588   7.149  1.00  0.00     0.039 A 
ATOM     29  C   UNL     1      -9.764   3.354   7.796  1.00  0.00     0.014 A 
ATOM     30  C   UNL     1      -8.599   2.688   5.769  1.00  0.00     0.014 A 
ATOM     31  C   UNL     1     -10.524   4.238   7.042  1.00  0.00     0.010 A 
ATOM     32  C   UNL     1      -9.259   3.648   5.046  1.00  0.00     0.010 A 
ATOM     33  C   UNL     1     -10.262   4.371   5.670  1.00  0.00    -0.014 A 
BRANCH  33  34
ATOM     34  C   UNL     1     -10.993   5.337   4.876  1.00  0.00     0.031 A 
ATOM     35  C   UNL     1     -10.800   6.739   5.313  1.00  0.00     0.074 A 
ATOM     36  C   UNL     1     -11.669   5.012   3.757  1.00  0.00     0.049 A 
ATOM     37  N   UNL     1     -11.616   7.444   6.022  1.00  0.00    -0.248 NA
ATOM     38  C   UNL     1      -9.491   7.369   5.095  1.00  0.00     0.031 C 
ATOM     39  C   UNL     1     -11.700   3.737   3.031  1.00  0.00     0.029 A 
ATOM     40  N   UNL     1     -12.418   5.823   2.971  1.00  0.00    -0.354 N 
ATOM     41  C   UNL     1     -11.030   8.700   6.117  1.00  0.00     0.074 A 
ATOM     42  C   UNL     1      -9.654   8.537   5.722  1.00  0.00     0.031 C 
ATOM     43  C   UNL     1     -12.252   3.928   1.809  1.00  0.00     0.029 A 
ATOM     44  C   UNL     1     -12.765   5.283   1.738  1.00  0.00     0.049 A 
ATOM     45  H   UNL     1     -12.696   6.725   3.251  1.00  0.00     0.167 HD
ATOM     46  C   UNL     1     -11.791   9.820   6.255  1.00  0.00     0.034 A 
ATOM     47  C   UNL     1     -13.406   5.939   0.741  1.00  0.00     0.034 A 
ATOM     48  C   UNL     1     -13.154   9.500   6.593  1.00  0.00     0.049 A 
ATOM     49  C   UNL     1     -14.145   7.050   1.390  1.00  0.00     0.074 A 
ATOM     50  C   UNL     1     -13.769   8.828   7.631  1.00  0.00     0.029 A 
ATOM     51  N   UNL     1     -14.063   9.514   5.561  1.00  0.00    -0.354 N 
ATOM     52  N   UNL     1     -15.119   6.866   2.237  1.00  0.00    -0.248 NA
ATOM     53  C   UNL     1     -13.511   8.357   1.433  1.00  0.00     0.031 C 
ATOM     54  C   UNL     1     -14.799   8.061   7.008  1.00  0.00     0.029 A 
ATOM     55  C   UNL     1     -14.798   8.361   5.644  1.00  0.00     0.049 A 
ATOM     56  H   UNL     1     -14.166  10.223   4.885  1.00  0.00     0.167 HD
ATOM     57  C   UNL     1     -14.925   7.842   3.205  1.00  0.00     0.074 A 
ATOM     58  C   UNL     1     -13.987   8.790   2.604  1.00  0.00     0.031 C 
ATOM     59  C   UNL     1     -15.314   7.644   4.498  1.00  0.00     0.034 A 
BRANCH  46  60
ATOM     60  C   UNL     1     -11.410  11.175   5.722  1.00  0.00     0.023 A 
ATOM     61  C   UNL     1     -12.141  12.292   6.178  1.00  0.00     0.012 A 
ATOM     62  C   UNL     1     -10.556  11.369   4.613  1.00  0.00     0.148 A 
ATOM     63  C   UNL     1     -12.039  13.537   5.548  1.00  0.00     0.002 A 
ATOM     64  C   UNL     1     -10.399  12.624   4.040  1.00  0.00     0.091 A 
ATOM     65  F   UNL     1      -9.996  10.313   4.012  1.00  0.00    -0.205 F 
ATOM     66  C   UNL     1     -11.156  13.707   4.488  1.00  0.00     0.022 A 
BRANCH  64  67
ATOM     67  S   UNL     1      -9.249  12.899   2.688  1.00  0.00     0.127 S 
ATOM     68  O   UNL     1     -10.160  13.038   1.556  1.00  0.00    -0.237 OA
ATOM     69  O   UNL     1      -8.584  14.132   3.107  1.00  0.00    -0.237 OA
ATOM     70  O   UNL     1      -8.381  11.728   2.675  1.00  0.00    -0.744 OA
ENDBRANCH  64  67
ENDBRANCH  46  60
BRANCH  47  71
ATOM     71  C   UNL     1     -13.231   5.876  -0.731  1.00  0.00     0.023 A 
ATOM     72  C   UNL     1     -14.183   6.511  -1.558  1.00  0.00     0.012 A 
ATOM     73  C   UNL     1     -12.000   5.496  -1.310  1.00  0.00     0.148 A 
ATOM     74  C   UNL     1     -13.893   6.824  -2.892  1.00  0.00     0.002 A 
ATOM     75  C   UNL     1     -11.719   5.803  -2.640  1.00  0.00     0.091 A 
ATOM     76  F   UNL     1     -11.070   4.924  -0.534  1.00  0.00    -0.205 F 
ATOM     77  C   UNL     1     -12.655   6.485  -3.428  1.00  0.00     0.022 A 
BRANCH  75  78
ATOM     78  S   UNL     1     -10.138   5.410  -3.404  1.00  0.00     0.127 S 
ATOM     79  O   UNL     1     -10.554   4.814  -4.674  1.00  0.00    -0.237 OA
ATOM     80  O   UNL     1      -9.520   6.728  -3.519  1.00  0.00    -0.237 OA
ATOM     81  O   UNL     1      -9.479   4.480  -2.495  1.00  0.00    -0.744 OA
ENDBRANCH  75  78
ENDBRANCH  47  71
BRANCH  59  82
ATOM     82  C   UNL     1     -16.159   6.432   4.806  1.00  0.00     0.023 A 
ATOM     83  C   UNL     1     -15.638   5.121   4.768  1.00  0.00     0.012 A 
ATOM     84  C   UNL     1     -17.438   6.641   5.345  1.00  0.00     0.148 A 
ATOM     85  C   UNL     1     -16.378   4.042   5.263  1.00  0.00     0.002 A 
ATOM     86  C   UNL     1     -18.156   5.573   5.868  1.00  0.00     0.091 A 
ATOM     87  F   UNL     1     -17.906   7.898   5.383  1.00  0.00    -0.205 F 
ATOM     88  C   UNL     1     -17.631   4.271   5.827  1.00  0.00     0.022 A 
BRANCH  86  89
ATOM     89  S   UNL     1     -19.726   5.807   6.704  1.00  0.00     0.127 S 
ATOM     90  O   UNL     1     -20.652   5.105   5.816  1.00  0.00    -0.237 OA
ATOM     91  O   UNL     1     -19.493   5.149   7.990  1.00  0.00    -0.237 OA
ATOM     92  O   UNL     1     -19.929   7.248   6.795  1.00  0.00    -0.744 OA
ENDBRANCH  86  89
ENDBRANCH  59  82
ENDBRANCH  33  34
ENDBRANCH  25  28
ENDBRANCH  23  24
ENDBRANCH  22  23
ENDBRANCH   1  22
TORSDOF 18
