REMARK SMILES O=C(Cn1cc(C(=O)C(F)(F)F)c2ccccc21)NCCCCCCNC(=O)c1ccc(-c2c3nc(c(-c4cccc(S(=O)(=O)[O-])c4F)c4ccc([nH]4)c(-c4cccc(S(=O)(=O)[O-])c4F)c4nc(c(-c5cccc(S(=O)(=O)[O-])c5F)c5ccc2[nH]5)C=C4)C=C3)cc1
REMARK SMILES IDX 22 1 21 2 20 3 19 4 1 5 2 6 3 8 4 9 5 10 18 11 6 12 13 13
REMARK SMILES IDX 17 14 14 15 16 16 15 17 7 18 8 19 9 20 10 21 11 22 12 23
REMARK SMILES IDX 23 24 24 25 25 26 26 27 27 28 28 30 29 31 30 32 91 33 31 34
REMARK SMILES IDX 90 35 32 36 33 37 34 38 84 39 35 40 89 41 83 42 85 43 36 44
REMARK SMILES IDX 88 45 82 46 81 47 37 49 69 50 49 51 68 52 50 53 53 54 67 55
REMARK SMILES IDX 86 56 51 57 52 58 66 60 87 61 54 62 38 63 39 64 47 65 40 66
REMARK SMILES IDX 42 67 48 68 41 69 43 70 44 71 45 72 46 73 70 74 71 75 79 76
REMARK SMILES IDX 72 77 74 78 80 79 73 80 75 81 76 82 77 83 78 84 55 85 56 86
REMARK SMILES IDX 64 87 57 88 59 89 65 90 58 91 60 92 61 93 62 94 63 95
REMARK H PARENT 19 7 26 29 85 48 53 59
REMARK Flexibility Score: inf
ROOT
ATOM      1  C   UNL     1       4.072  -3.538   1.494  1.00  0.00     0.002 C 
ENDROOT
BRANCH   1   2
ATOM      2  C   UNL     1       2.567  -3.341   1.245  1.00  0.00     0.021 C 
BRANCH   2   3
ATOM      3  C   UNL     1       2.019  -1.960   1.617  1.00  0.00     0.116 C 
BRANCH   3   4
ATOM      4  N   UNL     1       2.751  -0.911   0.937  1.00  0.00    -0.355 N 
ATOM      5  O   UNL     1       1.015   0.034  -0.223  1.00  0.00    -0.273 OA
ATOM      6  C   UNL     1       2.215  -0.022   0.034  1.00  0.00     0.239 C 
ATOM      7  H   UNL     1       3.711  -0.828   1.138  1.00  0.00     0.163 HD
BRANCH   6   8
ATOM      8  C   UNL     1       3.234   0.810  -0.734  1.00  0.00     0.222 C 
BRANCH   8   9
ATOM      9  N   UNL     1       3.973   1.761   0.087  1.00  0.00    -0.337 N 
ATOM     10  C   UNL     1       3.701   3.107   0.143  1.00  0.00     0.099 A 
ATOM     11  C   UNL     1       5.069   1.473   0.877  1.00  0.00     0.049 A 
ATOM     12  C   UNL     1       4.552   3.695   1.065  1.00  0.00     0.053 A 
ATOM     13  C   UNL     1       5.362   2.637   1.597  1.00  0.00     0.011 A 
ATOM     14  C   UNL     1       5.812   0.292   1.049  1.00  0.00     0.027 A 
ATOM     15  C   UNL     1       6.351   2.571   2.602  1.00  0.00     0.011 A 
ATOM     16  C   UNL     1       6.762   0.247   2.070  1.00  0.00     0.002 A 
ATOM     17  C   UNL     1       7.016   1.366   2.852  1.00  0.00     0.001 A 
BRANCH  12  18
ATOM     18  C   UNL     1       4.620   5.124   1.409  1.00  0.00     0.268 C 
ATOM     19  O   UNL     1       5.404   5.525   2.275  1.00  0.00    -0.284 OA
BRANCH  18  20
ATOM     20  C   UNL     1       3.731   6.091   0.630  1.00  0.00     0.454 C 
ATOM     21  F   UNL     1       3.974   6.057  -0.715  1.00  0.00    -0.163 F 
ATOM     22  F   UNL     1       2.401   5.824   0.776  1.00  0.00    -0.163 F 
ATOM     23  F   UNL     1       3.895   7.394   1.000  1.00  0.00    -0.163 F 
ENDBRANCH  18  20
ENDBRANCH  12  18
ENDBRANCH   8   9
ENDBRANCH   6   8
ENDBRANCH   3   4
ENDBRANCH   2   3
ENDBRANCH   1   2
BRANCH   1  24
ATOM     24  C   UNL     1       4.524  -3.436   2.954  1.00  0.00     0.002 C 
BRANCH  24  25
ATOM     25  C   UNL     1       3.872  -4.439   3.916  1.00  0.00     0.021 C 
BRANCH  25  26
ATOM     26  C   UNL     1       3.956  -5.898   3.464  1.00  0.00     0.116 C 
BRANCH  26  27
ATOM     27  N   UNL     1       5.311  -6.391   3.332  1.00  0.00    -0.352 N 
ATOM     28  C   UNL     1       6.200  -7.002   4.172  1.00  0.00     0.251 C 
ATOM     29  H   UNL     1       5.676  -6.255   2.428  1.00  0.00     0.163 HD
ATOM     30  O   UNL     1       7.234  -7.420   3.643  1.00  0.00    -0.269 OA
BRANCH  28  31
ATOM     31  C   UNL     1       6.041  -7.126   5.647  1.00  0.00     0.039 A 
ATOM     32  C   UNL     1       4.894  -6.796   6.370  1.00  0.00     0.014 A 
ATOM     33  C   UNL     1       7.181  -7.557   6.354  1.00  0.00     0.014 A 
ATOM     34  C   UNL     1       4.915  -6.789   7.759  1.00  0.00     0.010 A 
ATOM     35  C   UNL     1       7.203  -7.568   7.743  1.00  0.00     0.010 A 
ATOM     36  C   UNL     1       6.082  -7.133   8.441  1.00  0.00    -0.014 A 
BRANCH  36  37
ATOM     37  C   UNL     1       6.044  -7.112   9.898  1.00  0.00     0.031 A 
ATOM     38  C   UNL     1       5.083  -8.075  10.508  1.00  0.00     0.074 A 
ATOM     39  C   UNL     1       6.875  -6.353  10.640  1.00  0.00     0.049 A 
ATOM     40  N   UNL     1       4.046  -7.819  11.240  1.00  0.00    -0.248 NA
ATOM     41  C   UNL     1       5.227  -9.495  10.148  1.00  0.00     0.031 C 
ATOM     42  C   UNL     1       8.031  -5.577  10.182  1.00  0.00     0.029 A 
ATOM     43  N   UNL     1       6.939  -6.226  11.995  1.00  0.00    -0.354 N 
ATOM     44  C   UNL     1       3.529  -9.061  11.605  1.00  0.00     0.074 A 
ATOM     45  C   UNL     1       4.196 -10.044  10.790  1.00  0.00     0.031 C 
ATOM     46  C   UNL     1       8.817  -5.285  11.242  1.00  0.00     0.029 A 
ATOM     47  C   UNL     1       8.158  -5.732  12.456  1.00  0.00     0.049 A 
ATOM     48  H   UNL     1       6.193  -6.461  12.593  1.00  0.00     0.167 HD
ATOM     49  C   UNL     1       2.741  -9.233  12.701  1.00  0.00     0.034 A 
ATOM     50  C   UNL     1       8.612  -5.785  13.733  1.00  0.00     0.034 A 
ATOM     51  C   UNL     1       2.212  -7.998  13.199  1.00  0.00     0.049 A 
ATOM     52  C   UNL     1       7.425  -5.966  14.600  1.00  0.00     0.074 A 
ATOM     53  C   UNL     1       1.365  -7.026  12.709  1.00  0.00     0.029 A 
ATOM     54  N   UNL     1       2.857  -7.438  14.273  1.00  0.00    -0.354 N 
ATOM     55  N   UNL     1       6.487  -5.074  14.747  1.00  0.00    -0.248 NA
ATOM     56  C   UNL     1       7.079  -7.316  15.014  1.00  0.00     0.031 C 
ATOM     57  C   UNL     1       1.884  -5.799  13.214  1.00  0.00     0.029 A 
ATOM     58  C   UNL     1       2.988  -6.100  14.016  1.00  0.00     0.049 A 
ATOM     59  H   UNL     1       3.167  -7.911  15.079  1.00  0.00     0.167 HD
ATOM     60  C   UNL     1       5.319  -5.815  14.849  1.00  0.00     0.074 A 
ATOM     61  C   UNL     1       5.756  -7.182  15.121  1.00  0.00     0.031 C 
ATOM     62  C   UNL     1       4.127  -5.308  14.423  1.00  0.00     0.034 A 
BRANCH  49  63
ATOM     63  C   UNL     1       2.723 -10.491  13.526  1.00  0.00     0.023 A 
ATOM     64  C   UNL     1       1.642 -10.709  14.405  1.00  0.00     0.012 A 
ATOM     65  C   UNL     1       3.850 -11.334  13.659  1.00  0.00     0.148 A 
ATOM     66  C   UNL     1       1.683 -11.722  15.370  1.00  0.00     0.002 A 
ATOM     67  C   UNL     1       3.856 -12.384  14.569  1.00  0.00     0.091 A 
ATOM     68  F   UNL     1       4.973 -11.041  12.994  1.00  0.00    -0.205 F 
ATOM     69  C   UNL     1       2.782 -12.570  15.442  1.00  0.00     0.022 A 
BRANCH  67  70
ATOM     70  S   UNL     1       5.238 -13.526  14.671  1.00  0.00     0.127 S 
ATOM     71  O   UNL     1       5.860 -13.116  15.932  1.00  0.00    -0.237 OA
ATOM     72  O   UNL     1       4.551 -14.820  14.716  1.00  0.00    -0.237 OA
ATOM     73  O   UNL     1       6.017 -13.304  13.469  1.00  0.00    -0.744 OA
ENDBRANCH  67  70
ENDBRANCH  49  63
BRANCH  50  74
ATOM     74  C   UNL     1       9.988  -6.004  14.254  1.00  0.00     0.023 A 
ATOM     75  C   UNL     1      10.227  -5.836  15.636  1.00  0.00     0.012 A 
ATOM     76  C   UNL     1      10.978  -6.663  13.492  1.00  0.00     0.148 A 
ATOM     77  C   UNL     1      11.370  -6.366  16.247  1.00  0.00     0.002 A 
ATOM     78  C   UNL     1      12.121  -7.175  14.102  1.00  0.00     0.091 A 
ATOM     79  F   UNL     1      10.761  -6.883  12.190  1.00  0.00    -0.205 F 
ATOM     80  C   UNL     1      12.311  -7.047  15.483  1.00  0.00     0.022 A 
BRANCH  78  81
ATOM     81  S   UNL     1      13.374  -8.069  13.171  1.00  0.00     0.127 S 
ATOM     82  O   UNL     1      14.615  -7.532  13.731  1.00  0.00    -0.237 OA
ATOM     83  O   UNL     1      13.088  -9.454  13.531  1.00  0.00    -0.237 OA
ATOM     84  O   UNL     1      13.152  -7.715  11.774  1.00  0.00    -0.744 OA
ENDBRANCH  78  81
ENDBRANCH  50  74
BRANCH  62  85
ATOM     85  C   UNL     1       4.062  -3.841  14.089  1.00  0.00     0.023 A 
ATOM     86  C   UNL     1       4.715  -3.299  12.962  1.00  0.00     0.012 A 
ATOM     87  C   UNL     1       3.162  -3.042  14.810  1.00  0.00     0.148 A 
ATOM     88  C   UNL     1       4.473  -1.980  12.565  1.00  0.00     0.002 A 
ATOM     89  C   UNL     1       2.894  -1.746  14.390  1.00  0.00     0.091 A 
ATOM     90  F   UNL     1       2.545  -3.586  15.870  1.00  0.00    -0.205 F 
ATOM     91  C   UNL     1       3.551  -1.209  13.270  1.00  0.00     0.022 A 
BRANCH  89  92
ATOM     92  S   UNL     1       1.637  -0.737  15.177  1.00  0.00     0.127 S 
ATOM     93  O   UNL     1       2.434   0.332  15.777  1.00  0.00    -0.237 OA
ATOM     94  O   UNL     1       0.816  -0.324  14.039  1.00  0.00    -0.237 OA
ATOM     95  O   UNL     1       0.952  -1.607  16.126  1.00  0.00    -0.744 OA
ENDBRANCH  89  92
ENDBRANCH  62  85
ENDBRANCH  36  37
ENDBRANCH  28  31
ENDBRANCH  26  27
ENDBRANCH  25  26
ENDBRANCH  24  25
ENDBRANCH   1  24
TORSDOF 19
