REMARK SMILES C[C@@H]1CC[C@H](C)[N@H+]1Cc1cc2c(cc1Cl)C=C(C(=O)NCCCCCCNC(=O)c1ccc(-c3c4nc(c(-c5cccc(S(=O)(=O)[O-])c5F)c5ccc([nH]5)c(-c5cccc(S(=O)(=O)[O-])c5F)c5nc(c(-c6cccc(S(=O)(=O)[O-])c6F)c6ccc3[nH]6)C=C5)C=C4)cc1)[C@@H](C(F)(F)F)O2
REMARK SMILES IDX 24 1 23 2 22 3 21 4 20 5 18 6 19 7 17 9 9 10 10 11 14 12
REMARK SMILES IDX 11 13 13 14 15 15 12 16 98 17 16 18 93 19 8 20 7 21 6 22
REMARK SMILES IDX 5 23 4 24 3 25 2 26 1 28 94 29 95 30 96 31 97 32 25 33 26 34
REMARK SMILES IDX 27 35 28 36 29 38 30 39 31 40 92 41 32 42 91 43 33 44 34 45
REMARK SMILES IDX 35 46 85 47 36 48 90 49 84 50 86 51 37 52 89 53 83 54 82 55
REMARK SMILES IDX 38 57 70 58 50 59 69 60 51 61 54 62 68 63 87 64 52 65 53 66
REMARK SMILES IDX 67 68 88 69 55 70 39 71 40 72 48 73 41 74 43 75 49 76 42 77
REMARK SMILES IDX 44 78 45 79 46 80 47 81 71 82 72 83 80 84 73 85 75 86 81 87
REMARK SMILES IDX 74 88 76 89 77 90 78 91 79 92 56 93 57 94 65 95 58 96 60 97
REMARK SMILES IDX 66 98 59 99 61 100 62 101 63 102 64 103
REMARK H PARENT 20 8 7 27 27 37 86 56 54 67
REMARK Flexibility Score: inf
ROOT
ATOM      1  C   UNL     1      -3.105  -1.748 -12.431  1.00  0.00     0.002 C 
ENDROOT
BRANCH   1   2
ATOM      2  C   UNL     1      -1.876  -2.302 -11.700  1.00  0.00     0.002 C 
BRANCH   2   3
ATOM      3  C   UNL     1      -1.664  -1.774 -10.278  1.00  0.00     0.021 C 
BRANCH   3   4
ATOM      4  C   UNL     1      -2.862  -1.980  -9.356  1.00  0.00     0.116 C 
BRANCH   4   5
ATOM      5  N   UNL     1      -2.905  -3.338  -8.847  1.00  0.00    -0.352 N 
ATOM      6  C   UNL     1      -2.871  -3.945  -7.640  1.00  0.00     0.251 C 
ATOM      7  O   UNL     1      -2.935  -5.179  -7.673  1.00  0.00    -0.270 OA
ATOM      8  H   UNL     1      -2.978  -3.994  -9.577  1.00  0.00     0.163 HD
BRANCH   6   9
ATOM      9  C   UNL     1      -2.772  -3.250  -6.325  1.00  0.00     0.067 C 
ATOM     10  C   UNL     1      -2.475  -2.236  -1.384  1.00  0.00     0.029 A 
ATOM     11  C   UNL     1      -2.154  -1.530  -2.559  1.00  0.00     0.058 A 
ATOM     12  C   UNL     1      -3.052  -3.510  -1.524  1.00  0.00     0.050 A 
ATOM     13  C   UNL     1      -2.325  -2.115  -3.810  1.00  0.00     0.128 A 
ATOM     14  C   UNL     1      -3.142  -4.123  -2.781  1.00  0.00     0.033 A 
ATOM     15  Cl  UNL     1      -3.765  -4.370  -0.204  1.00  0.00    -0.084 Cl
ATOM     16  C   UNL     1      -2.758  -3.432  -3.926  1.00  0.00     0.019 A 
ATOM     17  O   UNL     1      -2.025  -1.353  -4.903  1.00  0.00    -0.475 OA
ATOM     18  C   UNL     1      -2.800  -4.051  -5.243  1.00  0.00     0.025 C 
ATOM     19  C   UNL     1      -2.699  -1.759  -6.132  1.00  0.00     0.314 C 
BRANCH  10  20
ATOM     20  C   UNL     1      -2.159  -1.582  -0.051  1.00  0.00     0.301 C 
BRANCH  20  21
ATOM     21  N   UNL     1      -0.832  -1.857   0.522  1.00  0.00    -0.327 N 
ATOM     22  C   UNL     1       0.786  -0.052   0.001  1.00  0.00     0.075 C 
ATOM     23  C   UNL     1       0.338  -1.479  -0.285  1.00  0.00     0.181 C 
ATOM     24  C   UNL     1       1.416  -2.492   0.093  1.00  0.00     0.071 C 
ATOM     25  C   UNL     1       0.611  -3.742   0.373  1.00  0.00     0.071 C 
ATOM     26  C   UNL     1      -0.639  -3.207   1.060  1.00  0.00     0.181 C 
ATOM     27  H   UNL     1      -0.866  -1.203   1.305  1.00  0.00     0.348 HD
ATOM     28  C   UNL     1      -0.472  -3.113   2.576  1.00  0.00     0.075 C 
ENDBRANCH  20  21
ENDBRANCH  10  20
BRANCH  19  29
ATOM     29  C   UNL     1      -4.091  -1.100  -6.226  1.00  0.00     0.429 C 
ATOM     30  F   UNL     1      -3.980   0.244  -6.352  1.00  0.00    -0.167 F 
ATOM     31  F   UNL     1      -4.789  -1.532  -7.304  1.00  0.00    -0.167 F 
ATOM     32  F   UNL     1      -4.861  -1.346  -5.141  1.00  0.00    -0.167 F 
ENDBRANCH  19  29
ENDBRANCH   6   9
ENDBRANCH   4   5
ENDBRANCH   3   4
ENDBRANCH   2   3
ENDBRANCH   1   2
BRANCH   1  33
ATOM     33  C   UNL     1      -3.267  -0.227 -12.389  1.00  0.00     0.021 C 
BRANCH  33  34
ATOM     34  C   UNL     1      -2.084   0.556 -12.943  1.00  0.00     0.116 C 
BRANCH  34  35
ATOM     35  N   UNL     1      -1.863   0.304 -14.356  1.00  0.00    -0.352 N 
ATOM     36  C   UNL     1      -1.674   1.213 -15.373  1.00  0.00     0.251 C 
ATOM     37  H   UNL     1      -1.846  -0.643 -14.623  1.00  0.00     0.163 HD
ATOM     38  O   UNL     1      -1.656   0.841 -16.537  1.00  0.00    -0.269 OA
BRANCH  36  39
ATOM     39  C   UNL     1      -1.531   2.646 -15.033  1.00  0.00     0.039 A 
ATOM     40  C   UNL     1      -0.669   3.044 -14.009  1.00  0.00     0.014 A 
ATOM     41  C   UNL     1      -2.305   3.589 -15.712  1.00  0.00     0.014 A 
ATOM     42  C   UNL     1      -0.702   4.358 -13.556  1.00  0.00     0.010 A 
ATOM     43  C   UNL     1      -2.274   4.927 -15.308  1.00  0.00     0.010 A 
ATOM     44  C   UNL     1      -1.510   5.313 -14.196  1.00  0.00    -0.014 A 
BRANCH  44  45
ATOM     45  C   UNL     1      -1.531   6.708 -13.684  1.00  0.00     0.031 A 
ATOM     46  C   UNL     1      -2.788   7.306 -13.112  1.00  0.00     0.074 A 
ATOM     47  C   UNL     1      -0.390   7.426 -13.698  1.00  0.00     0.049 A 
ATOM     48  N   UNL     1      -2.968   8.494 -12.595  1.00  0.00    -0.248 NA
ATOM     49  C   UNL     1      -4.001   6.470 -13.118  1.00  0.00     0.031 C 
ATOM     50  C   UNL     1       0.887   6.963 -14.245  1.00  0.00     0.029 A 
ATOM     51  N   UNL     1      -0.114   8.684 -13.227  1.00  0.00    -0.354 N 
ATOM     52  C   UNL     1      -4.314   8.566 -12.256  1.00  0.00     0.074 A 
ATOM     53  C   UNL     1      -4.910   7.301 -12.625  1.00  0.00     0.031 C 
ATOM     54  C   UNL     1       1.820   7.904 -14.038  1.00  0.00     0.029 A 
ATOM     55  C   UNL     1       1.199   9.055 -13.392  1.00  0.00     0.049 A 
ATOM     56  H   UNL     1      -0.791   9.265 -12.812  1.00  0.00     0.167 HD
ATOM     57  C   UNL     1      -4.986   9.585 -11.671  1.00  0.00     0.034 A 
ATOM     58  C   UNL     1       1.837  10.196 -13.067  1.00  0.00     0.034 A 
ATOM     59  C   UNL     1      -4.381  10.819 -11.249  1.00  0.00     0.049 A 
ATOM     60  C   UNL     1       1.071  11.302 -12.403  1.00  0.00     0.074 A 
ATOM     61  C   UNL     1      -4.976  11.886 -10.599  1.00  0.00     0.029 A 
ATOM     62  N   UNL     1      -3.048  11.151 -11.428  1.00  0.00    -0.354 N 
ATOM     63  N   UNL     1      -0.182  11.316 -12.022  1.00  0.00    -0.248 NA
ATOM     64  C   UNL     1       1.805  12.542 -12.116  1.00  0.00     0.031 C 
ATOM     65  C   UNL     1      -4.003  12.866 -10.387  1.00  0.00     0.029 A 
ATOM     66  C   UNL     1      -2.801  12.406 -10.902  1.00  0.00     0.049 A 
ATOM     67  H   UNL     1      -2.377  10.578 -11.864  1.00  0.00     0.167 HD
ATOM     68  C   UNL     1      -0.388  12.561 -11.443  1.00  0.00     0.074 A 
ATOM     69  C   UNL     1       0.876  13.266 -11.502  1.00  0.00     0.031 C 
ATOM     70  C   UNL     1      -1.529  13.078 -10.929  1.00  0.00     0.034 A 
BRANCH  57  71
ATOM     71  C   UNL     1      -6.452   9.401 -11.392  1.00  0.00     0.023 A 
ATOM     72  C   UNL     1      -6.848   8.667 -10.258  1.00  0.00     0.012 A 
ATOM     73  C   UNL     1      -7.426  10.045 -12.181  1.00  0.00     0.148 A 
ATOM     74  C   UNL     1      -8.196   8.568  -9.914  1.00  0.00     0.002 A 
ATOM     75  C   UNL     1      -8.765   9.965 -11.816  1.00  0.00     0.091 A 
ATOM     76  F   UNL     1      -7.023  10.728 -13.261  1.00  0.00    -0.205 F 
ATOM     77  C   UNL     1      -9.151   9.225 -10.686  1.00  0.00     0.022 A 
BRANCH  75  78
ATOM     78  S   UNL     1     -10.071  10.816 -12.709  1.00  0.00     0.127 S 
ATOM     79  O   UNL     1     -10.842   9.694 -13.243  1.00  0.00    -0.237 OA
ATOM     80  O   UNL     1     -10.738  11.560 -11.640  1.00  0.00    -0.237 OA
ATOM     81  O   UNL     1      -9.407  11.641 -13.707  1.00  0.00    -0.744 OA
ENDBRANCH  75  78
ENDBRANCH  57  71
BRANCH  58  82
ATOM     82  C   UNL     1       3.296  10.309 -13.328  1.00  0.00     0.023 A 
ATOM     83  C   UNL     1       4.197  10.213 -12.252  1.00  0.00     0.012 A 
ATOM     84  C   UNL     1       3.794  10.417 -14.641  1.00  0.00     0.148 A 
ATOM     85  C   UNL     1       5.574  10.224 -12.478  1.00  0.00     0.002 A 
ATOM     86  C   UNL     1       5.165  10.382 -14.863  1.00  0.00     0.091 A 
ATOM     87  F   UNL     1       2.913  10.512 -15.646  1.00  0.00    -0.205 F 
ATOM     88  C   UNL     1       6.057  10.295 -13.782  1.00  0.00     0.022 A 
BRANCH  86  89
ATOM     89  S   UNL     1       5.877  10.347 -16.511  1.00  0.00     0.127 S 
ATOM     90  O   UNL     1       6.597  11.618 -16.552  1.00  0.00    -0.237 OA
ATOM     91  O   UNL     1       6.728   9.158 -16.443  1.00  0.00    -0.237 OA
ATOM     92  O   UNL     1       4.752  10.233 -17.428  1.00  0.00    -0.744 OA
ENDBRANCH  86  89
ENDBRANCH  58  82
BRANCH  70  93
ATOM     93  C   UNL     1      -1.484  14.477 -10.383  1.00  0.00     0.023 A 
ATOM     94  C   UNL     1      -1.550  15.563 -11.275  1.00  0.00     0.012 A 
ATOM     95  C   UNL     1      -1.506  14.711  -8.995  1.00  0.00     0.148 A 
ATOM     96  C   UNL     1      -1.633  16.868 -10.793  1.00  0.00     0.002 A 
ATOM     97  C   UNL     1      -1.621  16.012  -8.521  1.00  0.00     0.091 A 
ATOM     98  F   UNL     1      -1.433  13.657  -8.169  1.00  0.00    -0.205 F 
ATOM     99  C   UNL     1      -1.681  17.091  -9.418  1.00  0.00     0.022 A 
BRANCH  97 100
ATOM    100  S   UNL     1      -1.764  16.397  -6.772  1.00  0.00     0.127 S 
ATOM    101  O   UNL     1      -0.511  17.107  -6.521  1.00  0.00    -0.237 OA
ATOM    102  O   UNL     1      -2.960  17.238  -6.739  1.00  0.00    -0.237 OA
ATOM    103  O   UNL     1      -1.900  15.119  -6.087  1.00  0.00    -0.744 OA
ENDBRANCH  97 100
ENDBRANCH  70  93
ENDBRANCH  44  45
ENDBRANCH  36  39
ENDBRANCH  34  35
ENDBRANCH  33  34
ENDBRANCH   1  33
TORSDOF 19
