REMARK SMILES CC(=O)c1c(C)nn(CC(=O)N2CCC[C@H](c3cccc(C(=O)NCCCCCCNC(=O)c4ccc(-c5c6nc(c(-c7cccc(S(=O)(=O)[O-])c7F)c7ccc([nH]7)c(-c7cccc(S(=O)(=O)[O-])c7F)c7nc(c(-c8cccc(S(=O)(=O)[O-])c8F)c8ccc5[nH]8)C=C7)C=C6)cc4)c3)C2)c1C
REMARK SMILES IDX 26 1 25 2 24 3 22 4 23 5 21 7 17 8 18 9 97 10 19 11 20 12
REMARK SMILES IDX 16 13 12 14 13 15 98 16 14 17 15 18 10 19 11 20 9 21 8 22
REMARK SMILES IDX 4 23 5 24 99 25 6 26 7 27 100 28 2 29 1 30 3 31 27 32 28 33
REMARK SMILES IDX 29 34 30 35 31 36 32 37 33 39 34 40 35 41 96 42 36 43 95 44
REMARK SMILES IDX 37 45 38 46 39 47 89 48 40 49 94 50 88 51 90 52 41 53 93 54
REMARK SMILES IDX 87 55 86 56 42 58 74 59 54 60 73 61 55 62 58 63 72 64 91 65
REMARK SMILES IDX 56 66 57 67 71 69 92 70 59 71 43 72 44 73 52 74 45 75 47 76
REMARK SMILES IDX 53 77 46 78 48 79 49 80 50 81 51 82 75 83 76 84 84 85 77 86
REMARK SMILES IDX 79 87 85 88 78 89 80 90 81 91 82 92 83 93 60 94 61 95 69 96
REMARK SMILES IDX 62 97 64 98 70 99 63 100 65 101 66 102 67 103 68 104
REMARK H PARENT 24 6 31 38 90 57 58 68
REMARK Flexibility Score: inf
ROOT
ATOM      1  C   UNL     1       2.367   8.005   9.054  1.00  0.00     0.021 C 
ENDROOT
BRANCH   1   2
ATOM      2  C   UNL     1       2.790   6.596   9.447  1.00  0.00     0.116 C 
BRANCH   2   3
ATOM      3  N   UNL     1       2.113   6.040  10.609  1.00  0.00    -0.352 N 
ATOM      4  C   UNL     1       1.631   4.769  10.867  1.00  0.00     0.251 C 
ATOM      5  O   UNL     1       1.113   4.556  11.964  1.00  0.00    -0.269 OA
ATOM      6  H   UNL     1       1.975   6.682  11.343  1.00  0.00     0.163 HD
BRANCH   4   7
ATOM      7  C   UNL     1       1.665   3.674   9.852  1.00  0.00     0.040 A 
ATOM      8  C   UNL     1       2.487   2.796   7.713  1.00  0.00    -0.042 A 
ATOM      9  C   UNL     1       1.456   1.848   7.745  1.00  0.00     0.004 A 
ATOM     10  C   UNL     1       2.630   3.616   8.846  1.00  0.00     0.018 A 
ATOM     11  C   UNL     1       0.588   1.764   8.840  1.00  0.00     0.001 A 
ATOM     12  C   UNL     1       0.667   2.699   9.873  1.00  0.00     0.014 A 
BRANCH   8  13
ATOM     13  C   UNL     1       3.307   3.109   6.451  1.00  0.00     0.039 C 
ATOM     14  N   UNL     1       4.291   0.900   5.857  1.00  0.00    -0.340 N 
ATOM     15  C   UNL     1       5.624   1.306   6.295  1.00  0.00     0.119 C 
ATOM     16  C   UNL     1       3.407   1.978   5.399  1.00  0.00     0.127 C 
ATOM     17  C   UNL     1       5.601   2.470   7.277  1.00  0.00     0.022 C 
ATOM     18  C   UNL     1       4.745   3.606   6.724  1.00  0.00     0.012 C 
BRANCH  14  19
ATOM     19  C   UNL     1       3.860  -0.388   6.127  1.00  0.00     0.244 C 
ATOM     20  O   UNL     1       4.255  -0.980   7.141  1.00  0.00    -0.273 OA
BRANCH  19  21
ATOM     21  C   UNL     1       3.233  -1.202   5.013  1.00  0.00     0.244 C 
BRANCH  21  22
ATOM     22  N   UNL     1       2.142  -0.620   4.255  1.00  0.00    -0.259 N 
ATOM     23  C   UNL     1       0.830   0.056   2.612  1.00  0.00     0.061 A 
ATOM     24  C   UNL     1       0.118  -0.154   3.830  1.00  0.00     0.070 A 
ATOM     25  C   UNL     1       2.159  -0.190   2.946  1.00  0.00     0.047 A 
ATOM     26  C   UNL     1      -1.331   0.021   4.118  1.00  0.00     0.069 C 
ATOM     27  N   UNL     1       0.914  -0.624   4.799  1.00  0.00    -0.177 NA
ATOM     28  C   UNL     1       3.428  -0.019   2.187  1.00  0.00     0.067 C 
BRANCH  23  29
ATOM     29  C   UNL     1       0.252   0.455   1.327  1.00  0.00     0.163 C 
ATOM     30  C   UNL     1       0.823  -0.105   0.049  1.00  0.00     0.093 C 
ATOM     31  O   UNL     1      -0.791   1.104   1.273  1.00  0.00    -0.294 OA
ENDBRANCH  23  29
ENDBRANCH  21  22
ENDBRANCH  19  21
ENDBRANCH  14  19
ENDBRANCH   8  13
ENDBRANCH   4   7
ENDBRANCH   2   3
ENDBRANCH   1   2
BRANCH   1  32
ATOM     32  C   UNL     1       2.656   9.120  10.055  1.00  0.00     0.002 C 
BRANCH  32  33
ATOM     33  C   UNL     1       4.087   9.230  10.599  1.00  0.00     0.002 C 
BRANCH  33  34
ATOM     34  C   UNL     1       5.244   9.240   9.591  1.00  0.00     0.021 C 
BRANCH  34  35
ATOM     35  C   UNL     1       5.173  10.334   8.537  1.00  0.00     0.116 C 
BRANCH  35  36
ATOM     36  N   UNL     1       5.272  11.684   9.092  1.00  0.00    -0.352 N 
ATOM     37  C   UNL     1       5.222  12.883   8.409  1.00  0.00     0.251 C 
ATOM     38  H   UNL     1       5.389  11.745  10.068  1.00  0.00     0.163 HD
ATOM     39  O   UNL     1       5.685  13.910   8.909  1.00  0.00    -0.269 OA
BRANCH  37  40
ATOM     40  C   UNL     1       4.604  12.918   7.072  1.00  0.00     0.039 A 
ATOM     41  C   UNL     1       5.129  13.696   6.037  1.00  0.00     0.014 A 
ATOM     42  C   UNL     1       3.483  12.121   6.856  1.00  0.00     0.014 A 
ATOM     43  C   UNL     1       4.559  13.594   4.770  1.00  0.00     0.010 A 
ATOM     44  C   UNL     1       3.049  11.879   5.580  1.00  0.00     0.010 A 
ATOM     45  C   UNL     1       3.532  12.661   4.543  1.00  0.00    -0.014 A 
BRANCH  45  46
ATOM     46  C   UNL     1       3.030  12.408   3.197  1.00  0.00     0.031 A 
ATOM     47  C   UNL     1       4.099  12.118   2.208  1.00  0.00     0.074 A 
ATOM     48  C   UNL     1       1.720  12.275   2.894  1.00  0.00     0.049 A 
ATOM     49  N   UNL     1       4.545  12.917   1.296  1.00  0.00    -0.248 NA
ATOM     50  C   UNL     1       4.896  10.892   2.365  1.00  0.00     0.031 C 
ATOM     51  C   UNL     1       0.572  12.229   3.811  1.00  0.00     0.029 A 
ATOM     52  N   UNL     1       1.139  12.025   1.688  1.00  0.00    -0.354 N 
ATOM     53  C   UNL     1       5.489  12.183   0.586  1.00  0.00     0.074 A 
ATOM     54  C   UNL     1       5.826  11.061   1.421  1.00  0.00     0.031 C 
ATOM     55  C   UNL     1      -0.503  11.721   3.169  1.00  0.00     0.029 A 
ATOM     56  C   UNL     1      -0.180  11.584   1.763  1.00  0.00     0.049 A 
ATOM     57  H   UNL     1       1.613  12.146   0.834  1.00  0.00     0.167 HD
ATOM     58  C   UNL     1       5.689  12.415  -0.741  1.00  0.00     0.034 A 
ATOM     59  C   UNL     1      -0.941  11.116   0.744  1.00  0.00     0.034 A 
ATOM     60  C   UNL     1       5.069  13.658  -1.143  1.00  0.00     0.049 A 
ATOM     61  C   UNL     1      -0.346  11.630  -0.508  1.00  0.00     0.074 A 
ATOM     62  C   UNL     1       5.181  14.981  -0.767  1.00  0.00     0.029 A 
ATOM     63  N   UNL     1       3.867  13.550  -1.800  1.00  0.00    -0.354 N 
ATOM     64  N   UNL     1      -0.331  12.894  -0.823  1.00  0.00    -0.248 NA
ATOM     65  C   UNL     1       0.620  10.796  -1.199  1.00  0.00     0.031 C 
ATOM     66  C   UNL     1       3.847  15.488  -0.804  1.00  0.00     0.029 A 
ATOM     67  C   UNL     1       3.008  14.476  -1.276  1.00  0.00     0.049 A 
ATOM     68  H   UNL     1       3.659  12.916  -2.524  1.00  0.00     0.167 HD
ATOM     69  C   UNL     1       0.935  13.091  -1.355  1.00  0.00     0.074 A 
ATOM     70  C   UNL     1       1.423  11.751  -1.677  1.00  0.00     0.031 C 
ATOM     71  C   UNL     1       1.576  14.288  -1.205  1.00  0.00     0.034 A 
BRANCH  58  72
ATOM     72  C   UNL     1       6.050  11.365  -1.774  1.00  0.00     0.023 A 
ATOM     73  C   UNL     1       6.267  11.824  -3.095  1.00  0.00     0.012 A 
ATOM     74  C   UNL     1       5.900   9.970  -1.604  1.00  0.00     0.148 A 
ATOM     75  C   UNL     1       6.242  10.957  -4.192  1.00  0.00     0.002 A 
ATOM     76  C   UNL     1       5.948   9.101  -2.690  1.00  0.00     0.091 A 
ATOM     77  F   UNL     1       5.585   9.465  -0.411  1.00  0.00    -0.205 F 
ATOM     78  C   UNL     1       6.081   9.593  -3.990  1.00  0.00     0.022 A 
BRANCH  76  79
ATOM     79  S   UNL     1       5.786   7.322  -2.486  1.00  0.00     0.127 S 
ATOM     80  O   UNL     1       4.472   7.078  -3.074  1.00  0.00    -0.237 OA
ATOM     81  O   UNL     1       6.918   6.829  -3.270  1.00  0.00    -0.237 OA
ATOM     82  O   UNL     1       5.898   7.072  -1.054  1.00  0.00    -0.744 OA
ENDBRANCH  76  79
ENDBRANCH  58  72
BRANCH  59  83
ATOM     83  C   UNL     1      -1.987  10.068   0.729  1.00  0.00     0.023 A 
ATOM     84  C   UNL     1      -2.892   9.997  -0.351  1.00  0.00     0.012 A 
ATOM     85  C   UNL     1      -1.893   8.959   1.595  1.00  0.00     0.148 A 
ATOM     86  C   UNL     1      -3.644   8.840  -0.587  1.00  0.00     0.002 A 
ATOM     87  C   UNL     1      -2.641   7.811   1.355  1.00  0.00     0.091 A 
ATOM     88  F   UNL     1      -0.996   8.993   2.590  1.00  0.00    -0.205 F 
ATOM     89  C   UNL     1      -3.509   7.742   0.257  1.00  0.00     0.022 A 
BRANCH  87  90
ATOM     90  S   UNL     1      -2.471   6.334   2.366  1.00  0.00     0.127 S 
ATOM     91  O   UNL     1      -3.867   6.007   2.658  1.00  0.00    -0.237 OA
ATOM     92  O   UNL     1      -1.801   5.423   1.443  1.00  0.00    -0.237 OA
ATOM     93  O   UNL     1      -1.692   6.737   3.530  1.00  0.00    -0.744 OA
ENDBRANCH  87  90
ENDBRANCH  59  83
BRANCH  71  94
ATOM     94  C   UNL     1       0.770  15.463  -0.710  1.00  0.00     0.023 A 
ATOM     95  C   UNL     1       0.180  15.508   0.571  1.00  0.00     0.012 A 
ATOM     96  C   UNL     1       0.743  16.618  -1.509  1.00  0.00     0.148 A 
ATOM     97  C   UNL     1      -0.441  16.673   1.033  1.00  0.00     0.002 A 
ATOM     98  C   UNL     1       0.169  17.787  -1.028  1.00  0.00     0.091 A 
ATOM     99  F   UNL     1       1.308  16.558  -2.724  1.00  0.00    -0.205 F 
ATOM    100  C   UNL     1      -0.434  17.817   0.239  1.00  0.00     0.022 A 
BRANCH  98 101
ATOM    101  S   UNL     1       0.258  19.319  -1.956  1.00  0.00     0.127 S 
ATOM    102  O   UNL     1      -1.112  19.460  -2.444  1.00  0.00    -0.237 OA
ATOM    103  O   UNL     1       0.645  20.286  -0.928  1.00  0.00    -0.237 OA
ATOM    104  O   UNL     1       1.271  19.108  -2.983  1.00  0.00    -0.744 OA
ENDBRANCH  98 101
ENDBRANCH  71  94
ENDBRANCH  45  46
ENDBRANCH  37  40
ENDBRANCH  35  36
ENDBRANCH  34  35
ENDBRANCH  33  34
ENDBRANCH  32  33
ENDBRANCH   1  32
TORSDOF 21
