REMARK SMILES CCS(=O)(=O)N1CCC[C@@H](C(=O)NCCCCCCNC(=O)c2ccc(-c3c4nc(c(-c5cccc(S(=O)(=O)[O-])c5F)c5ccc([nH]5)c(-c5cccc(S(=O)(=O)[O-])c5F)c5nc(c(-c6cccc(S(=O)(=O)[O-])c6F)c6ccc3[nH]6)C=C5)C=C4)cc2)C1
REMARK SMILES IDX 17 1 16 2 15 3 14 4 13 5 11 6 12 7 10 9 6 10 7 11 86 12 8 13
REMARK SMILES IDX 9 14 3 15 4 16 5 17 2 18 1 19 18 20 19 21 20 22 21 23 22 25
REMARK SMILES IDX 23 26 24 27 85 28 25 29 84 30 26 31 27 32 28 33 78 34 29 35
REMARK SMILES IDX 83 36 77 37 79 38 30 39 82 40 76 41 75 42 31 44 63 45 43 46
REMARK SMILES IDX 62 47 44 48 47 49 61 50 80 51 45 52 46 53 60 55 81 56 48 57
REMARK SMILES IDX 32 58 33 59 41 60 34 61 36 62 42 63 35 64 37 65 38 66 39 67
REMARK SMILES IDX 40 68 64 69 65 70 73 71 66 72 68 73 74 74 67 75 69 76 70 77
REMARK SMILES IDX 71 78 72 79 49 80 50 81 58 82 51 83 53 84 59 85 52 86 54 87
REMARK SMILES IDX 55 88 56 89 57 90
REMARK H PARENT 13 8 20 24 79 43 47 54
REMARK Flexibility Score: inf
ROOT
ATOM      1  C   UNL     1       5.489   1.077  -8.704  1.00  0.00     0.002 C 
ENDROOT
BRANCH   1   2
ATOM      2  C   UNL     1       4.420   1.760  -7.843  1.00  0.00     0.002 C 
BRANCH   2   3
ATOM      3  C   UNL     1       3.684   0.832  -6.871  1.00  0.00     0.021 C 
BRANCH   3   4
ATOM      4  C   UNL     1       4.606   0.067  -5.925  1.00  0.00     0.116 C 
BRANCH   4   5
ATOM      5  N   UNL     1       5.259   0.964  -4.984  1.00  0.00    -0.356 N 
ATOM      6  C   UNL     1       5.396   0.903  -3.633  1.00  0.00     0.224 C 
ATOM      7  O   UNL     1       5.993   1.826  -3.073  1.00  0.00    -0.275 OA
ATOM      8  H   UNL     1       5.676   1.754  -5.398  1.00  0.00     0.163 HD
BRANCH   6   9
ATOM      9  C   UNL     1       4.825  -0.247  -2.821  1.00  0.00     0.093 C 
ATOM     10  N   UNL     1       2.688  -1.417  -2.210  1.00  0.00    -0.201 NA
ATOM     11  C   UNL     1       3.248  -2.683  -2.788  1.00  0.00     0.102 C 
ATOM     12  C   UNL     1       3.296  -0.209  -2.851  1.00  0.00     0.115 C 
ATOM     13  C   UNL     1       4.746  -2.747  -2.528  1.00  0.00     0.018 C 
ATOM     14  C   UNL     1       5.464  -1.586  -3.197  1.00  0.00     0.016 C 
BRANCH  10  15
ATOM     15  S   UNL     1       0.969  -1.440  -2.244  1.00  0.00     0.213 S 
ATOM     16  O   UNL     1       0.531  -2.609  -1.509  1.00  0.00    -0.212 OA
ATOM     17  O   UNL     1       0.573  -1.231  -3.619  1.00  0.00    -0.212 OA
BRANCH  15  18
ATOM     18  C   UNL     1       0.500   0.010  -1.306  1.00  0.00     0.151 C 
ATOM     19  C   UNL     1       1.049   0.013   0.104  1.00  0.00     0.022 C 
ENDBRANCH  15  18
ENDBRANCH  10  15
ENDBRANCH   6   9
ENDBRANCH   4   5
ENDBRANCH   3   4
ENDBRANCH   2   3
ENDBRANCH   1   2
BRANCH   1  20
ATOM     20  C   UNL     1       4.997  -0.134  -9.500  1.00  0.00     0.021 C 
BRANCH  20  21
ATOM     21  C   UNL     1       3.835   0.162 -10.440  1.00  0.00     0.116 C 
BRANCH  21  22
ATOM     22  N   UNL     1       4.200   1.116 -11.477  1.00  0.00    -0.352 N 
ATOM     23  C   UNL     1       4.038   1.005 -12.836  1.00  0.00     0.251 C 
ATOM     24  H   UNL     1       4.618   1.951 -11.163  1.00  0.00     0.163 HD
ATOM     25  O   UNL     1       4.566   1.811 -13.595  1.00  0.00    -0.269 OA
BRANCH  23  26
ATOM     26  C   UNL     1       3.234  -0.113 -13.371  1.00  0.00     0.039 A 
ATOM     27  C   UNL     1       3.746  -0.889 -14.413  1.00  0.00     0.014 A 
ATOM     28  C   UNL     1       1.989  -0.410 -12.810  1.00  0.00     0.014 A 
ATOM     29  C   UNL     1       3.030  -2.004 -14.857  1.00  0.00     0.010 A 
ATOM     30  C   UNL     1       1.320  -1.563 -13.198  1.00  0.00     0.010 A 
ATOM     31  C   UNL     1       1.826  -2.366 -14.233  1.00  0.00    -0.014 A 
BRANCH  31  32
ATOM     32  C   UNL     1       1.050  -3.562 -14.648  1.00  0.00     0.031 A 
ATOM     33  C   UNL     1      -0.350  -3.387 -15.170  1.00  0.00     0.074 A 
ATOM     34  C   UNL     1       1.552  -4.797 -14.449  1.00  0.00     0.049 A 
ATOM     35  N   UNL     1      -1.251  -4.294 -15.437  1.00  0.00    -0.248 NA
ATOM     36  C   UNL     1      -0.809  -2.003 -15.387  1.00  0.00     0.031 C 
ATOM     37  C   UNL     1       2.875  -5.097 -13.900  1.00  0.00     0.029 A 
ATOM     38  N   UNL     1       0.988  -6.033 -14.648  1.00  0.00    -0.354 N 
ATOM     39  C   UNL     1      -2.395  -3.594 -15.803  1.00  0.00     0.074 A 
ATOM     40  C   UNL     1      -2.083  -2.186 -15.696  1.00  0.00     0.031 C 
ATOM     41  C   UNL     1       3.018  -6.428 -13.797  1.00  0.00     0.029 A 
ATOM     42  C   UNL     1       1.783  -7.076 -14.229  1.00  0.00     0.049 A 
ATOM     43  H   UNL     1       0.099  -6.162 -15.052  1.00  0.00     0.167 HD
ATOM     44  C   UNL     1      -3.590  -4.079 -16.213  1.00  0.00     0.034 A 
ATOM     45  C   UNL     1       1.535  -8.400 -14.175  1.00  0.00     0.034 A 
ATOM     46  C   UNL     1      -3.878  -5.479 -16.357  1.00  0.00     0.049 A 
ATOM     47  C   UNL     1       0.203  -8.916 -14.655  1.00  0.00     0.074 A 
ATOM     48  C   UNL     1      -5.029  -6.072 -16.843  1.00  0.00     0.029 A 
ATOM     49  N   UNL     1      -3.014  -6.504 -16.008  1.00  0.00    -0.354 N 
ATOM     50  N   UNL     1      -0.822  -8.243 -15.119  1.00  0.00    -0.248 NA
ATOM     51  C   UNL     1       0.003 -10.373 -14.634  1.00  0.00     0.031 C 
ATOM     52  C   UNL     1      -4.875  -7.458 -16.753  1.00  0.00     0.029 A 
ATOM     53  C   UNL     1      -3.608  -7.726 -16.259  1.00  0.00     0.049 A 
ATOM     54  H   UNL     1      -2.111  -6.380 -15.636  1.00  0.00     0.167 HD
ATOM     55  C   UNL     1      -1.764  -9.194 -15.495  1.00  0.00     0.074 A 
ATOM     56  C   UNL     1      -1.189 -10.491 -15.204  1.00  0.00     0.031 C 
ATOM     57  C   UNL     1      -2.995  -9.009 -16.029  1.00  0.00     0.034 A 
BRANCH  44  58
ATOM     58  C   UNL     1      -4.668  -3.088 -16.567  1.00  0.00     0.023 A 
ATOM     59  C   UNL     1      -4.536  -2.291 -17.722  1.00  0.00     0.012 A 
ATOM     60  C   UNL     1      -5.837  -2.987 -15.787  1.00  0.00     0.148 A 
ATOM     61  C   UNL     1      -5.532  -1.381 -18.074  1.00  0.00     0.002 A 
ATOM     62  C   UNL     1      -6.847  -2.115 -16.173  1.00  0.00     0.091 A 
ATOM     63  F   UNL     1      -5.936  -3.739 -14.682  1.00  0.00    -0.205 F 
ATOM     64  C   UNL     1      -6.690  -1.301 -17.307  1.00  0.00     0.022 A 
BRANCH  62  65
ATOM     65  S   UNL     1      -8.414  -2.000 -15.302  1.00  0.00     0.127 S 
ATOM     66  O   UNL     1      -8.321  -0.669 -14.703  1.00  0.00    -0.237 OA
ATOM     67  O   UNL     1      -9.380  -2.111 -16.395  1.00  0.00    -0.237 OA
ATOM     68  O   UNL     1      -8.432  -3.108 -14.358  1.00  0.00    -0.744 OA
ENDBRANCH  62  65
ENDBRANCH  44  58
BRANCH  45  69
ATOM     69  C   UNL     1       2.587  -9.338 -13.689  1.00  0.00     0.023 A 
ATOM     70  C   UNL     1       3.202 -10.220 -14.599  1.00  0.00     0.012 A 
ATOM     71  C   UNL     1       2.992  -9.351 -12.340  1.00  0.00     0.148 A 
ATOM     72  C   UNL     1       4.174 -11.124 -14.168  1.00  0.00     0.002 A 
ATOM     73  C   UNL     1       4.000 -10.214 -11.928  1.00  0.00     0.091 A 
ATOM     74  F   UNL     1       2.390  -8.509 -11.489  1.00  0.00    -0.205 F 
ATOM     75  C   UNL     1       4.579 -11.115 -12.836  1.00  0.00     0.022 A 
BRANCH  73  76
ATOM     76  S   UNL     1       4.677 -10.186 -10.264  1.00  0.00     0.127 S 
ATOM     77  O   UNL     1       4.227 -11.471  -9.736  1.00  0.00    -0.237 OA
ATOM     78  O   UNL     1       6.114 -10.095 -10.526  1.00  0.00    -0.237 OA
ATOM     79  O   UNL     1       4.107  -9.007  -9.626  1.00  0.00    -0.744 OA
ENDBRANCH  73  76
ENDBRANCH  45  69
BRANCH  57  80
ATOM     80  C   UNL     1      -3.792 -10.224 -16.422  1.00  0.00     0.023 A 
ATOM     81  C   UNL     1      -4.403 -11.024 -15.439  1.00  0.00     0.012 A 
ATOM     82  C   UNL     1      -4.037 -10.489 -17.785  1.00  0.00     0.148 A 
ATOM     83  C   UNL     1      -5.235 -12.081 -15.807  1.00  0.00     0.002 A 
ATOM     84  C   UNL     1      -4.909 -11.509 -18.143  1.00  0.00     0.091 A 
ATOM     85  F   UNL     1      -3.430  -9.723 -18.703  1.00  0.00    -0.205 F 
ATOM     86  C   UNL     1      -5.500 -12.313 -17.156  1.00  0.00     0.022 A 
BRANCH  84  87
ATOM     87  S   UNL     1      -5.394 -11.810 -19.846  1.00  0.00     0.127 S 
ATOM     88  O   UNL     1      -4.795 -13.121 -20.098  1.00  0.00    -0.237 OA
ATOM     89  O   UNL     1      -6.854 -11.814 -19.753  1.00  0.00    -0.237 OA
ATOM     90  O   UNL     1      -4.837 -10.715 -20.627  1.00  0.00    -0.744 OA
ENDBRANCH  84  87
ENDBRANCH  57  80
ENDBRANCH  31  32
ENDBRANCH  23  26
ENDBRANCH  21  22
ENDBRANCH  20  21
ENDBRANCH   1  20
TORSDOF 18
