REMARK SMILES Cc1noc(C)c1[C@H](C)NC(=O)NCC(=O)NCC(=O)NCCCCCCNC(=O)c1ccc(-c2c3nc(c(-c4cccc(S(=O)(=O)[O-])c4F)c4ccc([nH]4)c(-c4cccc(S(=O)(=O)[O-])c4F)c4nc(c(-c5cccc(S(=O)(=O)[O-])c5F)c5ccc2[nH]5)C=C4)C=C3)cc1
REMARK SMILES IDX 23 1 22 2 21 3 19 4 20 5 18 7 17 8 15 9 16 10 14 12 13 13
REMARK SMILES IDX 10 14 11 15 12 17 8 19 9 20 7 21 1 22 2 23 3 24 4 25 5 26
REMARK SMILES IDX 6 27 24 28 25 29 26 30 27 31 28 32 29 33 30 35 31 36 32 37
REMARK SMILES IDX 93 38 33 39 92 40 34 41 35 42 36 43 86 44 37 45 91 46 85 47
REMARK SMILES IDX 87 48 38 49 90 50 84 51 83 52 39 54 71 55 51 56 70 57 52 58
REMARK SMILES IDX 55 59 69 60 88 61 53 62 54 63 68 65 89 66 56 67 40 68 41 69
REMARK SMILES IDX 49 70 42 71 44 72 50 73 43 74 45 75 46 76 47 77 48 78 72 79
REMARK SMILES IDX 73 80 81 81 74 82 76 83 82 84 75 85 77 86 78 87 79 88 80 89
REMARK SMILES IDX 57 90 58 91 66 92 59 93 61 94 67 95 60 96 62 97 63 98 64 99
REMARK SMILES IDX 65 100
REMARK H PARENT 21 6 17 11 10 16 13 18 28 34 87 53 55 64
REMARK Flexibility Score: inf
ROOT
ATOM      1  C   UNL     1       2.415   7.900   2.907  1.00  0.00     0.021 C 
ENDROOT
BRANCH   1   2
ATOM      2  C   UNL     1       1.243   6.938   2.820  1.00  0.00     0.116 C 
BRANCH   2   3
ATOM      3  N   UNL     1       0.112   7.573   2.205  1.00  0.00    -0.355 N 
ATOM      4  C   UNL     1      -0.225   7.549   0.893  1.00  0.00     0.239 C 
ATOM      5  O   UNL     1      -1.204   8.206   0.529  1.00  0.00    -0.273 OA
ATOM      6  H   UNL     1      -0.484   8.080   2.802  1.00  0.00     0.163 HD
BRANCH   4   7
ATOM      7  C   UNL     1       0.464   6.572  -0.067  1.00  0.00     0.216 C 
BRANCH   7   8
ATOM      8  N   UNL     1       1.908   6.403  -0.104  1.00  0.00    -0.346 N 
ATOM      9  C   UNL     1       2.717   5.324   0.054  1.00  0.00     0.239 C 
ATOM     10  O   UNL     1       3.849   5.443  -0.435  1.00  0.00    -0.273 OA
ATOM     11  H   UNL     1       2.397   7.239  -0.280  1.00  0.00     0.164 HD
BRANCH   9  12
ATOM     12  C   UNL     1       2.338   3.977   0.719  1.00  0.00     0.217 C 
BRANCH  12  13
ATOM     13  N   UNL     1       1.204   3.838   1.620  1.00  0.00    -0.329 N 
ATOM     14  N   UNL     1      -0.677   3.115   0.392  1.00  0.00    -0.331 N 
ATOM     15  C   UNL     1      -0.099   3.570   1.511  1.00  0.00     0.315 C 
ATOM     16  H   UNL     1      -1.637   3.318   0.312  1.00  0.00     0.165 HD
ATOM     17  O   UNL     1      -0.812   3.790   2.491  1.00  0.00    -0.249 OA
ATOM     18  H   UNL     1       1.467   3.979   2.558  1.00  0.00     0.165 HD
BRANCH  14  19
ATOM     19  C   UNL     1      -0.119   2.370  -0.721  1.00  0.00     0.116 C 
ATOM     20  C   UNL     1       0.221   0.956  -0.256  1.00  0.00     0.036 C 
BRANCH  19  21
ATOM     21  C   UNL     1      -1.059   2.471  -1.888  1.00  0.00     0.040 A 
ATOM     22  C   UNL     1      -0.652   4.959  -2.616  1.00  0.00     0.071 C 
ATOM     23  C   UNL     1      -1.270   3.623  -2.710  1.00  0.00     0.086 A 
ATOM     24  N   UNL     1      -2.164   3.397  -3.675  1.00  0.00    -0.085 NA
ATOM     25  O   UNL     1      -2.532   2.082  -3.536  1.00  0.00    -0.361 OA
ATOM     26  C   UNL     1      -1.866   1.524  -2.491  1.00  0.00     0.139 A 
ATOM     27  C   UNL     1      -2.139   0.090  -2.289  1.00  0.00     0.091 C 
ENDBRANCH  19  21
ENDBRANCH  14  19
ENDBRANCH  12  13
ENDBRANCH   9  12
ENDBRANCH   7   8
ENDBRANCH   4   7
ENDBRANCH   2   3
ENDBRANCH   1   2
BRANCH   1  28
ATOM     28  C   UNL     1       2.150   9.027   3.903  1.00  0.00     0.002 C 
BRANCH  28  29
ATOM     29  C   UNL     1       1.698   8.529   5.280  1.00  0.00     0.002 C 
BRANCH  29  30
ATOM     30  C   UNL     1       2.630   7.484   5.902  1.00  0.00     0.021 C 
BRANCH  30  31
ATOM     31  C   UNL     1       4.075   7.951   6.003  1.00  0.00     0.116 C 
BRANCH  31  32
ATOM     32  N   UNL     1       4.163   9.201   6.742  1.00  0.00    -0.352 N 
ATOM     33  C   UNL     1       4.865   9.461   7.884  1.00  0.00     0.251 C 
ATOM     34  H   UNL     1       3.650   9.956   6.372  1.00  0.00     0.163 HD
ATOM     35  O   UNL     1       4.609  10.454   8.562  1.00  0.00    -0.269 OA
BRANCH  33  36
ATOM     36  C   UNL     1       5.934   8.531   8.281  1.00  0.00     0.039 A 
ATOM     37  C   UNL     1       6.022   8.123   9.611  1.00  0.00     0.014 A 
ATOM     38  C   UNL     1       6.835   8.054   7.322  1.00  0.00     0.014 A 
ATOM     39  C   UNL     1       7.004   7.205   9.975  1.00  0.00     0.010 A 
ATOM     40  C   UNL     1       7.755   7.076   7.671  1.00  0.00     0.010 A 
ATOM     41  C   UNL     1       7.862   6.658   9.004  1.00  0.00    -0.014 A 
BRANCH  41  42
ATOM     42  C   UNL     1       8.878   5.646   9.372  1.00  0.00     0.031 A 
ATOM     43  C   UNL     1      10.340   5.943   9.190  1.00  0.00     0.074 A 
ATOM     44  C   UNL     1       8.475   4.435   9.802  1.00  0.00     0.049 A 
ATOM     45  N   UNL     1      11.370   5.178   9.437  1.00  0.00    -0.248 NA
ATOM     46  C   UNL     1      10.694   7.260   8.632  1.00  0.00     0.031 C 
ATOM     47  C   UNL     1       7.080   4.005   9.933  1.00  0.00     0.029 A 
ATOM     48  N   UNL     1       9.198   3.337  10.188  1.00  0.00    -0.354 N 
ATOM     49  C   UNL     1      12.486   5.901   9.036  1.00  0.00     0.074 A 
ATOM     50  C   UNL     1      12.007   7.153   8.493  1.00  0.00     0.031 C 
ATOM     51  C   UNL     1       7.050   2.740  10.377  1.00  0.00     0.029 A 
ATOM     52  C   UNL     1       8.418   2.257  10.531  1.00  0.00     0.049 A 
ATOM     53  H   UNL     1      10.182   3.322  10.217  1.00  0.00     0.167 HD
ATOM     54  C   UNL     1      13.793   5.565   9.136  1.00  0.00     0.034 A 
ATOM     55  C   UNL     1       8.768   1.016  10.917  1.00  0.00     0.034 A 
ATOM     56  C   UNL     1      14.261   4.333   9.710  1.00  0.00     0.049 A 
ATOM     57  C   UNL     1      10.228   0.684  11.058  1.00  0.00     0.074 A 
ATOM     58  C   UNL     1      15.565   3.937   9.947  1.00  0.00     0.029 A 
ATOM     59  N   UNL     1      13.444   3.292  10.121  1.00  0.00    -0.354 N 
ATOM     60  N   UNL     1      11.272   1.445  10.834  1.00  0.00    -0.248 NA
ATOM     61  C   UNL     1      10.558  -0.663  11.542  1.00  0.00     0.031 C 
ATOM     62  C   UNL     1      15.537   2.639  10.467  1.00  0.00     0.029 A 
ATOM     63  C   UNL     1      14.215   2.244  10.593  1.00  0.00     0.049 A 
ATOM     64  H   UNL     1      12.460   3.297  10.084  1.00  0.00     0.167 HD
ATOM     65  C   UNL     1      12.381   0.681  11.179  1.00  0.00     0.074 A 
ATOM     66  C   UNL     1      11.878  -0.592  11.653  1.00  0.00     0.031 C 
ATOM     67  C   UNL     1      13.697   0.998  11.099  1.00  0.00     0.034 A 
BRANCH  54  68
ATOM     68  C   UNL     1      14.814   6.561   8.649  1.00  0.00     0.023 A 
ATOM     69  C   UNL     1      15.021   7.759   9.363  1.00  0.00     0.012 A 
ATOM     70  C   UNL     1      15.612   6.282   7.522  1.00  0.00     0.148 A 
ATOM     71  C   UNL     1      15.980   8.680   8.944  1.00  0.00     0.002 A 
ATOM     72  C   UNL     1      16.600   7.181   7.140  1.00  0.00     0.091 A 
ATOM     73  F   UNL     1      15.386   5.148   6.844  1.00  0.00    -0.205 F 
ATOM     74  C   UNL     1      16.777   8.385   7.841  1.00  0.00     0.022 A 
BRANCH  72  75
ATOM     75  S   UNL     1      17.734   6.857   5.785  1.00  0.00     0.127 S 
ATOM     76  O   UNL     1      17.309   7.853   4.801  1.00  0.00    -0.237 OA
ATOM     77  O   UNL     1      19.033   7.126   6.403  1.00  0.00    -0.237 OA
ATOM     78  O   UNL     1      17.517   5.470   5.401  1.00  0.00    -0.744 OA
ENDBRANCH  72  75
ENDBRANCH  54  68
BRANCH  55  79
ATOM     79  C   UNL     1       7.716   0.013  11.241  1.00  0.00     0.023 A 
ATOM     80  C   UNL     1       7.537  -0.404  12.574  1.00  0.00     0.012 A 
ATOM     81  C   UNL     1       6.876  -0.510  10.239  1.00  0.00     0.148 A 
ATOM     82  C   UNL     1       6.566  -1.352  12.898  1.00  0.00     0.002 A 
ATOM     83  C   UNL     1       5.872  -1.409  10.576  1.00  0.00     0.091 A 
ATOM     84  F   UNL     1       7.068  -0.105   8.975  1.00  0.00    -0.205 F 
ATOM     85  C   UNL     1       5.728  -1.847  11.902  1.00  0.00     0.022 A 
BRANCH  83  86
ATOM     86  S   UNL     1       4.664  -1.993   9.383  1.00  0.00     0.127 S 
ATOM     87  O   UNL     1       5.045  -3.395   9.233  1.00  0.00    -0.237 OA
ATOM     88  O   UNL     1       3.405  -1.768  10.093  1.00  0.00    -0.237 OA
ATOM     89  O   UNL     1       4.843  -1.160   8.201  1.00  0.00    -0.744 OA
ENDBRANCH  83  86
ENDBRANCH  55  79
BRANCH  67  90
ATOM     90  C   UNL     1      14.691  -0.034  11.564  1.00  0.00     0.023 A 
ATOM     91  C   UNL     1      14.899  -1.203  10.806  1.00  0.00     0.012 A 
ATOM     92  C   UNL     1      15.463   0.188  12.721  1.00  0.00     0.148 A 
ATOM     93  C   UNL     1      15.832  -2.155  11.215  1.00  0.00     0.002 A 
ATOM     94  C   UNL     1      16.430  -0.738  13.091  1.00  0.00     0.091 A 
ATOM     95  F   UNL     1      15.239   1.299  13.438  1.00  0.00    -0.205 F 
ATOM     96  C   UNL     1      16.605  -1.917  12.349  1.00  0.00     0.022 A 
BRANCH  94  97
ATOM     97  S   UNL     1      17.540  -0.470  14.478  1.00  0.00     0.127 S 
ATOM     98  O   UNL     1      17.048  -1.448  15.446  1.00  0.00    -0.237 OA
ATOM     99  O   UNL     1      18.844  -0.790  13.896  1.00  0.00    -0.237 OA
ATOM    100  O   UNL     1      17.375   0.926  14.861  1.00  0.00    -0.744 OA
ENDBRANCH  94  97
ENDBRANCH  67  90
ENDBRANCH  41  42
ENDBRANCH  33  36
ENDBRANCH  31  32
ENDBRANCH  30  31
ENDBRANCH  29  30
ENDBRANCH  28  29
ENDBRANCH   1  28
TORSDOF 21
