REMARK SMILES CNC(=O)c1cc(S(=O)(=O)N2CCC(C(=O)NCCCCCCNC(=O)c3ccc(-c4c5nc(c(-c6cccc(S(=O)(=O)[O-])c6F)c6ccc([nH]6)c(-c6cccc(S(=O)(=O)[O-])c6F)c6nc(c(-c7cccc(S(=O)(=O)[O-])c7F)c7ccc4[nH]7)C=C6)C=C5)cc3)CC2)ccc1OC
REMARK SMILES IDX 20 1 19 2 18 3 17 4 15 5 16 6 14 8 11 9 12 10 91 11 13 12
REMARK SMILES IDX 90 13 8 14 9 15 10 16 7 17 5 18 6 19 94 20 93 21 92 22 3 23
REMARK SMILES IDX 1 24 2 25 4 27 95 28 96 29 21 30 22 31 23 32 24 33 25 34
REMARK SMILES IDX 26 36 27 37 28 38 89 39 29 40 88 41 30 42 31 43 32 44 82 45
REMARK SMILES IDX 33 46 87 47 81 48 83 49 34 50 86 51 80 52 79 53 35 55 67 56
REMARK SMILES IDX 47 57 66 58 48 59 51 60 65 61 84 62 49 63 50 64 64 66 85 67
REMARK SMILES IDX 52 68 36 69 37 70 45 71 38 72 40 73 46 74 39 75 41 76 42 77
REMARK SMILES IDX 43 78 44 79 68 80 69 81 77 82 70 83 72 84 78 85 71 86 73 87
REMARK SMILES IDX 74 88 75 89 76 90 53 91 54 92 62 93 55 94 57 95 63 96 56 97
REMARK SMILES IDX 58 98 59 99 60 100 61 101
REMARK H PARENT 17 7 2 26 24 35 83 54 51 65
REMARK Flexibility Score: inf
ROOT
ATOM      1  C   UNL     1      -5.950 -12.078   3.128  1.00  0.00     0.002 C 
ENDROOT
BRANCH   1   2
ATOM      2  C   UNL     1      -4.997 -11.062   2.493  1.00  0.00     0.021 C 
BRANCH   2   3
ATOM      3  C   UNL     1      -5.630  -9.702   2.223  1.00  0.00     0.116 C 
BRANCH   3   4
ATOM      4  N   UNL     1      -5.874  -8.975   3.457  1.00  0.00    -0.356 N 
ATOM      5  C   UNL     1      -5.397  -7.782   3.898  1.00  0.00     0.223 C 
ATOM      6  O   UNL     1      -5.749  -7.391   5.014  1.00  0.00    -0.275 OA
ATOM      7  H   UNL     1      -6.491  -9.423   4.080  1.00  0.00     0.163 HD
BRANCH   5   8
ATOM      8  C   UNL     1      -4.465  -6.932   3.052  1.00  0.00     0.081 C 
ATOM      9  N   UNL     1      -2.890  -6.286   0.733  1.00  0.00    -0.198 NA
ATOM     10  C   UNL     1      -2.200  -6.770   1.948  1.00  0.00     0.103 C 
ATOM     11  C   UNL     1      -4.214  -5.642   0.893  1.00  0.00     0.103 C 
ATOM     12  C   UNL     1      -3.117  -7.608   2.820  1.00  0.00     0.030 C 
ATOM     13  C   UNL     1      -5.144  -6.460   1.768  1.00  0.00     0.030 C 
BRANCH   9  14
ATOM     14  S   UNL     1      -1.894  -5.642  -0.499  1.00  0.00     0.243 S 
ATOM     15  O   UNL     1      -2.708  -5.523  -1.688  1.00  0.00    -0.207 OA
ATOM     16  O   UNL     1      -0.643  -6.369  -0.495  1.00  0.00    -0.207 OA
BRANCH  14  17
ATOM     17  C   UNL     1      -1.486  -3.967  -0.022  1.00  0.00     0.083 A 
ATOM     18  C   UNL     1      -0.601  -1.817  -0.710  1.00  0.00     0.083 A 
ATOM     19  C   UNL     1      -0.908  -3.154  -1.003  1.00  0.00     0.039 A 
ATOM     20  C   UNL     1      -0.945  -1.276   0.536  1.00  0.00     0.131 A 
ATOM     21  C   UNL     1      -1.480  -2.103   1.521  1.00  0.00     0.048 A 
ATOM     22  C   UNL     1      -1.746  -3.444   1.246  1.00  0.00     0.025 A 
BRANCH  18  23
ATOM     23  C   UNL     1       0.072  -1.039  -1.766  1.00  0.00     0.254 C 
ATOM     24  C   UNL     1       2.076  -0.483  -0.312  1.00  0.00     0.143 C 
ATOM     25  N   UNL     1       1.283  -0.446  -1.519  1.00  0.00    -0.355 N 
ATOM     26  H   UNL     1       1.663   0.075  -2.263  1.00  0.00     0.163 HD
ATOM     27  O   UNL     1      -0.455  -0.941  -2.870  1.00  0.00    -0.269 OA
ENDBRANCH  18  23
BRANCH  20  28
ATOM     28  O   UNL     1      -0.764   0.029   0.908  1.00  0.00    -0.496 OA
ATOM     29  C   UNL     1      -1.465   0.941   0.059  1.00  0.00     0.278 C 
ENDBRANCH  20  28
ENDBRANCH  14  17
ENDBRANCH   9  14
ENDBRANCH   5   8
ENDBRANCH   3   4
ENDBRANCH   2   3
ENDBRANCH   1   2
BRANCH   1  30
ATOM     30  C   UNL     1      -7.248 -12.323   2.351  1.00  0.00     0.002 C 
BRANCH  30  31
ATOM     31  C   UNL     1      -7.073 -12.668   0.870  1.00  0.00     0.021 C 
BRANCH  31  32
ATOM     32  C   UNL     1      -6.181 -13.873   0.590  1.00  0.00     0.116 C 
BRANCH  32  33
ATOM     33  N   UNL     1      -6.703 -15.092   1.185  1.00  0.00    -0.352 N 
ATOM     34  C   UNL     1      -6.904 -16.320   0.605  1.00  0.00     0.251 C 
ATOM     35  H   UNL     1      -6.946 -15.029   2.137  1.00  0.00     0.163 HD
ATOM     36  O   UNL     1      -7.514 -17.195   1.213  1.00  0.00    -0.269 OA
BRANCH  34  37
ATOM     37  C   UNL     1      -6.399 -16.577  -0.760  1.00  0.00     0.039 A 
ATOM     38  C   UNL     1      -7.247 -17.181  -1.692  1.00  0.00     0.014 A 
ATOM     39  C   UNL     1      -5.094 -16.224  -1.119  1.00  0.00     0.014 A 
ATOM     40  C   UNL     1      -6.805 -17.382  -3.002  1.00  0.00     0.010 A 
ATOM     41  C   UNL     1      -4.677 -16.371  -2.439  1.00  0.00     0.010 A 
ATOM     42  C   UNL     1      -5.526 -16.955  -3.391  1.00  0.00    -0.014 A 
BRANCH  42  43
ATOM     43  C   UNL     1      -5.057 -17.100  -4.792  1.00  0.00     0.031 A 
ATOM     44  C   UNL     1      -3.899 -18.005  -5.112  1.00  0.00     0.074 A 
ATOM     45  C   UNL     1      -5.615 -16.349  -5.761  1.00  0.00     0.049 A 
ATOM     46  N   UNL     1      -3.307 -18.212  -6.259  1.00  0.00    -0.248 NA
ATOM     47  C   UNL     1      -3.312 -18.758  -3.990  1.00  0.00     0.031 C 
ATOM     48  C   UNL     1      -6.695 -15.380  -5.563  1.00  0.00     0.029 A 
ATOM     49  N   UNL     1      -5.332 -16.261  -7.101  1.00  0.00    -0.354 N 
ATOM     50  C   UNL     1      -2.261 -19.088  -5.994  1.00  0.00     0.074 A 
ATOM     51  C   UNL     1      -2.279 -19.350  -4.571  1.00  0.00     0.031 C 
ATOM     52  C   UNL     1      -6.985 -14.798  -6.738  1.00  0.00     0.029 A 
ATOM     53  C   UNL     1      -6.098 -15.332  -7.767  1.00  0.00     0.049 A 
ATOM     54  H   UNL     1      -4.645 -16.810  -7.544  1.00  0.00     0.167 HD
ATOM     55  C   UNL     1      -1.385 -19.650  -6.861  1.00  0.00     0.034 A 
ATOM     56  C   UNL     1      -6.086 -14.955  -9.060  1.00  0.00     0.034 A 
ATOM     57  C   UNL     1      -1.402 -19.428  -8.281  1.00  0.00     0.049 A 
ATOM     58  C   UNL     1      -5.130 -15.625 -10.009  1.00  0.00     0.074 A 
ATOM     59  C   UNL     1      -0.614 -20.017  -9.254  1.00  0.00     0.029 A 
ATOM     60  N   UNL     1      -2.252 -18.548  -8.933  1.00  0.00    -0.354 N 
ATOM     61  N   UNL     1      -4.254 -16.570  -9.766  1.00  0.00    -0.248 NA
ATOM     62  C   UNL     1      -5.183 -15.203 -11.416  1.00  0.00     0.031 C 
ATOM     63  C   UNL     1      -0.983 -19.486 -10.495  1.00  0.00     0.029 A 
ATOM     64  C   UNL     1      -2.007 -18.574 -10.295  1.00  0.00     0.049 A 
ATOM     65  H   UNL     1      -2.929 -17.986  -8.492  1.00  0.00     0.167 HD
ATOM     66  C   UNL     1      -3.678 -16.881 -10.993  1.00  0.00     0.074 A 
ATOM     67  C   UNL     1      -4.318 -16.035 -11.980  1.00  0.00     0.031 C 
ATOM     68  C   UNL     1      -2.695 -17.772 -11.274  1.00  0.00     0.034 A 
BRANCH  55  69
ATOM     69  C   UNL     1      -0.377 -20.619  -6.300  1.00  0.00     0.023 A 
ATOM     70  C   UNL     1      -0.808 -21.897  -5.888  1.00  0.00     0.012 A 
ATOM     71  C   UNL     1       0.991 -20.293  -6.224  1.00  0.00     0.148 A 
ATOM     72  C   UNL     1       0.100 -22.823  -5.378  1.00  0.00     0.002 A 
ATOM     73  C   UNL     1       1.896 -21.237  -5.751  1.00  0.00     0.091 A 
ATOM     74  F   UNL     1       1.380 -19.066  -6.597  1.00  0.00    -0.205 F 
ATOM     75  C   UNL     1       1.452 -22.497  -5.319  1.00  0.00     0.022 A 
BRANCH  73  76
ATOM     76  S   UNL     1       3.667 -20.934  -5.704  1.00  0.00     0.127 S 
ATOM     77  O   UNL     1       3.886 -20.682  -4.281  1.00  0.00    -0.237 OA
ATOM     78  O   UNL     1       4.213 -22.203  -6.188  1.00  0.00    -0.237 OA
ATOM     79  O   UNL     1       3.899 -19.802  -6.589  1.00  0.00    -0.744 OA
ENDBRANCH  73  76
ENDBRANCH  55  69
BRANCH  56  80
ATOM     80  C   UNL     1      -7.075 -13.953  -9.549  1.00  0.00     0.023 A 
ATOM     81  C   UNL     1      -8.132 -14.383 -10.374  1.00  0.00     0.012 A 
ATOM     82  C   UNL     1      -7.003 -12.597  -9.176  1.00  0.00     0.148 A 
ATOM     83  C   UNL     1      -9.086 -13.478 -10.841  1.00  0.00     0.002 A 
ATOM     84  C   UNL     1      -7.985 -11.710  -9.602  1.00  0.00     0.091 A 
ATOM     85  F   UNL     1      -5.980 -12.203  -8.404  1.00  0.00    -0.205 F 
ATOM     86  C   UNL     1      -9.019 -12.144 -10.446  1.00  0.00     0.022 A 
BRANCH  84  87
ATOM     87  S   UNL     1      -8.051 -10.007  -9.034  1.00  0.00     0.127 S 
ATOM     88  O   UNL     1      -7.585  -9.280 -10.211  1.00  0.00    -0.237 OA
ATOM     89  O   UNL     1      -9.473  -9.840  -8.729  1.00  0.00    -0.237 OA
ATOM     90  O   UNL     1      -7.182  -9.955  -7.865  1.00  0.00    -0.744 OA
ENDBRANCH  84  87
ENDBRANCH  56  80
BRANCH  68  91
ATOM     91  C   UNL     1      -2.264 -17.905 -12.710  1.00  0.00     0.023 A 
ATOM     92  C   UNL     1      -1.467 -16.901 -13.292  1.00  0.00     0.012 A 
ATOM     93  C   UNL     1      -2.578 -19.060 -13.454  1.00  0.00     0.148 A 
ATOM     94  C   UNL     1      -1.009 -17.031 -14.602  1.00  0.00     0.002 A 
ATOM     95  C   UNL     1      -2.082 -19.202 -14.745  1.00  0.00     0.091 A 
ATOM     96  F   UNL     1      -3.355 -19.995 -12.889  1.00  0.00    -0.205 F 
ATOM     97  C   UNL     1      -1.305 -18.185 -15.323  1.00  0.00     0.022 A 
BRANCH  95  98
ATOM     98  S   UNL     1      -2.339 -20.695 -15.711  1.00  0.00     0.127 S 
ATOM     99  O   UNL     1      -3.366 -20.264 -16.658  1.00  0.00    -0.237 OA
ATOM    100  O   UNL     1      -1.019 -20.917 -16.303  1.00  0.00    -0.237 OA
ATOM    101  O   UNL     1      -2.751 -21.719 -14.760  1.00  0.00    -0.744 OA
ENDBRANCH  95  98
ENDBRANCH  68  91
ENDBRANCH  42  43
ENDBRANCH  34  37
ENDBRANCH  32  33
ENDBRANCH  31  32
ENDBRANCH  30  31
ENDBRANCH   1  30
TORSDOF 20
