REMARK SMILES [NH3+]C[C@H]1CC[C@@H](C(=O)N[C@@H]2C=C[C@@H](C(=O)NCCCCCCNC(=O)c3ccc(-c4c5nc(c(-c6cccc(S(=O)(=O)[O-])c6F)c6ccc([nH]6)c(-c6cccc(S(=O)(=O)[O-])c6F)c6nc(c(-c7cccc(S(=O)(=O)[O-])c7F)c7ccc4[nH]7)C=C6)C=C5)cc3)C2)CC1
REMARK SMILES IDX 19 1 18 2 17 3 16 4 14 5 15 6 13 8 10 9 11 10 89 11 12 12
REMARK SMILES IDX 9 13 7 14 8 15 6 17 3 18 4 19 91 20 5 21 90 22 2 23 1 24
REMARK SMILES IDX 20 28 21 29 22 30 23 31 24 32 25 34 26 35 27 36 88 37 28 38
REMARK SMILES IDX 87 39 29 40 30 41 31 42 81 43 32 44 86 45 80 46 82 47 33 48
REMARK SMILES IDX 85 49 79 50 78 51 34 53 66 54 46 55 65 56 47 57 50 58 64 59
REMARK SMILES IDX 83 60 48 61 49 62 63 64 84 65 51 66 35 67 36 68 44 69 37 70
REMARK SMILES IDX 39 71 45 72 38 73 40 74 41 75 42 76 43 77 67 78 68 79 76 80
REMARK SMILES IDX 69 81 71 82 77 83 70 84 72 85 73 86 74 87 75 88 52 89 53 90
REMARK SMILES IDX 61 91 54 92 56 93 62 94 55 95 57 96 58 97 59 98 60 99
REMARK H PARENT 16 7 9 16 1 25 1 26 1 27 23 33 82 52 50 63
REMARK Flexibility Score: inf
ROOT
ATOM      1  C   UNL     1      -1.997  -2.682   6.324  1.00  0.00     0.002 C 
ENDROOT
BRANCH   1   2
ATOM      2  C   UNL     1      -1.725  -2.751   4.820  1.00  0.00     0.021 C 
BRANCH   2   3
ATOM      3  C   UNL     1      -1.661  -1.395   4.095  1.00  0.00     0.116 C 
BRANCH   3   4
ATOM      4  N   UNL     1      -0.267  -0.974   3.912  1.00  0.00    -0.356 N 
ATOM      5  C   UNL     1       0.621  -0.716   2.928  1.00  0.00     0.227 C 
ATOM      6  O   UNL     1       1.766  -0.496   3.370  1.00  0.00    -0.274 OA
ATOM      7  H   UNL     1       0.157  -0.833   4.790  1.00  0.00     0.163 HD
BRANCH   5   8
ATOM      8  C   UNL     1       0.472  -0.663   1.343  1.00  0.00     0.103 C 
ATOM      9  C   UNL     1      -0.103  -2.758  -1.111  1.00  0.00     0.106 C 
ATOM     10  C   UNL     1      -1.350  -1.471  -0.948  1.00  0.00    -0.006 C 
ATOM     11  C   UNL     1       1.136  -2.320   0.413  1.00  0.00     0.047 C 
ATOM     12  C   UNL     1      -1.107  -0.177   0.242  1.00  0.00    -0.016 C 
BRANCH   9  13
ATOM     13  N   UNL     1      -0.126  -2.414  -2.638  1.00  0.00    -0.350 N 
ATOM     14  C   UNL     1      -1.057  -1.507  -3.333  1.00  0.00     0.223 C 
ATOM     15  O   UNL     1      -1.269  -1.690  -4.533  1.00  0.00    -0.275 OA
ATOM     16  H   UNL     1       0.556  -2.853  -3.196  1.00  0.00     0.164 HD
BRANCH  14  17
ATOM     17  C   UNL     1      -1.750  -0.134  -2.511  1.00  0.00     0.078 C 
ATOM     18  C   UNL     1      -0.936  -2.006   0.721  1.00  0.00     0.044 C 
ATOM     19  C   UNL     1       0.410  -0.857  -0.655  1.00  0.00     0.010 C 
ATOM     20  C   UNL     1      -2.873  -1.491   0.361  1.00  0.00     0.010 C 
ATOM     21  C   UNL     1      -0.319   0.357  -1.890  1.00  0.00     0.014 C 
ATOM     22  C   UNL     1      -3.144  -0.338  -1.201  1.00  0.00     0.014 C 
BRANCH  18  23
ATOM     23  C   UNL     1      -1.168  -3.566   1.222  1.00  0.00     0.262 C 
BRANCH  23  24
ATOM     24  N   UNL     1      -0.350  -4.078   2.315  1.00  0.00    -0.357 N 
ATOM     25  H   UNL     1      -0.608  -5.046   2.508  1.00  0.00     0.344 HD
ATOM     26  H   UNL     1      -0.504  -3.513   3.150  1.00  0.00     0.344 HD
ATOM     27  H   UNL     1       0.635  -4.035   2.052  1.00  0.00     0.344 HD
ENDBRANCH  23  24
ENDBRANCH  18  23
ENDBRANCH  14  17
ENDBRANCH   9  13
ENDBRANCH   5   8
ENDBRANCH   3   4
ENDBRANCH   2   3
ENDBRANCH   1   2
BRANCH   1  28
ATOM     28  C   UNL     1      -3.381  -2.164   6.717  1.00  0.00     0.002 C 
BRANCH  28  29
ATOM     29  C   UNL     1      -4.562  -2.870   6.048  1.00  0.00     0.021 C 
BRANCH  29  30
ATOM     30  C   UNL     1      -4.566  -4.391   6.190  1.00  0.00     0.116 C 
BRANCH  30  31
ATOM     31  N   UNL     1      -4.573  -4.797   7.588  1.00  0.00    -0.352 N 
ATOM     32  C   UNL     1      -5.588  -5.374   8.310  1.00  0.00     0.251 C 
ATOM     33  H   UNL     1      -3.738  -4.636   8.083  1.00  0.00     0.163 HD
ATOM     34  O   UNL     1      -5.548  -5.390   9.536  1.00  0.00    -0.269 OA
BRANCH  32  35
ATOM     35  C   UNL     1      -6.723  -5.983   7.590  1.00  0.00     0.039 A 
ATOM     36  C   UNL     1      -8.028  -5.707   8.000  1.00  0.00     0.014 A 
ATOM     37  C   UNL     1      -6.482  -6.838   6.511  1.00  0.00     0.014 A 
ATOM     38  C   UNL     1      -9.100  -6.261   7.297  1.00  0.00     0.010 A 
ATOM     39  C   UNL     1      -7.548  -7.324   5.767  1.00  0.00     0.010 A 
ATOM     40  C   UNL     1      -8.867  -7.058   6.164  1.00  0.00    -0.014 A 
BRANCH  40  41
ATOM     41  C   UNL     1      -9.983  -7.654   5.389  1.00  0.00     0.031 A 
ATOM     42  C   UNL     1     -10.118  -9.151   5.313  1.00  0.00     0.074 A 
ATOM     43  C   UNL     1     -10.809  -6.858   4.684  1.00  0.00     0.049 A 
ATOM     44  N   UNL     1     -10.965  -9.870   4.625  1.00  0.00    -0.248 NA
ATOM     45  C   UNL     1      -9.151  -9.946   6.090  1.00  0.00     0.031 C 
ATOM     46  C   UNL     1     -10.735  -5.397   4.631  1.00  0.00     0.029 A 
ATOM     47  N   UNL     1     -11.857  -7.168   3.856  1.00  0.00    -0.354 N 
ATOM     48  C   UNL     1     -10.610 -11.194   4.853  1.00  0.00     0.074 A 
ATOM     49  C   UNL     1      -9.445 -11.179   5.709  1.00  0.00     0.031 C 
ATOM     50  C   UNL     1     -11.701  -4.937   3.820  1.00  0.00     0.029 A 
ATOM     51  C   UNL     1     -12.440  -6.069   3.269  1.00  0.00     0.049 A 
ATOM     52  H   UNL     1     -12.164  -8.090   3.696  1.00  0.00     0.167 HD
ATOM     53  C   UNL     1     -11.217 -12.323   4.416  1.00  0.00     0.034 A 
ATOM     54  C   UNL     1     -13.450  -5.986   2.382  1.00  0.00     0.034 A 
ATOM     55  C   UNL     1     -12.397 -12.328   3.595  1.00  0.00     0.049 A 
ATOM     56  C   UNL     1     -14.119  -7.254   1.922  1.00  0.00     0.074 A 
ATOM     57  C   UNL     1     -13.139 -13.410   3.160  1.00  0.00     0.029 A 
ATOM     58  N   UNL     1     -13.002 -11.192   3.079  1.00  0.00    -0.354 N 
ATOM     59  N   UNL     1     -13.860  -8.494   2.263  1.00  0.00    -0.248 NA
ATOM     60  C   UNL     1     -15.240  -7.111   0.983  1.00  0.00     0.031 C 
ATOM     61  C   UNL     1     -14.178 -12.929   2.355  1.00  0.00     0.029 A 
ATOM     62  C   UNL     1     -14.103 -11.546   2.320  1.00  0.00     0.049 A 
ATOM     63  H   UNL     1     -12.694 -10.269   3.230  1.00  0.00     0.167 HD
ATOM     64  C   UNL     1     -14.814  -9.274   1.618  1.00  0.00     0.074 A 
ATOM     65  C   UNL     1     -15.662  -8.364   0.874  1.00  0.00     0.031 C 
ATOM     66  C   UNL     1     -14.970 -10.621   1.634  1.00  0.00     0.034 A 
BRANCH  53  67
ATOM     67  C   UNL     1     -10.635 -13.643   4.855  1.00  0.00     0.023 A 
ATOM     68  C   UNL     1     -10.724 -14.030   6.209  1.00  0.00     0.012 A 
ATOM     69  C   UNL     1     -10.028 -14.514   3.929  1.00  0.00     0.148 A 
ATOM     70  C   UNL     1     -10.176 -15.236   6.643  1.00  0.00     0.002 A 
ATOM     71  C   UNL     1      -9.529 -15.738   4.361  1.00  0.00     0.091 A 
ATOM     72  F   UNL     1      -9.933 -14.124   2.650  1.00  0.00    -0.205 F 
ATOM     73  C   UNL     1      -9.587 -16.093   5.719  1.00  0.00     0.022 A 
BRANCH  71  74
ATOM     74  S   UNL     1      -8.826 -16.948   3.234  1.00  0.00     0.127 S 
ATOM     75  O   UNL     1      -7.404 -16.867   3.564  1.00  0.00    -0.237 OA
ATOM     76  O   UNL     1      -9.482 -18.184   3.663  1.00  0.00    -0.237 OA
ATOM     77  O   UNL     1      -9.185 -16.504   1.895  1.00  0.00    -0.744 OA
ENDBRANCH  71  74
ENDBRANCH  53  67
BRANCH  54  78
ATOM     78  C   UNL     1     -13.941  -4.653   1.930  1.00  0.00     0.023 A 
ATOM     79  C   UNL     1     -15.208  -4.208   2.356  1.00  0.00     0.012 A 
ATOM     80  C   UNL     1     -13.158  -3.816   1.112  1.00  0.00     0.148 A 
ATOM     81  C   UNL     1     -15.701  -2.968   1.948  1.00  0.00     0.002 A 
ATOM     82  C   UNL     1     -13.633  -2.559   0.754  1.00  0.00     0.091 A 
ATOM     83  F   UNL     1     -11.958  -4.261   0.713  1.00  0.00    -0.205 F 
ATOM     84  C   UNL     1     -14.911  -2.140   1.156  1.00  0.00     0.022 A 
BRANCH  82  85
ATOM     85  S   UNL     1     -12.636  -1.374  -0.157  1.00  0.00     0.127 S 
ATOM     86  O   UNL     1     -13.339  -1.314  -1.436  1.00  0.00    -0.237 OA
ATOM     87  O   UNL     1     -12.762  -0.175   0.673  1.00  0.00    -0.237 OA
ATOM     88  O   UNL     1     -11.294  -1.937  -0.200  1.00  0.00    -0.744 OA
ENDBRANCH  82  85
ENDBRANCH  54  78
BRANCH  66  89
ATOM     89  C   UNL     1     -16.132 -11.201   0.872  1.00  0.00     0.023 A 
ATOM     90  C   UNL     1     -16.106 -11.237  -0.536  1.00  0.00     0.012 A 
ATOM     91  C   UNL     1     -17.208 -11.795   1.561  1.00  0.00     0.148 A 
ATOM     92  C   UNL     1     -17.149 -11.831  -1.247  1.00  0.00     0.002 A 
ATOM     93  C   UNL     1     -18.215 -12.431   0.849  1.00  0.00     0.091 A 
ATOM     94  F   UNL     1     -17.220 -11.733   2.901  1.00  0.00    -0.205 F 
ATOM     95  C   UNL     1     -18.194 -12.440  -0.555  1.00  0.00     0.022 A 
BRANCH  93  96
ATOM     96  S   UNL     1     -19.546 -13.330   1.654  1.00  0.00     0.127 S 
ATOM     97  O   UNL     1     -20.699 -12.482   1.359  1.00  0.00    -0.237 OA
ATOM     98  O   UNL     1     -19.529 -14.608   0.941  1.00  0.00    -0.237 OA
ATOM     99  O   UNL     1     -19.181 -13.417   3.061  1.00  0.00    -0.744 OA
ENDBRANCH  93  96
ENDBRANCH  66  89
ENDBRANCH  40  41
ENDBRANCH  32  35
ENDBRANCH  30  31
ENDBRANCH  29  30
ENDBRANCH  28  29
ENDBRANCH   1  28
TORSDOF 20
