REMARK SMILES COc1cc(/C=C2/SC(=O)N(c3ccc(O)cc3C)C2=O)ccc1OCC(=O)NCCCCCCNC(=O)c1ccc(-c2c3nc(c(-c4cccc(S(=O)(=O)[O-])c4F)c4ccc([nH]4)c(-c4cccc(S(=O)(=O)[O-])c4F)c4nc(c(-c5cccc(S(=O)(=O)[O-])c5F)c5ccc2[nH]5)C=C4)C=C3)cc1
REMARK SMILES IDX 31 1 30 2 29 3 27 4 28 5 26 7 25 8 24 9 3 10 4 11 5 12 23 13
REMARK SMILES IDX 22 14 2 15 1 16 6 17 7 18 8 19 20 20 9 21 11 22 21 23 10 24
REMARK SMILES IDX 12 25 13 26 18 27 14 28 17 29 19 30 15 31 16 32 32 34 33 35
REMARK SMILES IDX 34 36 35 37 36 38 37 39 38 41 39 42 40 43 101 44 41 45
REMARK SMILES IDX 100 46 42 47 43 48 44 49 94 50 45 51 99 52 93 53 95 54 46 55
REMARK SMILES IDX 98 56 92 57 91 58 47 60 79 61 59 62 78 63 60 64 63 65 77 66
REMARK SMILES IDX 96 67 61 68 62 69 76 71 97 72 64 73 48 74 49 75 57 76 50 77
REMARK SMILES IDX 52 78 58 79 51 80 53 81 54 82 55 83 56 84 80 85 81 86 89 87
REMARK SMILES IDX 82 88 84 89 90 90 83 91 85 92 86 93 87 94 88 95 65 96 66 97
REMARK SMILES IDX 74 98 67 99 69 100 75 101 68 102 70 103 71 104 72 105 73 106
REMARK H PARENT 29 6 16 33 36 40 95 59 63 70
REMARK Flexibility Score: inf
ROOT
ATOM      1  C   UNL     1       2.981  -2.224  -3.500  1.00  0.00     0.021 C 
ENDROOT
BRANCH   1   2
ATOM      2  C   UNL     1       3.598  -0.998  -2.827  1.00  0.00     0.116 C 
BRANCH   2   3
ATOM      3  N   UNL     1       2.597  -0.080  -2.323  1.00  0.00    -0.353 N 
ATOM      4  C   UNL     1       2.384   0.334  -1.040  1.00  0.00     0.257 C 
ATOM      5  O   UNL     1       1.576   1.248  -0.854  1.00  0.00    -0.271 OA
ATOM      6  H   UNL     1       1.987   0.296  -2.998  1.00  0.00     0.163 HD
BRANCH   4   7
ATOM      7  C   UNL     1       3.193  -0.283   0.105  1.00  0.00     0.329 C 
BRANCH   7   8
ATOM      8  O   UNL     1       3.327  -1.691   0.109  1.00  0.00    -0.480 OA
BRANCH   8   9
ATOM      9  C   UNL     1       2.253  -2.496   0.352  1.00  0.00     0.161 A 
ATOM     10  C   UNL     1       1.030  -2.173   0.950  1.00  0.00     0.161 A 
ATOM     11  C   UNL     1       0.103  -3.188   1.237  1.00  0.00     0.058 A 
ATOM     12  C   UNL     1       0.376  -4.518   0.901  1.00  0.00    -0.020 A 
ATOM     13  C   UNL     1       2.490  -3.825  -0.029  1.00  0.00     0.051 A 
ATOM     14  C   UNL     1       1.556  -4.828   0.223  1.00  0.00     0.012 A 
BRANCH  10  15
ATOM     15  O   UNL     1       0.784  -0.905   1.404  1.00  0.00    -0.493 OA
ATOM     16  C   UNL     1      -0.390  -0.339   0.822  1.00  0.00     0.278 C 
ENDBRANCH  10  15
BRANCH  12  17
ATOM     17  C   UNL     1      -0.460  -5.599   1.431  1.00  0.00     0.029 C 
ATOM     18  C   UNL     1      -0.161  -6.243   2.572  1.00  0.00     0.083 C 
ATOM     19  S   UNL     1      -1.077  -7.559   3.195  1.00  0.00    -0.022 SA
ATOM     20  C   UNL     1       1.008  -5.973   3.465  1.00  0.00     0.272 C 
ATOM     21  C   UNL     1       0.037  -7.816   4.536  1.00  0.00     0.298 C 
ATOM     22  N   UNL     1       1.089  -6.937   4.457  1.00  0.00    -0.236 N 
ATOM     23  O   UNL     1       1.778  -5.038   3.301  1.00  0.00    -0.268 OA
ATOM     24  O   UNL     1      -0.208  -8.643   5.406  1.00  0.00    -0.260 OA
BRANCH  22  25
ATOM     25  C   UNL     1       2.180  -6.941   5.376  1.00  0.00     0.056 A 
ATOM     26  C   UNL     1       2.595  -5.714   5.934  1.00  0.00     0.031 A 
ATOM     27  C   UNL     1       2.913  -8.107   5.686  1.00  0.00    -0.023 A 
ATOM     28  C   UNL     1       3.697  -5.633   6.784  1.00  0.00     0.048 A 
ATOM     29  C   UNL     1       4.019  -8.010   6.558  1.00  0.00     0.051 A 
ATOM     30  C   UNL     1       2.647  -9.465   5.092  1.00  0.00     0.047 C 
ATOM     31  C   UNL     1       4.406  -6.781   7.084  1.00  0.00     0.115 A 
BRANCH  31  32
ATOM     32  O   UNL     1       5.498  -6.662   7.889  1.00  0.00    -0.508 OA
ATOM     33  H   UNL     1       5.739  -5.824   8.231  1.00  0.00     0.293 HD
ENDBRANCH  31  32
ENDBRANCH  22  25
ENDBRANCH  12  17
ENDBRANCH   8   9
ENDBRANCH   7   8
ENDBRANCH   4   7
ENDBRANCH   2   3
ENDBRANCH   1   2
BRANCH   1  34
ATOM     34  C   UNL     1       2.024  -1.931  -4.661  1.00  0.00     0.002 C 
BRANCH  34  35
ATOM     35  C   UNL     1       2.534  -0.961  -5.730  1.00  0.00     0.002 C 
BRANCH  35  36
ATOM     36  C   UNL     1       3.901  -1.285  -6.331  1.00  0.00     0.021 C 
BRANCH  36  37
ATOM     37  C   UNL     1       4.030  -2.670  -6.951  1.00  0.00     0.116 C 
BRANCH  37  38
ATOM     38  N   UNL     1       3.172  -2.845  -8.111  1.00  0.00    -0.352 N 
ATOM     39  C   UNL     1       3.499  -3.306  -9.364  1.00  0.00     0.251 C 
ATOM     40  H   UNL     1       2.228  -2.600  -7.981  1.00  0.00     0.163 HD
ATOM     41  O   UNL     1       2.677  -3.245 -10.274  1.00  0.00    -0.269 OA
BRANCH  39  42
ATOM     42  C   UNL     1       4.852  -3.851  -9.619  1.00  0.00     0.039 A 
ATOM     43  C   UNL     1       5.542  -3.438 -10.762  1.00  0.00     0.014 A 
ATOM     44  C   UNL     1       5.441  -4.759  -8.734  1.00  0.00     0.014 A 
ATOM     45  C   UNL     1       6.845  -3.890 -10.987  1.00  0.00     0.010 A 
ATOM     46  C   UNL     1       6.763  -5.152  -8.923  1.00  0.00     0.010 A 
ATOM     47  C   UNL     1       7.478  -4.728 -10.053  1.00  0.00    -0.014 A 
BRANCH  47  48
ATOM     48  C   UNL     1       8.887  -5.164 -10.236  1.00  0.00     0.031 A 
ATOM     49  C   UNL     1       9.212  -6.622 -10.417  1.00  0.00     0.074 A 
ATOM     50  C   UNL     1       9.882  -4.259 -10.148  1.00  0.00     0.049 A 
ATOM     51  N   UNL     1      10.381  -7.198 -10.531  1.00  0.00    -0.248 NA
ATOM     52  C   UNL     1       8.078  -7.560 -10.445  1.00  0.00     0.031 C 
ATOM     53  C   UNL     1       9.703  -2.828  -9.892  1.00  0.00     0.029 A 
ATOM     54  N   UNL     1      11.243  -4.412 -10.235  1.00  0.00    -0.354 N 
ATOM     55  C   UNL     1      10.127  -8.562 -10.606  1.00  0.00     0.074 A 
ATOM     56  C   UNL     1       8.695  -8.732 -10.493  1.00  0.00     0.031 C 
ATOM     57  C   UNL     1      10.908  -2.236  -9.844  1.00  0.00     0.029 A 
ATOM     58  C   UNL     1      11.944  -3.245 -10.041  1.00  0.00     0.049 A 
ATOM     59  H   UNL     1      11.677  -5.276 -10.420  1.00  0.00     0.167 HD
ATOM     60  C   UNL     1      11.002  -9.580 -10.786  1.00  0.00     0.034 A 
ATOM     61  C   UNL     1      13.272  -3.013 -10.020  1.00  0.00     0.034 A 
ATOM     62  C   UNL     1      12.420  -9.405 -10.953  1.00  0.00     0.049 A 
ATOM     63  C   UNL     1      14.219  -4.154 -10.277  1.00  0.00     0.074 A 
ATOM     64  C   UNL     1      13.377 -10.363 -11.237  1.00  0.00     0.029 A 
ATOM     65  N   UNL     1      13.085  -8.194 -10.850  1.00  0.00    -0.354 N 
ATOM     66  N   UNL     1      13.947  -5.414 -10.514  1.00  0.00    -0.248 NA
ATOM     67  C   UNL     1      15.654  -3.835 -10.302  1.00  0.00     0.031 C 
ATOM     68  C   UNL     1      14.624  -9.732 -11.291  1.00  0.00     0.029 A 
ATOM     69  C   UNL     1      14.441  -8.378 -11.058  1.00  0.00     0.049 A 
ATOM     70  H   UNL     1      12.656  -7.329 -10.656  1.00  0.00     0.167 HD
ATOM     71  C   UNL     1      15.170  -6.030 -10.751  1.00  0.00     0.074 A 
ATOM     72  C   UNL     1      16.184  -5.000 -10.649  1.00  0.00     0.031 C 
ATOM     73  C   UNL     1      15.432  -7.335 -11.011  1.00  0.00     0.034 A 
BRANCH  60  74
ATOM     74  C   UNL     1      10.443 -10.976 -10.876  1.00  0.00     0.023 A 
ATOM     75  C   UNL     1       9.728 -11.362 -12.029  1.00  0.00     0.012 A 
ATOM     76  C   UNL     1      10.670 -11.920  -9.856  1.00  0.00     0.148 A 
ATOM     77  C   UNL     1       9.220 -12.654 -12.151  1.00  0.00     0.002 A 
ATOM     78  C   UNL     1      10.196 -13.219 -10.004  1.00  0.00     0.091 A 
ATOM     79  F   UNL     1      11.331 -11.530  -8.757  1.00  0.00    -0.205 F 
ATOM     80  C   UNL     1       9.462 -13.584 -11.145  1.00  0.00     0.022 A 
BRANCH  78  81
ATOM     81  S   UNL     1      10.520 -14.511  -8.798  1.00  0.00     0.127 S 
ATOM     82  O   UNL     1       9.209 -14.663  -8.169  1.00  0.00    -0.237 OA
ATOM     83  O   UNL     1      10.922 -15.633  -9.647  1.00  0.00    -0.237 OA
ATOM     84  O   UNL     1      11.574 -13.997  -7.935  1.00  0.00    -0.744 OA
ENDBRANCH  78  81
ENDBRANCH  60  74
BRANCH  61  85
ATOM     85  C   UNL     1      13.780  -1.625  -9.824  1.00  0.00     0.023 A 
ATOM     86  C   UNL     1      14.365  -0.946 -10.910  1.00  0.00     0.012 A 
ATOM     87  C   UNL     1      13.659  -0.965  -8.586  1.00  0.00     0.148 A 
ATOM     88  C   UNL     1      14.847   0.354 -10.761  1.00  0.00     0.002 A 
ATOM     89  C   UNL     1      14.092   0.350  -8.459  1.00  0.00     0.091 A 
ATOM     90  F   UNL     1      13.113  -1.632  -7.560  1.00  0.00    -0.205 F 
ATOM     91  C   UNL     1      14.701   1.006  -9.540  1.00  0.00     0.022 A 
BRANCH  89  92
ATOM     92  S   UNL     1      13.823   1.308  -6.963  1.00  0.00     0.127 S 
ATOM     93  O   UNL     1      15.169   1.366  -6.398  1.00  0.00    -0.237 OA
ATOM     94  O   UNL     1      13.324   2.575  -7.499  1.00  0.00    -0.237 OA
ATOM     95  O   UNL     1      12.841   0.559  -6.191  1.00  0.00    -0.744 OA
ENDBRANCH  89  92
ENDBRANCH  61  85
BRANCH  73  96
ATOM     96  C   UNL     1      16.868  -7.728 -11.238  1.00  0.00     0.023 A 
ATOM     97  C   UNL     1      17.756  -7.788 -10.146  1.00  0.00     0.012 A 
ATOM     98  C   UNL     1      17.316  -8.115 -12.517  1.00  0.00     0.148 A 
ATOM     99  C   UNL     1      19.076  -8.200 -10.328  1.00  0.00     0.002 A 
ATOM    100  C   UNL     1      18.620  -8.568 -12.682  1.00  0.00     0.091 A 
ATOM    101  F   UNL     1      16.462  -8.032 -13.547  1.00  0.00    -0.205 F 
ATOM    102  C   UNL     1      19.504  -8.601 -11.591  1.00  0.00     0.022 A 
BRANCH 100 103
ATOM    103  S   UNL     1      19.227  -9.194 -14.253  1.00  0.00     0.127 S 
ATOM    104  O   UNL     1      20.079  -8.094 -14.702  1.00  0.00    -0.237 OA
ATOM    105  O   UNL     1      19.951 -10.400 -13.850  1.00  0.00    -0.237 OA
ATOM    106  O   UNL     1      18.045  -9.444 -15.066  1.00  0.00    -0.744 OA
ENDBRANCH 100 103
ENDBRANCH  73  96
ENDBRANCH  47  48
ENDBRANCH  39  42
ENDBRANCH  37  38
ENDBRANCH  36  37
ENDBRANCH  35  36
ENDBRANCH  34  35
ENDBRANCH   1  34
TORSDOF 22
