REMARK SMILES O=C(CSC(=S)NC(=O)c1ccc([N+](=O)[O-])cc1)NCCCCCCNC(=O)c1ccc(-c2c3nc(c(-c4cccc(S(=O)(=O)[O-])c4F)c4ccc([nH]4)c(-c4cccc(S(=O)(=O)[O-])c4F)c4nc(c(-c5cccc(S(=O)(=O)[O-])c5F)c5ccc2[nH]5)C=C4)C=C3)cc1
REMARK SMILES IDX 21 1 20 2 19 3 1 4 2 5 3 7 4 8 5 9 6 10 7 11 8 12 9 14 10 15
REMARK SMILES IDX 11 16 18 17 12 18 17 19 13 20 14 21 15 22 16 23 22 24 23 25
REMARK SMILES IDX 24 26 25 27 26 28 27 29 28 31 29 32 30 33 91 34 31 35 90 36
REMARK SMILES IDX 32 37 33 38 34 39 84 40 35 41 89 42 83 43 85 44 36 45 88 46
REMARK SMILES IDX 82 47 81 48 37 50 69 51 49 52 68 53 50 54 53 55 67 56 86 57
REMARK SMILES IDX 51 58 52 59 66 61 87 62 54 63 38 64 39 65 47 66 40 67 42 68
REMARK SMILES IDX 48 69 41 70 43 71 44 72 45 73 46 74 70 75 71 76 79 77 72 78
REMARK SMILES IDX 74 79 80 80 73 81 75 82 76 83 77 84 78 85 55 86 56 87 64 88
REMARK SMILES IDX 57 89 59 90 65 91 58 92 60 93 61 94 62 95 63 96
REMARK H PARENT 19 6 7 13 26 30 85 49 53 60
REMARK Flexibility Score: inf
ROOT
ATOM      1  C   UNL     1       2.643  -0.587   3.492  1.00  0.00     0.021 C 
ENDROOT
BRANCH   1   2
ATOM      2  C   UNL     1       1.956   0.390   2.541  1.00  0.00     0.116 C 
BRANCH   2   3
ATOM      3  N   UNL     1       2.558   0.361   1.229  1.00  0.00    -0.355 N 
ATOM      4  O   UNL     1       0.797  -0.556   0.070  1.00  0.00    -0.274 OA
ATOM      5  C   UNL     1       1.923  -0.069   0.087  1.00  0.00     0.230 C 
ATOM      6  H   UNL     1       3.490   0.669   1.147  1.00  0.00     0.163 HD
BRANCH   5   7
ATOM      7  C   UNL     1       2.786   0.000  -1.164  1.00  0.00     0.177 C 
BRANCH   7   8
ATOM      8  S   UNL     1       3.930   1.413  -1.114  1.00  0.00    -0.087 SA
BRANCH   8   9
ATOM      9  C   UNL     1       3.096   2.697  -1.951  1.00  0.00     0.141 C 
ATOM     10  S   UNL     1       1.441   2.914  -2.020  1.00  0.00    -0.052 S 
BRANCH   9  11
ATOM     11  N   UNL     1       3.890   3.693  -2.531  1.00  0.00    -0.307 N 
ATOM     12  C   UNL     1       5.251   3.954  -2.718  1.00  0.00     0.256 C 
ATOM     13  H   UNL     1       3.335   4.410  -2.915  1.00  0.00     0.171 HD
ATOM     14  O   UNL     1       5.649   5.101  -2.898  1.00  0.00    -0.269 OA
BRANCH  12  15
ATOM     15  C   UNL     1       6.229   2.852  -2.679  1.00  0.00     0.040 A 
ATOM     16  C   UNL     1       7.299   2.930  -1.780  1.00  0.00     0.021 A 
ATOM     17  C   UNL     1       6.058   1.725  -3.495  1.00  0.00     0.021 A 
ATOM     18  C   UNL     1       8.148   1.832  -1.619  1.00  0.00     0.086 A 
ATOM     19  C   UNL     1       6.893   0.619  -3.325  1.00  0.00     0.086 A 
ATOM     20  C   UNL     1       7.919   0.669  -2.369  1.00  0.00     0.269 A 
BRANCH  20  21
ATOM     21  N   UNL     1       8.739  -0.524  -2.128  1.00  0.00     0.062 N 
ATOM     22  O   UNL     1       9.769  -0.389  -1.454  1.00  0.00    -0.258 OA
ATOM     23  O   UNL     1       8.344  -1.596  -2.608  1.00  0.00    -0.258 OA
ENDBRANCH  20  21
ENDBRANCH  12  15
ENDBRANCH   9  11
ENDBRANCH   8   9
ENDBRANCH   7   8
ENDBRANCH   5   7
ENDBRANCH   2   3
ENDBRANCH   1   2
BRANCH   1  24
ATOM     24  C   UNL     1       4.159  -0.389   3.645  1.00  0.00     0.002 C 
BRANCH  24  25
ATOM     25  C   UNL     1       4.611   1.003   4.096  1.00  0.00     0.002 C 
BRANCH  25  26
ATOM     26  C   UNL     1       3.975   1.513   5.390  1.00  0.00     0.021 C 
BRANCH  26  27
ATOM     27  C   UNL     1       4.141   0.597   6.598  1.00  0.00     0.116 C 
BRANCH  27  28
ATOM     28  N   UNL     1       5.532   0.443   6.997  1.00  0.00    -0.352 N 
ATOM     29  C   UNL     1       6.093   0.575   8.244  1.00  0.00     0.251 C 
ATOM     30  H   UNL     1       6.157   0.211   6.273  1.00  0.00     0.163 HD
ATOM     31  O   UNL     1       7.316   0.564   8.370  1.00  0.00    -0.269 OA
BRANCH  29  32
ATOM     32  C   UNL     1       5.226   0.756   9.430  1.00  0.00     0.039 A 
ATOM     33  C   UNL     1       5.563   1.732  10.372  1.00  0.00     0.014 A 
ATOM     34  C   UNL     1       4.081  -0.025   9.611  1.00  0.00     0.014 A 
ATOM     35  C   UNL     1       4.718   1.964  11.461  1.00  0.00     0.010 A 
ATOM     36  C   UNL     1       3.201   0.263  10.651  1.00  0.00     0.010 A 
ATOM     37  C   UNL     1       3.513   1.255  11.592  1.00  0.00    -0.014 A 
BRANCH  37  38
ATOM     38  C   UNL     1       2.563   1.547  12.698  1.00  0.00     0.031 A 
ATOM     39  C   UNL     1       2.224   0.488  13.713  1.00  0.00     0.074 A 
ATOM     40  C   UNL     1       1.942   2.743  12.743  1.00  0.00     0.049 A 
ATOM     41  N   UNL     1       1.402   0.553  14.729  1.00  0.00    -0.248 NA
ATOM     42  C   UNL     1       2.873  -0.823  13.552  1.00  0.00     0.031 C 
ATOM     43  C   UNL     1       2.126   3.829  11.778  1.00  0.00     0.029 A 
ATOM     44  N   UNL     1       1.015   3.239  13.626  1.00  0.00    -0.354 N 
ATOM     45  C   UNL     1       1.404  -0.714  15.302  1.00  0.00     0.074 A 
ATOM     46  C   UNL     1       2.283  -1.536  14.499  1.00  0.00     0.031 C 
ATOM     47  C   UNL     1       1.355   4.869  12.132  1.00  0.00     0.029 A 
ATOM     48  C   UNL     1       0.594   4.514  13.326  1.00  0.00     0.049 A 
ATOM     49  H   UNL     1       0.682   2.731  14.400  1.00  0.00     0.167 HD
ATOM     50  C   UNL     1       0.755  -1.149  16.408  1.00  0.00     0.034 A 
ATOM     51  C   UNL     1      -0.304   5.308  13.942  1.00  0.00     0.034 A 
ATOM     52  C   UNL     1      -0.092  -0.319  17.223  1.00  0.00     0.049 A 
ATOM     53  C   UNL     1      -0.996   4.808  15.181  1.00  0.00     0.074 A 
ATOM     54  C   UNL     1      -0.716  -0.636  18.417  1.00  0.00     0.029 A 
ATOM     55  N   UNL     1      -0.451   0.985  16.919  1.00  0.00    -0.354 N 
ATOM     56  N   UNL     1      -0.852   3.663  15.803  1.00  0.00    -0.248 NA
ATOM     57  C   UNL     1      -1.951   5.724  15.822  1.00  0.00     0.031 C 
ATOM     58  C   UNL     1      -1.485   0.463  18.813  1.00  0.00     0.029 A 
ATOM     59  C   UNL     1      -1.306   1.480  17.890  1.00  0.00     0.049 A 
ATOM     60  H   UNL     1      -0.143   1.486  16.130  1.00  0.00     0.167 HD
ATOM     61  C   UNL     1      -1.663   3.737  16.930  1.00  0.00     0.074 A 
ATOM     62  C   UNL     1      -2.282   5.046  16.912  1.00  0.00     0.031 C 
ATOM     63  C   UNL     1      -1.882   2.802  17.887  1.00  0.00     0.034 A 
BRANCH  50  64
ATOM     64  C   UNL     1       0.960  -2.586  16.819  1.00  0.00     0.023 A 
ATOM     65  C   UNL     1       2.215  -3.005  17.308  1.00  0.00     0.012 A 
ATOM     66  C   UNL     1      -0.099  -3.513  16.757  1.00  0.00     0.148 A 
ATOM     67  C   UNL     1       2.426  -4.332  17.682  1.00  0.00     0.002 A 
ATOM     68  C   UNL     1       0.105  -4.822  17.180  1.00  0.00     0.091 A 
ATOM     69  F   UNL     1      -1.280  -3.105  16.272  1.00  0.00    -0.205 F 
ATOM     70  C   UNL     1       1.370  -5.237  17.627  1.00  0.00     0.022 A 
BRANCH  68  71
ATOM     71  S   UNL     1      -1.214  -6.039  17.228  1.00  0.00     0.127 S 
ATOM     72  O   UNL     1      -0.848  -6.915  16.116  1.00  0.00    -0.237 OA
ATOM     73  O   UNL     1      -1.038  -6.633  18.554  1.00  0.00    -0.237 OA
ATOM     74  O   UNL     1      -2.454  -5.295  17.057  1.00  0.00    -0.744 OA
ENDBRANCH  68  71
ENDBRANCH  50  64
BRANCH  51  75
ATOM     75  C   UNL     1      -0.544   6.692  13.441  1.00  0.00     0.023 A 
ATOM     76  C   UNL     1      -0.104   7.787  14.212  1.00  0.00     0.012 A 
ATOM     77  C   UNL     1      -1.180   6.932  12.209  1.00  0.00     0.148 A 
ATOM     78  C   UNL     1      -0.323   9.095  13.780  1.00  0.00     0.002 A 
ATOM     79  C   UNL     1      -1.346   8.236  11.758  1.00  0.00     0.091 A 
ATOM     80  F   UNL     1      -1.597   5.877  11.494  1.00  0.00    -0.205 F 
ATOM     81  C   UNL     1      -0.935   9.320  12.550  1.00  0.00     0.022 A 
BRANCH  79  82
ATOM     82  S   UNL     1      -2.009   8.622  10.134  1.00  0.00     0.127 S 
ATOM     83  O   UNL     1      -3.272   9.272  10.473  1.00  0.00    -0.237 OA
ATOM     84  O   UNL     1      -0.981   9.514   9.595  1.00  0.00    -0.237 OA
ATOM     85  O   UNL     1      -2.123   7.347   9.440  1.00  0.00    -0.744 OA
ENDBRANCH  79  82
ENDBRANCH  51  75
BRANCH  63  86
ATOM     86  C   UNL     1      -2.797   3.169  19.028  1.00  0.00     0.023 A 
ATOM     87  C   UNL     1      -4.183   3.303  18.808  1.00  0.00     0.012 A 
ATOM     88  C   UNL     1      -2.288   3.320  20.333  1.00  0.00     0.148 A 
ATOM     89  C   UNL     1      -5.040   3.619  19.862  1.00  0.00     0.002 A 
ATOM     90  C   UNL     1      -3.155   3.579  21.387  1.00  0.00     0.091 A 
ATOM     91  F   UNL     1      -0.965   3.207  20.520  1.00  0.00    -0.205 F 
ATOM     92  C   UNL     1      -4.529   3.744  21.151  1.00  0.00     0.022 A 
BRANCH  90  93
ATOM     93  S   UNL     1      -2.601   3.657  23.094  1.00  0.00     0.127 S 
ATOM     94  O   UNL     1      -2.727   5.085  23.384  1.00  0.00    -0.237 OA
ATOM     95  O   UNL     1      -3.578   2.808  23.776  1.00  0.00    -0.237 OA
ATOM     96  O   UNL     1      -1.240   3.137  23.100  1.00  0.00    -0.744 OA
ENDBRANCH  90  93
ENDBRANCH  63  86
ENDBRANCH  37  38
ENDBRANCH  29  32
ENDBRANCH  27  28
ENDBRANCH  26  27
ENDBRANCH  25  26
ENDBRANCH  24  25
ENDBRANCH   1  24
TORSDOF 21
