REMARK SMILES CC(C)n1ccc(C[C@@H](C(=O)NCCCCCCNC(=O)c2ccc(-c3c4nc(c(-c5cccc(S(=O)(=O)[O-])c5F)c5ccc([nH]5)c(-c5cccc(S(=O)(=O)[O-])c5F)c5nc(c(-c6cccc(S(=O)(=O)[O-])c6F)c6ccc3[nH]6)C=C5)C=C4)cc2)c2cccc(Cl)c2)n1
REMARK SMILES IDX 15 1 14 2 13 3 12 4 10 5 11 6 9 8 8 9 7 10 4 11 5 12 92 13
REMARK SMILES IDX 6 14 2 15 1 16 3 17 85 18 86 19 91 20 87 21 89 22 88 23
REMARK SMILES IDX 90 24 16 25 17 26 18 27 19 28 20 29 21 31 22 32 23 33 84 34
REMARK SMILES IDX 24 35 83 36 25 37 26 38 27 39 77 40 28 41 82 42 76 43 78 44
REMARK SMILES IDX 29 45 81 46 75 47 74 48 30 50 62 51 42 52 61 53 43 54 46 55
REMARK SMILES IDX 60 56 79 57 44 58 45 59 59 61 80 62 47 63 31 64 32 65 40 66
REMARK SMILES IDX 33 67 35 68 41 69 34 70 36 71 37 72 38 73 39 74 63 75 64 76
REMARK SMILES IDX 72 77 65 78 67 79 73 80 66 81 68 82 69 83 70 84 71 85 48 86
REMARK SMILES IDX 49 87 57 88 50 89 52 90 58 91 51 92 53 93 54 94 55 95 56 96
REMARK H PARENT 12 7 19 30 78 49 46 60
REMARK Flexibility Score: inf
ROOT
ATOM      1  C   UNL     1      -2.849  -2.340  -1.520  1.00  0.00     0.002 C 
ENDROOT
BRANCH   1   2
ATOM      2  C   UNL     1      -2.686  -0.822  -1.403  1.00  0.00     0.021 C 
BRANCH   2   3
ATOM      3  C   UNL     1      -3.267   0.002  -2.563  1.00  0.00     0.116 C 
BRANCH   3   4
ATOM      4  N   UNL     1      -4.700   0.150  -2.386  1.00  0.00    -0.356 N 
ATOM      5  C   UNL     1      -5.327   1.118  -1.645  1.00  0.00     0.227 C 
ATOM      6  O   UNL     1      -6.254   0.721  -0.933  1.00  0.00    -0.274 OA
ATOM      7  H   UNL     1      -5.276  -0.506  -2.841  1.00  0.00     0.163 HD
BRANCH   5   8
ATOM      8  C   UNL     1      -4.937   2.610  -1.784  1.00  0.00     0.114 C 
BRANCH   8   9
ATOM      9  C   UNL     1      -4.154   3.110  -0.551  1.00  0.00     0.076 C 
BRANCH   9  10
ATOM     10  C   UNL     1      -2.911   2.393  -0.152  1.00  0.00     0.064 A 
ATOM     11  N   UNL     1      -0.851   1.845  -0.087  1.00  0.00    -0.270 N 
ATOM     12  C   UNL     1      -1.403   1.316   1.047  1.00  0.00     0.109 A 
ATOM     13  N   UNL     1      -1.772   2.488  -0.857  1.00  0.00    -0.178 NA
ATOM     14  C   UNL     1      -2.730   1.659   1.038  1.00  0.00     0.045 A 
BRANCH  11  15
ATOM     15  C   UNL     1       0.561   1.801  -0.480  1.00  0.00     0.101 C 
ATOM     16  C   UNL     1       1.318   0.616   0.138  1.00  0.00     0.033 C 
ATOM     17  C   UNL     1       0.759   1.749  -2.001  1.00  0.00     0.033 C 
ENDBRANCH  11  15
ENDBRANCH   9  10
ENDBRANCH   8   9
BRANCH   8  18
ATOM     18  C   UNL     1      -6.161   3.572  -1.950  1.00  0.00    -0.034 A 
ATOM     19  C   UNL     1      -5.925   4.952  -2.130  1.00  0.00     0.004 A 
ATOM     20  C   UNL     1      -7.503   3.174  -1.800  1.00  0.00     0.025 A 
ATOM     21  C   UNL     1      -6.962   5.892  -2.053  1.00  0.00     0.002 A 
ATOM     22  C   UNL     1      -8.538   4.114  -1.733  1.00  0.00     0.041 A 
ATOM     23  C   UNL     1      -8.270   5.474  -1.835  1.00  0.00     0.020 A 
ATOM     24  Cl  UNL     1     -10.161   3.589  -1.484  1.00  0.00    -0.084 Cl
ENDBRANCH   8  18
ENDBRANCH   5   8
ENDBRANCH   3   4
ENDBRANCH   2   3
ENDBRANCH   1   2
BRANCH   1  25
ATOM     25  C   UNL     1      -2.044  -3.006  -2.641  1.00  0.00     0.002 C 
BRANCH  25  26
ATOM     26  C   UNL     1      -0.550  -2.654  -2.701  1.00  0.00     0.021 C 
BRANCH  26  27
ATOM     27  C   UNL     1       0.228  -2.992  -1.433  1.00  0.00     0.116 C 
BRANCH  27  28
ATOM     28  N   UNL     1       0.364  -4.428  -1.238  1.00  0.00    -0.352 N 
ATOM     29  C   UNL     1       1.170  -5.102  -0.347  1.00  0.00     0.251 C 
ATOM     30  H   UNL     1      -0.195  -4.992  -1.820  1.00  0.00     0.163 HD
ATOM     31  O   UNL     1       1.435  -6.280  -0.539  1.00  0.00    -0.269 OA
BRANCH  29  32
ATOM     32  C   UNL     1       1.713  -4.405   0.839  1.00  0.00     0.039 A 
ATOM     33  C   UNL     1       2.999  -4.724   1.292  1.00  0.00     0.014 A 
ATOM     34  C   UNL     1       0.929  -3.485   1.538  1.00  0.00     0.014 A 
ATOM     35  C   UNL     1       3.509  -4.082   2.417  1.00  0.00     0.010 A 
ATOM     36  C   UNL     1       1.459  -2.795   2.611  1.00  0.00     0.010 A 
ATOM     37  C   UNL     1       2.738  -3.109   3.069  1.00  0.00    -0.014 A 
BRANCH  37  38
ATOM     38  C   UNL     1       3.357  -2.261   4.091  1.00  0.00     0.031 A 
ATOM     39  C   UNL     1       4.520  -1.483   3.573  1.00  0.00     0.074 A 
ATOM     40  C   UNL     1       2.783  -2.014   5.290  1.00  0.00     0.049 A 
ATOM     41  N   UNL     1       5.752  -1.524   3.961  1.00  0.00    -0.248 NA
ATOM     42  C   UNL     1       4.316  -0.685   2.351  1.00  0.00     0.031 C 
ATOM     43  C   UNL     1       1.476  -2.503   5.744  1.00  0.00     0.029 A 
ATOM     44  N   UNL     1       3.145  -1.148   6.285  1.00  0.00    -0.354 N 
ATOM     45  C   UNL     1       6.408  -0.548   3.205  1.00  0.00     0.074 A 
ATOM     46  C   UNL     1       5.553  -0.264   2.090  1.00  0.00     0.031 C 
ATOM     47  C   UNL     1       1.041  -1.737   6.767  1.00  0.00     0.029 A 
ATOM     48  C   UNL     1       2.087  -0.799   7.129  1.00  0.00     0.049 A 
ATOM     49  H   UNL     1       4.061  -0.805   6.397  1.00  0.00     0.167 HD
ATOM     50  C   UNL     1       7.426   0.179   3.744  1.00  0.00     0.034 A 
ATOM     51  C   UNL     1       2.036   0.231   8.012  1.00  0.00     0.034 A 
ATOM     52  C   UNL     1       7.946  -0.473   4.920  1.00  0.00     0.049 A 
ATOM     53  C   UNL     1       3.424   0.657   8.273  1.00  0.00     0.074 A 
ATOM     54  C   UNL     1       8.519  -1.693   5.211  1.00  0.00     0.029 A 
ATOM     55  N   UNL     1       7.531   0.064   6.111  1.00  0.00    -0.354 N 
ATOM     56  N   UNL     1       4.293  -0.062   8.923  1.00  0.00    -0.248 NA
ATOM     57  C   UNL     1       3.972   1.761   7.502  1.00  0.00     0.031 C 
ATOM     58  C   UNL     1       8.092  -2.002   6.537  1.00  0.00     0.029 A 
ATOM     59  C   UNL     1       7.337  -0.931   7.021  1.00  0.00     0.049 A 
ATOM     60  H   UNL     1       7.393   1.023   6.282  1.00  0.00     0.167 HD
ATOM     61  C   UNL     1       5.486   0.182   8.263  1.00  0.00     0.074 A 
ATOM     62  C   UNL     1       5.263   1.424   7.530  1.00  0.00     0.031 C 
ATOM     63  C   UNL     1       6.410  -0.812   8.126  1.00  0.00     0.034 A 
BRANCH  50  64
ATOM     64  C   UNL     1       7.622   1.683   3.546  1.00  0.00     0.023 A 
ATOM     65  C   UNL     1       8.708   2.274   4.240  1.00  0.00     0.012 A 
ATOM     66  C   UNL     1       6.661   2.575   3.014  1.00  0.00     0.148 A 
ATOM     67  C   UNL     1       8.770   3.651   4.487  1.00  0.00     0.002 A 
ATOM     68  C   UNL     1       6.762   3.950   3.203  1.00  0.00     0.091 A 
ATOM     69  F   UNL     1       5.567   2.114   2.411  1.00  0.00    -0.205 F 
ATOM     70  C   UNL     1       7.792   4.491   3.973  1.00  0.00     0.022 A 
BRANCH  68  71
ATOM     71  S   UNL     1       5.543   5.088   2.524  1.00  0.00     0.127 S 
ATOM     72  O   UNL     1       4.888   5.568   3.737  1.00  0.00    -0.237 OA
ATOM     73  O   UNL     1       6.397   6.064   1.848  1.00  0.00    -0.237 OA
ATOM     74  O   UNL     1       4.712   4.296   1.625  1.00  0.00    -0.744 OA
ENDBRANCH  68  71
ENDBRANCH  50  64
BRANCH  51  75
ATOM     75  C   UNL     1       0.891   1.028   8.517  1.00  0.00     0.023 A 
ATOM     76  C   UNL     1       1.036   1.783   9.701  1.00  0.00     0.012 A 
ATOM     77  C   UNL     1      -0.233   1.284   7.703  1.00  0.00     0.148 A 
ATOM     78  C   UNL     1       0.120   2.787  10.038  1.00  0.00     0.002 A 
ATOM     79  C   UNL     1      -1.147   2.277   8.047  1.00  0.00     0.091 A 
ATOM     80  F   UNL     1      -0.354   0.624   6.544  1.00  0.00    -0.205 F 
ATOM     81  C   UNL     1      -0.966   3.042   9.206  1.00  0.00     0.022 A 
BRANCH  79  82
ATOM     82  S   UNL     1      -2.557   2.678   7.005  1.00  0.00     0.127 S 
ATOM     83  O   UNL     1      -3.650   2.718   7.977  1.00  0.00    -0.237 OA
ATOM     84  O   UNL     1      -2.170   3.978   6.463  1.00  0.00    -0.237 OA
ATOM     85  O   UNL     1      -2.655   1.593   6.037  1.00  0.00    -0.744 OA
ENDBRANCH  79  82
ENDBRANCH  51  75
BRANCH  63  86
ATOM     86  C   UNL     1       6.333  -1.980   9.070  1.00  0.00     0.023 A 
ATOM     87  C   UNL     1       5.229  -2.853   9.143  1.00  0.00     0.012 A 
ATOM     88  C   UNL     1       7.481  -2.268   9.827  1.00  0.00     0.148 A 
ATOM     89  C   UNL     1       5.262  -3.972   9.980  1.00  0.00     0.002 A 
ATOM     90  C   UNL     1       7.530  -3.409  10.614  1.00  0.00     0.091 A 
ATOM     91  F   UNL     1       8.520  -1.421   9.755  1.00  0.00    -0.205 F 
ATOM     92  C   UNL     1       6.418  -4.258  10.704  1.00  0.00     0.022 A 
BRANCH  90  93
ATOM     93  S   UNL     1       9.041  -3.877  11.457  1.00  0.00     0.127 S 
ATOM     94  O   UNL     1       8.791  -3.406  12.817  1.00  0.00    -0.237 OA
ATOM     95  O   UNL     1       9.052  -5.333  11.305  1.00  0.00    -0.237 OA
ATOM     96  O   UNL     1      10.117  -3.202  10.741  1.00  0.00    -0.744 OA
ENDBRANCH  90  93
ENDBRANCH  63  86
ENDBRANCH  37  38
ENDBRANCH  29  32
ENDBRANCH  27  28
ENDBRANCH  26  27
ENDBRANCH  25  26
ENDBRANCH   1  25
TORSDOF 20
