REMARK SMILES COc1ccc(OCc2cccs2)c(C(=O)NCCCCCCNC(=O)c2ccc(-c3c4nc(c(-c5cccc(S(=O)(=O)[O-])c5F)c5ccc([nH]5)c(-c5cccc(S(=O)(=O)[O-])c5F)c5nc(c(-c6cccc(S(=O)(=O)[O-])c6F)c6ccc3[nH]6)C=C5)C=C4)cc2)c1
REMARK SMILES IDX 20 1 19 2 18 3 17 4 15 5 16 6 14 8 3 9 4 10 90 11 5 12 6 13
REMARK SMILES IDX 2 14 1 15 7 16 8 17 9 18 10 19 13 20 11 21 12 22 21 23 22 24
REMARK SMILES IDX 23 25 24 26 25 27 26 29 27 30 28 31 89 32 29 33 88 34 30 35
REMARK SMILES IDX 31 36 32 37 82 38 33 39 87 40 81 41 83 42 34 43 86 44 80 45
REMARK SMILES IDX 79 46 35 48 67 49 47 50 66 51 48 52 51 53 65 54 84 55 49 56
REMARK SMILES IDX 50 57 64 59 85 60 52 61 36 62 37 63 45 64 38 65 40 66 46 67
REMARK SMILES IDX 39 68 41 69 42 70 43 71 44 72 68 73 69 74 77 75 70 76 72 77
REMARK SMILES IDX 78 78 71 79 73 80 74 81 75 82 76 83 53 84 54 85 62 86 55 87
REMARK SMILES IDX 57 88 63 89 56 90 58 91 59 92 60 93 61 94
REMARK H PARENT 17 7 24 28 83 47 51 58
REMARK Flexibility Score: inf
ROOT
ATOM      1  C   UNL     1       7.242  -0.479  -1.565  1.00  0.00     0.002 C 
ENDROOT
BRANCH   1   2
ATOM      2  C   UNL     1       5.822  -0.986  -1.819  1.00  0.00     0.021 C 
BRANCH   2   3
ATOM      3  C   UNL     1       4.737   0.082  -1.796  1.00  0.00     0.116 C 
BRANCH   3   4
ATOM      4  N   UNL     1       4.867   0.975  -2.924  1.00  0.00    -0.352 N 
ATOM      5  C   UNL     1       3.944   1.358  -3.860  1.00  0.00     0.255 C 
ATOM      6  O   UNL     1       4.362   1.430  -5.016  1.00  0.00    -0.269 OA
ATOM      7  H   UNL     1       5.761   1.370  -3.038  1.00  0.00     0.163 HD
BRANCH   5   8
ATOM      8  C   UNL     1       2.513   1.676  -3.558  1.00  0.00     0.085 A 
ATOM      9  C   UNL     1       0.462   1.015  -2.405  1.00  0.00     0.119 A 
ATOM     10  C   UNL     1      -0.281   1.520  -3.461  1.00  0.00     0.050 A 
ATOM     11  C   UNL     1       1.851   1.127  -2.447  1.00  0.00     0.064 A 
ATOM     12  C   UNL     1       0.354   2.266  -4.454  1.00  0.00     0.051 A 
ATOM     13  C   UNL     1       1.750   2.426  -4.464  1.00  0.00     0.132 A 
BRANCH   9  14
ATOM     14  O   UNL     1      -0.257   0.395  -1.421  1.00  0.00    -0.497 OA
ATOM     15  C   UNL     1       0.424   0.102  -0.203  1.00  0.00     0.278 C 
ENDBRANCH   9  14
BRANCH  13  16
ATOM     16  O   UNL     1       2.155   3.362  -5.375  1.00  0.00    -0.487 OA
BRANCH  16  17
ATOM     17  C   UNL     1       3.373   4.115  -5.245  1.00  0.00     0.276 C 
BRANCH  17  18
ATOM     18  C   UNL     1       3.453   4.981  -4.013  1.00  0.00     0.042 A 
ATOM     19  C   UNL     1       3.145   6.326  -3.894  1.00  0.00     0.019 A 
ATOM     20  S   UNL     1       4.193   4.410  -2.570  1.00  0.00    -0.145 S 
ATOM     21  C   UNL     1       3.488   6.862  -2.616  1.00  0.00     0.012 A 
ATOM     22  C   UNL     1       4.034   5.912  -1.787  1.00  0.00     0.065 A 
ENDBRANCH  17  18
ENDBRANCH  16  17
ENDBRANCH  13  16
ENDBRANCH   5   8
ENDBRANCH   3   4
ENDBRANCH   2   3
ENDBRANCH   1   2
BRANCH   1  23
ATOM     23  C   UNL     1       7.444   0.282  -0.253  1.00  0.00     0.002 C 
BRANCH  23  24
ATOM     24  C   UNL     1       6.911  -0.412   1.001  1.00  0.00     0.021 C 
BRANCH  24  25
ATOM     25  C   UNL     1       7.344  -1.862   1.172  1.00  0.00     0.116 C 
BRANCH  25  26
ATOM     26  N   UNL     1       8.785  -2.011   1.214  1.00  0.00    -0.352 N 
ATOM     27  C   UNL     1       9.540  -2.783   2.060  1.00  0.00     0.251 C 
ATOM     28  H   UNL     1       9.288  -1.490   0.547  1.00  0.00     0.163 HD
ATOM     29  O   UNL     1      10.760  -2.675   2.064  1.00  0.00    -0.269 OA
BRANCH  27  30
ATOM     30  C   UNL     1       8.868  -3.729   2.978  1.00  0.00     0.039 A 
ATOM     31  C   UNL     1       9.307  -3.802   4.301  1.00  0.00     0.014 A 
ATOM     32  C   UNL     1       7.826  -4.550   2.535  1.00  0.00     0.014 A 
ATOM     33  C   UNL     1       8.691  -4.690   5.183  1.00  0.00     0.010 A 
ATOM     34  C   UNL     1       7.156  -5.370   3.438  1.00  0.00     0.010 A 
ATOM     35  C   UNL     1       7.604  -5.475   4.762  1.00  0.00    -0.014 A 
BRANCH  35  36
ATOM     36  C   UNL     1       6.977  -6.460   5.680  1.00  0.00     0.031 A 
ATOM     37  C   UNL     1       7.040  -7.931   5.356  1.00  0.00     0.074 A 
ATOM     38  C   UNL     1       6.332  -6.034   6.784  1.00  0.00     0.049 A 
ATOM     39  N   UNL     1       6.545  -8.944   6.019  1.00  0.00    -0.248 NA
ATOM     40  C   UNL     1       7.729  -8.315   4.111  1.00  0.00     0.031 C 
ATOM     41  C   UNL     1       6.144  -4.633   7.170  1.00  0.00     0.029 A 
ATOM     42  N   UNL     1       5.702  -6.738   7.778  1.00  0.00    -0.354 N 
ATOM     43  C   UNL     1       6.846 -10.075   5.267  1.00  0.00     0.074 A 
ATOM     44  C   UNL     1       7.514  -9.621   4.069  1.00  0.00     0.031 C 
ATOM     45  C   UNL     1       5.457  -4.583   8.323  1.00  0.00     0.029 A 
ATOM     46  C   UNL     1       5.133  -5.942   8.745  1.00  0.00     0.049 A 
ATOM     47  H   UNL     1       5.662  -7.722   7.798  1.00  0.00     0.167 HD
ATOM     48  C   UNL     1       6.630 -11.377   5.566  1.00  0.00     0.034 A 
ATOM     49  C   UNL     1       4.430  -6.274   9.845  1.00  0.00     0.034 A 
ATOM     50  C   UNL     1       5.999 -11.829   6.776  1.00  0.00     0.049 A 
ATOM     51  C   UNL     1       4.229  -7.733  10.163  1.00  0.00     0.074 A 
ATOM     52  C   UNL     1       5.761 -13.126   7.192  1.00  0.00     0.029 A 
ATOM     53  N   UNL     1       5.515 -10.994   7.770  1.00  0.00    -0.354 N 
ATOM     54  N   UNL     1       4.630  -8.789   9.498  1.00  0.00    -0.248 NA
ATOM     55  C   UNL     1       3.520  -8.046  11.413  1.00  0.00     0.031 C 
ATOM     56  C   UNL     1       5.121 -13.075   8.435  1.00  0.00     0.029 A 
ATOM     57  C   UNL     1       4.993 -11.747   8.807  1.00  0.00     0.049 A 
ATOM     58  H   UNL     1       5.538 -10.010   7.743  1.00  0.00     0.167 HD
ATOM     59  C   UNL     1       4.273  -9.886  10.274  1.00  0.00     0.074 A 
ATOM     60  C   UNL     1       3.644  -9.364  11.469  1.00  0.00     0.031 C 
ATOM     61  C   UNL     1       4.438 -11.208  10.020  1.00  0.00     0.034 A 
BRANCH  48  62
ATOM     62  C   UNL     1       7.146 -12.413   4.600  1.00  0.00     0.023 A 
ATOM     63  C   UNL     1       8.537 -12.617   4.485  1.00  0.00     0.012 A 
ATOM     64  C   UNL     1       6.267 -13.226   3.859  1.00  0.00     0.148 A 
ATOM     65  C   UNL     1       9.047 -13.591   3.628  1.00  0.00     0.002 A 
ATOM     66  C   UNL     1       6.780 -14.228   3.043  1.00  0.00     0.091 A 
ATOM     67  F   UNL     1       4.949 -13.007   3.968  1.00  0.00    -0.205 F 
ATOM     68  C   UNL     1       8.168 -14.403   2.917  1.00  0.00     0.022 A 
BRANCH  66  69
ATOM     69  S   UNL     1       5.738 -15.382   2.144  1.00  0.00     0.127 S 
ATOM     70  O   UNL     1       6.040 -15.033   0.756  1.00  0.00    -0.237 OA
ATOM     71  O   UNL     1       6.269 -16.674   2.578  1.00  0.00    -0.237 OA
ATOM     72  O   UNL     1       4.372 -15.108   2.567  1.00  0.00    -0.744 OA
ENDBRANCH  66  69
ENDBRANCH  48  62
BRANCH  49  73
ATOM     73  C   UNL     1       3.913  -5.221  10.766  1.00  0.00     0.023 A 
ATOM     74  C   UNL     1       4.436  -5.117  12.071  1.00  0.00     0.012 A 
ATOM     75  C   UNL     1       2.886  -4.345  10.369  1.00  0.00     0.148 A 
ATOM     76  C   UNL     1       3.902  -4.205  12.982  1.00  0.00     0.002 A 
ATOM     77  C   UNL     1       2.400  -3.397  11.263  1.00  0.00     0.091 A 
ATOM     78  F   UNL     1       2.393  -4.461   9.128  1.00  0.00    -0.205 F 
ATOM     79  C   UNL     1       2.889  -3.341  12.577  1.00  0.00     0.022 A 
BRANCH  77  80
ATOM     80  S   UNL     1       1.189  -2.162  10.780  1.00  0.00     0.127 S 
ATOM     81  O   UNL     1      -0.024  -2.668  11.417  1.00  0.00    -0.237 OA
ATOM     82  O   UNL     1       1.738  -0.945  11.378  1.00  0.00    -0.237 OA
ATOM     83  O   UNL     1       1.192  -2.164   9.323  1.00  0.00    -0.744 OA
ENDBRANCH  77  80
ENDBRANCH  49  73
BRANCH  61  84
ATOM     84  C   UNL     1       4.007 -12.180  11.087  1.00  0.00     0.023 A 
ATOM     85  C   UNL     1       2.639 -12.368  11.369  1.00  0.00     0.012 A 
ATOM     86  C   UNL     1       4.967 -12.940  11.784  1.00  0.00     0.148 A 
ATOM     87  C   UNL     1       2.237 -13.255  12.366  1.00  0.00     0.002 A 
ATOM     88  C   UNL     1       4.556 -13.864  12.736  1.00  0.00     0.091 A 
ATOM     89  F   UNL     1       6.265 -12.736  11.515  1.00  0.00    -0.205 F 
ATOM     90  C   UNL     1       3.194 -14.010  13.041  1.00  0.00     0.022 A 
BRANCH  88  91
ATOM     91  S   UNL     1       5.713 -14.950  13.577  1.00  0.00     0.127 S 
ATOM     92  O   UNL     1       5.786 -14.337  14.903  1.00  0.00    -0.237 OA
ATOM     93  O   UNL     1       5.017 -16.236  13.537  1.00  0.00    -0.237 OA
ATOM     94  O   UNL     1       6.942 -14.906  12.796  1.00  0.00    -0.744 OA
ENDBRANCH  88  91
ENDBRANCH  61  84
ENDBRANCH  35  36
ENDBRANCH  27  30
ENDBRANCH  25  26
ENDBRANCH  24  25
ENDBRANCH  23  24
ENDBRANCH   1  23
TORSDOF 20
