REMARK SMILES [NH3+]CCOCC(=O)N[C@H](C(=O)NCCCCCCNC(=O)c1ccc(-c2c3nc(c(-c4cccc(S(=O)(=O)[O-])c4F)c4ccc([nH]4)c(-c4cccc(S(=O)(=O)[O-])c4F)c4nc(c(-c5cccc(S(=O)(=O)[O-])c5F)c5ccc2[nH]5)C=C4)C=C3)cc1)c1ccccc1
REMARK SMILES IDX 14 1 13 2 12 3 10 4 11 5 9 7 8 8 6 9 7 10 5 12 4 13 3 14
REMARK SMILES IDX 2 15 1 16 85 20 86 21 90 22 87 23 89 24 88 25 15 26 16 27
REMARK SMILES IDX 17 28 18 29 19 30 20 31 21 33 22 34 23 35 84 36 24 37 83 38
REMARK SMILES IDX 25 39 26 40 27 41 77 42 28 43 82 44 76 45 78 46 29 47 81 48
REMARK SMILES IDX 75 49 74 50 30 52 62 53 42 54 61 55 43 56 46 57 60 58 79 59
REMARK SMILES IDX 44 60 45 61 59 63 80 64 47 65 31 66 32 67 40 68 33 69 35 70
REMARK SMILES IDX 41 71 34 72 36 73 37 74 38 75 39 76 63 77 64 78 72 79 65 80
REMARK SMILES IDX 67 81 73 82 66 83 68 84 69 85 70 86 71 87 48 88 49 89 57 90
REMARK SMILES IDX 50 91 52 92 58 93 51 94 53 95 54 96 55 97 56 98
REMARK H PARENT 12 6 8 11 1 17 1 18 1 19 19 32 78 51 46 62
REMARK Flexibility Score: inf
ROOT
ATOM      1  C   UNL     1       0.528   0.228   1.468  1.00  0.00     0.021 C 
ENDROOT
BRANCH   1   2
ATOM      2  C   UNL     1       1.364  -0.775   2.262  1.00  0.00     0.116 C 
BRANCH   2   3
ATOM      3  N   UNL     1       2.671  -0.231   2.593  1.00  0.00    -0.354 N 
ATOM      4  C   UNL     1       3.155   0.231   3.792  1.00  0.00     0.247 C 
ATOM      5  O   UNL     1       4.339   0.579   3.824  1.00  0.00    -0.272 OA
ATOM      6  H   UNL     1       3.307  -0.188   1.842  1.00  0.00     0.163 HD
BRANCH   4   7
ATOM      7  C   UNL     1       2.258   0.128   5.055  1.00  0.00     0.202 C 
BRANCH   7   8
ATOM      8  N   UNL     1       2.579  -1.195   5.619  1.00  0.00    -0.339 N 
ATOM      9  C   UNL     1       3.518  -1.599   6.514  1.00  0.00     0.246 C 
ATOM     10  O   UNL     1       4.014  -2.719   6.352  1.00  0.00    -0.272 OA
ATOM     11  H   UNL     1       2.005  -1.922   5.286  1.00  0.00     0.164 HD
BRANCH   9  12
ATOM     12  C   UNL     1       3.849  -0.794   7.777  1.00  0.00     0.260 C 
BRANCH  12  13
ATOM     13  O   UNL     1       4.522   0.440   7.704  1.00  0.00    -0.366 OA
BRANCH  13  14
ATOM     14  C   UNL     1       5.803   0.390   7.085  1.00  0.00     0.222 C 
BRANCH  14  15
ATOM     15  C   UNL     1       6.927   0.316   8.130  1.00  0.00     0.287 C 
BRANCH  15  16
ATOM     16  N   UNL     1       6.969  -0.938   8.890  1.00  0.00    -0.356 N 
ATOM     17  H   UNL     1       7.739  -0.905   9.558  1.00  0.00     0.344 HD
ATOM     18  H   UNL     1       7.106  -1.720   8.250  1.00  0.00     0.344 HD
ATOM     19  H   UNL     1       6.089  -1.060   9.393  1.00  0.00     0.344 HD
ENDBRANCH  15  16
ENDBRANCH  14  15
ENDBRANCH  13  14
ENDBRANCH  12  13
ENDBRANCH   9  12
ENDBRANCH   7   8
BRANCH   7  20
ATOM     20  C   UNL     1       2.237   1.322   5.986  1.00  0.00    -0.016 A 
ATOM     21  C   UNL     1       1.458   1.267   7.156  1.00  0.00     0.006 A 
ATOM     22  C   UNL     1       2.919   2.519   5.710  1.00  0.00     0.006 A 
ATOM     23  C   UNL     1       1.464   2.317   8.075  1.00  0.00     0.000 A 
ATOM     24  C   UNL     1       2.906   3.580   6.619  1.00  0.00     0.000 A 
ATOM     25  C   UNL     1       2.199   3.469   7.812  1.00  0.00     0.000 A 
ENDBRANCH   7  20
ENDBRANCH   4   7
ENDBRANCH   2   3
ENDBRANCH   1   2
BRANCH   1  26
ATOM     26  C   UNL     1       1.040   0.476   0.043  1.00  0.00     0.002 C 
BRANCH  26  27
ATOM     27  C   UNL     1       1.169  -0.775  -0.834  1.00  0.00     0.002 C 
BRANCH  27  28
ATOM     28  C   UNL     1      -0.095  -1.632  -0.937  1.00  0.00     0.021 C 
BRANCH  28  29
ATOM     29  C   UNL     1      -1.310  -0.908  -1.508  1.00  0.00     0.116 C 
BRANCH  29  30
ATOM     30  N   UNL     1      -1.101  -0.490  -2.887  1.00  0.00    -0.352 N 
ATOM     31  C   UNL     1      -1.854  -0.770  -4.000  1.00  0.00     0.251 C 
ATOM     32  H   UNL     1      -0.307   0.071  -3.043  1.00  0.00     0.163 HD
ATOM     33  O   UNL     1      -1.426  -0.499  -5.119  1.00  0.00    -0.269 OA
BRANCH  31  34
ATOM     34  C   UNL     1      -3.174  -1.417  -3.845  1.00  0.00     0.039 A 
ATOM     35  C   UNL     1      -3.492  -2.515  -4.649  1.00  0.00     0.014 A 
ATOM     36  C   UNL     1      -4.087  -0.951  -2.894  1.00  0.00     0.014 A 
ATOM     37  C   UNL     1      -4.697  -3.192  -4.447  1.00  0.00     0.010 A 
ATOM     38  C   UNL     1      -5.253  -1.669  -2.649  1.00  0.00     0.010 A 
ATOM     39  C   UNL     1      -5.568  -2.800  -3.418  1.00  0.00    -0.014 A 
BRANCH  39  40
ATOM     40  C   UNL     1      -6.793  -3.579  -3.100  1.00  0.00     0.031 A 
ATOM     41  C   UNL     1      -8.151  -2.947  -3.228  1.00  0.00     0.074 A 
ATOM     42  C   UNL     1      -6.673  -4.822  -2.593  1.00  0.00     0.049 A 
ATOM     43  N   UNL     1      -9.321  -3.438  -2.911  1.00  0.00    -0.248 NA
ATOM     44  C   UNL     1      -8.201  -1.574  -3.757  1.00  0.00     0.031 C 
ATOM     45  C   UNL     1      -5.407  -5.518  -2.351  1.00  0.00     0.029 A 
ATOM     46  N   UNL     1      -7.626  -5.709  -2.157  1.00  0.00    -0.354 N 
ATOM     47  C   UNL     1     -10.240  -2.428  -3.168  1.00  0.00     0.074 A 
ATOM     48  C   UNL     1      -9.489  -1.285  -3.639  1.00  0.00     0.031 C 
ATOM     49  C   UNL     1      -5.661  -6.719  -1.809  1.00  0.00     0.029 A 
ATOM     50  C   UNL     1      -7.101  -6.866  -1.628  1.00  0.00     0.049 A 
ATOM     51  H   UNL     1      -8.593  -5.534  -2.217  1.00  0.00     0.167 HD
ATOM     52  C   UNL     1     -11.589  -2.458  -3.046  1.00  0.00     0.034 A 
ATOM     53  C   UNL     1      -7.708  -7.919  -1.044  1.00  0.00     0.034 A 
ATOM     54  C   UNL     1     -12.334  -3.608  -2.612  1.00  0.00     0.049 A 
ATOM     55  C   UNL     1      -9.208  -7.931  -0.935  1.00  0.00     0.074 A 
ATOM     56  C   UNL     1     -13.707  -3.768  -2.548  1.00  0.00     0.029 A 
ATOM     57  N   UNL     1     -11.773  -4.790  -2.154  1.00  0.00    -0.354 N 
ATOM     58  N   UNL     1     -10.072  -7.030  -1.338  1.00  0.00    -0.248 NA
ATOM     59  C   UNL     1      -9.822  -9.116  -0.317  1.00  0.00     0.031 C 
ATOM     60  C   UNL     1     -13.976  -5.034  -2.019  1.00  0.00     0.029 A 
ATOM     61  C   UNL     1     -12.770  -5.676  -1.784  1.00  0.00     0.049 A 
ATOM     62  H   UNL     1     -10.807  -4.972  -2.099  1.00  0.00     0.167 HD
ATOM     63  C   UNL     1     -11.328  -7.551  -1.050  1.00  0.00     0.074 A 
ATOM     64  C   UNL     1     -11.114  -8.857  -0.461  1.00  0.00     0.031 C 
ATOM     65  C   UNL     1     -12.548  -6.991  -1.242  1.00  0.00     0.034 A 
BRANCH  52  66
ATOM     66  C   UNL     1     -12.356  -1.220  -3.433  1.00  0.00     0.023 A 
ATOM     67  C   UNL     1     -12.458  -0.860  -4.792  1.00  0.00     0.012 A 
ATOM     68  C   UNL     1     -13.031  -0.453  -2.463  1.00  0.00     0.148 A 
ATOM     69  C   UNL     1     -13.191   0.262  -5.178  1.00  0.00     0.002 A 
ATOM     70  C   UNL     1     -13.797   0.637  -2.859  1.00  0.00     0.091 A 
ATOM     71  F   UNL     1     -12.907  -0.799  -1.173  1.00  0.00    -0.205 F 
ATOM     72  C   UNL     1     -13.868   1.002  -4.213  1.00  0.00     0.022 A 
BRANCH  70  73
ATOM     73  S   UNL     1     -14.771   1.610  -1.704  1.00  0.00     0.127 S 
ATOM     74  O   UNL     1     -14.037   2.875  -1.694  1.00  0.00    -0.237 OA
ATOM     75  O   UNL     1     -16.072   1.665  -2.371  1.00  0.00    -0.237 OA
ATOM     76  O   UNL     1     -14.761   0.872  -0.449  1.00  0.00    -0.744 OA
ENDBRANCH  70  73
ENDBRANCH  52  66
BRANCH  53  77
ATOM     77  C   UNL     1      -6.896  -9.069  -0.556  1.00  0.00     0.023 A 
ATOM     78  C   UNL     1      -6.977 -10.307  -1.224  1.00  0.00     0.012 A 
ATOM     79  C   UNL     1      -6.029  -8.939   0.546  1.00  0.00     0.148 A 
ATOM     80  C   UNL     1      -6.233 -11.402  -0.784  1.00  0.00     0.002 A 
ATOM     81  C   UNL     1      -5.248 -10.018   0.943  1.00  0.00     0.091 A 
ATOM     82  F   UNL     1      -5.976  -7.757   1.176  1.00  0.00    -0.205 F 
ATOM     83  C   UNL     1      -5.361 -11.255   0.292  1.00  0.00     0.022 A 
BRANCH  81  84
ATOM     84  S   UNL     1      -4.002  -9.880   2.230  1.00  0.00     0.127 S 
ATOM     85  O   UNL     1      -4.595 -10.669   3.306  1.00  0.00    -0.237 OA
ATOM     86  O   UNL     1      -2.837 -10.489   1.588  1.00  0.00    -0.237 OA
ATOM     87  O   UNL     1      -3.864  -8.454   2.493  1.00  0.00    -0.744 OA
ENDBRANCH  81  84
ENDBRANCH  53  77
BRANCH  65  88
ATOM     88  C   UNL     1     -13.758  -7.791  -0.836  1.00  0.00     0.023 A 
ATOM     89  C   UNL     1     -14.060  -7.958   0.530  1.00  0.00     0.012 A 
ATOM     90  C   UNL     1     -14.643  -8.299  -1.808  1.00  0.00     0.148 A 
ATOM     91  C   UNL     1     -15.210  -8.641   0.923  1.00  0.00     0.002 A 
ATOM     92  C   UNL     1     -15.813  -8.935  -1.409  1.00  0.00     0.091 A 
ATOM     93  F   UNL     1     -14.329  -8.142  -3.102  1.00  0.00    -0.205 F 
ATOM     94  C   UNL     1     -16.092  -9.117  -0.045  1.00  0.00     0.022 A 
BRANCH  92  95
ATOM     95  S   UNL     1     -17.055  -9.497  -2.578  1.00  0.00     0.127 S 
ATOM     96  O   UNL     1     -16.958 -10.950  -2.440  1.00  0.00    -0.237 OA
ATOM     97  O   UNL     1     -18.280  -8.912  -2.032  1.00  0.00    -0.237 OA
ATOM     98  O   UNL     1     -16.657  -8.969  -3.876  1.00  0.00    -0.744 OA
ENDBRANCH  92  95
ENDBRANCH  65  88
ENDBRANCH  39  40
ENDBRANCH  31  34
ENDBRANCH  29  30
ENDBRANCH  28  29
ENDBRANCH  27  28
ENDBRANCH  26  27
ENDBRANCH   1  26
TORSDOF 23
