REMARK SMILES Cc1ccnc(C(=O)c2[nH]c3ccc(F)cc3c2CC(=O)NCCCCCCNC(=O)c2ccc(-c3c4nc(c(-c5cccc(S(=O)(=O)[O-])c5F)c5ccc([nH]5)c(-c5cccc(S(=O)(=O)[O-])c5F)c5nc(c(-c6cccc(S(=O)(=O)[O-])c6F)c6ccc3[nH]6)C=C5)C=C4)cc2)c1
REMARK SMILES IDX 25 1 24 2 23 3 22 4 20 5 21 6 19 8 18 9 9 10 10 11 11 12
REMARK SMILES IDX 17 14 12 15 16 16 13 17 14 18 15 19 7 20 8 21 6 22 1 23 2 24
REMARK SMILES IDX 3 25 95 26 4 27 5 28 26 29 27 30 28 31 29 32 30 33 31 35
REMARK SMILES IDX 32 36 33 37 94 38 34 39 93 40 35 41 36 42 37 43 87 44 38 45
REMARK SMILES IDX 92 46 86 47 88 48 39 49 91 50 85 51 84 52 40 54 72 55 52 56
REMARK SMILES IDX 71 57 53 58 56 59 70 60 89 61 54 62 55 63 69 65 90 66 57 67
REMARK SMILES IDX 41 68 42 69 50 70 43 71 45 72 51 73 44 74 46 75 47 76 48 77
REMARK SMILES IDX 49 78 73 79 74 80 82 81 75 82 77 83 83 84 76 85 78 86 79 87
REMARK SMILES IDX 80 88 81 89 58 90 59 91 67 92 60 93 62 94 68 95 61 96 63 97
REMARK SMILES IDX 64 98 65 99 66 100
REMARK H PARENT 22 7 10 13 29 34 88 53 56 64
REMARK Flexibility Score: inf
ROOT
ATOM      1  C   UNL     1      -3.419  -2.516   1.469  1.00  0.00     0.002 C 
ENDROOT
BRANCH   1   2
ATOM      2  C   UNL     1      -2.786  -3.676   0.694  1.00  0.00     0.021 C 
BRANCH   2   3
ATOM      3  C   UNL     1      -2.987  -3.673  -0.827  1.00  0.00     0.116 C 
BRANCH   3   4
ATOM      4  N   UNL     1      -2.394  -2.541  -1.512  1.00  0.00    -0.356 N 
ATOM      5  C   UNL     1      -1.216  -2.418  -2.185  1.00  0.00     0.224 C 
ATOM      6  O   UNL     1      -1.029  -1.362  -2.800  1.00  0.00    -0.275 OA
ATOM      7  H   UNL     1      -2.937  -1.720  -1.486  1.00  0.00     0.163 HD
BRANCH   5   8
ATOM      8  C   UNL     1      -0.186  -3.530  -2.252  1.00  0.00     0.138 C 
BRANCH   8   9
ATOM      9  C   UNL     1       0.252  -4.128  -0.947  1.00  0.00    -0.002 A 
ATOM     10  C   UNL     1       1.090  -3.602   0.042  1.00  0.00     0.093 A 
ATOM     11  N   UNL     1       1.276  -4.609   0.973  1.00  0.00    -0.352 N 
ATOM     12  C   UNL     1       0.518  -5.714   0.689  1.00  0.00     0.046 A 
ATOM     13  H   UNL     1       1.881  -4.539   1.747  1.00  0.00     0.167 HD
ATOM     14  C   UNL     1      -0.078  -5.479  -0.545  1.00  0.00     0.007 A 
ATOM     15  C   UNL     1       0.336  -6.900   1.415  1.00  0.00     0.030 A 
ATOM     16  C   UNL     1      -0.854  -6.514  -1.113  1.00  0.00     0.049 A 
ATOM     17  C   UNL     1      -0.492  -7.879   0.860  1.00  0.00     0.041 A 
ATOM     18  C   UNL     1      -1.065  -7.686  -0.387  1.00  0.00     0.123 A 
ATOM     19  F   UNL     1      -1.853  -8.637  -0.905  1.00  0.00    -0.207 F 
BRANCH  10  20
ATOM     20  C   UNL     1       1.841  -2.358   0.205  1.00  0.00     0.227 C 
ATOM     21  O   UNL     1       3.018  -2.414   0.564  1.00  0.00    -0.285 OA
BRANCH  20  22
ATOM     22  C   UNL     1       1.203  -0.996   0.087  1.00  0.00     0.113 A 
ATOM     23  C   UNL     1      -2.166   0.773   0.145  1.00  0.00     0.044 C 
ATOM     24  C   UNL     1      -0.692   0.500   0.105  1.00  0.00    -0.047 A 
ATOM     25  C   UNL     1       0.194   1.560  -0.064  1.00  0.00     0.023 A 
ATOM     26  C   UNL     1      -0.163  -0.792   0.244  1.00  0.00     0.036 A 
ATOM     27  C   UNL     1       1.547   1.283  -0.143  1.00  0.00     0.112 A 
ATOM     28  N   UNL     1       2.068   0.039  -0.086  1.00  0.00    -0.253 NA
ENDBRANCH  20  22
ENDBRANCH  10  20
ENDBRANCH   8   9
ENDBRANCH   5   8
ENDBRANCH   3   4
ENDBRANCH   2   3
ENDBRANCH   1   2
BRANCH   1  29
ATOM     29  C   UNL     1      -4.874  -2.212   1.123  1.00  0.00     0.002 C 
BRANCH  29  30
ATOM     30  C   UNL     1      -5.823  -3.377   1.393  1.00  0.00     0.021 C 
BRANCH  30  31
ATOM     31  C   UNL     1      -5.906  -3.774   2.860  1.00  0.00     0.116 C 
BRANCH  31  32
ATOM     32  N   UNL     1      -6.483  -2.717   3.677  1.00  0.00    -0.352 N 
ATOM     33  C   UNL     1      -7.462  -2.824   4.636  1.00  0.00     0.251 C 
ATOM     34  H   UNL     1      -6.128  -1.812   3.524  1.00  0.00     0.163 HD
ATOM     35  O   UNL     1      -7.986  -1.823   5.103  1.00  0.00    -0.269 OA
BRANCH  33  36
ATOM     36  C   UNL     1      -7.880  -4.171   5.077  1.00  0.00     0.039 A 
ATOM     37  C   UNL     1      -9.241  -4.468   5.154  1.00  0.00     0.014 A 
ATOM     38  C   UNL     1      -6.921  -5.141   5.384  1.00  0.00     0.014 A 
ATOM     39  C   UNL     1      -9.640  -5.758   5.508  1.00  0.00     0.010 A 
ATOM     40  C   UNL     1      -7.320  -6.444   5.650  1.00  0.00     0.010 A 
ATOM     41  C   UNL     1      -8.684  -6.761   5.739  1.00  0.00    -0.014 A 
BRANCH  41  42
ATOM     42  C   UNL     1      -9.090  -8.140   6.107  1.00  0.00     0.031 A 
ATOM     43  C   UNL     1      -8.690  -8.709   7.442  1.00  0.00     0.074 A 
ATOM     44  C   UNL     1      -9.758  -8.902   5.219  1.00  0.00     0.049 A 
ATOM     45  N   UNL     1      -8.919  -9.899   7.934  1.00  0.00    -0.248 NA
ATOM     46  C   UNL     1      -7.902  -7.837   8.331  1.00  0.00     0.031 C 
ATOM     47  C   UNL     1     -10.134  -8.491   3.864  1.00  0.00     0.029 A 
ATOM     48  N   UNL     1     -10.221 -10.190   5.316  1.00  0.00    -0.354 N 
ATOM     49  C   UNL     1      -8.276  -9.931   9.165  1.00  0.00     0.074 A 
ATOM     50  C   UNL     1      -7.610  -8.658   9.329  1.00  0.00     0.031 C 
ATOM     51  C   UNL     1     -10.778  -9.503   3.261  1.00  0.00     0.029 A 
ATOM     52  C   UNL     1     -10.835 -10.642   4.172  1.00  0.00     0.049 A 
ATOM     53  H   UNL     1     -10.122 -10.738   6.128  1.00  0.00     0.167 HD
ATOM     54  C   UNL     1      -8.265 -10.916  10.093  1.00  0.00     0.034 A 
ATOM     55  C   UNL     1     -11.380 -11.842   3.889  1.00  0.00     0.034 A 
ATOM     56  C   UNL     1      -8.961 -12.165   9.943  1.00  0.00     0.049 A 
ATOM     57  C   UNL     1     -11.392 -12.906   4.953  1.00  0.00     0.074 A 
ATOM     58  C   UNL     1      -9.083 -13.197  10.856  1.00  0.00     0.029 A 
ATOM     59  N   UNL     1      -9.645 -12.556   8.802  1.00  0.00    -0.354 N 
ATOM     60  N   UNL     1     -10.908 -12.863   6.170  1.00  0.00    -0.248 NA
ATOM     61  C   UNL     1     -12.063 -14.170   4.618  1.00  0.00     0.031 C 
ATOM     62  C   UNL     1      -9.814 -14.227  10.254  1.00  0.00     0.029 A 
ATOM     63  C   UNL     1     -10.185 -13.818   8.983  1.00  0.00     0.049 A 
ATOM     64  H   UNL     1      -9.733 -12.017   7.984  1.00  0.00     0.167 HD
ATOM     65  C   UNL     1     -11.255 -14.072   6.762  1.00  0.00     0.074 A 
ATOM     66  C   UNL     1     -12.005 -14.819   5.773  1.00  0.00     0.031 C 
ATOM     67  C   UNL     1     -10.973 -14.527   8.008  1.00  0.00     0.034 A 
BRANCH  54  68
ATOM     68  C   UNL     1      -7.508 -10.664  11.372  1.00  0.00     0.023 A 
ATOM     69  C   UNL     1      -7.988  -9.711  12.294  1.00  0.00     0.012 A 
ATOM     70  C   UNL     1      -6.347 -11.399  11.682  1.00  0.00     0.148 A 
ATOM     71  C   UNL     1      -7.302  -9.461  13.482  1.00  0.00     0.002 A 
ATOM     72  C   UNL     1      -5.698 -11.182  12.891  1.00  0.00     0.091 A 
ATOM     73  F   UNL     1      -5.893 -12.285  10.785  1.00  0.00    -0.205 F 
ATOM     74  C   UNL     1      -6.164 -10.204  13.785  1.00  0.00     0.022 A 
BRANCH  72  75
ATOM     75  S   UNL     1      -4.274 -12.144  13.412  1.00  0.00     0.127 S 
ATOM     76  O   UNL     1      -3.203 -11.151  13.334  1.00  0.00    -0.237 OA
ATOM     77  O   UNL     1      -4.647 -12.532  14.773  1.00  0.00    -0.237 OA
ATOM     78  O   UNL     1      -4.169 -13.250  12.471  1.00  0.00    -0.744 OA
ENDBRANCH  72  75
ENDBRANCH  54  68
BRANCH  55  79
ATOM     79  C   UNL     1     -12.017 -12.077   2.563  1.00  0.00     0.023 A 
ATOM     80  C   UNL     1     -13.417 -12.218   2.480  1.00  0.00     0.012 A 
ATOM     81  C   UNL     1     -11.250 -12.142   1.384  1.00  0.00     0.148 A 
ATOM     82  C   UNL     1     -14.037 -12.457   1.253  1.00  0.00     0.002 A 
ATOM     83  C   UNL     1     -11.879 -12.324   0.158  1.00  0.00     0.091 A 
ATOM     84  F   UNL     1      -9.920 -12.012   1.486  1.00  0.00    -0.205 F 
ATOM     85  C   UNL     1     -13.270 -12.501   0.092  1.00  0.00     0.022 A 
BRANCH  83  86
ATOM     86  S   UNL     1     -10.989 -12.263  -1.401  1.00  0.00     0.127 S 
ATOM     87  O   UNL     1     -11.090 -13.647  -1.856  1.00  0.00    -0.237 OA
ATOM     88  O   UNL     1     -11.787 -11.303  -2.164  1.00  0.00    -0.237 OA
ATOM     89  O   UNL     1      -9.647 -11.803  -1.071  1.00  0.00    -0.744 OA
ENDBRANCH  83  86
ENDBRANCH  55  79
BRANCH  67  90
ATOM     90  C   UNL     1     -11.524 -15.873   8.402  1.00  0.00     0.023 A 
ATOM     91  C   UNL     1     -11.002 -17.050   7.830  1.00  0.00     0.012 A 
ATOM     92  C   UNL     1     -12.523 -15.970   9.392  1.00  0.00     0.148 A 
ATOM     93  C   UNL     1     -11.495 -18.299   8.206  1.00  0.00     0.002 A 
ATOM     94  C   UNL     1     -12.970 -17.220   9.801  1.00  0.00     0.091 A 
ATOM     95  F   UNL     1     -13.021 -14.838   9.911  1.00  0.00    -0.205 F 
ATOM     96  C   UNL     1     -12.469 -18.385   9.199  1.00  0.00     0.022 A 
BRANCH  94  97
ATOM     97  S   UNL     1     -14.145 -17.426  11.144  1.00  0.00     0.127 S 
ATOM     98  O   UNL     1     -15.355 -17.816  10.423  1.00  0.00    -0.237 OA
ATOM     99  O   UNL     1     -13.531 -18.497  11.930  1.00  0.00    -0.237 OA
ATOM    100  O   UNL     1     -14.208 -16.139  11.823  1.00  0.00    -0.744 OA
ENDBRANCH  94  97
ENDBRANCH  67  90
ENDBRANCH  41  42
ENDBRANCH  33  36
ENDBRANCH  31  32
ENDBRANCH  30  31
ENDBRANCH  29  30
ENDBRANCH   1  29
TORSDOF 19
