REMARK SMILES O=C(NCCCCCCNC(=O)c1ccc(-n2cc(CSc3nc4ccccc4c(=O)n3-c3ccc(Br)cc3)nn2)cc1)c1ccc(-c2c3nc(c(-c4cccc(S(=O)(=O)[O-])c4F)c4ccc([nH]4)c(-c4cccc(S(=O)(=O)[O-])c4F)c4nc(c(-c5cccc(S(=O)(=O)[O-])c5F)c5ccc2[nH]5)C=C4)C=C3)cc1
REMARK SMILES IDX 7 1 6 2 5 3 4 4 3 5 1 6 2 7 44 9 45 10 106 11 46 12 105 13
REMARK SMILES IDX 47 14 48 15 49 16 99 17 50 18 104 19 98 20 100 21 51 22
REMARK SMILES IDX 103 23 97 24 96 25 52 27 84 28 64 29 83 30 65 31 68 32 82 33
REMARK SMILES IDX 101 34 66 35 67 36 81 38 102 39 69 40 53 41 54 42 62 43
REMARK SMILES IDX 55 44 57 45 63 46 56 47 58 48 59 49 60 50 61 51 85 52 86 53
REMARK SMILES IDX 94 54 87 55 89 56 95 57 88 58 90 59 91 60 92 61 93 62 70 63
REMARK SMILES IDX 71 64 79 65 72 66 74 67 80 68 73 69 75 70 76 71 77 72 78 73
REMARK SMILES IDX 8 74 9 75 10 76 11 77 12 79 13 80 14 81 43 82 15 83 42 84
REMARK SMILES IDX 16 85 17 86 18 87 41 88 19 89 40 90 20 91 21 92 22 93 23 94
REMARK SMILES IDX 32 95 24 96 30 97 25 98 29 99 31 100 26 101 28 102 27 103
REMARK SMILES IDX 33 104 34 105 39 106 35 107 38 108 36 109 37 110
REMARK H PARENT 3 8 100 26 68 37 10 78
REMARK Flexibility Score: inf
ROOT
ATOM      1  C   UNL     1       4.731  -2.964  -3.041  1.00  0.00     0.002 C 
ENDROOT
BRANCH   1   2
ATOM      2  C   UNL     1       4.192  -3.217  -1.630  1.00  0.00     0.002 C 
BRANCH   2   3
ATOM      3  C   UNL     1       4.714  -2.278  -0.537  1.00  0.00     0.021 C 
BRANCH   3   4
ATOM      4  C   UNL     1       4.557  -0.785  -0.831  1.00  0.00     0.116 C 
BRANCH   4   5
ATOM      5  N   UNL     1       3.197  -0.366  -1.091  1.00  0.00    -0.352 N 
ATOM      6  O   UNL     1       1.152   0.433  -0.905  1.00  0.00    -0.269 OA
ATOM      7  C   UNL     1       2.130  -0.025  -0.307  1.00  0.00     0.251 C 
ATOM      8  H   UNL     1       2.994  -0.314  -2.053  1.00  0.00     0.163 HD
BRANCH   7   9
ATOM      9  C   UNL     1       2.051  -0.224   1.166  1.00  0.00     0.039 A 
ATOM     10  C   UNL     1       3.113  -0.588   1.996  1.00  0.00     0.014 A 
ATOM     11  C   UNL     1       0.777  -0.059   1.742  1.00  0.00     0.014 A 
ATOM     12  C   UNL     1       2.897  -0.871   3.340  1.00  0.00     0.010 A 
ATOM     13  C   UNL     1       0.557  -0.319   3.090  1.00  0.00     0.010 A 
ATOM     14  C   UNL     1       1.615  -0.760   3.879  1.00  0.00    -0.014 A 
BRANCH  14  15
ATOM     15  C   UNL     1       1.458  -0.985   5.312  1.00  0.00     0.031 A 
ATOM     16  C   UNL     1       2.104   0.035   6.186  1.00  0.00     0.074 A 
ATOM     17  C   UNL     1       0.667  -1.949   5.822  1.00  0.00     0.049 A 
ATOM     18  N   UNL     1       3.026  -0.137   7.078  1.00  0.00    -0.248 NA
ATOM     19  C   UNL     1       1.750   1.443   5.955  1.00  0.00     0.031 C 
ATOM     20  C   UNL     1      -0.267  -2.808   5.091  1.00  0.00     0.029 A 
ATOM     21  N   UNL     1       0.421  -2.258   7.129  1.00  0.00    -0.354 N 
ATOM     22  C   UNL     1       3.210   1.113   7.675  1.00  0.00     0.074 A 
ATOM     23  C   UNL     1       2.537   2.064   6.833  1.00  0.00     0.031 C 
ATOM     24  C   UNL     1      -1.149  -3.341   5.965  1.00  0.00     0.029 A 
ATOM     25  C   UNL     1      -0.762  -2.965   7.313  1.00  0.00     0.049 A 
ATOM     26  H   UNL     1       1.020  -2.005   7.868  1.00  0.00     0.167 HD
ATOM     27  C   UNL     1       3.702   1.240   8.940  1.00  0.00     0.034 A 
ATOM     28  C   UNL     1      -1.427  -3.145   8.480  1.00  0.00     0.034 A 
ATOM     29  C   UNL     1       4.373   0.039   9.369  1.00  0.00     0.049 A 
ATOM     30  C   UNL     1      -0.481  -2.885   9.587  1.00  0.00     0.074 A 
ATOM     31  C   UNL     1       5.441  -0.712   8.924  1.00  0.00     0.029 A 
ATOM     32  N   UNL     1       3.718  -0.746  10.285  1.00  0.00    -0.354 N 
ATOM     33  N   UNL     1       0.533  -3.651   9.873  1.00  0.00    -0.248 NA
ATOM     34  C   UNL     1      -0.446  -1.554  10.168  1.00  0.00     0.031 C 
ATOM     35  C   UNL     1       5.105  -2.060   9.245  1.00  0.00     0.029 A 
ATOM     36  C   UNL     1       3.870  -2.045   9.896  1.00  0.00     0.049 A 
ATOM     37  H   UNL     1       3.229  -0.429  11.078  1.00  0.00     0.167 HD
ATOM     38  C   UNL     1       1.526  -2.770  10.280  1.00  0.00     0.074 A 
ATOM     39  C   UNL     1       0.827  -1.521  10.568  1.00  0.00     0.031 C 
ATOM     40  C   UNL     1       2.845  -3.050  10.062  1.00  0.00     0.034 A 
BRANCH  27  41
ATOM     41  C   UNL     1       3.251   2.280   9.956  1.00  0.00     0.023 A 
ATOM     42  C   UNL     1       3.889   2.255  11.221  1.00  0.00     0.012 A 
ATOM     43  C   UNL     1       2.063   3.040   9.864  1.00  0.00     0.148 A 
ATOM     44  C   UNL     1       3.314   2.844  12.353  1.00  0.00     0.002 A 
ATOM     45  C   UNL     1       1.533   3.686  10.979  1.00  0.00     0.091 A 
ATOM     46  F   UNL     1       1.354   3.056   8.735  1.00  0.00    -0.205 F 
ATOM     47  C   UNL     1       2.130   3.556  12.232  1.00  0.00     0.022 A 
BRANCH  45  48
ATOM     48  S   UNL     1       0.028   4.664  10.858  1.00  0.00     0.127 S 
ATOM     49  O   UNL     1      -0.953   3.752  11.456  1.00  0.00    -0.237 OA
ATOM     50  O   UNL     1       0.364   5.829  11.686  1.00  0.00    -0.237 OA
ATOM     51  O   UNL     1      -0.138   4.959   9.454  1.00  0.00    -0.744 OA
ENDBRANCH  45  48
ENDBRANCH  27  41
BRANCH  28  52
ATOM     52  C   UNL     1      -2.881  -3.289   8.719  1.00  0.00     0.023 A 
ATOM     53  C   UNL     1      -3.337  -3.883   9.912  1.00  0.00     0.012 A 
ATOM     54  C   UNL     1      -3.820  -2.612   7.910  1.00  0.00     0.148 A 
ATOM     55  C   UNL     1      -4.678  -3.784  10.300  1.00  0.00     0.002 A 
ATOM     56  C   UNL     1      -5.155  -2.527   8.292  1.00  0.00     0.091 A 
ATOM     57  F   UNL     1      -3.388  -1.971   6.816  1.00  0.00    -0.205 F 
ATOM     58  C   UNL     1      -5.586  -3.102   9.494  1.00  0.00     0.022 A 
BRANCH  56  59
ATOM     59  S   UNL     1      -6.378  -1.653   7.306  1.00  0.00     0.127 S 
ATOM     60  O   UNL     1      -7.482  -2.613   7.270  1.00  0.00    -0.237 OA
ATOM     61  O   UNL     1      -6.627  -0.464   8.116  1.00  0.00    -0.237 OA
ATOM     62  O   UNL     1      -5.750  -1.419   6.012  1.00  0.00    -0.744 OA
ENDBRANCH  56  59
ENDBRANCH  28  52
BRANCH  40  63
ATOM     63  C   UNL     1       3.224  -4.453   9.667  1.00  0.00     0.023 A 
ATOM     64  C   UNL     1       2.765  -5.044   8.472  1.00  0.00     0.012 A 
ATOM     65  C   UNL     1       4.207  -5.116  10.421  1.00  0.00     0.148 A 
ATOM     66  C   UNL     1       3.257  -6.282   8.052  1.00  0.00     0.002 A 
ATOM     67  C   UNL     1       4.731  -6.322   9.974  1.00  0.00     0.091 A 
ATOM     68  F   UNL     1       4.638  -4.537  11.553  1.00  0.00    -0.205 F 
ATOM     69  C   UNL     1       4.251  -6.914   8.795  1.00  0.00     0.022 A 
BRANCH  67  70
ATOM     70  S   UNL     1       6.110  -7.111  10.808  1.00  0.00     0.127 S 
ATOM     71  O   UNL     1       5.452  -8.202  11.524  1.00  0.00    -0.237 OA
ATOM     72  O   UNL     1       6.955  -7.534   9.690  1.00  0.00    -0.237 OA
ATOM     73  O   UNL     1       6.712  -6.080  11.646  1.00  0.00    -0.744 OA
ENDBRANCH  67  70
ENDBRANCH  40  63
ENDBRANCH  14  15
ENDBRANCH   7   9
ENDBRANCH   4   5
ENDBRANCH   3   4
ENDBRANCH   2   3
ENDBRANCH   1   2
BRANCH   1  74
ATOM     74  C   UNL     1       6.256  -2.930  -3.169  1.00  0.00     0.021 C 
BRANCH  74  75
ATOM     75  C   UNL     1       6.965  -4.206  -2.722  1.00  0.00     0.116 C 
BRANCH  75  76
ATOM     76  N   UNL     1       6.683  -5.327  -3.604  1.00  0.00    -0.352 N 
ATOM     77  C   UNL     1       7.528  -5.993  -4.454  1.00  0.00     0.251 C 
ATOM     78  H   UNL     1       5.754  -5.653  -3.589  1.00  0.00     0.163 HD
ATOM     79  O   UNL     1       7.102  -6.826  -5.248  1.00  0.00    -0.269 OA
BRANCH  77  80
ATOM     80  C   UNL     1       8.972  -5.690  -4.424  1.00  0.00     0.039 A 
ATOM     81  C   UNL     1       9.604  -5.282  -5.604  1.00  0.00     0.016 A 
ATOM     82  C   UNL     1       9.697  -5.831  -3.239  1.00  0.00     0.016 A 
ATOM     83  C   UNL     1      10.961  -4.949  -5.589  1.00  0.00     0.029 A 
ATOM     84  C   UNL     1      11.055  -5.524  -3.226  1.00  0.00     0.029 A 
ATOM     85  C   UNL     1      11.690  -5.088  -4.403  1.00  0.00     0.066 A 
BRANCH  85  86
ATOM     86  N   UNL     1      13.085  -4.869  -4.406  1.00  0.00    -0.220 N 
ATOM     87  C   UNL     1      13.990  -5.423  -3.542  1.00  0.00     0.141 A 
ATOM     88  N   UNL     1      13.741  -4.088  -5.295  1.00  0.00    -0.062 NA
ATOM     89  C   UNL     1      15.226  -5.000  -3.964  1.00  0.00     0.093 A 
ATOM     90  N   UNL     1      15.042  -4.126  -5.004  1.00  0.00    -0.134 NA
BRANCH  89  91
ATOM     91  C   UNL     1      16.533  -5.215  -3.308  1.00  0.00     0.138 C 
BRANCH  91  92
ATOM     92  S   UNL     1      17.646  -6.544  -3.777  1.00  0.00    -0.081 SA
BRANCH  92  93
ATOM     93  C   UNL     1      16.852  -7.793  -4.702  1.00  0.00     0.176 A 
ATOM     94  N   UNL     1      17.606  -8.245  -5.664  1.00  0.00    -0.223 NA
ATOM     95  N   UNL     1      15.581  -8.300  -4.476  1.00  0.00    -0.255 N 
ATOM     96  C   UNL     1      17.068  -9.194  -6.541  1.00  0.00     0.079 A 
ATOM     97  C   UNL     1      14.893  -8.634  -5.649  1.00  0.00     0.266 A 
ATOM     98  C   UNL     1      17.887  -9.976  -7.356  1.00  0.00     0.029 A 
ATOM     99  C   UNL     1      15.694  -9.312  -6.676  1.00  0.00     0.066 A 
ATOM    100  O   UNL     1      13.709  -8.410  -5.887  1.00  0.00    -0.268 OA
ATOM    101  C   UNL     1      17.322 -10.819  -8.322  1.00  0.00     0.002 A 
ATOM    102  C   UNL     1      15.112 -10.105  -7.669  1.00  0.00     0.016 A 
ATOM    103  C   UNL     1      15.937 -10.859  -8.500  1.00  0.00     0.001 A 
BRANCH  95 104
ATOM    104  C   UNL     1      14.901  -8.481  -3.208  1.00  0.00     0.051 A 
ATOM    105  C   UNL     1      13.651  -9.137  -3.170  1.00  0.00     0.028 A 
ATOM    106  C   UNL     1      15.400  -8.058  -1.970  1.00  0.00     0.028 A 
ATOM    107  C   UNL     1      12.841  -9.144  -2.031  1.00  0.00     0.018 A 
ATOM    108  C   UNL     1      14.577  -8.010  -0.831  1.00  0.00     0.018 A 
ATOM    109  C   UNL     1      13.283  -8.512  -0.883  1.00  0.00     0.018 A 
ATOM    110  Br  UNL     1      12.117  -8.303   0.583  1.00  0.00    -0.051 Br
ENDBRANCH  95 104
ENDBRANCH  92  93
ENDBRANCH  91  92
ENDBRANCH  89  91
ENDBRANCH  85  86
ENDBRANCH  77  80
ENDBRANCH  75  76
ENDBRANCH  74  75
ENDBRANCH   1  74
TORSDOF 21
