REMARK SMILES CC(C)c1cccc2c1N[C@H](c1ccc(C(=O)NCCCCCCNC(=O)c3ccc(-c4c5nc(c(-c6cccc(S(=O)(=O)[O-])c6F)c6ccc([nH]6)c(-c6cccc(S(=O)(=O)[O-])c6F)c6nc(c(-c7cccc(S(=O)(=O)[O-])c7F)c7ccc4[nH]7)C=C6)C=C5)cc3)cc1)[C@H]1CC=C[C@H]21
REMARK SMILES IDX 22 1 21 2 20 3 19 4 18 5 16 6 17 7 15 9 12 10 13 11 92 12
REMARK SMILES IDX 14 13 91 14 11 15 4 16 5 17 9 18 6 19 8 20 10 21 7 22 97 23
REMARK SMILES IDX 93 25 96 26 94 27 95 28 2 29 1 30 3 31 23 32 24 33 25 34
REMARK SMILES IDX 26 35 27 37 28 38 29 39 90 40 30 41 89 42 31 43 32 44 33 45
REMARK SMILES IDX 83 46 34 47 88 48 82 49 84 50 35 51 87 52 81 53 80 54 36 56
REMARK SMILES IDX 68 57 48 58 67 59 49 60 52 61 66 62 85 63 50 64 51 65 65 67
REMARK SMILES IDX 86 68 53 69 37 70 38 71 46 72 39 73 41 74 47 75 40 76 42 77
REMARK SMILES IDX 43 78 44 79 45 80 69 81 70 82 78 83 71 84 73 85 79 86 72 87
REMARK SMILES IDX 74 88 75 89 76 90 77 91 54 92 55 93 63 94 56 95 58 96 64 97
REMARK SMILES IDX 57 98 59 99 60 100 61 101 62 102
REMARK H PARENT 18 8 10 24 25 36 84 55 52 66
REMARK Flexibility Score: inf
ROOT
ATOM      1  C   UNL     1      -1.876   7.818   6.508  1.00  0.00     0.002 C 
ENDROOT
BRANCH   1   2
ATOM      2  C   UNL     1      -0.905   6.646   6.673  1.00  0.00     0.002 C 
BRANCH   2   3
ATOM      3  C   UNL     1      -1.024   5.503   5.664  1.00  0.00     0.021 C 
BRANCH   3   4
ATOM      4  C   UNL     1      -0.964   5.887   4.190  1.00  0.00     0.116 C 
BRANCH   4   5
ATOM      5  N   UNL     1       0.318   6.413   3.740  1.00  0.00    -0.352 N 
ATOM      6  C   UNL     1       0.923   6.273   2.503  1.00  0.00     0.251 C 
ATOM      7  O   UNL     1       2.039   6.742   2.301  1.00  0.00    -0.269 OA
ATOM      8  H   UNL     1       0.822   6.936   4.404  1.00  0.00     0.163 HD
BRANCH   6   9
ATOM      9  C   UNL     1       0.246   5.491   1.436  1.00  0.00     0.039 A 
ATOM     10  C   UNL     1      -1.135   3.577  -0.127  1.00  0.00    -0.025 A 
ATOM     11  C   UNL     1       0.275   3.625  -0.106  1.00  0.00     0.006 A 
ATOM     12  C   UNL     1      -1.793   4.664   0.459  1.00  0.00     0.006 A 
ATOM     13  C   UNL     1       0.963   4.553   0.693  1.00  0.00     0.014 A 
ATOM     14  C   UNL     1      -1.115   5.628   1.204  1.00  0.00     0.014 A 
BRANCH  10  15
ATOM     15  C   UNL     1      -1.889   2.389  -0.766  1.00  0.00     0.114 C 
ATOM     16  C   UNL     1      -0.868  -1.321  -0.298  1.00  0.00    -0.022 A 
ATOM     17  C   UNL     1      -1.540  -2.575  -0.282  1.00  0.00     0.006 A 
ATOM     18  C   UNL     1      -1.666  -0.150  -0.443  1.00  0.00     0.042 A 
ATOM     19  C   UNL     1      -2.921  -2.696  -0.374  1.00  0.00     0.001 A 
ATOM     20  C   UNL     1      -3.073  -0.303  -0.608  1.00  0.00    -0.017 A 
ATOM     21  N   UNL     1      -1.124   1.138  -0.486  1.00  0.00    -0.377 N 
ATOM     22  C   UNL     1      -3.685  -1.563  -0.555  1.00  0.00     0.006 A 
ATOM     23  C   UNL     1      -3.874   0.908  -0.982  1.00  0.00     0.049 C 
ATOM     24  H   UNL     1      -0.158   1.227  -0.319  1.00  0.00     0.161 HD
ATOM     25  C   UNL     1      -3.332   2.158  -0.275  1.00  0.00     0.031 C 
ATOM     26  C   UNL     1      -5.332   1.004  -0.641  1.00  0.00    -0.023 C 
ATOM     27  C   UNL     1      -4.460   3.168  -0.542  1.00  0.00     0.034 C 
ATOM     28  C   UNL     1      -5.668   2.285  -0.451  1.00  0.00    -0.030 C 
BRANCH  16  29
ATOM     29  C   UNL     1       0.671  -1.424  -0.274  1.00  0.00     0.015 C 
ATOM     30  C   UNL     1       1.517  -0.153  -0.172  1.00  0.00     0.012 C 
ATOM     31  C   UNL     1       1.185  -2.387   0.822  1.00  0.00     0.012 C 
ENDBRANCH  16  29
ENDBRANCH  10  15
ENDBRANCH   6   9
ENDBRANCH   4   5
ENDBRANCH   3   4
ENDBRANCH   2   3
ENDBRANCH   1   2
BRANCH   1  32
ATOM     32  C   UNL     1      -3.364   7.477   6.417  1.00  0.00     0.021 C 
BRANCH  32  33
ATOM     33  C   UNL     1      -3.931   6.604   7.532  1.00  0.00     0.116 C 
BRANCH  33  34
ATOM     34  N   UNL     1      -3.803   7.191   8.854  1.00  0.00    -0.352 N 
ATOM     35  C   UNL     1      -4.754   7.382   9.835  1.00  0.00     0.251 C 
ATOM     36  H   UNL     1      -2.898   7.501   9.086  1.00  0.00     0.163 HD
ATOM     37  O   UNL     1      -4.458   7.988  10.854  1.00  0.00    -0.269 OA
BRANCH  35  38
ATOM     38  C   UNL     1      -6.141   6.894   9.632  1.00  0.00     0.039 A 
ATOM     39  C   UNL     1      -6.393   5.623   9.113  1.00  0.00     0.014 A 
ATOM     40  C   UNL     1      -7.209   7.735   9.960  1.00  0.00     0.014 A 
ATOM     41  C   UNL     1      -7.691   5.266   8.757  1.00  0.00     0.010 A 
ATOM     42  C   UNL     1      -8.522   7.340   9.679  1.00  0.00     0.010 A 
ATOM     43  C   UNL     1      -8.771   6.125   9.024  1.00  0.00    -0.014 A 
BRANCH  43  44
ATOM     44  C   UNL     1     -10.144   5.728   8.610  1.00  0.00     0.031 A 
ATOM     45  C   UNL     1     -10.903   6.519   7.576  1.00  0.00     0.074 A 
ATOM     46  C   UNL     1     -10.695   4.616   9.136  1.00  0.00     0.049 A 
ATOM     47  N   UNL     1     -12.086   6.283   7.069  1.00  0.00    -0.248 NA
ATOM     48  C   UNL     1     -10.258   7.730   7.040  1.00  0.00     0.031 C 
ATOM     49  C   UNL     1     -10.074   3.774  10.161  1.00  0.00     0.029 A 
ATOM     50  N   UNL     1     -11.889   3.992   8.874  1.00  0.00    -0.354 N 
ATOM     51  C   UNL     1     -12.343   7.326   6.188  1.00  0.00     0.074 A 
ATOM     52  C   UNL     1     -11.196   8.206   6.230  1.00  0.00     0.031 C 
ATOM     53  C   UNL     1     -10.867   2.720  10.405  1.00  0.00     0.029 A 
ATOM     54  C   UNL     1     -12.074   2.834   9.592  1.00  0.00     0.049 A 
ATOM     55  H   UNL     1     -12.550   4.340   8.232  1.00  0.00     0.167 HD
ATOM     56  C   UNL     1     -13.424   7.522   5.397  1.00  0.00     0.034 A 
ATOM     57  C   UNL     1     -13.098   1.958   9.602  1.00  0.00     0.034 A 
ATOM     58  C   UNL     1     -14.542   6.623   5.311  1.00  0.00     0.049 A 
ATOM     59  C   UNL     1     -14.278   2.192   8.705  1.00  0.00     0.074 A 
ATOM     60  C   UNL     1     -15.660   6.722   4.500  1.00  0.00     0.029 A 
ATOM     61  N   UNL     1     -14.684   5.461   6.050  1.00  0.00    -0.354 N 
ATOM     62  N   UNL     1     -14.463   3.146   7.826  1.00  0.00    -0.248 NA
ATOM     63  C   UNL     1     -15.384   1.226   8.789  1.00  0.00     0.031 C 
ATOM     64  C   UNL     1     -16.481   5.620   4.752  1.00  0.00     0.029 A 
ATOM     65  C   UNL     1     -15.870   4.832   5.714  1.00  0.00     0.049 A 
ATOM     66  H   UNL     1     -14.038   5.131   6.716  1.00  0.00     0.167 HD
ATOM     67  C   UNL     1     -15.696   2.889   7.241  1.00  0.00     0.074 A 
ATOM     68  C   UNL     1     -16.209   1.681   7.853  1.00  0.00     0.031 C 
ATOM     69  C   UNL     1     -16.348   3.604   6.294  1.00  0.00     0.034 A 
BRANCH  56  70
ATOM     70  C   UNL     1     -13.439   8.731   4.500  1.00  0.00     0.023 A 
ATOM     71  C   UNL     1     -12.717   8.695   3.291  1.00  0.00     0.012 A 
ATOM     72  C   UNL     1     -14.253   9.842   4.793  1.00  0.00     0.148 A 
ATOM     73  C   UNL     1     -12.798   9.754   2.388  1.00  0.00     0.002 A 
ATOM     74  C   UNL     1     -14.351  10.881   3.874  1.00  0.00     0.091 A 
ATOM     75  F   UNL     1     -14.923   9.855   5.954  1.00  0.00    -0.205 F 
ATOM     76  C   UNL     1     -13.621  10.839   2.673  1.00  0.00     0.022 A 
BRANCH  74  77
ATOM     77  S   UNL     1     -15.426  12.300   4.116  1.00  0.00     0.127 S 
ATOM     78  O   UNL     1     -14.454  13.386   4.243  1.00  0.00    -0.237 OA
ATOM     79  O   UNL     1     -16.198  12.315   2.873  1.00  0.00    -0.237 OA
ATOM     80  O   UNL     1     -16.201  12.020   5.316  1.00  0.00    -0.744 OA
ENDBRANCH  74  77
ENDBRANCH  56  70
BRANCH  57  81
ATOM     81  C   UNL     1     -13.004   0.745  10.457  1.00  0.00     0.023 A 
ATOM     82  C   UNL     1     -12.728  -0.498   9.858  1.00  0.00     0.012 A 
ATOM     83  C   UNL     1     -13.092   0.834  11.860  1.00  0.00     0.148 A 
ATOM     84  C   UNL     1     -12.542  -1.636  10.643  1.00  0.00     0.002 A 
ATOM     85  C   UNL     1     -12.863  -0.294  12.637  1.00  0.00     0.091 A 
ATOM     86  F   UNL     1     -13.360   2.030  12.402  1.00  0.00    -0.205 F 
ATOM     87  C   UNL     1     -12.597  -1.532  12.031  1.00  0.00     0.022 A 
BRANCH  85  88
ATOM     88  S   UNL     1     -12.797  -0.237  14.431  1.00  0.00     0.127 S 
ATOM     89  O   UNL     1     -13.932  -1.081  14.797  1.00  0.00    -0.237 OA
ATOM     90  O   UNL     1     -11.482  -0.821  14.699  1.00  0.00    -0.237 OA
ATOM     91  O   UNL     1     -12.921   1.169  14.789  1.00  0.00    -0.744 OA
ENDBRANCH  85  88
ENDBRANCH  57  81
BRANCH  69  92
ATOM     92  C   UNL     1     -17.690   3.113   5.832  1.00  0.00     0.023 A 
ATOM     93  C   UNL     1     -18.829   3.389   6.613  1.00  0.00     0.012 A 
ATOM     94  C   UNL     1     -17.839   2.511   4.568  1.00  0.00     0.148 A 
ATOM     95  C   UNL     1     -20.101   3.069   6.141  1.00  0.00     0.002 A 
ATOM     96  C   UNL     1     -19.112   2.225   4.090  1.00  0.00     0.091 A 
ATOM     97  F   UNL     1     -16.736   2.256   3.850  1.00  0.00    -0.205 F 
ATOM     98  C   UNL     1     -20.243   2.500   4.877  1.00  0.00     0.022 A 
BRANCH  96  99
ATOM     99  S   UNL     1     -19.405   1.563   2.446  1.00  0.00     0.127 S 
ATOM    100  O   UNL     1     -19.969   0.248   2.752  1.00  0.00    -0.237 OA
ATOM    101  O   UNL     1     -20.359   2.523   1.893  1.00  0.00    -0.237 OA
ATOM    102  O   UNL     1     -18.109   1.538   1.782  1.00  0.00    -0.744 OA
ENDBRANCH  96  99
ENDBRANCH  69  92
ENDBRANCH  43  44
ENDBRANCH  35  38
ENDBRANCH  33  34
ENDBRANCH  32  33
ENDBRANCH   1  32
TORSDOF 18
