REMARK SMILES O=C(NCCCCCCNC(=O)c1ccc(-c2c3nc(c(-c4cccc(S(=O)(=O)[O-])c4F)c4ccc([nH]4)c(-c4cccc(S(=O)(=O)[O-])c4F)c4nc(c(-c5cccc(S(=O)(=O)[O-])c5F)c5ccc2[nH]5)C=C4)C=C3)cc1)C1=N[C@@H]2NC=NN2[C@@H]([C@H]2C=NN=C2c2ccc(F)cc2)C1
REMARK SMILES IDX 7 1 6 2 5 3 4 4 3 5 1 6 2 7 76 9 77 10 96 11 78 12 83 13
REMARK SMILES IDX 79 14 82 15 80 16 81 18 84 19 85 20 88 21 86 22 87 23 89 24
REMARK SMILES IDX 90 25 95 26 91 27 94 28 92 29 93 30 8 31 9 32 10 33 11 34
REMARK SMILES IDX 12 36 13 37 14 38 75 39 15 40 74 41 16 42 17 43 18 44 68 45
REMARK SMILES IDX 19 46 73 47 67 48 69 49 20 50 72 51 66 52 65 53 21 55 53 56
REMARK SMILES IDX 33 57 52 58 34 59 37 60 51 61 70 62 35 63 36 64 50 66 71 67
REMARK SMILES IDX 38 68 22 69 23 70 31 71 24 72 26 73 32 74 25 75 27 76 28 77
REMARK SMILES IDX 29 78 30 79 54 80 55 81 63 82 56 83 58 84 64 85 57 86 59 87
REMARK SMILES IDX 60 88 61 89 62 90 39 91 40 92 48 93 41 94 43 95 49 96 42 97
REMARK SMILES IDX 44 98 45 99 46 100 47 101
REMARK H PARENT 3 8 79 17 10 35 69 54 37 65
REMARK Flexibility Score: inf
ROOT
ATOM      1  C   UNL     1      11.912  -2.168  -7.912  1.00  0.00     0.002 C 
ENDROOT
BRANCH   1   2
ATOM      2  C   UNL     1      12.618  -1.777  -6.613  1.00  0.00     0.002 C 
BRANCH   2   3
ATOM      3  C   UNL     1      11.939  -0.721  -5.740  1.00  0.00     0.021 C 
BRANCH   3   4
ATOM      4  C   UNL     1      10.504  -0.981  -5.292  1.00  0.00     0.116 C 
BRANCH   4   5
ATOM      5  N   UNL     1      10.298  -2.175  -4.499  1.00  0.00    -0.351 N 
ATOM      6  O   UNL     1       9.176  -3.636  -3.201  1.00  0.00    -0.268 OA
ATOM      7  C   UNL     1       9.261  -2.495  -3.648  1.00  0.00     0.265 C 
ATOM      8  H   UNL     1      11.002  -2.859  -4.580  1.00  0.00     0.163 HD
BRANCH   7   9
ATOM      9  C   UNL     1       8.265  -1.434  -3.143  1.00  0.00     0.106 C 
ATOM     10  N   UNL     1       8.030  -1.432  -1.875  1.00  0.00    -0.237 NA
ATOM     11  C   UNL     1       7.603  -0.509  -4.130  1.00  0.00     0.090 C 
ATOM     12  C   UNL     1       7.346  -0.306  -1.289  1.00  0.00     0.319 C 
ATOM     13  C   UNL     1       6.570   0.391  -3.453  1.00  0.00     0.127 C 
ATOM     14  N   UNL     1       6.136  -0.520  -0.542  1.00  0.00    -0.335 N 
ATOM     15  N   UNL     1       7.043   0.872  -2.132  1.00  0.00    -0.249 NA
ATOM     16  C   UNL     1       5.504   0.687  -0.621  1.00  0.00     0.217 C 
ATOM     17  H   UNL     1       5.837  -1.339  -0.085  1.00  0.00     0.165 HD
ATOM     18  N   UNL     1       6.005   1.559  -1.457  1.00  0.00    -0.164 NA
BRANCH  13  19
ATOM     19  C   UNL     1       6.108   1.601  -4.285  1.00  0.00     0.109 C 
ATOM     20  C   UNL     1       7.207   2.571  -4.561  1.00  0.00     0.120 C 
ATOM     21  C   UNL     1       5.780   1.270  -5.706  1.00  0.00     0.081 C 
ATOM     22  N   UNL     1       7.460   2.708  -5.820  1.00  0.00    -0.162 NA
ATOM     23  N   UNL     1       6.562   1.874  -6.549  1.00  0.00    -0.155 NA
BRANCH  21  24
ATOM     24  C   UNL     1       4.758   0.274  -6.074  1.00  0.00    -0.001 A 
ATOM     25  C   UNL     1       3.733  -0.086  -5.188  1.00  0.00     0.013 A 
ATOM     26  C   UNL     1       4.904  -0.398  -7.292  1.00  0.00     0.013 A 
ATOM     27  C   UNL     1       2.897  -1.161  -5.500  1.00  0.00     0.040 A 
ATOM     28  C   UNL     1       4.067  -1.470  -7.598  1.00  0.00     0.040 A 
ATOM     29  C   UNL     1       3.082  -1.851  -6.694  1.00  0.00     0.123 A 
ATOM     30  F   UNL     1       2.304  -2.905  -6.968  1.00  0.00    -0.207 F 
ENDBRANCH  21  24
ENDBRANCH  13  19
ENDBRANCH   7   9
ENDBRANCH   4   5
ENDBRANCH   3   4
ENDBRANCH   2   3
ENDBRANCH   1   2
BRANCH   1  31
ATOM     31  C   UNL     1      11.513  -1.027  -8.851  1.00  0.00     0.021 C 
BRANCH  31  32
ATOM     32  C   UNL     1      12.620  -0.052  -9.242  1.00  0.00     0.116 C 
BRANCH  32  33
ATOM     33  N   UNL     1      13.719  -0.685  -9.954  1.00  0.00    -0.352 N 
ATOM     34  C   UNL     1      14.305  -0.336 -11.147  1.00  0.00     0.251 C 
ATOM     35  H   UNL     1      14.099  -1.481  -9.517  1.00  0.00     0.163 HD
ATOM     36  O   UNL     1      15.150  -1.081 -11.649  1.00  0.00    -0.269 OA
BRANCH  34  37
ATOM     37  C   UNL     1      13.915   0.908 -11.847  1.00  0.00     0.039 A 
ATOM     38  C   UNL     1      13.706   0.868 -13.229  1.00  0.00     0.014 A 
ATOM     39  C   UNL     1      13.760   2.113 -11.156  1.00  0.00     0.014 A 
ATOM     40  C   UNL     1      13.279   2.015 -13.904  1.00  0.00     0.010 A 
ATOM     41  C   UNL     1      13.259   3.235 -11.816  1.00  0.00     0.010 A 
ATOM     42  C   UNL     1      13.015   3.201 -13.198  1.00  0.00    -0.014 A 
BRANCH  42  43
ATOM     43  C   UNL     1      12.468   4.402 -13.885  1.00  0.00     0.031 A 
ATOM     44  C   UNL     1      13.244   5.692 -13.908  1.00  0.00     0.074 A 
ATOM     45  C   UNL     1      11.232   4.357 -14.422  1.00  0.00     0.049 A 
ATOM     46  N   UNL     1      12.904   6.851 -14.411  1.00  0.00    -0.248 NA
ATOM     47  C   UNL     1      14.565   5.686 -13.259  1.00  0.00     0.031 C 
ATOM     48  C   UNL     1      10.344   3.193 -14.397  1.00  0.00     0.029 A 
ATOM     49  N   UNL     1      10.496   5.321 -15.066  1.00  0.00    -0.354 N 
ATOM     50  C   UNL     1      13.951   7.717 -14.115  1.00  0.00     0.074 A 
ATOM     51  C   UNL     1      14.919   6.959 -13.352  1.00  0.00     0.031 C 
ATOM     52  C   UNL     1       9.185   3.511 -14.995  1.00  0.00     0.029 A 
ATOM     53  C   UNL     1       9.231   4.909 -15.413  1.00  0.00     0.049 A 
ATOM     54  H   UNL     1      10.842   6.223 -15.261  1.00  0.00     0.167 HD
ATOM     55  C   UNL     1      14.109   9.016 -14.469  1.00  0.00     0.034 A 
ATOM     56  C   UNL     1       8.213   5.581 -15.987  1.00  0.00     0.034 A 
ATOM     57  C   UNL     1      13.153   9.762 -15.243  1.00  0.00     0.049 A 
ATOM     58  C   UNL     1       8.417   7.016 -16.389  1.00  0.00     0.074 A 
ATOM     59  C   UNL     1      13.252  11.059 -15.715  1.00  0.00     0.029 A 
ATOM     60  N   UNL     1      11.914   9.286 -15.646  1.00  0.00    -0.354 N 
ATOM     61  N   UNL     1       9.476   7.774 -16.235  1.00  0.00    -0.248 NA
ATOM     62  C   UNL     1       7.300   7.680 -17.078  1.00  0.00     0.031 C 
ATOM     63  C   UNL     1      12.060  11.379 -16.373  1.00  0.00     0.029 A 
ATOM     64  C   UNL     1      11.234  10.267 -16.350  1.00  0.00     0.049 A 
ATOM     65  H   UNL     1      11.569   8.384 -15.459  1.00  0.00     0.167 HD
ATOM     66  C   UNL     1       9.167   8.989 -16.835  1.00  0.00     0.074 A 
ATOM     67  C   UNL     1       7.830   8.859 -17.376  1.00  0.00     0.031 C 
ATOM     68  C   UNL     1       9.920  10.114 -16.922  1.00  0.00     0.034 A 
BRANCH  55  69
ATOM     69  C   UNL     1      15.388   9.700 -14.055  1.00  0.00     0.023 A 
ATOM     70  C   UNL     1      16.610   9.308 -14.643  1.00  0.00     0.012 A 
ATOM     71  C   UNL     1      15.383  10.754 -13.120  1.00  0.00     0.148 A 
ATOM     72  C   UNL     1      17.808   9.918 -14.273  1.00  0.00     0.002 A 
ATOM     73  C   UNL     1      16.575  11.391 -12.794  1.00  0.00     0.091 A 
ATOM     74  F   UNL     1      14.217  11.105 -12.559  1.00  0.00    -0.205 F 
ATOM     75  C   UNL     1      17.789  10.964 -13.356  1.00  0.00     0.022 A 
BRANCH  73  76
ATOM     76  S   UNL     1      16.648  12.804 -11.687  1.00  0.00     0.127 S 
ATOM     77  O   UNL     1      17.309  12.228 -10.517  1.00  0.00    -0.237 OA
ATOM     78  O   UNL     1      17.470  13.747 -12.447  1.00  0.00    -0.237 OA
ATOM     79  O   UNL     1      15.271  13.227 -11.482  1.00  0.00    -0.744 OA
ENDBRANCH  73  76
ENDBRANCH  55  69
BRANCH  56  80
ATOM     80  C   UNL     1       6.923   4.883 -16.254  1.00  0.00     0.023 A 
ATOM     81  C   UNL     1       6.547   4.596 -17.581  1.00  0.00     0.012 A 
ATOM     82  C   UNL     1       6.086   4.471 -15.199  1.00  0.00     0.148 A 
ATOM     83  C   UNL     1       5.347   3.938 -17.853  1.00  0.00     0.002 A 
ATOM     84  C   UNL     1       4.921   3.764 -15.474  1.00  0.00     0.091 A 
ATOM     85  F   UNL     1       6.457   4.762 -13.944  1.00  0.00    -0.205 F 
ATOM     86  C   UNL     1       4.540   3.513 -16.801  1.00  0.00     0.022 A 
BRANCH  84  87
ATOM     87  S   UNL     1       3.892   3.057 -14.182  1.00  0.00     0.127 S 
ATOM     88  O   UNL     1       2.671   3.849 -14.306  1.00  0.00    -0.237 OA
ATOM     89  O   UNL     1       3.772   1.667 -14.623  1.00  0.00    -0.237 OA
ATOM     90  O   UNL     1       4.635   3.233 -12.943  1.00  0.00    -0.744 OA
ENDBRANCH  84  87
ENDBRANCH  56  80
BRANCH  68  91
ATOM     91  C   UNL     1       9.338  11.291 -17.664  1.00  0.00     0.023 A 
ATOM     92  C   UNL     1       8.275  12.025 -17.103  1.00  0.00     0.012 A 
ATOM     93  C   UNL     1       9.897  11.709 -18.889  1.00  0.00     0.148 A 
ATOM     94  C   UNL     1       7.753  13.136 -17.767  1.00  0.00     0.002 A 
ATOM     95  C   UNL     1       9.407  12.847 -19.518  1.00  0.00     0.091 A 
ATOM     96  F   UNL     1      10.897  10.988 -19.415  1.00  0.00    -0.205 F 
ATOM     97  C   UNL     1       8.325  13.553 -18.966  1.00  0.00     0.022 A 
BRANCH  95  98
ATOM     98  S   UNL     1      10.143  13.517 -21.013  1.00  0.00     0.127 S 
ATOM     99  O   UNL     1       9.105  13.243 -22.005  1.00  0.00    -0.237 OA
ATOM    100  O   UNL     1      10.303  14.931 -20.672  1.00  0.00    -0.237 OA
ATOM    101  O   UNL     1      11.394  12.795 -21.205  1.00  0.00    -0.744 OA
ENDBRANCH  95  98
ENDBRANCH  68  91
ENDBRANCH  42  43
ENDBRANCH  34  37
ENDBRANCH  32  33
ENDBRANCH  31  32
ENDBRANCH   1  31
TORSDOF 18
