REMARK SMILES Cc1nn(C)c(C)c1[C@H](C)N1C(=O)CC[C@@H](C(=O)NCCCCCCNC(=O)c2ccc(-c3c4nc(c(-c5cccc(S(=O)(=O)[O-])c5F)c5ccc([nH]5)c(-c5cccc(S(=O)(=O)[O-])c5F)c5nc(c(-c6cccc(S(=O)(=O)[O-])c6F)c6ccc3[nH]6)C=C5)C=C4)cc2)[C@@H]1c1ccco1
REMARK SMILES IDX 23 1 22 2 21 3 20 4 19 5 17 6 18 7 16 9 11 10 12 11 92 12
REMARK SMILES IDX 13 13 14 14 15 15 9 16 10 17 8 18 1 19 2 20 3 21 4 22 6 23
REMARK SMILES IDX 5 24 7 25 93 26 94 27 97 28 95 29 96 30 24 31 25 32 26 33
REMARK SMILES IDX 27 34 28 36 29 37 30 38 91 39 31 40 90 41 32 42 33 43 34 44
REMARK SMILES IDX 84 45 35 46 89 47 83 48 85 49 36 50 88 51 82 52 81 53 37 55
REMARK SMILES IDX 69 56 49 57 68 58 50 59 53 60 67 61 86 62 51 63 52 64 66 66
REMARK SMILES IDX 87 67 54 68 38 69 39 70 47 71 40 72 42 73 48 74 41 75 43 76
REMARK SMILES IDX 44 77 45 78 46 79 70 80 71 81 79 82 72 83 74 84 80 85 73 86
REMARK SMILES IDX 75 87 76 88 77 89 78 90 55 91 56 92 64 93 57 94 59 95 65 96
REMARK SMILES IDX 58 97 60 98 61 99 62 100 63 101
REMARK H PARENT 19 8 26 35 85 54 53 65
REMARK Flexibility Score: inf
ROOT
ATOM      1  C   UNL     1      -1.276  11.157  -1.795  1.00  0.00     0.002 C 
ENDROOT
BRANCH   1   2
ATOM      2  C   UNL     1      -1.083  10.265  -3.026  1.00  0.00     0.002 C 
BRANCH   2   3
ATOM      3  C   UNL     1       0.211   9.435  -3.034  1.00  0.00     0.021 C 
BRANCH   3   4
ATOM      4  C   UNL     1       0.396   8.554  -1.798  1.00  0.00     0.116 C 
BRANCH   4   5
ATOM      5  N   UNL     1      -0.662   7.567  -1.730  1.00  0.00    -0.356 N 
ATOM      6  C   UNL     1      -0.671   6.265  -2.112  1.00  0.00     0.225 C 
ATOM      7  O   UNL     1      -1.776   5.747  -2.273  1.00  0.00    -0.275 OA
ATOM      8  H   UNL     1      -1.509   7.893  -1.347  1.00  0.00     0.163 HD
BRANCH   6   9
ATOM      9  C   UNL     1       0.634   5.481  -2.234  1.00  0.00     0.109 C 
ATOM     10  N   UNL     1      -0.194   3.387  -1.080  1.00  0.00    -0.325 N 
ATOM     11  C   UNL     1      -0.770   2.978  -2.283  1.00  0.00     0.223 C 
ATOM     12  C   UNL     1       0.733   4.533  -1.026  1.00  0.00     0.164 C 
ATOM     13  O   UNL     1      -1.669   2.132  -2.339  1.00  0.00    -0.275 OA
ATOM     14  C   UNL     1      -0.296   3.579  -3.594  1.00  0.00     0.101 C 
ATOM     15  C   UNL     1       0.721   4.695  -3.527  1.00  0.00     0.026 C 
BRANCH  10  16
ATOM     16  C   UNL     1      -0.666   2.692   0.160  1.00  0.00     0.117 C 
ATOM     17  C   UNL     1      -0.383   1.184   0.078  1.00  0.00     0.036 C 
BRANCH  16  18
ATOM     18  C   UNL     1      -0.215   3.327   1.481  1.00  0.00     0.018 A 
ATOM     19  C   UNL     1       1.227   1.470   2.788  1.00  0.00     0.069 C 
ATOM     20  C   UNL     1       0.590   2.794   2.552  1.00  0.00     0.065 A 
ATOM     21  N   UNL     1       0.753   3.682   3.539  1.00  0.00    -0.178 NA
ATOM     22  N   UNL     1       0.094   4.768   3.139  1.00  0.00    -0.272 N 
ATOM     23  C   UNL     1      -0.599   4.581   1.974  1.00  0.00     0.040 A 
ATOM     24  C   UNL     1       0.197   5.955   3.956  1.00  0.00     0.174 C 
ATOM     25  C   UNL     1      -1.508   5.624   1.423  1.00  0.00     0.067 C 
ENDBRANCH  16  18
ENDBRANCH  10  16
BRANCH  12  26
ATOM     26  C   UNL     1       2.150   4.116  -0.762  1.00  0.00     0.127 A 
ATOM     27  C   UNL     1       3.231   4.825  -0.269  1.00  0.00     0.048 A 
ATOM     28  O   UNL     1       2.515   2.822  -0.994  1.00  0.00    -0.467 OA
ATOM     29  C   UNL     1       4.303   3.911  -0.175  1.00  0.00     0.042 A 
ATOM     30  C   UNL     1       3.815   2.705  -0.616  1.00  0.00     0.195 A 
ENDBRANCH  12  26
ENDBRANCH   6   9
ENDBRANCH   4   5
ENDBRANCH   3   4
ENDBRANCH   2   3
ENDBRANCH   1   2
BRANCH   1  31
ATOM     31  C   UNL     1      -0.110  12.102  -1.496  1.00  0.00     0.021 C 
BRANCH  31  32
ATOM     32  C   UNL     1       0.239  13.055  -2.633  1.00  0.00     0.116 C 
BRANCH  32  33
ATOM     33  N   UNL     1      -0.846  13.979  -2.925  1.00  0.00    -0.352 N 
ATOM     34  C   UNL     1      -0.815  15.349  -3.005  1.00  0.00     0.251 C 
ATOM     35  H   UNL     1      -1.724  13.564  -3.088  1.00  0.00     0.163 HD
ATOM     36  O   UNL     1      -1.865  15.985  -3.069  1.00  0.00    -0.269 OA
BRANCH  34  37
ATOM     37  C   UNL     1       0.483  16.055  -2.990  1.00  0.00     0.039 A 
ATOM     38  C   UNL     1       0.634  17.179  -2.174  1.00  0.00     0.014 A 
ATOM     39  C   UNL     1       1.552  15.604  -3.771  1.00  0.00     0.014 A 
ATOM     40  C   UNL     1       1.876  17.812  -2.093  1.00  0.00     0.010 A 
ATOM     41  C   UNL     1       2.807  16.189  -3.629  1.00  0.00     0.010 A 
ATOM     42  C   UNL     1       2.983  17.300  -2.791  1.00  0.00    -0.014 A 
BRANCH  42  43
ATOM     43  C   UNL     1       4.335  17.898  -2.638  1.00  0.00     0.031 A 
ATOM     44  C   UNL     1       5.042  18.497  -3.823  1.00  0.00     0.074 A 
ATOM     45  C   UNL     1       4.962  17.821  -1.447  1.00  0.00     0.049 A 
ATOM     46  N   UNL     1       6.245  19.007  -3.892  1.00  0.00    -0.248 NA
ATOM     47  C   UNL     1       4.314  18.504  -5.103  1.00  0.00     0.031 C 
ATOM     48  C   UNL     1       4.413  17.197  -0.240  1.00  0.00     0.029 A 
ATOM     49  N   UNL     1       6.210  18.244  -1.061  1.00  0.00    -0.354 N 
ATOM     50  C   UNL     1       6.431  19.362  -5.223  1.00  0.00     0.074 A 
ATOM     51  C   UNL     1       5.231  18.981  -5.933  1.00  0.00     0.031 C 
ATOM     52  C   UNL     1       5.316  17.282   0.749  1.00  0.00     0.029 A 
ATOM     53  C   UNL     1       6.521  17.929   0.242  1.00  0.00     0.049 A 
ATOM     54  H   UNL     1       6.824  18.727  -1.660  1.00  0.00     0.167 HD
ATOM     55  C   UNL     1       7.495  19.973  -5.797  1.00  0.00     0.034 A 
ATOM     56  C   UNL     1       7.654  18.124   0.945  1.00  0.00     0.034 A 
ATOM     57  C   UNL     1       8.675  20.379  -5.082  1.00  0.00     0.049 A 
ATOM     58  C   UNL     1       8.811  18.825   0.288  1.00  0.00     0.074 A 
ATOM     59  C   UNL     1       9.770  21.079  -5.557  1.00  0.00     0.029 A 
ATOM     60  N   UNL     1       8.923  20.111  -3.744  1.00  0.00    -0.354 N 
ATOM     61  N   UNL     1       8.909  19.290  -0.933  1.00  0.00    -0.248 NA
ATOM     62  C   UNL     1      10.003  19.061   1.117  1.00  0.00     0.031 C 
ATOM     63  C   UNL     1      10.696  21.202  -4.517  1.00  0.00     0.029 A 
ATOM     64  C   UNL     1      10.159  20.617  -3.381  1.00  0.00     0.049 A 
ATOM     65  H   UNL     1       8.310  19.631  -3.142  1.00  0.00     0.167 HD
ATOM     66  C   UNL     1      10.152  19.908  -1.008  1.00  0.00     0.074 A 
ATOM     67  C   UNL     1      10.764  19.773   0.297  1.00  0.00     0.031 C 
ATOM     68  C   UNL     1      10.738  20.521  -2.066  1.00  0.00     0.034 A 
BRANCH  55  69
ATOM     69  C   UNL     1       7.419  20.278  -7.271  1.00  0.00     0.023 A 
ATOM     70  C   UNL     1       6.540  21.279  -7.734  1.00  0.00     0.012 A 
ATOM     71  C   UNL     1       8.264  19.623  -8.189  1.00  0.00     0.148 A 
ATOM     72  C   UNL     1       6.478  21.599  -9.090  1.00  0.00     0.002 A 
ATOM     73  C   UNL     1       8.230  19.982  -9.532  1.00  0.00     0.091 A 
ATOM     74  F   UNL     1       9.079  18.662  -7.734  1.00  0.00    -0.205 F 
ATOM     75  C   UNL     1       7.330  20.959  -9.986  1.00  0.00     0.022 A 
BRANCH  73  76
ATOM     76  S   UNL     1       9.344  19.276 -10.752  1.00  0.00     0.127 S 
ATOM     77  O   UNL     1       8.424  18.484 -11.567  1.00  0.00    -0.237 OA
ATOM     78  O   UNL     1       9.870  20.471 -11.413  1.00  0.00    -0.237 OA
ATOM     79  O   UNL     1      10.330  18.510 -10.003  1.00  0.00    -0.744 OA
ENDBRANCH  73  76
ENDBRANCH  55  69
BRANCH  56  80
ATOM     80  C   UNL     1       7.731  17.690   2.369  1.00  0.00     0.023 A 
ATOM     81  C   UNL     1       7.791  18.659   3.390  1.00  0.00     0.012 A 
ATOM     82  C   UNL     1       7.728  16.326   2.718  1.00  0.00     0.148 A 
ATOM     83  C   UNL     1       7.885  18.277   4.728  1.00  0.00     0.002 A 
ATOM     84  C   UNL     1       7.760  15.953   4.056  1.00  0.00     0.091 A 
ATOM     85  F   UNL     1       7.679  15.419   1.732  1.00  0.00    -0.205 F 
ATOM     86  C   UNL     1       7.859  16.926   5.062  1.00  0.00     0.022 A 
BRANCH  84  87
ATOM     87  S   UNL     1       7.594  14.243   4.582  1.00  0.00     0.127 S 
ATOM     88  O   UNL     1       8.930  13.958   5.099  1.00  0.00    -0.237 OA
ATOM     89  O   UNL     1       6.546  14.342   5.599  1.00  0.00    -0.237 OA
ATOM     90  O   UNL     1       7.204  13.499   3.392  1.00  0.00    -0.744 OA
ENDBRANCH  84  87
ENDBRANCH  56  80
BRANCH  68  91
ATOM     91  C   UNL     1      12.094  21.142  -1.852  1.00  0.00     0.023 A 
ATOM     92  C   UNL     1      13.229  20.325  -1.682  1.00  0.00     0.012 A 
ATOM     93  C   UNL     1      12.250  22.543  -1.891  1.00  0.00     0.148 A 
ATOM     94  C   UNL     1      14.492  20.892  -1.518  1.00  0.00     0.002 A 
ATOM     95  C   UNL     1      13.519  23.098  -1.782  1.00  0.00     0.091 A 
ATOM     96  F   UNL     1      11.156  23.304  -2.036  1.00  0.00    -0.205 F 
ATOM     97  C   UNL     1      14.639  22.276  -1.581  1.00  0.00     0.022 A 
BRANCH  95  98
ATOM     98  S   UNL     1      13.816  24.862  -1.950  1.00  0.00     0.127 S 
ATOM     99  O   UNL     1      14.173  25.235  -0.582  1.00  0.00    -0.237 OA
ATOM    100  O   UNL     1      14.927  24.898  -2.902  1.00  0.00    -0.237 OA
ATOM    101  O   UNL     1      12.574  25.435  -2.449  1.00  0.00    -0.744 OA
ENDBRANCH  95  98
ENDBRANCH  68  91
ENDBRANCH  42  43
ENDBRANCH  34  37
ENDBRANCH  32  33
ENDBRANCH  31  32
ENDBRANCH   1  31
TORSDOF 19
