REMARK SMILES Cc1cc(N[C@@H]2C=C[C@@H](C(=O)NCCCCCCNC(=O)c3ccc(-c4c5nc(c(-c6cccc(S(=O)(=O)[O-])c6F)c6ccc([nH]6)c(-c6cccc(S(=O)(=O)[O-])c6F)c6nc(c(-c7cccc(S(=O)(=O)[O-])c7F)c7ccc4[nH]7)C=C6)C=C5)cc3)C2)nc(C)n1
REMARK SMILES IDX 16 1 15 2 14 3 13 4 12 5 10 6 11 7 9 9 6 10 7 11 85 12 8 13
REMARK SMILES IDX 5 14 4 16 1 17 2 18 3 19 89 20 87 21 86 22 88 23 17 24 18 25
REMARK SMILES IDX 19 26 20 27 21 29 22 30 23 31 84 32 24 33 83 34 25 35 26 36
REMARK SMILES IDX 27 37 77 38 28 39 82 40 76 41 78 42 29 43 81 44 75 45 74 46
REMARK SMILES IDX 30 48 62 49 42 50 61 51 43 52 46 53 60 54 79 55 44 56 45 57
REMARK SMILES IDX 59 59 80 60 47 61 31 62 32 63 40 64 33 65 35 66 41 67 34 68
REMARK SMILES IDX 36 69 37 70 38 71 39 72 63 73 64 74 72 75 65 76 67 77 73 78
REMARK SMILES IDX 66 79 68 80 69 81 70 82 71 83 48 84 49 85 57 86 50 87 52 88
REMARK SMILES IDX 58 89 51 90 53 91 54 92 55 93 56 94
REMARK H PARENT 12 8 5 15 19 28 78 47 46 58
REMARK Flexibility Score: inf
ROOT
ATOM      1  C   UNL     1       2.127  -1.479   0.120  1.00  0.00     0.002 C 
ENDROOT
BRANCH   1   2
ATOM      2  C   UNL     1       1.760  -0.788   1.437  1.00  0.00     0.002 C 
BRANCH   2   3
ATOM      3  C   UNL     1       0.635   0.249   1.327  1.00  0.00     0.021 C 
BRANCH   3   4
ATOM      4  C   UNL     1      -0.651  -0.298   0.721  1.00  0.00     0.116 C 
BRANCH   4   5
ATOM      5  N   UNL     1      -1.216  -1.312   1.584  1.00  0.00    -0.356 N 
ATOM      6  C   UNL     1      -2.446  -1.407   2.141  1.00  0.00     0.227 C 
ATOM      7  O   UNL     1      -2.651  -2.352   2.911  1.00  0.00    -0.274 OA
ATOM      8  H   UNL     1      -0.607  -2.055   1.801  1.00  0.00     0.163 HD
BRANCH   6   9
ATOM      9  C   UNL     1      -3.564  -0.426   1.817  1.00  0.00     0.103 C 
ATOM     10  C   UNL     1      -3.868   1.898   1.080  1.00  0.00     0.104 C 
ATOM     11  C   UNL     1      -4.040   0.931  -0.044  1.00  0.00    -0.006 C 
ATOM     12  C   UNL     1      -3.372   1.035   2.255  1.00  0.00     0.046 C 
ATOM     13  C   UNL     1      -3.862  -0.337   0.346  1.00  0.00    -0.016 C 
BRANCH  10  14
ATOM     14  N   UNL     1      -5.090   2.628   1.339  1.00  0.00    -0.364 N 
ATOM     15  H   UNL     1      -4.994   3.604   1.252  1.00  0.00     0.162 HD
BRANCH  14  16
ATOM     16  C   UNL     1      -6.349   2.228   1.681  1.00  0.00     0.130 A 
ATOM     17  C   UNL     1      -8.431  -0.757   2.536  1.00  0.00     0.067 C 
ATOM     18  C   UNL     1      -8.029   0.659   2.257  1.00  0.00     0.043 A 
ATOM     19  C   UNL     1      -6.742   0.922   1.839  1.00  0.00     0.070 A 
ATOM     20  N   UNL     1      -8.923   1.636   2.464  1.00  0.00    -0.238 NA
ATOM     21  C   UNL     1      -8.486   2.887   2.235  1.00  0.00     0.127 A 
ATOM     22  N   UNL     1      -7.229   3.221   1.873  1.00  0.00    -0.216 NA
ATOM     23  C   UNL     1      -9.479   3.997   2.363  1.00  0.00     0.090 C 
ENDBRANCH  14  16
ENDBRANCH  10  14
ENDBRANCH   6   9
ENDBRANCH   4   5
ENDBRANCH   3   4
ENDBRANCH   2   3
ENDBRANCH   1   2
BRANCH   1  24
ATOM     24  C   UNL     1       2.430  -0.528  -1.040  1.00  0.00     0.021 C 
BRANCH  24  25
ATOM     25  C   UNL     1       3.494   0.517  -0.731  1.00  0.00     0.116 C 
BRANCH  25  26
ATOM     26  N   UNL     1       4.777  -0.100  -0.440  1.00  0.00    -0.352 N 
ATOM     27  C   UNL     1       5.971   0.093  -1.084  1.00  0.00     0.251 C 
ATOM     28  H   UNL     1       4.790  -0.736   0.311  1.00  0.00     0.163 HD
ATOM     29  O   UNL     1       6.924  -0.652  -0.879  1.00  0.00    -0.269 OA
BRANCH  27  30
ATOM     30  C   UNL     1       6.086   1.213  -2.036  1.00  0.00     0.039 A 
ATOM     31  C   UNL     1       6.533   0.962  -3.335  1.00  0.00     0.014 A 
ATOM     32  C   UNL     1       5.730   2.505  -1.636  1.00  0.00     0.014 A 
ATOM     33  C   UNL     1       6.596   2.011  -4.251  1.00  0.00     0.010 A 
ATOM     34  C   UNL     1       5.751   3.540  -2.563  1.00  0.00     0.010 A 
ATOM     35  C   UNL     1       6.199   3.303  -3.871  1.00  0.00    -0.014 A 
BRANCH  35  36
ATOM     36  C   UNL     1       6.304   4.445  -4.807  1.00  0.00     0.031 A 
ATOM     37  C   UNL     1       7.348   5.497  -4.563  1.00  0.00     0.074 A 
ATOM     38  C   UNL     1       5.427   4.571  -5.820  1.00  0.00     0.049 A 
ATOM     39  N   UNL     1       7.551   6.617  -5.204  1.00  0.00    -0.248 NA
ATOM     40  C   UNL     1       8.275   5.268  -3.441  1.00  0.00     0.031 C 
ATOM     41  C   UNL     1       4.348   3.631  -6.129  1.00  0.00     0.029 A 
ATOM     42  N   UNL     1       5.292   5.558  -6.762  1.00  0.00    -0.354 N 
ATOM     43  C   UNL     1       8.607   7.237  -4.551  1.00  0.00     0.074 A 
ATOM     44  C   UNL     1       8.991   6.383  -3.449  1.00  0.00     0.031 C 
ATOM     45  C   UNL     1       3.659   4.090  -7.188  1.00  0.00     0.029 A 
ATOM     46  C   UNL     1       4.232   5.364  -7.615  1.00  0.00     0.049 A 
ATOM     47  H   UNL     1       5.896   6.333  -6.821  1.00  0.00     0.167 HD
ATOM     48  C   UNL     1       9.222   8.400  -4.860  1.00  0.00     0.034 A 
ATOM     49  C   UNL     1       3.773   6.131  -8.623  1.00  0.00     0.034 A 
ATOM     50  C   UNL     1       8.874   9.223  -5.984  1.00  0.00     0.049 A 
ATOM     51  C   UNL     1       4.479   7.418  -8.949  1.00  0.00     0.074 A 
ATOM     52  C   UNL     1       9.485  10.385  -6.417  1.00  0.00     0.029 A 
ATOM     53  N   UNL     1       7.825   8.969  -6.852  1.00  0.00    -0.354 N 
ATOM     54  N   UNL     1       5.545   7.936  -8.387  1.00  0.00    -0.248 NA
ATOM     55  C   UNL     1       3.934   8.217 -10.057  1.00  0.00     0.031 C 
ATOM     56  C   UNL     1       8.802  10.838  -7.550  1.00  0.00     0.029 A 
ATOM     57  C   UNL     1       7.768   9.955  -7.819  1.00  0.00     0.049 A 
ATOM     58  H   UNL     1       7.213   8.201  -6.790  1.00  0.00     0.167 HD
ATOM     59  C   UNL     1       5.809   9.110  -9.083  1.00  0.00     0.074 A 
ATOM     60  C   UNL     1       4.803   9.219 -10.120  1.00  0.00     0.031 C 
ATOM     61  C   UNL     1       6.787  10.023  -8.870  1.00  0.00     0.034 A 
BRANCH  48  62
ATOM     62  C   UNL     1      10.389   8.820  -4.014  1.00  0.00     0.023 A 
ATOM     63  C   UNL     1      11.642   8.215  -4.231  1.00  0.00     0.012 A 
ATOM     64  C   UNL     1      10.268   9.859  -3.071  1.00  0.00     0.148 A 
ATOM     65  C   UNL     1      12.762   8.630  -3.514  1.00  0.00     0.002 A 
ATOM     66  C   UNL     1      11.395  10.287  -2.380  1.00  0.00     0.091 A 
ATOM     67  F   UNL     1       9.060  10.405  -2.874  1.00  0.00    -0.205 F 
ATOM     68  C   UNL     1      12.640   9.672  -2.597  1.00  0.00     0.022 A 
BRANCH  66  69
ATOM     69  S   UNL     1      11.363  11.649  -1.211  1.00  0.00     0.127 S 
ATOM     70  O   UNL     1      11.728  10.976   0.036  1.00  0.00    -0.237 OA
ATOM     71  O   UNL     1      12.391  12.538  -1.749  1.00  0.00    -0.237 OA
ATOM     72  O   UNL     1      10.008  12.182  -1.248  1.00  0.00    -0.744 OA
ENDBRANCH  66  69
ENDBRANCH  48  62
BRANCH  49  73
ATOM     73  C   UNL     1       2.621   5.662  -9.439  1.00  0.00     0.023 A 
ATOM     74  C   UNL     1       2.860   5.155 -10.730  1.00  0.00     0.012 A 
ATOM     75  C   UNL     1       1.308   5.668  -8.930  1.00  0.00     0.148 A 
ATOM     76  C   UNL     1       1.808   4.673 -11.509  1.00  0.00     0.002 A 
ATOM     77  C   UNL     1       0.270   5.151  -9.696  1.00  0.00     0.091 A 
ATOM     78  F   UNL     1       1.108   6.160  -7.699  1.00  0.00    -0.205 F 
ATOM     79  C   UNL     1       0.516   4.663 -10.989  1.00  0.00     0.022 A 
BRANCH  77  80
ATOM     80  S   UNL     1      -1.411   5.003  -9.080  1.00  0.00     0.127 S 
ATOM     81  O   UNL     1      -2.135   5.912  -9.966  1.00  0.00    -0.237 OA
ATOM     82  O   UNL     1      -1.684   3.582  -9.297  1.00  0.00    -0.237 OA
ATOM     83  O   UNL     1      -1.357   5.402  -7.681  1.00  0.00    -0.744 OA
ENDBRANCH  77  80
ENDBRANCH  49  73
BRANCH  61  84
ATOM     84  C   UNL     1       6.832  11.229  -9.765  1.00  0.00     0.023 A 
ATOM     85  C   UNL     1       5.947  12.297  -9.520  1.00  0.00     0.012 A 
ATOM     86  C   UNL     1       7.823  11.358 -10.757  1.00  0.00     0.148 A 
ATOM     87  C   UNL     1       6.044  13.476 -10.256  1.00  0.00     0.002 A 
ATOM     88  C   UNL     1       7.934  12.548 -11.465  1.00  0.00     0.091 A 
ATOM     89  F   UNL     1       8.645  10.321 -10.976  1.00  0.00    -0.205 F 
ATOM     90  C   UNL     1       7.043  13.607 -11.218  1.00  0.00     0.022 A 
BRANCH  88  91
ATOM     91  S   UNL     1       9.236  12.840 -12.668  1.00  0.00     0.127 S 
ATOM     92  O   UNL     1       8.482  12.864 -13.921  1.00  0.00    -0.237 OA
ATOM     93  O   UNL     1       9.762  14.139 -12.246  1.00  0.00    -0.237 OA
ATOM     94  O   UNL     1      10.171  11.733 -12.526  1.00  0.00    -0.744 OA
ENDBRANCH  88  91
ENDBRANCH  61  84
ENDBRANCH  35  36
ENDBRANCH  27  30
ENDBRANCH  25  26
ENDBRANCH  24  25
ENDBRANCH   1  24
TORSDOF 18
