REMARK SMILES CCn1ncc(-c2cc(C(F)(F)F)nc(-n3ccc(C(=O)NCCCCCCNC(=O)c4ccc(-c5c6nc(c(-c7cccc(S(=O)(=O)[O-])c7F)c7ccc([nH]7)c(-c7cccc(S(=O)(=O)[O-])c7F)c7nc(c(-c8cccc(S(=O)(=O)[O-])c8F)c8ccc5[nH]8)C=C7)C=C6)cc4)n3)n2)c1C
REMARK SMILES IDX 25 1 24 2 23 3 22 4 20 5 21 6 19 8 16 9 17 10 95 11 18 12
REMARK SMILES IDX 15 13 7 14 8 15 96 16 9 17 14 18 6 19 3 20 4 21 97 22 5 23
REMARK SMILES IDX 98 24 2 25 1 26 10 27 11 28 12 29 13 30 26 31 27 32 28 33
REMARK SMILES IDX 29 34 30 35 31 37 32 38 33 39 94 40 34 41 93 42 35 43 36 44
REMARK SMILES IDX 37 45 87 46 38 47 92 48 86 49 88 50 39 51 91 52 85 53 84 54
REMARK SMILES IDX 40 56 72 57 52 58 71 59 53 60 56 61 70 62 89 63 54 64 55 65
REMARK SMILES IDX 69 67 90 68 57 69 41 70 42 71 50 72 43 73 45 74 51 75 44 76
REMARK SMILES IDX 46 77 47 78 48 79 49 80 73 81 74 82 82 83 75 84 77 85 83 86
REMARK SMILES IDX 76 87 78 88 79 89 80 90 81 91 58 92 59 93 67 94 60 95 62 96
REMARK SMILES IDX 68 97 61 98 63 99 64 100 65 101 66 102
REMARK H PARENT 22 7 29 36 88 55 56 66
REMARK Flexibility Score: inf
ROOT
ATOM      1  C   UNL     1       5.777   7.387  -5.766  1.00  0.00     0.002 C 
ENDROOT
BRANCH   1   2
ATOM      2  C   UNL     1       5.743   7.294  -4.238  1.00  0.00     0.021 C 
BRANCH   2   3
ATOM      3  C   UNL     1       5.949   5.896  -3.650  1.00  0.00     0.116 C 
BRANCH   3   4
ATOM      4  N   UNL     1       7.245   5.328  -3.987  1.00  0.00    -0.351 N 
ATOM      5  C   UNL     1       8.197   4.759  -3.171  1.00  0.00     0.271 C 
ATOM      6  O   UNL     1       9.268   4.417  -3.679  1.00  0.00    -0.267 OA
ATOM      7  H   UNL     1       7.476   5.355  -4.944  1.00  0.00     0.163 HD
BRANCH   5   8
ATOM      8  C   UNL     1       7.958   4.628  -1.724  1.00  0.00     0.150 A 
ATOM      9  N   UNL     1       6.926   4.667   0.148  1.00  0.00    -0.205 N 
ATOM     10  C   UNL     1       8.263   4.770   0.468  1.00  0.00     0.119 A 
ATOM     11  N   UNL     1       6.757   4.368  -1.172  1.00  0.00    -0.160 NA
ATOM     12  C   UNL     1       8.954   4.713  -0.716  1.00  0.00     0.056 A 
BRANCH   9  13
ATOM     13  C   UNL     1       5.821   4.892   1.035  1.00  0.00     0.251 A 
ATOM     14  C   UNL     1       3.611   4.612   1.563  1.00  0.00     0.080 A 
ATOM     15  C   UNL     1       3.701   5.496   2.615  1.00  0.00     0.062 A 
ATOM     16  N   UNL     1       4.635   4.335   0.736  1.00  0.00    -0.211 NA
ATOM     17  C   UNL     1       4.956   6.021   2.866  1.00  0.00     0.150 A 
ATOM     18  N   UNL     1       6.038   5.670   2.116  1.00  0.00    -0.207 NA
BRANCH  14  19
ATOM     19  C   UNL     1       2.425   3.802   1.378  1.00  0.00     0.041 A 
ATOM     20  N   UNL     1       1.123   2.042   1.211  1.00  0.00    -0.269 N 
ATOM     21  N   UNL     1       0.277   3.086   1.121  1.00  0.00    -0.181 NA
ATOM     22  C   UNL     1       2.430   2.414   1.411  1.00  0.00     0.045 A 
ATOM     23  C   UNL     1       1.072   4.156   1.219  1.00  0.00     0.145 A 
ATOM     24  C   UNL     1       3.558   1.466   1.609  1.00  0.00     0.067 C 
BRANCH  20  25
ATOM     25  C   UNL     1       0.579   0.698   1.141  1.00  0.00     0.141 C 
ATOM     26  C   UNL     1       0.919  -0.007  -0.162  1.00  0.00     0.029 C 
ENDBRANCH  20  25
ENDBRANCH  14  19
BRANCH  17  27
ATOM     27  C   UNL     1       5.146   7.005   4.012  1.00  0.00     0.433 C 
ATOM     28  F   UNL     1       6.216   6.689   4.800  1.00  0.00    -0.165 F 
ATOM     29  F   UNL     1       5.343   8.282   3.597  1.00  0.00    -0.165 F 
ATOM     30  F   UNL     1       4.079   7.042   4.864  1.00  0.00    -0.165 F 
ENDBRANCH  17  27
ENDBRANCH   9  13
ENDBRANCH   5   8
ENDBRANCH   3   4
ENDBRANCH   2   3
ENDBRANCH   1   2
BRANCH   1  31
ATOM     31  C   UNL     1       4.866   6.415  -6.532  1.00  0.00     0.002 C 
BRANCH  31  32
ATOM     32  C   UNL     1       3.378   6.411  -6.152  1.00  0.00     0.021 C 
BRANCH  32  33
ATOM     33  C   UNL     1       2.667   7.723  -6.434  1.00  0.00     0.116 C 
BRANCH  33  34
ATOM     34  N   UNL     1       2.553   8.019  -7.870  1.00  0.00    -0.352 N 
ATOM     35  C   UNL     1       1.931   9.100  -8.468  1.00  0.00     0.251 C 
ATOM     36  H   UNL     1       2.971   7.369  -8.480  1.00  0.00     0.163 HD
ATOM     37  O   UNL     1       1.597   9.070  -9.654  1.00  0.00    -0.269 OA
BRANCH  35  38
ATOM     38  C   UNL     1       1.702  10.306  -7.659  1.00  0.00     0.039 A 
ATOM     39  C   UNL     1       0.548  11.092  -7.750  1.00  0.00     0.014 A 
ATOM     40  C   UNL     1       2.703  10.617  -6.747  1.00  0.00     0.014 A 
ATOM     41  C   UNL     1       0.401  12.163  -6.870  1.00  0.00     0.010 A 
ATOM     42  C   UNL     1       2.438  11.479  -5.732  1.00  0.00     0.010 A 
ATOM     43  C   UNL     1       1.360  12.341  -5.865  1.00  0.00    -0.014 A 
BRANCH  43  44
ATOM     44  C   UNL     1       1.297  13.400  -4.873  1.00  0.00     0.031 A 
ATOM     45  C   UNL     1       0.172  13.267  -3.910  1.00  0.00     0.074 A 
ATOM     46  C   UNL     1       2.372  14.202  -4.681  1.00  0.00     0.049 A 
ATOM     47  N   UNL     1      -0.822  14.072  -3.735  1.00  0.00    -0.248 NA
ATOM     48  C   UNL     1       0.050  12.005  -3.160  1.00  0.00     0.031 C 
ATOM     49  C   UNL     1       3.686  14.134  -5.349  1.00  0.00     0.029 A 
ATOM     50  N   UNL     1       2.591  15.130  -3.717  1.00  0.00    -0.354 N 
ATOM     51  C   UNL     1      -1.563  13.530  -2.684  1.00  0.00     0.074 A 
ATOM     52  C   UNL     1      -1.123  12.169  -2.547  1.00  0.00     0.031 C 
ATOM     53  C   UNL     1       4.611  14.772  -4.599  1.00  0.00     0.029 A 
ATOM     54  C   UNL     1       3.934  15.436  -3.504  1.00  0.00     0.049 A 
ATOM     55  H   UNL     1       1.861  15.553  -3.210  1.00  0.00     0.167 HD
ATOM     56  C   UNL     1      -2.283  14.323  -1.841  1.00  0.00     0.034 A 
ATOM     57  C   UNL     1       4.451  16.135  -2.462  1.00  0.00     0.034 A 
ATOM     58  C   UNL     1      -2.399  15.658  -2.373  1.00  0.00     0.049 A 
ATOM     59  C   UNL     1       3.326  16.866  -1.835  1.00  0.00     0.074 A 
ATOM     60  C   UNL     1      -2.949  16.212  -3.511  1.00  0.00     0.029 A 
ATOM     61  N   UNL     1      -1.517  16.592  -1.881  1.00  0.00    -0.354 N 
ATOM     62  N   UNL     1       2.657  17.807  -2.441  1.00  0.00    -0.248 NA
ATOM     63  C   UNL     1       2.638  16.216  -0.731  1.00  0.00     0.031 C 
ATOM     64  C   UNL     1      -2.026  17.225  -3.904  1.00  0.00     0.029 A 
ATOM     65  C   UNL     1      -1.012  17.293  -2.944  1.00  0.00     0.049 A 
ATOM     66  H   UNL     1      -1.289  16.732  -0.934  1.00  0.00     0.167 HD
ATOM     67  C   UNL     1       1.331  17.552  -2.114  1.00  0.00     0.074 A 
ATOM     68  C   UNL     1       1.391  16.628  -0.979  1.00  0.00     0.031 C 
ATOM     69  C   UNL     1       0.319  17.861  -2.978  1.00  0.00     0.034 A 
BRANCH  56  70
ATOM     70  C   UNL     1      -2.572  14.040  -0.380  1.00  0.00     0.023 A 
ATOM     71  C   UNL     1      -3.424  14.952   0.287  1.00  0.00     0.012 A 
ATOM     72  C   UNL     1      -1.871  13.119   0.433  1.00  0.00     0.148 A 
ATOM     73  C   UNL     1      -3.518  14.993   1.682  1.00  0.00     0.002 A 
ATOM     74  C   UNL     1      -2.022  13.116   1.817  1.00  0.00     0.091 A 
ATOM     75  F   UNL     1      -0.952  12.313  -0.100  1.00  0.00    -0.205 F 
ATOM     76  C   UNL     1      -2.817  14.073   2.449  1.00  0.00     0.022 A 
BRANCH  74  77
ATOM     77  S   UNL     1      -1.169  11.922   2.859  1.00  0.00     0.127 S 
ATOM     78  O   UNL     1      -0.155  12.758   3.495  1.00  0.00    -0.237 OA
ATOM     79  O   UNL     1      -2.246  11.473   3.742  1.00  0.00    -0.237 OA
ATOM     80  O   UNL     1      -0.671  10.891   1.956  1.00  0.00    -0.744 OA
ENDBRANCH  74  77
ENDBRANCH  56  70
BRANCH  57  81
ATOM     81  C   UNL     1       5.770  16.002  -1.798  1.00  0.00     0.023 A 
ATOM     82  C   UNL     1       6.321  17.088  -1.090  1.00  0.00     0.012 A 
ATOM     83  C   UNL     1       6.360  14.729  -1.629  1.00  0.00     0.148 A 
ATOM     84  C   UNL     1       7.413  16.909  -0.228  1.00  0.00     0.002 A 
ATOM     85  C   UNL     1       7.446  14.556  -0.775  1.00  0.00     0.091 A 
ATOM     86  F   UNL     1       5.797  13.677  -2.239  1.00  0.00    -0.205 F 
ATOM     87  C   UNL     1       7.970  15.643  -0.065  1.00  0.00     0.022 A 
BRANCH  85  88
ATOM     88  S   UNL     1       8.196  12.946  -0.485  1.00  0.00     0.127 S 
ATOM     89  O   UNL     1       9.607  13.218  -0.758  1.00  0.00    -0.237 OA
ATOM     90  O   UNL     1       7.877  12.713   0.921  1.00  0.00    -0.237 OA
ATOM     91  O   UNL     1       7.564  12.035  -1.431  1.00  0.00    -0.744 OA
ENDBRANCH  85  88
ENDBRANCH  57  81
BRANCH  69  92
ATOM     92  C   UNL     1       0.659  18.676  -4.204  1.00  0.00     0.023 A 
ATOM     93  C   UNL     1       1.488  18.190  -5.239  1.00  0.00     0.012 A 
ATOM     94  C   UNL     1      -0.033  19.879  -4.405  1.00  0.00     0.148 A 
ATOM     95  C   UNL     1       1.634  18.897  -6.437  1.00  0.00     0.002 A 
ATOM     96  C   UNL     1       0.074  20.554  -5.614  1.00  0.00     0.091 A 
ATOM     97  F   UNL     1      -0.821  20.326  -3.415  1.00  0.00    -0.205 F 
ATOM     98  C   UNL     1       0.914  20.072  -6.631  1.00  0.00     0.022 A 
BRANCH  96  99
ATOM     99  S   UNL     1      -0.933  21.994  -5.968  1.00  0.00     0.127 S 
ATOM    100  O   UNL     1       0.037  23.080  -5.848  1.00  0.00    -0.237 OA
ATOM    101  O   UNL     1      -1.391  21.730  -7.333  1.00  0.00    -0.237 OA
ATOM    102  O   UNL     1      -1.999  21.991  -4.974  1.00  0.00    -0.744 OA
ENDBRANCH  96  99
ENDBRANCH  69  92
ENDBRANCH  43  44
ENDBRANCH  35  38
ENDBRANCH  33  34
ENDBRANCH  32  33
ENDBRANCH  31  32
ENDBRANCH   1  31
TORSDOF 20
