REMARK SMILES COc1ccc2[nH]cc([C@H](C(=O)NCCCCCCNC(=O)c3ccc(-c4c5nc(c(-c6cccc(S(=O)(=O)[O-])c6F)c6ccc([nH]6)c(-c6cccc(S(=O)(=O)[O-])c6F)c6nc(c(-c7cccc(S(=O)(=O)[O-])c7F)c7ccc4[nH]7)C=C6)C=C5)cc3)[NH+]3CC[NH+](Cc4cccc5ccccc45)CC3)c2c1
REMARK SMILES IDX 16 1 15 2 14 3 13 4 11 5 12 6 10 8 9 9 3 10 4 11 104 12 5 13
REMARK SMILES IDX 103 14 6 15 7 16 8 17 2 19 1 20 86 21 87 22 102 23 88 25
REMARK SMILES IDX 101 26 89 27 90 29 91 30 92 31 100 32 93 33 95 34 99 35
REMARK SMILES IDX 94 36 96 37 98 38 97 39 17 40 18 41 19 42 20 43 21 44 22 46
REMARK SMILES IDX 23 47 24 48 85 49 25 50 84 51 26 52 27 53 28 54 78 55 29 56
REMARK SMILES IDX 83 57 77 58 79 59 30 60 82 61 76 62 75 63 31 65 63 66 43 67
REMARK SMILES IDX 62 68 44 69 47 70 61 71 80 72 45 73 46 74 60 76 81 77 48 78
REMARK SMILES IDX 32 79 33 80 41 81 34 82 36 83 42 84 35 85 37 86 38 87 39 88
REMARK SMILES IDX 40 89 64 90 65 91 73 92 66 93 68 94 74 95 67 96 69 97 70 98
REMARK SMILES IDX 71 99 72 100 49 101 50 102 58 103 51 104 53 105 59 106
REMARK SMILES IDX 52 107 54 108 55 109 56 110 57 111
REMARK H PARENT 13 7 7 18 86 24 89 28 20 45 79 64 47 75
REMARK Flexibility Score: inf
ROOT
ATOM      1  C   UNL     1       2.328  -8.328  -5.030  1.00  0.00     0.002 C 
ENDROOT
BRANCH   1   2
ATOM      2  C   UNL     1       0.699  -8.092  -4.890  1.00  0.00     0.021 C 
BRANCH   2   3
ATOM      3  C   UNL     1      -0.561  -7.097  -3.849  1.00  0.00     0.116 C 
BRANCH   3   4
ATOM      4  N   UNL     1      -0.316  -5.282  -3.013  1.00  0.00    -0.351 N 
ATOM      5  C   UNL     1      -0.903  -3.935  -3.169  1.00  0.00     0.283 C 
ATOM      6  O   UNL     1      -0.343  -2.919  -2.770  1.00  0.00    -0.268 OA
ATOM      7  H   UNL     1       0.380  -5.296  -2.316  1.00  0.00     0.163 HD
BRANCH   5   8
ATOM      8  C   UNL     1      -2.273  -4.069  -3.777  1.00  0.00     0.308 C 
BRANCH   8   9
ATOM      9  C   UNL     1      -2.886  -3.570  -5.055  1.00  0.00     0.045 A 
ATOM     10  C   UNL     1      -0.563  -2.973  -7.961  1.00  0.00     0.119 A 
ATOM     11  C   UNL     1      -1.442  -3.417  -8.946  1.00  0.00     0.048 A 
ATOM     12  C   UNL     1      -1.002  -2.739  -6.657  1.00  0.00     0.057 A 
ATOM     13  C   UNL     1      -2.790  -3.644  -8.648  1.00  0.00     0.030 A 
ATOM     14  C   UNL     1      -2.295  -3.153  -6.291  1.00  0.00     0.013 A 
ATOM     15  C   UNL     1      -3.176  -3.538  -7.308  1.00  0.00     0.046 A 
ATOM     16  N   UNL     1      -4.368  -3.867  -6.712  1.00  0.00    -0.361 N 
ATOM     17  C   UNL     1      -4.217  -3.870  -5.355  1.00  0.00     0.094 A 
ATOM     18  H   UNL     1      -5.204  -4.071  -7.190  1.00  0.00     0.166 HD
BRANCH  10  19
ATOM     19  O   UNL     1       0.799  -2.966  -8.117  1.00  0.00    -0.497 OA
ATOM     20  C   UNL     1       1.248  -2.224  -9.238  1.00  0.00     0.278 C 
ENDBRANCH  10  19
ENDBRANCH   8   9
BRANCH   8  21
ATOM     21  N   UNL     1      -2.117  -5.492  -4.089  1.00  0.00    -0.312 N 
ATOM     22  C   UNL     1      -0.430  -5.429  -5.004  1.00  0.00     0.325 C 
ATOM     23  C   UNL     1      -2.106  -6.160  -2.365  1.00  0.00     0.325 C 
ATOM     24  H   UNL     1      -2.772  -6.034  -4.653  1.00  0.00     0.349 HD
ATOM     25  C   UNL     1       1.190  -6.011  -3.986  1.00  0.00     0.324 C 
ATOM     26  C   UNL     1      -0.534  -6.645  -1.444  1.00  0.00     0.324 C 
ATOM     27  N   UNL     1       0.957  -7.020  -2.371  1.00  0.00    -0.322 N 
ATOM     28  H   UNL     1       1.885  -6.756  -2.042  1.00  0.00     0.348 HD
BRANCH  27  29
ATOM     29  C   UNL     1       0.667  -8.697  -2.345  1.00  0.00     0.300 C 
BRANCH  29  30
ATOM     30  C   UNL     1      -0.770  -9.636  -2.436  1.00  0.00     0.014 A 
ATOM     31  C   UNL     1      -0.966 -10.332  -1.227  1.00  0.00     0.010 A 
ATOM     32  C   UNL     1      -1.840  -9.863  -3.571  1.00  0.00    -0.010 A 
ATOM     33  C   UNL     1      -2.071 -11.155  -1.032  1.00  0.00     0.001 A 
ATOM     34  C   UNL     1      -2.968 -10.670  -3.244  1.00  0.00    -0.018 A 
ATOM     35  C   UNL     1      -2.029  -9.414  -4.959  1.00  0.00     0.009 A 
ATOM     36  C   UNL     1      -3.042 -11.311  -2.015  1.00  0.00     0.009 A 
ATOM     37  C   UNL     1      -4.093 -10.870  -4.101  1.00  0.00     0.009 A 
ATOM     38  C   UNL     1      -3.175  -9.515  -5.774  1.00  0.00     0.001 A 
ATOM     39  C   UNL     1      -4.232 -10.251  -5.332  1.00  0.00     0.001 A 
ENDBRANCH  29  30
ENDBRANCH  27  29
ENDBRANCH   8  21
ENDBRANCH   5   8
ENDBRANCH   3   4
ENDBRANCH   2   3
ENDBRANCH   1   2
BRANCH   1  40
ATOM     40  C   UNL     1       3.241  -9.142  -4.076  1.00  0.00     0.002 C 
BRANCH  40  41
ATOM     41  C   UNL     1       2.966 -10.643  -3.971  1.00  0.00     0.021 C 
BRANCH  41  42
ATOM     42  C   UNL     1       2.956 -11.322  -5.321  1.00  0.00     0.116 C 
BRANCH  42  43
ATOM     43  N   UNL     1       4.317 -11.528  -5.784  1.00  0.00    -0.352 N 
ATOM     44  C   UNL     1       5.019 -12.708  -5.723  1.00  0.00     0.251 C 
ATOM     45  H   UNL     1       4.779 -10.753  -6.178  1.00  0.00     0.163 HD
ATOM     46  O   UNL     1       6.244 -12.717  -5.736  1.00  0.00    -0.269 OA
BRANCH  44  47
ATOM     47  C   UNL     1       4.243 -13.963  -5.644  1.00  0.00     0.039 A 
ATOM     48  C   UNL     1       4.659 -14.997  -4.810  1.00  0.00     0.014 A 
ATOM     49  C   UNL     1       3.066 -14.081  -6.393  1.00  0.00     0.014 A 
ATOM     50  C   UNL     1       3.894 -16.161  -4.746  1.00  0.00     0.010 A 
ATOM     51  C   UNL     1       2.227 -15.160  -6.194  1.00  0.00     0.010 A 
ATOM     52  C   UNL     1       2.679 -16.250  -5.447  1.00  0.00    -0.014 A 
BRANCH  52  53
ATOM     53  C   UNL     1       1.929 -17.522  -5.547  1.00  0.00     0.031 A 
ATOM     54  C   UNL     1       1.720 -18.137  -6.912  1.00  0.00     0.074 A 
ATOM     55  C   UNL     1       1.407 -18.091  -4.446  1.00  0.00     0.049 A 
ATOM     56  N   UNL     1       1.067 -19.220  -7.237  1.00  0.00    -0.248 NA
ATOM     57  C   UNL     1       2.282 -17.417  -8.072  1.00  0.00     0.031 C 
ATOM     58  C   UNL     1       1.475 -17.540  -3.090  1.00  0.00     0.029 A 
ATOM     59  N   UNL     1       0.703 -19.256  -4.297  1.00  0.00    -0.354 N 
ATOM     60  C   UNL     1       1.101 -19.277  -8.627  1.00  0.00     0.074 A 
ATOM     61  C   UNL     1       1.775 -18.090  -9.090  1.00  0.00     0.031 C 
ATOM     62  C   UNL     1       0.861 -18.383  -2.244  1.00  0.00     0.029 A 
ATOM     63  C   UNL     1       0.330 -19.513  -3.000  1.00  0.00     0.049 A 
ATOM     64  H   UNL     1       0.485 -19.854  -5.049  1.00  0.00     0.167 HD
ATOM     65  C   UNL     1       0.657 -20.256  -9.448  1.00  0.00     0.034 A 
ATOM     66  C   UNL     1      -0.360 -20.548  -2.486  1.00  0.00     0.034 A 
ATOM     67  C   UNL     1       0.049 -21.464  -8.972  1.00  0.00     0.049 A 
ATOM     68  C   UNL     1      -0.792 -21.654  -3.412  1.00  0.00     0.074 A 
ATOM     69  C   UNL     1      -0.363 -22.564  -9.698  1.00  0.00     0.029 A 
ATOM     70  N   UNL     1      -0.231 -21.729  -7.640  1.00  0.00    -0.354 N 
ATOM     71  N   UNL     1      -0.628 -21.758  -4.709  1.00  0.00    -0.248 NA
ATOM     72  C   UNL     1      -1.464 -22.807  -2.797  1.00  0.00     0.031 C 
ATOM     73  C   UNL     1      -0.924 -23.484  -8.807  1.00  0.00     0.029 A 
ATOM     74  C   UNL     1      -0.815 -22.975  -7.522  1.00  0.00     0.049 A 
ATOM     75  H   UNL     1      -0.041 -21.119  -6.891  1.00  0.00     0.167 HD
ATOM     76  C   UNL     1      -1.130 -23.006  -5.059  1.00  0.00     0.074 A 
ATOM     77  C   UNL     1      -1.592 -23.625  -3.832  1.00  0.00     0.031 C 
ATOM     78  C   UNL     1      -1.212 -23.587  -6.281  1.00  0.00     0.034 A 
BRANCH  65  79
ATOM     79  C   UNL     1       0.860 -20.076 -10.930  1.00  0.00     0.023 A 
ATOM     80  C   UNL     1       2.162 -20.105 -11.473  1.00  0.00     0.012 A 
ATOM     81  C   UNL     1      -0.241 -19.915 -11.792  1.00  0.00     0.148 A 
ATOM     82  C   UNL     1       2.368 -19.934 -12.841  1.00  0.00     0.002 A 
ATOM     83  C   UNL     1      -0.032 -19.800 -13.161  1.00  0.00     0.091 A 
ATOM     84  F   UNL     1      -1.470 -19.864 -11.258  1.00  0.00    -0.205 F 
ATOM     85  C   UNL     1       1.271 -19.794 -13.685  1.00  0.00     0.022 A 
BRANCH  83  86
ATOM     86  S   UNL     1      -1.381 -19.702 -14.343  1.00  0.00     0.127 S 
ATOM     87  O   UNL     1      -1.232 -18.338 -14.848  1.00  0.00    -0.237 OA
ATOM     88  O   UNL     1      -1.024 -20.749 -15.300  1.00  0.00    -0.237 OA
ATOM     89  O   UNL     1      -2.599 -19.956 -13.587  1.00  0.00    -0.744 OA
ENDBRANCH  83  86
ENDBRANCH  65  79
BRANCH  66  90
ATOM     90  C   UNL     1      -0.616 -20.623  -1.021  1.00  0.00     0.023 A 
ATOM     91  C   UNL     1       0.035 -21.605  -0.248  1.00  0.00     0.012 A 
ATOM     92  C   UNL     1      -1.486 -19.716  -0.386  1.00  0.00     0.148 A 
ATOM     93  C   UNL     1      -0.208 -21.710   1.121  1.00  0.00     0.002 A 
ATOM     94  C   UNL     1      -1.680 -19.789   0.988  1.00  0.00     0.091 A 
ATOM     95  F   UNL     1      -2.098 -18.791  -1.139  1.00  0.00    -0.205 F 
ATOM     96  C   UNL     1      -1.058 -20.798   1.741  1.00  0.00     0.022 A 
BRANCH  94  97
ATOM     97  S   UNL     1      -2.655 -18.579   1.889  1.00  0.00     0.127 S 
ATOM     98  O   UNL     1      -3.813 -19.370   2.294  1.00  0.00    -0.237 OA
ATOM     99  O   UNL     1      -1.748 -18.211   2.977  1.00  0.00    -0.237 OA
ATOM    100  O   UNL     1      -2.923 -17.504   0.943  1.00  0.00    -0.744 OA
ENDBRANCH  94  97
ENDBRANCH  66  90
BRANCH  78 101
ATOM    101  C   UNL     1      -1.755 -24.989  -6.351  1.00  0.00     0.023 A 
ATOM    102  C   UNL     1      -3.124 -25.233  -6.130  1.00  0.00     0.012 A 
ATOM    103  C   UNL     1      -0.908 -26.056  -6.711  1.00  0.00     0.148 A 
ATOM    104  C   UNL     1      -3.634 -26.526  -6.226  1.00  0.00     0.002 A 
ATOM    105  C   UNL     1      -1.434 -27.331  -6.862  1.00  0.00     0.091 A 
ATOM    106  F   UNL     1       0.395 -25.803  -6.902  1.00  0.00    -0.205 F 
ATOM    107  C   UNL     1      -2.793 -27.571  -6.604  1.00  0.00     0.022 A 
BRANCH 105 108
ATOM    108  S   UNL     1      -0.449 -28.711  -7.451  1.00  0.00     0.127 S 
ATOM    109  O   UNL     1      -0.299 -29.509  -6.235  1.00  0.00    -0.237 OA
ATOM    110  O   UNL     1      -1.321 -29.303  -8.466  1.00  0.00    -0.237 OA
ATOM    111  O   UNL     1       0.781 -28.133  -7.975  1.00  0.00    -0.744 OA
ENDBRANCH 105 108
ENDBRANCH  78 101
ENDBRANCH  52  53
ENDBRANCH  44  47
ENDBRANCH  42  43
ENDBRANCH  41  42
ENDBRANCH  40  41
ENDBRANCH   1  40
TORSDOF 21
