REMARK SMILES CC(C)COc1cccc(N2C[C@@H](C(=O)NCCCCCCNC(=O)c3ccc(-c4c5nc(c(-c6cccc(S(=O)(=O)[O-])c6F)c6ccc([nH]6)c(-c6cccc(S(=O)(=O)[O-])c6F)c6nc(c(-c7cccc(S(=O)(=O)[O-])c7F)c7ccc4[nH]7)C=C6)C=C5)cc3)CC2=O)c1
REMARK SMILES IDX 19 1 18 2 17 3 16 4 14 5 15 6 13 8 11 9 12 10 90 11 89 12
REMARK SMILES IDX 91 13 10 14 6 15 7 16 92 17 8 18 9 19 5 20 4 21 2 22 1 23
REMARK SMILES IDX 3 24 20 25 21 26 22 27 23 28 24 29 25 31 26 32 27 33 88 34
REMARK SMILES IDX 28 35 87 36 29 37 30 38 31 39 81 40 32 41 86 42 80 43 82 44
REMARK SMILES IDX 33 45 85 46 79 47 78 48 34 50 66 51 46 52 65 53 47 54 50 55
REMARK SMILES IDX 64 56 83 57 48 58 49 59 63 61 84 62 51 63 35 64 36 65 44 66
REMARK SMILES IDX 37 67 39 68 45 69 38 70 40 71 41 72 42 73 43 74 67 75 68 76
REMARK SMILES IDX 76 77 69 78 71 79 77 80 70 81 72 82 73 83 74 84 75 85 52 86
REMARK SMILES IDX 53 87 61 88 54 89 56 90 62 91 55 92 57 93 58 94 59 95 60 96
REMARK H PARENT 16 7 23 30 82 49 50 60
REMARK Flexibility Score: inf
ROOT
ATOM      1  C   UNL     1       6.136  -2.909   2.063  1.00  0.00     0.002 C 
ENDROOT
BRANCH   1   2
ATOM      2  C   UNL     1       5.316  -1.698   1.597  1.00  0.00     0.021 C 
BRANCH   2   3
ATOM      3  C   UNL     1       4.153  -1.315   2.517  1.00  0.00     0.116 C 
BRANCH   3   4
ATOM      4  N   UNL     1       4.628  -0.869   3.817  1.00  0.00    -0.356 N 
ATOM      5  C   UNL     1       4.552   0.323   4.460  1.00  0.00     0.225 C 
ATOM      6  O   UNL     1       5.072   0.392   5.578  1.00  0.00    -0.275 OA
ATOM      7  H   UNL     1       5.095  -1.567   4.330  1.00  0.00     0.163 HD
BRANCH   5   8
ATOM      8  C   UNL     1       3.846   1.537   3.895  1.00  0.00     0.107 C 
ATOM      9  N   UNL     1       1.971   2.090   2.591  1.00  0.00    -0.311 N 
ATOM     10  C   UNL     1       2.347   1.345   3.770  1.00  0.00     0.139 C 
ATOM     11  C   UNL     1       3.081   2.462   1.829  1.00  0.00     0.227 C 
ATOM     12  C   UNL     1       4.330   2.008   2.537  1.00  0.00     0.116 C 
ATOM     13  O   UNL     1       3.113   3.055   0.763  1.00  0.00    -0.274 OA
BRANCH   9  14
ATOM     14  C   UNL     1       0.622   2.131   2.151  1.00  0.00     0.047 A 
ATOM     15  C   UNL     1      -0.947   1.740   0.359  1.00  0.00     0.121 A 
ATOM     16  C   UNL     1      -2.016   1.742   1.246  1.00  0.00     0.046 A 
ATOM     17  C   UNL     1       0.336   2.059   0.789  1.00  0.00     0.072 A 
ATOM     18  C   UNL     1      -1.766   1.954   2.601  1.00  0.00     0.006 A 
ATOM     19  C   UNL     1      -0.448   2.096   3.056  1.00  0.00     0.026 A 
BRANCH  15  20
ATOM     20  O   UNL     1      -1.125   1.403  -0.954  1.00  0.00    -0.493 OA
BRANCH  20  21
ATOM     21  C   UNL     1      -0.905  -0.011  -1.177  1.00  0.00     0.232 C 
BRANCH  21  22
ATOM     22  C   UNL     1       0.580  -0.363  -1.454  1.00  0.00     0.020 C 
ATOM     23  C   UNL     1       1.296  -0.936  -0.220  1.00  0.00     0.011 C 
ATOM     24  C   UNL     1       0.694  -1.406  -2.569  1.00  0.00     0.011 C 
ENDBRANCH  21  22
ENDBRANCH  20  21
ENDBRANCH  15  20
ENDBRANCH   9  14
ENDBRANCH   5   8
ENDBRANCH   3   4
ENDBRANCH   2   3
ENDBRANCH   1   2
BRANCH   1  25
ATOM     25  C   UNL     1       5.344  -4.204   2.269  1.00  0.00     0.002 C 
BRANCH  25  26
ATOM     26  C   UNL     1       4.520  -4.664   1.064  1.00  0.00     0.021 C 
BRANCH  26  27
ATOM     27  C   UNL     1       5.325  -4.907  -0.209  1.00  0.00     0.116 C 
BRANCH  27  28
ATOM     28  N   UNL     1       6.285  -5.991  -0.056  1.00  0.00    -0.352 N 
ATOM     29  C   UNL     1       6.452  -7.118  -0.825  1.00  0.00     0.251 C 
ATOM     30  H   UNL     1       6.901  -5.905   0.706  1.00  0.00     0.163 HD
ATOM     31  O   UNL     1       7.190  -8.019  -0.437  1.00  0.00    -0.269 OA
BRANCH  29  32
ATOM     32  C   UNL     1       5.728  -7.251  -2.108  1.00  0.00     0.039 A 
ATOM     33  C   UNL     1       5.108  -8.465  -2.413  1.00  0.00     0.014 A 
ATOM     34  C   UNL     1       5.660  -6.183  -3.007  1.00  0.00     0.014 A 
ATOM     35  C   UNL     1       4.369  -8.588  -3.592  1.00  0.00     0.010 A 
ATOM     36  C   UNL     1       4.860  -6.283  -4.142  1.00  0.00     0.010 A 
ATOM     37  C   UNL     1       4.210  -7.487  -4.451  1.00  0.00    -0.014 A 
BRANCH  37  38
ATOM     38  C   UNL     1       3.359  -7.575  -5.667  1.00  0.00     0.031 A 
ATOM     39  C   UNL     1       3.959  -7.375  -7.033  1.00  0.00     0.074 A 
ATOM     40  C   UNL     1       2.029  -7.754  -5.536  1.00  0.00     0.049 A 
ATOM     41  N   UNL     1       3.366  -7.365  -8.199  1.00  0.00    -0.248 NA
ATOM     42  C   UNL     1       5.409  -7.130  -7.097  1.00  0.00     0.031 C 
ATOM     43  C   UNL     1       1.315  -7.885  -4.264  1.00  0.00     0.029 A 
ATOM     44  N   UNL     1       1.036  -7.830  -6.482  1.00  0.00    -0.354 N 
ATOM     45  C   UNL     1       4.359  -7.079  -9.128  1.00  0.00     0.074 A 
ATOM     46  C   UNL     1       5.587  -6.888  -8.388  1.00  0.00     0.031 C 
ATOM     47  C   UNL     1       0.003  -8.030  -4.509  1.00  0.00     0.029 A 
ATOM     48  C   UNL     1      -0.225  -7.966  -5.949  1.00  0.00     0.049 A 
ATOM     49  H   UNL     1       1.211  -7.790  -7.450  1.00  0.00     0.167 HD
ATOM     50  C   UNL     1       4.266  -7.007 -10.478  1.00  0.00     0.034 A 
ATOM     51  C   UNL     1      -1.430  -8.019  -6.549  1.00  0.00     0.034 A 
ATOM     52  C   UNL     1       3.050  -7.229 -11.214  1.00  0.00     0.049 A 
ATOM     53  C   UNL     1      -1.503  -7.962  -8.051  1.00  0.00     0.074 A 
ATOM     54  C   UNL     1       2.870  -7.263 -12.585  1.00  0.00     0.029 A 
ATOM     55  N   UNL     1       1.805  -7.439 -10.643  1.00  0.00    -0.354 N 
ATOM     56  N   UNL     1      -0.528  -7.848  -8.921  1.00  0.00    -0.248 NA
ATOM     57  C   UNL     1      -2.837  -8.077  -8.657  1.00  0.00     0.031 C 
ATOM     58  C   UNL     1       1.510  -7.458 -12.843  1.00  0.00     0.029 A 
ATOM     59  C   UNL     1       0.849  -7.588 -11.633  1.00  0.00     0.049 A 
ATOM     60  H   UNL     1       1.626  -7.477  -9.675  1.00  0.00     0.167 HD
ATOM     61  C   UNL     1      -1.126  -7.916 -10.174  1.00  0.00     0.074 A 
ATOM     62  C   UNL     1      -2.545  -8.102  -9.950  1.00  0.00     0.031 C 
ATOM     63  C   UNL     1      -0.553  -7.822 -11.399  1.00  0.00     0.034 A 
BRANCH  50  64
ATOM     64  C   UNL     1       5.524  -6.713 -11.255  1.00  0.00     0.023 A 
ATOM     65  C   UNL     1       6.542  -7.685 -11.330  1.00  0.00     0.012 A 
ATOM     66  C   UNL     1       5.671  -5.503 -11.962  1.00  0.00     0.148 A 
ATOM     67  C   UNL     1       7.703  -7.444 -12.064  1.00  0.00     0.002 A 
ATOM     68  C   UNL     1       6.809  -5.290 -12.732  1.00  0.00     0.091 A 
ATOM     69  F   UNL     1       4.701  -4.583 -11.864  1.00  0.00    -0.205 F 
ATOM     70  C   UNL     1       7.831  -6.253 -12.773  1.00  0.00     0.022 A 
BRANCH  68  71
ATOM     71  S   UNL     1       7.033  -3.826 -13.748  1.00  0.00     0.127 S 
ATOM     72  O   UNL     1       8.120  -3.145 -13.047  1.00  0.00    -0.237 OA
ATOM     73  O   UNL     1       7.408  -4.405 -15.039  1.00  0.00    -0.237 OA
ATOM     74  O   UNL     1       5.754  -3.131 -13.741  1.00  0.00    -0.744 OA
ENDBRANCH  68  71
ENDBRANCH  50  64
BRANCH  51  75
ATOM     75  C   UNL     1      -2.665  -8.182  -5.731  1.00  0.00     0.023 A 
ATOM     76  C   UNL     1      -3.388  -9.389  -5.796  1.00  0.00     0.012 A 
ATOM     77  C   UNL     1      -3.116  -7.158  -4.876  1.00  0.00     0.148 A 
ATOM     78  C   UNL     1      -4.559  -9.559  -5.055  1.00  0.00     0.002 A 
ATOM     79  C   UNL     1      -4.248  -7.355  -4.095  1.00  0.00     0.091 A 
ATOM     80  F   UNL     1      -2.418  -6.014  -4.833  1.00  0.00    -0.205 F 
ATOM     81  C   UNL     1      -4.983  -8.547  -4.199  1.00  0.00     0.022 A 
BRANCH  79  82
ATOM     82  S   UNL     1      -4.790  -6.162  -2.867  1.00  0.00     0.127 S 
ATOM     83  O   UNL     1      -6.031  -5.668  -3.457  1.00  0.00    -0.237 OA
ATOM     84  O   UNL     1      -4.963  -7.006  -1.684  1.00  0.00    -0.237 OA
ATOM     85  O   UNL     1      -3.711  -5.190  -2.756  1.00  0.00    -0.744 OA
ENDBRANCH  79  82
ENDBRANCH  51  75
BRANCH  63  86
ATOM     86  C   UNL     1      -1.448  -7.965 -12.604  1.00  0.00     0.023 A 
ATOM     87  C   UNL     1      -2.357  -6.941 -12.936  1.00  0.00     0.012 A 
ATOM     88  C   UNL     1      -1.333  -9.087 -13.449  1.00  0.00     0.148 A 
ATOM     89  C   UNL     1      -3.163  -7.048 -14.069  1.00  0.00     0.002 A 
ATOM     90  C   UNL     1      -2.099  -9.162 -14.605  1.00  0.00     0.091 A 
ATOM     91  F   UNL     1      -0.474 -10.059 -13.107  1.00  0.00    -0.205 F 
ATOM     92  C   UNL     1      -3.025  -8.151 -14.909  1.00  0.00     0.022 A 
BRANCH  90  93
ATOM     93  S   UNL     1      -1.920 -10.493 -15.797  1.00  0.00     0.127 S 
ATOM     94  O   UNL     1      -3.174 -11.224 -15.619  1.00  0.00    -0.237 OA
ATOM     95  O   UNL     1      -1.812  -9.764 -17.061  1.00  0.00    -0.237 OA
ATOM     96  O   UNL     1      -0.717 -11.219 -15.413  1.00  0.00    -0.744 OA
ENDBRANCH  90  93
ENDBRANCH  63  86
ENDBRANCH  37  38
ENDBRANCH  29  32
ENDBRANCH  27  28
ENDBRANCH  26  27
ENDBRANCH  25  26
ENDBRANCH   1  25
TORSDOF 20
