REMARK SMILES C[C@H]1CCCCC[C@@H]1[NH2+]Cc1cc(C(=O)NCCCCCCNC(=O)c2ccc(-c3c4nc(c(-c5cccc(S(=O)(=O)[O-])c5F)c5ccc([nH]5)c(-c5cccc(S(=O)(=O)[O-])c5F)c5nc(c(-c6cccc(S(=O)(=O)[O-])c6F)c6ccc3[nH]6)C=C5)C=C4)cc2)cs1
REMARK SMILES IDX 18 1 17 2 16 3 14 4 15 5 13 7 11 8 12 9 90 10 89 11 10 12
REMARK SMILES IDX 9 13 8 16 2 17 1 18 3 19 4 20 7 22 6 23 5 24 19 26 20 27
REMARK SMILES IDX 21 28 22 29 23 30 24 31 25 33 26 34 27 35 88 36 28 37 87 38
REMARK SMILES IDX 29 39 30 40 31 41 81 42 32 43 86 44 80 45 82 46 33 47 85 48
REMARK SMILES IDX 79 49 78 50 34 52 66 53 46 54 65 55 47 56 50 57 64 58 83 59
REMARK SMILES IDX 48 60 49 61 63 63 84 64 51 65 35 66 36 67 44 68 37 69 39 70
REMARK SMILES IDX 45 71 38 72 40 73 41 74 42 75 43 76 67 77 68 78 76 79 69 80
REMARK SMILES IDX 71 81 77 82 70 83 72 84 73 85 74 86 75 87 52 88 53 89 61 90
REMARK SMILES IDX 54 91 56 92 62 93 55 94 57 95 58 96 59 97 60 98
REMARK H PARENT 16 6 9 14 9 15 23 32 82 51 50 62
REMARK Flexibility Score: 90.00
ROOT
ATOM      1  C   UNL     1       5.828   4.782  -3.401  1.00  0.00     0.021 C 
ENDROOT
BRANCH   1   2
ATOM      2  C   UNL     1       6.043   3.341  -3.859  1.00  0.00     0.116 C 
BRANCH   2   3
ATOM      3  N   UNL     1       7.262   2.769  -3.324  1.00  0.00    -0.352 N 
ATOM      4  C   UNL     1       7.545   1.877  -2.319  1.00  0.00     0.252 C 
ATOM      5  O   UNL     1       8.738   1.627  -2.143  1.00  0.00    -0.269 OA
ATOM      6  H   UNL     1       8.069   3.093  -3.784  1.00  0.00     0.163 HD
BRANCH   4   7
ATOM      7  C   UNL     1       6.516   1.266  -1.468  1.00  0.00     0.051 A 
ATOM      8  C   UNL     1       4.429   0.657  -0.521  1.00  0.00     0.059 A 
ATOM      9  C   UNL     1       5.096   1.277  -1.560  1.00  0.00     0.035 A 
ATOM     10  S   UNL     1       5.537  -0.077   0.544  1.00  0.00    -0.142 S 
ATOM     11  C   UNL     1       6.871   0.491  -0.370  1.00  0.00     0.079 A 
BRANCH   8  12
ATOM     12  C   UNL     1       2.935   0.548  -0.329  1.00  0.00     0.308 C 
BRANCH  12  13
ATOM     13  N   UNL     1       2.270   1.334  -1.364  1.00  0.00    -0.339 N 
ATOM     14  H   UNL     1       2.425   2.316  -1.132  1.00  0.00     0.346 HD
ATOM     15  H   UNL     1       2.687   0.983  -2.227  1.00  0.00     0.346 HD
BRANCH  13  16
ATOM     16  C   UNL     1       0.832   1.177  -1.598  1.00  0.00     0.185 C 
BRANCH  16  17
ATOM     17  C   UNL     1       0.274  -0.254  -1.430  1.00  0.00     0.044 C 
ATOM     18  C   UNL     1      -1.260  -0.245  -1.334  1.00  0.00     0.014 C 
BRANCH  17  19
ATOM     19  C   UNL     1       0.800  -1.262  -2.467  1.00  0.00     0.009 C 
BRANCH  19  20
ATOM     20  C   UNL     1       0.211  -1.124  -3.866  1.00  0.00     0.001 CG0
ATOM     21  G   UNL     1       0.883  -0.100  -4.771  1.00  0.00     0.000 G0
ENDBRANCH  19  20
ENDBRANCH  17  19
ENDBRANCH  16  17
BRANCH  16  22
ATOM     22  C   UNL     1       0.547   1.789  -2.998  1.00  0.00     0.065 C 
BRANCH  22  23
ATOM     23  C   UNL     1       1.368   1.211  -4.159  1.00  0.00     0.006 C 
BRANCH  23  24
ATOM     24  C   UNL     1       0.883  -0.100  -4.771  1.00  0.00     0.000 CG0
ATOM     25  G   UNL     1       0.211  -1.124  -3.866  1.00  0.00     0.000 G0
ENDBRANCH  23  24
ENDBRANCH  22  23
ENDBRANCH  16  22
ENDBRANCH  13  16
ENDBRANCH  12  13
ENDBRANCH   8  12
ENDBRANCH   4   7
ENDBRANCH   2   3
ENDBRANCH   1   2
BRANCH   1  26
ATOM     26  C   UNL     1       6.585   5.805  -4.257  1.00  0.00     0.002 C 
BRANCH  26  27
ATOM     27  C   UNL     1       6.275   5.742  -5.759  1.00  0.00     0.002 C 
BRANCH  27  28
ATOM     28  C   UNL     1       4.788   5.833  -6.120  1.00  0.00     0.021 C 
BRANCH  28  29
ATOM     29  C   UNL     1       4.119   7.134  -5.691  1.00  0.00     0.116 C 
BRANCH  29  30
ATOM     30  N   UNL     1       4.764   8.289  -6.295  1.00  0.00    -0.352 N 
ATOM     31  C   UNL     1       4.232   9.277  -7.082  1.00  0.00     0.251 C 
ATOM     32  H   UNL     1       5.728   8.373  -6.113  1.00  0.00     0.163 HD
ATOM     33  O   UNL     1       4.979  10.021  -7.710  1.00  0.00    -0.269 OA
BRANCH  31  34
ATOM     34  C   UNL     1       2.766   9.446  -7.171  1.00  0.00     0.039 A 
ATOM     35  C   UNL     1       2.200   9.760  -8.409  1.00  0.00     0.014 A 
ATOM     36  C   UNL     1       1.958   9.336  -6.036  1.00  0.00     0.014 A 
ATOM     37  C   UNL     1       0.819   9.931  -8.511  1.00  0.00     0.010 A 
ATOM     38  C   UNL     1       0.574   9.424  -6.157  1.00  0.00     0.010 A 
ATOM     39  C   UNL     1      -0.009   9.741  -7.392  1.00  0.00    -0.014 A 
BRANCH  39  40
ATOM     40  C   UNL     1      -1.483   9.872  -7.510  1.00  0.00     0.031 A 
ATOM     41  C   UNL     1      -2.224  10.935  -6.744  1.00  0.00     0.074 A 
ATOM     42  C   UNL     1      -2.162   8.995  -8.276  1.00  0.00     0.049 A 
ATOM     43  N   UNL     1      -3.504  11.206  -6.743  1.00  0.00    -0.248 NA
ATOM     44  C   UNL     1      -1.433  11.788  -5.842  1.00  0.00     0.031 C 
ATOM     45  C   UNL     1      -1.568   7.867  -8.998  1.00  0.00     0.029 A 
ATOM     46  N   UNL     1      -3.500   8.905  -8.564  1.00  0.00    -0.354 N 
ATOM     47  C   UNL     1      -3.675  12.237  -5.827  1.00  0.00     0.074 A 
ATOM     48  C   UNL     1      -2.374  12.515  -5.258  1.00  0.00     0.031 C 
ATOM     49  C   UNL     1      -2.534   7.212  -9.661  1.00  0.00     0.029 A 
ATOM     50  C   UNL     1      -3.816   7.852  -9.389  1.00  0.00     0.049 A 
ATOM     51  H   UNL     1      -4.171   9.535  -8.214  1.00  0.00     0.167 HD
ATOM     52  C   UNL     1      -4.805  12.912  -5.507  1.00  0.00     0.034 A 
ATOM     53  C   UNL     1      -5.006   7.446  -9.873  1.00  0.00     0.034 A 
ATOM     54  C   UNL     1      -6.092  12.651  -6.097  1.00  0.00     0.049 A 
ATOM     55  C   UNL     1      -6.238   8.241  -9.538  1.00  0.00     0.074 A 
ATOM     56  C   UNL     1      -7.282  13.331  -5.902  1.00  0.00     0.029 A 
ATOM     57  N   UNL     1      -6.361  11.623  -6.987  1.00  0.00    -0.354 N 
ATOM     58  N   UNL     1      -6.352   9.313  -8.792  1.00  0.00    -0.248 NA
ATOM     59  C   UNL     1      -7.498   7.796 -10.149  1.00  0.00     0.031 C 
ATOM     60  C   UNL     1      -8.278  12.691  -6.648  1.00  0.00     0.029 A 
ATOM     61  C   UNL     1      -7.699  11.641  -7.342  1.00  0.00     0.049 A 
ATOM     62  H   UNL     1      -5.698  10.975  -7.317  1.00  0.00     0.167 HD
ATOM     63  C   UNL     1      -7.687   9.693  -8.874  1.00  0.00     0.074 A 
ATOM     64  C   UNL     1      -8.333   8.751  -9.764  1.00  0.00     0.031 C 
ATOM     65  C   UNL     1      -8.323  10.722  -8.260  1.00  0.00     0.034 A 
BRANCH  52  66
ATOM     66  C   UNL     1      -4.694  14.030  -4.501  1.00  0.00     0.023 A 
ATOM     67  C   UNL     1      -4.013  15.217  -4.845  1.00  0.00     0.012 A 
ATOM     68  C   UNL     1      -5.309  13.931  -3.237  1.00  0.00     0.148 A 
ATOM     69  C   UNL     1      -3.913  16.270  -3.937  1.00  0.00     0.002 A 
ATOM     70  C   UNL     1      -5.247  15.005  -2.356  1.00  0.00     0.091 A 
ATOM     71  F   UNL     1      -5.934  12.790  -2.918  1.00  0.00    -0.205 F 
ATOM     72  C   UNL     1      -4.539  16.168  -2.698  1.00  0.00     0.022 A 
BRANCH  70  73
ATOM     73  S   UNL     1      -6.090  15.007  -0.769  1.00  0.00     0.127 S 
ATOM     74  O   UNL     1      -4.964  14.957   0.162  1.00  0.00    -0.237 OA
ATOM     75  O   UNL     1      -6.799  16.286  -0.801  1.00  0.00    -0.237 OA
ATOM     76  O   UNL     1      -6.951  13.833  -0.769  1.00  0.00    -0.744 OA
ENDBRANCH  70  73
ENDBRANCH  52  66
BRANCH  53  77
ATOM     77  C   UNL     1      -5.079   6.265 -10.779  1.00  0.00     0.023 A 
ATOM     78  C   UNL     1      -5.399   6.448 -12.138  1.00  0.00     0.012 A 
ATOM     79  C   UNL     1      -4.812   4.967 -10.304  1.00  0.00     0.148 A 
ATOM     80  C   UNL     1      -5.492   5.355 -13.000  1.00  0.00     0.002 A 
ATOM     81  C   UNL     1      -4.848   3.889 -11.181  1.00  0.00     0.091 A 
ATOM     82  F   UNL     1      -4.515   4.814  -9.006  1.00  0.00    -0.205 F 
ATOM     83  C   UNL     1      -5.208   4.077 -12.524  1.00  0.00     0.022 A 
BRANCH  81  84
ATOM     84  S   UNL     1      -4.366   2.231 -10.687  1.00  0.00     0.127 S 
ATOM     85  O   UNL     1      -5.643   1.524 -10.730  1.00  0.00    -0.237 OA
ATOM     86  O   UNL     1      -3.421   1.866 -11.742  1.00  0.00    -0.237 OA
ATOM     87  O   UNL     1      -3.766   2.372  -9.367  1.00  0.00    -0.744 OA
ENDBRANCH  81  84
ENDBRANCH  53  77
BRANCH  65  88
ATOM     88  C   UNL     1      -9.787  10.912  -8.565  1.00  0.00     0.023 A 
ATOM     89  C   UNL     1     -10.735   9.980  -8.097  1.00  0.00     0.012 A 
ATOM     90  C   UNL     1     -10.226  12.040  -9.286  1.00  0.00     0.148 A 
ATOM     91  C   UNL     1     -12.090  10.139  -8.387  1.00  0.00     0.002 A 
ATOM     92  C   UNL     1     -11.583  12.222  -9.522  1.00  0.00     0.091 A 
ATOM     93  F   UNL     1      -9.310  12.908  -9.740  1.00  0.00    -0.205 F 
ATOM     94  C   UNL     1     -12.514  11.264  -9.090  1.00  0.00     0.022 A 
BRANCH  92  95
ATOM     95  S   UNL     1     -12.228  13.691 -10.330  1.00  0.00     0.127 S 
ATOM     96  O   UNL     1     -12.583  13.174 -11.650  1.00  0.00    -0.237 OA
ATOM     97  O   UNL     1     -13.370  14.036  -9.482  1.00  0.00    -0.237 OA
ATOM     98  O   UNL     1     -11.146  14.666 -10.308  1.00  0.00    -0.744 OA
ENDBRANCH  92  95
ENDBRANCH  65  88
ENDBRANCH  39  40
ENDBRANCH  31  34
ENDBRANCH  29  30
ENDBRANCH  28  29
ENDBRANCH  27  28
ENDBRANCH  26  27
ENDBRANCH   1  26
TORSDOF 19
