REMARK SMILES O=C(CCCNc1ccccc1SC(F)F)NCCCCCCNC(=O)c1ccc(-c2c3nc(c(-c4cccc(S(=O)(=O)[O-])c4F)c4ccc([nH]4)c(-c4cccc(S(=O)(=O)[O-])c4F)c4nc(c(-c5cccc(S(=O)(=O)[O-])c5F)c5ccc2[nH]5)C=C4)C=C3)cc1
REMARK SMILES IDX 19 1 18 2 17 3 1 4 2 5 3 7 4 8 5 9 6 10 7 12 8 13 12 14 9 15
REMARK SMILES IDX 11 16 10 17 13 18 14 19 15 20 16 21 20 22 21 23 22 24 23 25
REMARK SMILES IDX 24 26 25 27 26 29 27 30 28 31 89 32 29 33 88 34 30 35 31 36
REMARK SMILES IDX 32 37 82 38 33 39 87 40 81 41 83 42 34 43 86 44 80 45 79 46
REMARK SMILES IDX 35 48 67 49 47 50 66 51 48 52 51 53 65 54 84 55 49 56 50 57
REMARK SMILES IDX 64 59 85 60 52 61 36 62 37 63 45 64 38 65 40 66 46 67 39 68
REMARK SMILES IDX 41 69 42 70 43 71 44 72 68 73 69 74 77 75 70 76 72 77 78 78
REMARK SMILES IDX 71 79 73 80 74 81 75 82 76 83 53 84 54 85 62 86 55 87 57 88
REMARK SMILES IDX 63 89 56 90 58 91 59 92 60 93 61 94
REMARK H PARENT 17 6 6 11 24 28 83 47 51 58
REMARK Flexibility Score: inf
ROOT
ATOM      1  C   UNL     1       2.691  -2.674   2.008  1.00  0.00     0.021 C 
ENDROOT
BRANCH   1   2
ATOM      2  C   UNL     1       2.204  -1.235   1.816  1.00  0.00     0.116 C 
BRANCH   2   3
ATOM      3  N   UNL     1       2.841  -0.603   0.676  1.00  0.00    -0.356 N 
ATOM      4  O   UNL     1       0.964   0.471  -0.105  1.00  0.00    -0.275 OA
ATOM      5  C   UNL     1       2.148   0.176  -0.221  1.00  0.00     0.220 C 
ATOM      6  H   UNL     1       3.807  -0.738   0.538  1.00  0.00     0.163 HD
BRANCH   5   7
ATOM      7  C   UNL     1       2.959   0.610  -1.425  1.00  0.00     0.102 C 
BRANCH   7   8
ATOM      8  C   UNL     1       3.825   1.852  -1.206  1.00  0.00     0.031 C 
BRANCH   8   9
ATOM      9  C   UNL     1       4.912   1.735  -0.135  1.00  0.00     0.113 C 
BRANCH   9  10
ATOM     10  N   UNL     1       5.792   0.616  -0.411  1.00  0.00    -0.384 N 
ATOM     11  H   UNL     1       5.378  -0.203  -0.768  1.00  0.00     0.160 HD
BRANCH  10  12
ATOM     12  C   UNL     1       7.167   0.598  -0.215  1.00  0.00     0.048 A 
ATOM     13  C   UNL     1       7.899   0.073  -1.310  1.00  0.00     0.027 A 
ATOM     14  C   UNL     1       7.903   1.105   0.878  1.00  0.00     0.036 A 
ATOM     15  C   UNL     1       9.292   0.033  -1.343  1.00  0.00     0.002 A 
ATOM     16  C   UNL     1       9.318   1.012   0.844  1.00  0.00     0.017 A 
ATOM     17  C   UNL     1      10.006   0.489  -0.252  1.00  0.00     0.001 A 
BRANCH  14  18
ATOM     18  S   UNL     1       7.326   2.004   2.323  1.00  0.00    -0.053 SA
BRANCH  18  19
ATOM     19  C   UNL     1       5.899   1.104   2.945  1.00  0.00     0.405 C 
ATOM     20  F   UNL     1       4.816   1.928   2.933  1.00  0.00    -0.198 F 
ATOM     21  F   UNL     1       5.579   0.017   2.209  1.00  0.00    -0.198 F 
ENDBRANCH  18  19
ENDBRANCH  14  18
ENDBRANCH  10  12
ENDBRANCH   9  10
ENDBRANCH   8   9
ENDBRANCH   7   8
ENDBRANCH   5   7
ENDBRANCH   2   3
ENDBRANCH   1   2
BRANCH   1  22
ATOM     22  C   UNL     1       4.176  -2.802   2.369  1.00  0.00     0.002 C 
BRANCH  22  23
ATOM     23  C   UNL     1       4.568  -2.176   3.710  1.00  0.00     0.002 C 
BRANCH  23  24
ATOM     24  C   UNL     1       3.902  -2.775   4.943  1.00  0.00     0.021 C 
BRANCH  24  25
ATOM     25  C   UNL     1       4.117  -4.270   5.121  1.00  0.00     0.116 C 
BRANCH  25  26
ATOM     26  N   UNL     1       5.519  -4.613   5.308  1.00  0.00    -0.352 N 
ATOM     27  C   UNL     1       6.102  -5.365   6.302  1.00  0.00     0.251 C 
ATOM     28  H   UNL     1       6.137  -4.257   4.630  1.00  0.00     0.163 HD
ATOM     29  O   UNL     1       7.321  -5.411   6.401  1.00  0.00    -0.269 OA
BRANCH  27  30
ATOM     30  C   UNL     1       5.245  -6.099   7.261  1.00  0.00     0.039 A 
ATOM     31  C   UNL     1       5.577  -6.081   8.618  1.00  0.00     0.014 A 
ATOM     32  C   UNL     1       4.114  -6.795   6.827  1.00  0.00     0.014 A 
ATOM     33  C   UNL     1       4.746  -6.719   9.541  1.00  0.00     0.010 A 
ATOM     34  C   UNL     1       3.238  -7.345   7.757  1.00  0.00     0.010 A 
ATOM     35  C   UNL     1       3.553  -7.333   9.123  1.00  0.00    -0.014 A 
BRANCH  35  36
ATOM     36  C   UNL     1       2.641  -7.991  10.094  1.00  0.00     0.031 A 
ATOM     37  C   UNL     1       2.351  -9.466   9.975  1.00  0.00     0.074 A 
ATOM     38  C   UNL     1       2.026  -7.257  11.043  1.00  0.00     0.049 A 
ATOM     39  N   UNL     1       1.548 -10.209  10.691  1.00  0.00    -0.248 NA
ATOM     40  C   UNL     1       3.033 -10.197   8.893  1.00  0.00     0.031 C 
ATOM     41  C   UNL     1       2.158  -5.808  11.214  1.00  0.00     0.029 A 
ATOM     42  N   UNL     1       1.145  -7.626  12.029  1.00  0.00    -0.354 N 
ATOM     43  C   UNL     1       1.611 -11.482  10.136  1.00  0.00     0.074 A 
ATOM     44  C   UNL     1       2.487 -11.400   8.989  1.00  0.00     0.031 C 
ATOM     45  C   UNL     1       1.391  -5.414  12.243  1.00  0.00     0.029 A 
ATOM     46  C   UNL     1       0.688  -6.572  12.786  1.00  0.00     0.049 A 
ATOM     47  H   UNL     1       0.866  -8.558  12.181  1.00  0.00     0.167 HD
ATOM     48  C   UNL     1       1.028 -12.628  10.563  1.00  0.00     0.034 A 
ATOM     49  C   UNL     1      -0.204  -6.540  13.796  1.00  0.00     0.034 A 
ATOM     50  C   UNL     1       0.182 -12.716  11.722  1.00  0.00     0.049 A 
ATOM     51  C   UNL     1      -0.817  -7.833  14.267  1.00  0.00     0.074 A 
ATOM     52  C   UNL     1      -0.420 -13.836  12.265  1.00  0.00     0.029 A 
ATOM     53  N   UNL     1      -0.181 -11.641  12.518  1.00  0.00    -0.354 N 
ATOM     54  N   UNL     1      -0.640  -9.048  13.807  1.00  0.00    -0.248 NA
ATOM     55  C   UNL     1      -1.717  -7.756  15.426  1.00  0.00     0.031 C 
ATOM     56  C   UNL     1      -1.163 -13.436  13.380  1.00  0.00     0.029 A 
ATOM     57  C   UNL     1      -0.992 -12.072  13.553  1.00  0.00     0.049 A 
ATOM     58  H   UNL     1       0.096 -10.708  12.369  1.00  0.00     0.167 HD
ATOM     59  C   UNL     1      -1.365  -9.883  14.649  1.00  0.00     0.074 A 
ATOM     60  C   UNL     1      -1.967  -9.037  15.659  1.00  0.00     0.031 C 
ATOM     61  C   UNL     1      -1.530 -11.227  14.587  1.00  0.00     0.034 A 
BRANCH  48  62
ATOM     62  C   UNL     1       1.342 -13.895   9.809  1.00  0.00     0.023 A 
ATOM     63  C   UNL     1       2.637 -14.448   9.896  1.00  0.00     0.012 A 
ATOM     64  C   UNL     1       0.352 -14.572   9.071  1.00  0.00     0.148 A 
ATOM     65  C   UNL     1       2.953 -15.632   9.232  1.00  0.00     0.002 A 
ATOM     66  C   UNL     1       0.660 -15.778   8.452  1.00  0.00     0.091 A 
ATOM     67  F   UNL     1      -0.868 -14.024   8.986  1.00  0.00    -0.205 F 
ATOM     68  C   UNL     1       1.962 -16.302   8.520  1.00  0.00     0.022 A 
BRANCH  66  69
ATOM     69  S   UNL     1      -0.561 -16.764   7.578  1.00  0.00     0.127 S 
ATOM     70  O   UNL     1      -0.077 -16.678   6.200  1.00  0.00    -0.237 OA
ATOM     71  O   UNL     1      -0.396 -18.077   8.201  1.00  0.00    -0.237 OA
ATOM     72  O   UNL     1      -1.846 -16.126   7.824  1.00  0.00    -0.744 OA
ENDBRANCH  66  69
ENDBRANCH  48  62
BRANCH  49  73
ATOM     73  C   UNL     1      -0.541  -5.251  14.466  1.00  0.00     0.023 A 
ATOM     74  C   UNL     1      -0.154  -5.036  15.804  1.00  0.00     0.012 A 
ATOM     75  C   UNL     1      -1.254  -4.244  13.789  1.00  0.00     0.148 A 
ATOM     76  C   UNL     1      -0.517  -3.865  16.471  1.00  0.00     0.002 A 
ATOM     77  C   UNL     1      -1.559  -3.054  14.440  1.00  0.00     0.091 A 
ATOM     78  F   UNL     1      -1.621  -4.468  12.520  1.00  0.00    -0.205 F 
ATOM     79  C   UNL     1      -1.213  -2.872  15.788  1.00  0.00     0.022 A 
BRANCH  77  80
ATOM     80  S   UNL     1      -2.335  -1.672  13.597  1.00  0.00     0.127 S 
ATOM     81  O   UNL     1      -3.683  -1.697  14.158  1.00  0.00    -0.237 OA
ATOM     82  O   UNL     1      -1.506  -0.548  14.033  1.00  0.00    -0.237 OA
ATOM     83  O   UNL     1      -2.232  -1.974  12.175  1.00  0.00    -0.744 OA
ENDBRANCH  77  80
ENDBRANCH  49  73
BRANCH  61  84
ATOM     84  C   UNL     1      -2.332 -11.884  15.681  1.00  0.00     0.023 A 
ATOM     85  C   UNL     1      -3.726 -11.694  15.753  1.00  0.00     0.012 A 
ATOM     86  C   UNL     1      -1.701 -12.738  16.608  1.00  0.00     0.148 A 
ATOM     87  C   UNL     1      -4.473 -12.306  16.759  1.00  0.00     0.002 A 
ATOM     88  C   UNL     1      -2.460 -13.388  17.573  1.00  0.00     0.091 A 
ATOM     89  F   UNL     1      -0.371 -12.892  16.534  1.00  0.00    -0.205 F 
ATOM     90  C   UNL     1      -3.842 -13.161  17.661  1.00  0.00     0.022 A 
BRANCH  88  91
ATOM     91  S   UNL     1      -1.748 -14.584  18.709  1.00  0.00     0.127 S 
ATOM     92  O   UNL     1      -1.757 -13.840  19.967  1.00  0.00    -0.237 OA
ATOM     93  O   UNL     1      -2.711 -15.684  18.644  1.00  0.00    -0.237 OA
ATOM     94  O   UNL     1      -0.429 -14.905  18.180  1.00  0.00    -0.744 OA
ENDBRANCH  88  91
ENDBRANCH  61  84
ENDBRANCH  35  36
ENDBRANCH  27  30
ENDBRANCH  25  26
ENDBRANCH  24  25
ENDBRANCH  23  24
ENDBRANCH  22  23
ENDBRANCH   1  22
TORSDOF 22
