REMARK SMILES O=C(NCc1ccc(C(=O)NCCCCCCNC(=O)c2ccc(-c3c4nc(c(-c5cccc(S(=O)(=O)[O-])c5F)c5ccc([nH]5)c(-c5cccc(S(=O)(=O)[O-])c5F)c5nc(c(-c6cccc(S(=O)(=O)[O-])c6F)c6ccc3[nH]6)C=C5)C=C4)cc2)cc1)Nc1ccccc1Br
REMARK SMILES IDX 14 1 13 2 12 3 11 4 9 5 10 6 8 8 5 9 6 10 85 11 7 12 84 13
REMARK SMILES IDX 4 14 3 15 1 16 2 17 86 18 87 21 88 22 92 23 89 24 91 25
REMARK SMILES IDX 93 26 90 27 15 28 16 29 17 30 18 31 19 32 20 34 21 35 22 36
REMARK SMILES IDX 83 37 23 38 82 39 24 40 25 41 26 42 76 43 27 44 81 45 75 46
REMARK SMILES IDX 77 47 28 48 80 49 74 50 73 51 29 53 61 54 41 55 60 56 42 57
REMARK SMILES IDX 45 58 59 59 78 60 43 61 44 62 58 64 79 65 46 66 30 67 31 68
REMARK SMILES IDX 39 69 32 70 34 71 40 72 33 73 35 74 36 75 37 76 38 77 62 78
REMARK SMILES IDX 63 79 71 80 64 81 66 82 72 83 65 84 67 85 68 86 69 87 70 88
REMARK SMILES IDX 47 89 48 90 56 91 49 92 51 93 57 94 50 95 52 96 53 97 54 98
REMARK SMILES IDX 55 99
REMARK H PARENT 11 7 3 19 86 20 18 33 77 52 45 63
REMARK Flexibility Score: inf
ROOT
ATOM      1  C   UNL     1       3.714   8.972   1.026  1.00  0.00     0.002 C 
ENDROOT
BRANCH   1   2
ATOM      2  C   UNL     1       3.583   7.453   0.853  1.00  0.00     0.021 C 
BRANCH   2   3
ATOM      3  C   UNL     1       4.910   6.782   0.491  1.00  0.00     0.116 C 
BRANCH   3   4
ATOM      4  N   UNL     1       5.715   6.621   1.687  1.00  0.00    -0.352 N 
ATOM      5  C   UNL     1       5.966   5.542   2.492  1.00  0.00     0.251 C 
ATOM      6  O   UNL     1       6.686   5.718   3.477  1.00  0.00    -0.269 OA
ATOM      7  H   UNL     1       6.168   7.446   1.976  1.00  0.00     0.163 HD
BRANCH   5   8
ATOM      8  C   UNL     1       5.475   4.169   2.191  1.00  0.00     0.039 A 
ATOM      9  C   UNL     1       4.788   1.495   1.582  1.00  0.00    -0.029 A 
ATOM     10  C   UNL     1       5.926   1.779   2.347  1.00  0.00     0.006 A 
ATOM     11  C   UNL     1       3.982   2.560   1.159  1.00  0.00     0.006 A 
ATOM     12  C   UNL     1       6.265   3.102   2.644  1.00  0.00     0.014 A 
ATOM     13  C   UNL     1       4.297   3.878   1.502  1.00  0.00     0.014 A 
BRANCH   9  14
ATOM     14  C   UNL     1       4.484   0.075   1.174  1.00  0.00     0.153 C 
BRANCH  14  15
ATOM     15  N   UNL     1       3.062  -0.192   1.153  1.00  0.00    -0.334 N 
ATOM     16  O   UNL     1       1.024  -0.496   0.337  1.00  0.00    -0.248 OA
ATOM     17  C   UNL     1       2.229  -0.451   0.110  1.00  0.00     0.319 C 
ATOM     18  N   UNL     1       2.827  -0.705  -1.091  1.00  0.00    -0.307 N 
ATOM     19  H   UNL     1       2.628  -0.184   2.037  1.00  0.00     0.165 HD
ATOM     20  H   UNL     1       3.808  -0.787  -1.103  1.00  0.00     0.171 HD
BRANCH  18  21
ATOM     21  C   UNL     1       2.143  -0.860  -2.320  1.00  0.00     0.057 A 
ATOM     22  C   UNL     1       2.592  -1.912  -3.135  1.00  0.00     0.027 A 
ATOM     23  C   UNL     1       1.093  -0.048  -2.782  1.00  0.00     0.041 A 
ATOM     24  C   UNL     1       1.953  -2.210  -4.340  1.00  0.00     0.002 A 
ATOM     25  C   UNL     1       0.459  -0.351  -3.995  1.00  0.00     0.018 A 
ATOM     26  Br  UNL     1       0.600   1.600  -1.967  1.00  0.00    -0.049 Br
ATOM     27  C   UNL     1       0.876  -1.439  -4.762  1.00  0.00     0.001 A 
ENDBRANCH  18  21
ENDBRANCH  14  15
ENDBRANCH   9  14
ENDBRANCH   5   8
ENDBRANCH   3   4
ENDBRANCH   2   3
ENDBRANCH   1   2
BRANCH   1  28
ATOM     28  C   UNL     1       4.148   9.719  -0.242  1.00  0.00     0.002 C 
BRANCH  28  29
ATOM     29  C   UNL     1       3.257   9.473  -1.461  1.00  0.00     0.021 C 
BRANCH  29  30
ATOM     30  C   UNL     1       1.816   9.930  -1.270  1.00  0.00     0.116 C 
BRANCH  30  31
ATOM     31  N   UNL     1       1.737  11.374  -1.099  1.00  0.00    -0.352 N 
ATOM     32  C   UNL     1       1.050  12.293  -1.853  1.00  0.00     0.251 C 
ATOM     33  H   UNL     1       2.246  11.741  -0.340  1.00  0.00     0.163 HD
ATOM     34  O   UNL     1       1.286  13.489  -1.741  1.00  0.00    -0.269 OA
BRANCH  32  35
ATOM     35  C   UNL     1       0.026  11.816  -2.804  1.00  0.00     0.039 A 
ATOM     36  C   UNL     1      -0.002  12.336  -4.100  1.00  0.00     0.014 A 
ATOM     37  C   UNL     1      -0.896  10.842  -2.410  1.00  0.00     0.014 A 
ATOM     38  C   UNL     1      -0.926  11.838  -5.020  1.00  0.00     0.010 A 
ATOM     39  C   UNL     1      -1.759  10.293  -3.349  1.00  0.00     0.010 A 
ATOM     40  C   UNL     1      -1.792  10.793  -4.659  1.00  0.00    -0.014 A 
BRANCH  40  41
ATOM     41  C   UNL     1      -2.752  10.205  -5.627  1.00  0.00     0.031 A 
ATOM     42  C   UNL     1      -4.230  10.289  -5.359  1.00  0.00     0.074 A 
ATOM     43  C   UNL     1      -2.292   9.513  -6.687  1.00  0.00     0.049 A 
ATOM     44  N   UNL     1      -5.221   9.755  -6.022  1.00  0.00    -0.248 NA
ATOM     45  C   UNL     1      -4.647  11.050  -4.168  1.00  0.00     0.031 C 
ATOM     46  C   UNL     1      -0.880   9.307  -7.017  1.00  0.00     0.029 A 
ATOM     47  N   UNL     1      -2.965   8.825  -7.666  1.00  0.00    -0.354 N 
ATOM     48  C   UNL     1      -6.370  10.078  -5.312  1.00  0.00     0.074 A 
ATOM     49  C   UNL     1      -5.952  10.824  -4.146  1.00  0.00     0.031 C 
ATOM     50  C   UNL     1      -0.793   8.547  -8.121  1.00  0.00     0.029 A 
ATOM     51  C   UNL     1      -2.137   8.178  -8.553  1.00  0.00     0.049 A 
ATOM     52  H   UNL     1      -3.947   8.796  -7.727  1.00  0.00     0.167 HD
ATOM     53  C   UNL     1      -7.661   9.802  -5.615  1.00  0.00     0.034 A 
ATOM     54  C   UNL     1      -2.427   7.365  -9.588  1.00  0.00     0.034 A 
ATOM     55  C   UNL     1      -8.071   9.088  -6.793  1.00  0.00     0.049 A 
ATOM     56  C   UNL     1      -3.869   7.084  -9.913  1.00  0.00     0.074 A 
ATOM     57  C   UNL     1      -9.355   8.824  -7.235  1.00  0.00     0.029 A 
ATOM     58  N   UNL     1      -7.205   8.511  -7.710  1.00  0.00    -0.354 N 
ATOM     59  N   UNL     1      -4.950   7.516  -9.310  1.00  0.00    -0.248 NA
ATOM     60  C   UNL     1      -4.135   6.231 -11.080  1.00  0.00     0.031 C 
ATOM     61  C   UNL     1      -9.265   8.057  -8.401  1.00  0.00     0.029 A 
ATOM     62  C   UNL     1      -7.925   7.881  -8.709  1.00  0.00     0.049 A 
ATOM     63  H   UNL     1      -6.223   8.545  -7.657  1.00  0.00     0.167 HD
ATOM     64  C   UNL     1      -6.022   7.027 -10.048  1.00  0.00     0.074 A 
ATOM     65  C   UNL     1      -5.459   6.272 -11.149  1.00  0.00     0.031 C 
ATOM     66  C   UNL     1      -7.351   7.182  -9.830  1.00  0.00     0.034 A 
BRANCH  53  67
ATOM     67  C   UNL     1      -8.724  10.308  -4.674  1.00  0.00     0.023 A 
ATOM     68  C   UNL     1      -8.971  11.694  -4.578  1.00  0.00     0.012 A 
ATOM     69  C   UNL     1      -9.507   9.414  -3.919  1.00  0.00     0.148 A 
ATOM     70  C   UNL     1      -9.948  12.184  -3.712  1.00  0.00     0.002 A 
ATOM     71  C   UNL     1     -10.514   9.907  -3.096  1.00  0.00     0.091 A 
ATOM     72  F   UNL     1      -9.247   8.102  -4.008  1.00  0.00    -0.205 F 
ATOM     73  C   UNL     1     -10.725  11.291  -2.980  1.00  0.00     0.022 A 
BRANCH  71  74
ATOM     74  S   UNL     1     -11.625   8.836  -2.178  1.00  0.00     0.127 S 
ATOM     75  O   UNL     1     -11.188   9.068  -0.802  1.00  0.00    -0.237 OA
ATOM     76  O   UNL     1     -12.935   9.402  -2.503  1.00  0.00    -0.237 OA
ATOM     77  O   UNL     1     -11.401   7.491  -2.687  1.00  0.00    -0.744 OA
ENDBRANCH  71  74
ENDBRANCH  53  67
BRANCH  54  78
ATOM     78  C   UNL     1      -1.329   6.805 -10.427  1.00  0.00     0.023 A 
ATOM     79  C   UNL     1      -1.167   7.266 -11.748  1.00  0.00     0.012 A 
ATOM     80  C   UNL     1      -0.433   5.845  -9.919  1.00  0.00     0.148 A 
ATOM     81  C   UNL     1      -0.154   6.756 -12.560  1.00  0.00     0.002 A 
ATOM     82  C   UNL     1       0.609   5.382 -10.715  1.00  0.00     0.091 A 
ATOM     83  F   UNL     1      -0.607   5.417  -8.661  1.00  0.00    -0.205 F 
ATOM     84  C   UNL     1       0.739   5.822 -12.042  1.00  0.00     0.022 A 
BRANCH  82  85
ATOM     85  S   UNL     1       1.879   4.273 -10.097  1.00  0.00     0.127 S 
ATOM     86  O   UNL     1       1.615   3.058 -10.862  1.00  0.00    -0.237 OA
ATOM     87  O   UNL     1       3.104   4.983 -10.469  1.00  0.00    -0.237 OA
ATOM     88  O   UNL     1       1.654   4.174  -8.661  1.00  0.00    -0.744 OA
ENDBRANCH  82  85
ENDBRANCH  54  78
BRANCH  66  89
ATOM     89  C   UNL     1      -8.304   6.578 -10.828  1.00  0.00     0.023 A 
ATOM     90  C   UNL     1      -8.492   5.183 -10.874  1.00  0.00     0.012 A 
ATOM     91  C   UNL     1      -9.086   7.410 -11.654  1.00  0.00     0.148 A 
ATOM     92  C   UNL     1      -9.425   4.624 -11.747  1.00  0.00     0.002 A 
ATOM     93  C   UNL     1     -10.050   6.851 -12.481  1.00  0.00     0.091 A 
ATOM     94  F   UNL     1      -8.878   8.734 -11.605  1.00  0.00    -0.205 F 
ATOM     95  C   UNL     1     -10.213   5.457 -12.539  1.00  0.00     0.022 A 
BRANCH  93  96
ATOM     96  S   UNL     1     -11.180   7.848 -13.459  1.00  0.00     0.127 S 
ATOM     97  O   UNL     1     -10.734   7.554 -14.820  1.00  0.00    -0.237 OA
ATOM     98  O   UNL     1     -12.480   7.276 -13.106  1.00  0.00    -0.237 OA
ATOM     99  O   UNL     1     -10.985   9.224 -13.025  1.00  0.00    -0.744 OA
ENDBRANCH  93  96
ENDBRANCH  66  89
ENDBRANCH  40  41
ENDBRANCH  32  35
ENDBRANCH  30  31
ENDBRANCH  29  30
ENDBRANCH  28  29
ENDBRANCH   1  28
TORSDOF 19
