REMARK SMILES CC1(C)S[C@@H](c2cccc3c2sc2ccccc23)[NH2+][C@@H]1C(=O)NCCCCCCNC(=O)c1ccc(-c2c3nc(c(-c4cccc(S(=O)(=O)[O-])c4F)c4ccc([nH]4)c(-c4cccc(S(=O)(=O)[O-])c4F)c4nc(c(-c5cccc(S(=O)(=O)[O-])c5F)c5ccc2[nH]5)C=C4)C=C3)cc1
REMARK SMILES IDX 27 1 26 2 25 3 24 4 23 5 21 6 22 7 20 9 1 10 2 11 3 12 4 13
REMARK SMILES IDX 5 14 19 15 6 18 7 19 11 20 8 21 10 22 12 23 9 24 18 25 13 26
REMARK SMILES IDX 17 27 14 28 16 29 15 30 28 31 29 32 30 33 31 34 32 36 33 37
REMARK SMILES IDX 34 38 95 39 35 40 94 41 36 42 37 43 38 44 88 45 39 46 93 47
REMARK SMILES IDX 87 48 89 49 40 50 92 51 86 52 85 53 41 55 73 56 53 57 72 58
REMARK SMILES IDX 54 59 57 60 71 61 90 62 55 63 56 64 70 66 91 67 58 68 42 69
REMARK SMILES IDX 43 70 51 71 44 72 46 73 52 74 45 75 47 76 48 77 49 78 50 79
REMARK SMILES IDX 74 80 75 81 83 82 76 83 78 84 84 85 77 86 79 87 80 88 81 89
REMARK SMILES IDX 82 90 59 91 60 92 68 93 61 94 63 95 69 96 62 97 64 98 65 99
REMARK SMILES IDX 66 100 67 101
REMARK H PARENT 23 8 19 16 19 17 30 35 89 54 57 65
REMARK Flexibility Score: inf
ROOT
ATOM      1  C   UNL     1      -4.420   2.147  -4.460  1.00  0.00     0.002 C 
ENDROOT
BRANCH   1   2
ATOM      2  C   UNL     1      -3.368   3.240  -4.264  1.00  0.00     0.002 C 
BRANCH   2   3
ATOM      3  C   UNL     1      -2.980   3.542  -2.813  1.00  0.00     0.021 C 
BRANCH   3   4
ATOM      4  C   UNL     1      -2.495   2.349  -1.991  1.00  0.00     0.116 C 
BRANCH   4   5
ATOM      5  N   UNL     1      -1.349   1.699  -2.598  1.00  0.00    -0.351 N 
ATOM      6  C   UNL     1      -0.243   1.132  -2.038  1.00  0.00     0.279 C 
ATOM      7  O   UNL     1       0.586   0.695  -2.839  1.00  0.00    -0.268 OA
ATOM      8  H   UNL     1      -1.375   1.661  -3.581  1.00  0.00     0.163 HD
BRANCH   6   9
ATOM      9  C   UNL     1       0.007   1.169  -0.501  1.00  0.00     0.289 C 
ATOM     10  C   UNL     1       1.575   0.610   1.434  1.00  0.00     0.030 C 
ATOM     11  C   UNL     1       1.026   0.139   0.070  1.00  0.00     0.077 C 
ATOM     12  C   UNL     1       2.222  -0.230  -0.810  1.00  0.00     0.030 C 
ATOM     13  S   UNL     1       0.003  -1.350   0.382  1.00  0.00    -0.081 SA
ATOM     14  C   UNL     1      -1.572  -0.452   0.245  1.00  0.00     0.276 C 
ATOM     15  N   UNL     1      -1.257   0.981   0.266  1.00  0.00    -0.320 N 
ATOM     16  H   UNL     1      -1.131   1.296   1.228  1.00  0.00     0.348 HD
ATOM     17  H   UNL     1      -2.014   1.523  -0.149  1.00  0.00     0.348 HD
BRANCH  14  18
ATOM     18  C   UNL     1      -2.576  -0.806   1.329  1.00  0.00     0.038 A 
ATOM     19  C   UNL     1      -2.215  -0.709   2.695  1.00  0.00     0.012 A 
ATOM     20  C   UNL     1      -3.921  -1.195   1.053  1.00  0.00     0.046 A 
ATOM     21  C   UNL     1      -3.106  -0.991   3.718  1.00  0.00     0.001 A 
ATOM     22  C   UNL     1      -4.836  -1.498   2.068  1.00  0.00     0.001 A 
ATOM     23  S   UNL     1      -4.674  -1.356  -0.493  1.00  0.00    -0.135 S 
ATOM     24  C   UNL     1      -4.403  -1.388   3.414  1.00  0.00     0.010 A 
ATOM     25  C   UNL     1      -6.136  -1.890   1.551  1.00  0.00     0.000 A 
ATOM     26  C   UNL     1      -6.179  -1.842   0.160  1.00  0.00     0.036 A 
ATOM     27  C   UNL     1      -7.316  -2.284   2.236  1.00  0.00     0.010 A 
ATOM     28  C   UNL     1      -7.351  -2.163  -0.556  1.00  0.00     0.019 A 
ATOM     29  C   UNL     1      -8.480  -2.604   1.533  1.00  0.00     0.001 A 
ATOM     30  C   UNL     1      -8.495  -2.542   0.148  1.00  0.00     0.002 A 
ENDBRANCH  14  18
ENDBRANCH   6   9
ENDBRANCH   4   5
ENDBRANCH   3   4
ENDBRANCH   2   3
ENDBRANCH   1   2
BRANCH   1  31
ATOM     31  C   UNL     1      -5.735   2.348  -3.704  1.00  0.00     0.021 C 
BRANCH  31  32
ATOM     32  C   UNL     1      -6.413   3.698  -3.912  1.00  0.00     0.116 C 
BRANCH  32  33
ATOM     33  N   UNL     1      -6.734   3.958  -5.305  1.00  0.00    -0.352 N 
ATOM     34  C   UNL     1      -7.876   4.486  -5.849  1.00  0.00     0.251 C 
ATOM     35  H   UNL     1      -6.030   3.721  -5.951  1.00  0.00     0.163 HD
ATOM     36  O   UNL     1      -8.013   4.501  -7.074  1.00  0.00    -0.269 OA
BRANCH  34  37
ATOM     37  C   UNL     1      -8.950   5.019  -4.981  1.00  0.00     0.039 A 
ATOM     38  C   UNL     1     -10.280   4.749  -5.320  1.00  0.00     0.014 A 
ATOM     39  C   UNL     1      -8.664   5.810  -3.864  1.00  0.00     0.014 A 
ATOM     40  C   UNL     1     -11.316   5.246  -4.526  1.00  0.00     0.010 A 
ATOM     41  C   UNL     1      -9.696   6.242  -3.032  1.00  0.00     0.010 A 
ATOM     42  C   UNL     1     -11.033   5.987  -3.367  1.00  0.00    -0.014 A 
BRANCH  42  43
ATOM     43  C   UNL     1     -12.132   6.521  -2.520  1.00  0.00     0.031 A 
ATOM     44  C   UNL     1     -12.325   8.008  -2.372  1.00  0.00     0.074 A 
ATOM     45  C   UNL     1     -12.928   5.670  -1.844  1.00  0.00     0.049 A 
ATOM     46  N   UNL     1     -13.237   8.657  -1.694  1.00  0.00    -0.248 NA
ATOM     47  C   UNL     1     -11.354   8.881  -3.052  1.00  0.00     0.031 C 
ATOM     48  C   UNL     1     -12.788   4.212  -1.831  1.00  0.00     0.029 A 
ATOM     49  N   UNL     1     -14.002   5.908  -1.025  1.00  0.00    -0.354 N 
ATOM     50  C   UNL     1     -12.932  10.005  -1.838  1.00  0.00     0.074 A 
ATOM     51  C   UNL     1     -11.726  10.082  -2.634  1.00  0.00     0.031 C 
ATOM     52  C   UNL     1     -13.748   3.686  -1.053  1.00  0.00     0.029 A 
ATOM     53  C   UNL     1     -14.560   4.765  -0.499  1.00  0.00     0.049 A 
ATOM     54  H   UNL     1     -14.342   6.811  -0.831  1.00  0.00     0.167 HD
ATOM     55  C   UNL     1     -13.610  11.086  -1.382  1.00  0.00     0.034 A 
ATOM     56  C   UNL     1     -15.612   4.606   0.328  1.00  0.00     0.034 A 
ATOM     57  C   UNL     1     -14.837  11.009  -0.635  1.00  0.00     0.049 A 
ATOM     58  C   UNL     1     -16.389   5.819   0.763  1.00  0.00     0.074 A 
ATOM     59  C   UNL     1     -15.652  12.043  -0.208  1.00  0.00     0.029 A 
ATOM     60  N   UNL     1     -15.425   9.831  -0.200  1.00  0.00    -0.354 N 
ATOM     61  N   UNL     1     -16.186   7.080   0.469  1.00  0.00    -0.248 NA
ATOM     62  C   UNL     1     -17.569   5.583   1.607  1.00  0.00     0.031 C 
ATOM     63  C   UNL     1     -16.724  11.489   0.501  1.00  0.00     0.029 A 
ATOM     64  C   UNL     1     -16.588  10.111   0.497  1.00  0.00     0.049 A 
ATOM     65  H   UNL     1     -15.067   8.928  -0.362  1.00  0.00     0.167 HD
ATOM     66  C   UNL     1     -17.226   7.784   1.065  1.00  0.00     0.074 A 
ATOM     67  C   UNL     1     -18.076   6.804   1.710  1.00  0.00     0.031 C 
ATOM     68  C   UNL     1     -17.450   9.122   1.093  1.00  0.00     0.034 A 
BRANCH  55  69
ATOM     69  C   UNL     1     -13.072  12.449  -1.735  1.00  0.00     0.023 A 
ATOM     70  C   UNL     1     -13.159  12.906  -3.066  1.00  0.00     0.012 A 
ATOM     71  C   UNL     1     -12.528  13.296  -0.750  1.00  0.00     0.148 A 
ATOM     72  C   UNL     1     -12.681  14.167  -3.420  1.00  0.00     0.002 A 
ATOM     73  C   UNL     1     -12.094  14.570  -1.101  1.00  0.00     0.091 A 
ATOM     74  F   UNL     1     -12.433  12.839   0.507  1.00  0.00    -0.205 F 
ATOM     75  C   UNL     1     -12.158  15.002  -2.437  1.00  0.00     0.022 A 
BRANCH  73  76
ATOM     76  S   UNL     1     -11.476  15.751   0.104  1.00  0.00     0.127 S 
ATOM     77  O   UNL     1     -10.050  15.780  -0.217  1.00  0.00    -0.237 OA
ATOM     78  O   UNL     1     -12.206  16.968  -0.255  1.00  0.00    -0.237 OA
ATOM     79  O   UNL     1     -11.813  15.205   1.410  1.00  0.00    -0.744 OA
ENDBRANCH  73  76
ENDBRANCH  55  69
BRANCH  56  80
ATOM     80  C   UNL     1     -16.044   3.236   0.726  1.00  0.00     0.023 A 
ATOM     81  C   UNL     1     -17.248   2.715   0.214  1.00  0.00     0.012 A 
ATOM     82  C   UNL     1     -15.261   2.438   1.583  1.00  0.00     0.148 A 
ATOM     83  C   UNL     1     -17.683   1.439   0.575  1.00  0.00     0.002 A 
ATOM     84  C   UNL     1     -15.672   1.147   1.894  1.00  0.00     0.091 A 
ATOM     85  F   UNL     1     -14.123   2.955   2.069  1.00  0.00    -0.205 F 
ATOM     86  C   UNL     1     -16.891   0.652   1.406  1.00  0.00     0.022 A 
BRANCH  84  87
ATOM     87  S   UNL     1     -14.652   0.017   2.849  1.00  0.00     0.127 S 
ATOM     88  O   UNL     1     -15.388  -0.056   4.111  1.00  0.00    -0.237 OA
ATOM     89  O   UNL     1     -14.706  -1.200   2.037  1.00  0.00    -0.237 OA
ATOM     90  O   UNL     1     -13.338   0.633   2.917  1.00  0.00    -0.744 OA
ENDBRANCH  84  87
ENDBRANCH  56  80
BRANCH  68  91
ATOM     91  C   UNL     1     -18.673   9.606   1.828  1.00  0.00     0.023 A 
ATOM     92  C   UNL     1     -18.712   9.546   3.235  1.00  0.00     0.012 A 
ATOM     93  C   UNL     1     -19.760  10.169   1.131  1.00  0.00     0.148 A 
ATOM     94  C   UNL     1     -19.830  10.000   3.935  1.00  0.00     0.002 A 
ATOM     95  C   UNL     1     -20.850  10.665   1.837  1.00  0.00     0.091 A 
ATOM     96  F   UNL     1     -19.716  10.201  -0.209  1.00  0.00    -0.205 F 
ATOM     97  C   UNL     1     -20.893  10.569   3.237  1.00  0.00     0.022 A 
BRANCH  95  98
ATOM     98  S   UNL     1     -22.217  11.500   1.024  1.00  0.00     0.127 S 
ATOM     99  O   UNL     1     -23.246  10.461   1.027  1.00  0.00    -0.237 OA
ATOM    100  O   UNL     1     -22.481  12.622   1.926  1.00  0.00    -0.237 OA
ATOM    101  O   UNL     1     -21.719  11.890  -0.288  1.00  0.00    -0.744 OA
ENDBRANCH  95  98
ENDBRANCH  68  91
ENDBRANCH  42  43
ENDBRANCH  34  37
ENDBRANCH  32  33
ENDBRANCH  31  32
ENDBRANCH   1  31
TORSDOF 17
