REMARK SMILES CC[C@@H](C)N(CC)c1cc(C(=O)NCCCCCCNC(=O)c2ccc(-c3c4nc(c(-c5cccc(S(=O)(=O)[O-])c5F)c5ccc([nH]5)c(-c5cccc(S(=O)(=O)[O-])c5F)c5nc(c(-c6cccc(S(=O)(=O)[O-])c6F)c6ccc3[nH]6)C=C5)C=C4)cc2)c2ccccc2n1
REMARK SMILES IDX 16 1 15 2 14 3 13 4 11 5 12 6 10 8 8 9 9 10 92 11 91 12
REMARK SMILES IDX 86 13 90 14 87 15 89 16 88 17 5 18 3 19 4 20 2 21 1 22 6 23
REMARK SMILES IDX 7 24 17 25 18 26 19 27 20 28 21 29 22 31 23 32 24 33 85 34
REMARK SMILES IDX 25 35 84 36 26 37 27 38 28 39 78 40 29 41 83 42 77 43 79 44
REMARK SMILES IDX 30 45 82 46 76 47 75 48 31 50 63 51 43 52 62 53 44 54 47 55
REMARK SMILES IDX 61 56 80 57 45 58 46 59 60 61 81 62 48 63 32 64 33 65 41 66
REMARK SMILES IDX 34 67 36 68 42 69 35 70 37 71 38 72 39 73 40 74 64 75 65 76
REMARK SMILES IDX 73 77 66 78 68 79 74 80 67 81 69 82 70 83 71 84 72 85 49 86
REMARK SMILES IDX 50 87 58 88 51 89 53 90 59 91 52 92 54 93 55 94 56 95 57 96
REMARK H PARENT 13 7 20 30 79 49 47 60
REMARK Flexibility Score: inf
ROOT
ATOM      1  C   UNL     1      -7.350  -1.696   8.083  1.00  0.00     0.002 C 
ENDROOT
BRANCH   1   2
ATOM      2  C   UNL     1      -6.449  -1.813   6.854  1.00  0.00     0.021 C 
BRANCH   2   3
ATOM      3  C   UNL     1      -5.667  -0.531   6.527  1.00  0.00     0.116 C 
BRANCH   3   4
ATOM      4  N   UNL     1      -4.337  -0.665   7.077  1.00  0.00    -0.352 N 
ATOM      5  C   UNL     1      -3.143  -1.105   6.580  1.00  0.00     0.252 C 
ATOM      6  O   UNL     1      -2.285  -1.360   7.434  1.00  0.00    -0.269 OA
ATOM      7  H   UNL     1      -4.279  -0.375   8.015  1.00  0.00     0.163 HD
BRANCH   5   8
ATOM      8  C   UNL     1      -2.739  -1.162   5.140  1.00  0.00     0.052 A 
ATOM      9  C   UNL     1      -0.790  -0.765   3.740  1.00  0.00     0.130 A 
ATOM     10  C   UNL     1      -1.394  -0.780   4.978  1.00  0.00     0.061 A 
ATOM     11  N   UNL     1      -1.540  -0.977   2.655  1.00  0.00    -0.231 NA
ATOM     12  C   UNL     1      -2.816  -1.356   2.757  1.00  0.00     0.073 A 
ATOM     13  C   UNL     1      -3.468  -1.552   3.989  1.00  0.00     0.013 A 
ATOM     14  C   UNL     1      -3.485  -1.590   1.563  1.00  0.00     0.029 A 
ATOM     15  C   UNL     1      -4.750  -2.150   3.929  1.00  0.00     0.011 A 
ATOM     16  C   UNL     1      -4.797  -2.051   1.531  1.00  0.00     0.002 A 
ATOM     17  C   UNL     1      -5.427  -2.355   2.723  1.00  0.00     0.001 A 
BRANCH   9  18
ATOM     18  N   UNL     1       0.569  -0.525   3.593  1.00  0.00    -0.354 N 
BRANCH  18  19
ATOM     19  C   UNL     1       1.073   0.176   2.390  1.00  0.00     0.080 C 
ATOM     20  C   UNL     1       0.552   1.616   2.391  1.00  0.00     0.031 C 
BRANCH  19  21
ATOM     21  C   UNL     1       0.812  -0.578   1.068  1.00  0.00     0.021 C 
ATOM     22  C   UNL     1       1.510   0.035  -0.139  1.00  0.00     0.006 C 
ENDBRANCH  19  21
ENDBRANCH  18  19
BRANCH  18  23
ATOM     23  C   UNL     1       1.507  -1.360   4.355  1.00  0.00     0.115 C 
ATOM     24  C   UNL     1       1.782  -0.818   5.752  1.00  0.00     0.027 C 
ENDBRANCH  18  23
ENDBRANCH   9  18
ENDBRANCH   5   8
ENDBRANCH   3   4
ENDBRANCH   2   3
ENDBRANCH   1   2
BRANCH   1  25
ATOM     25  C   UNL     1      -8.554  -0.773   7.879  1.00  0.00     0.002 C 
BRANCH  25  26
ATOM     26  C   UNL     1      -9.413  -1.094   6.651  1.00  0.00     0.021 C 
BRANCH  26  27
ATOM     27  C   UNL     1      -9.947  -2.524   6.611  1.00  0.00     0.116 C 
BRANCH  27  28
ATOM     28  N   UNL     1     -10.809  -2.797   7.753  1.00  0.00    -0.352 N 
ATOM     29  C   UNL     1     -12.155  -3.042   7.770  1.00  0.00     0.251 C 
ATOM     30  H   UNL     1     -10.363  -2.808   8.630  1.00  0.00     0.163 HD
ATOM     31  O   UNL     1     -12.786  -2.962   8.829  1.00  0.00    -0.269 OA
BRANCH  29  32
ATOM     32  C   UNL     1     -12.850  -3.403   6.520  1.00  0.00     0.039 A 
ATOM     33  C   UNL     1     -14.071  -2.800   6.212  1.00  0.00     0.014 A 
ATOM     34  C   UNL     1     -12.291  -4.352   5.658  1.00  0.00     0.014 A 
ATOM     35  C   UNL     1     -14.712  -3.115   5.012  1.00  0.00     0.010 A 
ATOM     36  C   UNL     1     -12.894  -4.609   4.432  1.00  0.00     0.010 A 
ATOM     37  C   UNL     1     -14.116  -4.003   4.102  1.00  0.00    -0.014 A 
BRANCH  37  38
ATOM     38  C   UNL     1     -14.746  -4.319   2.796  1.00  0.00     0.031 A 
ATOM     39  C   UNL     1     -15.168  -5.729   2.486  1.00  0.00     0.074 A 
ATOM     40  C   UNL     1     -14.835  -3.362   1.851  1.00  0.00     0.049 A 
ATOM     41  N   UNL     1     -15.635  -6.224   1.369  1.00  0.00    -0.248 NA
ATOM     42  C   UNL     1     -15.012  -6.721   3.563  1.00  0.00     0.031 C 
ATOM     43  C   UNL     1     -14.382  -1.979   2.006  1.00  0.00     0.029 A 
ATOM     44  N   UNL     1     -15.296  -3.419   0.560  1.00  0.00    -0.354 N 
ATOM     45  C   UNL     1     -15.791  -7.586   1.595  1.00  0.00     0.074 A 
ATOM     46  C   UNL     1     -15.335  -7.846   2.943  1.00  0.00     0.031 C 
ATOM     47  C   UNL     1     -14.574  -1.322   0.851  1.00  0.00     0.029 A 
ATOM     48  C   UNL     1     -15.133  -2.244  -0.134  1.00  0.00     0.049 A 
ATOM     49  H   UNL     1     -15.706  -4.225   0.169  1.00  0.00     0.167 HD
ATOM     50  C   UNL     1     -16.296  -8.531   0.767  1.00  0.00     0.034 A 
ATOM     51  C   UNL     1     -15.384  -1.946  -1.424  1.00  0.00     0.034 A 
ATOM     52  C   UNL     1     -16.783  -8.258  -0.558  1.00  0.00     0.049 A 
ATOM     53  C   UNL     1     -15.983  -2.999  -2.314  1.00  0.00     0.074 A 
ATOM     54  C   UNL     1     -17.399  -9.124  -1.444  1.00  0.00     0.029 A 
ATOM     55  N   UNL     1     -16.700  -7.029  -1.193  1.00  0.00    -0.354 N 
ATOM     56  N   UNL     1     -16.276  -4.246  -2.032  1.00  0.00    -0.248 NA
ATOM     57  C   UNL     1     -16.321  -2.599  -3.688  1.00  0.00     0.031 C 
ATOM     58  C   UNL     1     -17.664  -8.424  -2.625  1.00  0.00     0.029 A 
ATOM     59  C   UNL     1     -17.242  -7.114  -2.464  1.00  0.00     0.049 A 
ATOM     60  H   UNL     1     -16.312  -6.214  -0.798  1.00  0.00     0.167 HD
ATOM     61  C   UNL     1     -16.862  -4.769  -3.179  1.00  0.00     0.074 A 
ATOM     62  C   UNL     1     -16.898  -3.699  -4.154  1.00  0.00     0.031 C 
ATOM     63  C   UNL     1     -17.317  -6.026  -3.406  1.00  0.00     0.034 A 
BRANCH  50  64
ATOM     64  C   UNL     1     -16.389  -9.941   1.292  1.00  0.00     0.023 A 
ATOM     65  C   UNL     1     -17.318 -10.245   2.309  1.00  0.00     0.012 A 
ATOM     66  C   UNL     1     -15.589 -10.970   0.759  1.00  0.00     0.148 A 
ATOM     67  C   UNL     1     -17.418 -11.539   2.819  1.00  0.00     0.002 A 
ATOM     68  C   UNL     1     -15.728 -12.268   1.240  1.00  0.00     0.091 A 
ATOM     69  F   UNL     1     -14.696 -10.662  -0.191  1.00  0.00    -0.205 F 
ATOM     70  C   UNL     1     -16.630 -12.551   2.278  1.00  0.00     0.022 A 
BRANCH  68  71
ATOM     71  S   UNL     1     -14.817 -13.655   0.552  1.00  0.00     0.127 S 
ATOM     72  O   UNL     1     -13.842 -13.921   1.608  1.00  0.00    -0.237 OA
ATOM     73  O   UNL     1     -15.861 -14.673   0.416  1.00  0.00    -0.237 OA
ATOM     74  O   UNL     1     -14.264 -13.184  -0.710  1.00  0.00    -0.744 OA
ENDBRANCH  68  71
ENDBRANCH  50  64
BRANCH  51  75
ATOM     75  C   UNL     1     -15.111  -0.570  -1.927  1.00  0.00     0.023 A 
ATOM     76  C   UNL     1     -16.187   0.288  -2.225  1.00  0.00     0.012 A 
ATOM     77  C   UNL     1     -13.793  -0.092  -2.061  1.00  0.00     0.148 A 
ATOM     78  C   UNL     1     -15.955   1.589  -2.671  1.00  0.00     0.002 A 
ATOM     79  C   UNL     1     -13.569   1.222  -2.451  1.00  0.00     0.091 A 
ATOM     80  F   UNL     1     -12.783  -0.929  -1.780  1.00  0.00    -0.205 F 
ATOM     81  C   UNL     1     -14.648   2.060  -2.773  1.00  0.00     0.022 A 
BRANCH  79  82
ATOM     82  S   UNL     1     -11.929   1.954  -2.475  1.00  0.00     0.127 S 
ATOM     83  O   UNL     1     -11.702   2.134  -3.906  1.00  0.00    -0.237 OA
ATOM     84  O   UNL     1     -12.141   3.192  -1.723  1.00  0.00    -0.237 OA
ATOM     85  O   UNL     1     -11.058   0.993  -1.812  1.00  0.00    -0.744 OA
ENDBRANCH  79  82
ENDBRANCH  51  75
BRANCH  63  86
ATOM     86  C   UNL     1     -17.933  -6.317  -4.750  1.00  0.00     0.023 A 
ATOM     87  C   UNL     1     -17.111  -6.435  -5.888  1.00  0.00     0.012 A 
ATOM     88  C   UNL     1     -19.314  -6.570  -4.863  1.00  0.00     0.148 A 
ATOM     89  C   UNL     1     -17.660  -6.775  -7.124  1.00  0.00     0.002 A 
ATOM     90  C   UNL     1     -19.846  -6.957  -6.087  1.00  0.00     0.091 A 
ATOM     91  F   UNL     1     -20.080  -6.435  -3.770  1.00  0.00    -0.205 F 
ATOM     92  C   UNL     1     -19.022  -7.049  -7.221  1.00  0.00     0.022 A 
BRANCH  90  93
ATOM     93  S   UNL     1     -21.569  -7.424  -6.286  1.00  0.00     0.127 S 
ATOM     94  O   UNL     1     -22.087  -6.317  -7.088  1.00  0.00    -0.237 OA
ATOM     95  O   UNL     1     -21.462  -8.697  -7.000  1.00  0.00    -0.237 OA
ATOM     96  O   UNL     1     -22.117  -7.529  -4.941  1.00  0.00    -0.744 OA
ENDBRANCH  90  93
ENDBRANCH  63  86
ENDBRANCH  37  38
ENDBRANCH  29  32
ENDBRANCH  27  28
ENDBRANCH  26  27
ENDBRANCH  25  26
ENDBRANCH   1  25
TORSDOF 20
