REMARK SMILES O=C(NCCCCCCNC(=O)[C@@H](CCCCl)[P@TB4](=O)(c1ccccc1)c1ccccc1)c1ccc(-c2c3nc(c(-c4cccc(S(=O)(=O)[O-])c4F)c4ccc([nH]4)c(-c4cccc(S(=O)(=O)[O-])c4F)c4nc(c(-c5cccc(S(=O)(=O)[O-])c5F)c5ccc2[nH]5)C=C4)C=C3)cc1
REMARK SMILES IDX 6 1 5 2 4 3 3 4 1 5 2 6 32 8 33 9 94 10 34 11 93 12 35 13
REMARK SMILES IDX 36 14 37 15 87 16 38 17 92 18 86 19 88 20 39 21 91 22 85 23
REMARK SMILES IDX 84 24 40 26 72 27 52 28 71 29 53 30 56 31 70 32 89 33 54 34
REMARK SMILES IDX 55 35 69 37 90 38 57 39 41 40 42 41 50 42 43 43 45 44 51 45
REMARK SMILES IDX 44 46 46 47 47 48 48 49 49 50 73 51 74 52 82 53 75 54 77 55
REMARK SMILES IDX 83 56 76 57 78 58 79 59 80 60 81 61 58 62 59 63 67 64 60 65
REMARK SMILES IDX 62 66 68 67 61 68 63 69 64 70 65 71 66 72 7 73 8 74 9 75
REMARK SMILES IDX 10 76 11 77 12 79 13 80 14 81 15 82 16 83 17 84 18 85 19 86
REMARK SMILES IDX 20 87 21 88 25 89 22 90 24 91 23 92 26 93 27 94 31 95 28 96
REMARK SMILES IDX 30 97 29 98
REMARK H PARENT 3 7 88 25 56 36 10 78
REMARK Flexibility Score: inf
ROOT
ATOM      1  C   UNL     1       3.594  -1.539  -3.780  1.00  0.00       nan C 
ENDROOT
BRANCH   1   2
ATOM      2  C   UNL     1       4.311  -1.437  -2.435  1.00  0.00       nan C 
BRANCH   2   3
ATOM      3  C   UNL     1       4.123  -0.160  -1.625  1.00  0.00       nan C 
BRANCH   3   4
ATOM      4  N   UNL     1       2.743   0.071  -1.249  1.00  0.00       nan N 
ATOM      5  O   UNL     1       0.934   0.221   0.064  1.00  0.00       inf OA
ATOM      6  C   UNL     1       2.161   0.193  -0.010  1.00  0.00       nan C 
ATOM      7  H   UNL     1       2.119   0.154  -2.006  1.00  0.00       nan HD
BRANCH   6   8
ATOM      8  C   UNL     1       2.976   0.273   1.228  1.00  0.00       inf A 
ATOM      9  C   UNL     1       4.152   1.024   1.289  1.00  0.00     0.014 A 
ATOM     10  C   UNL     1       2.508  -0.363   2.385  1.00  0.00     0.014 A 
ATOM     11  C   UNL     1       4.912   1.045   2.460  1.00  0.00     0.010 A 
ATOM     12  C   UNL     1       3.231  -0.277   3.581  1.00  0.00     0.010 A 
ATOM     13  C   UNL     1       4.452   0.410   3.626  1.00  0.00    -0.014 A 
BRANCH  13  14
ATOM     14  C   UNL     1       5.213   0.559   4.897  1.00  0.00     0.031 A 
ATOM     15  C   UNL     1       5.825  -0.627   5.592  1.00  0.00     0.074 A 
ATOM     16  C   UNL     1       5.331   1.787   5.441  1.00  0.00     0.049 A 
ATOM     17  N   UNL     1       6.535  -0.658   6.692  1.00  0.00    -0.248 NA
ATOM     18  C   UNL     1       5.611  -1.949   4.983  1.00  0.00     0.031 C 
ATOM     19  C   UNL     1       4.730   3.007   4.898  1.00  0.00     0.029 A 
ATOM     20  N   UNL     1       5.982   2.214   6.572  1.00  0.00    -0.354 N 
ATOM     21  C   UNL     1       6.821  -1.998   6.929  1.00  0.00     0.074 A 
ATOM     22  C   UNL     1       6.202  -2.752   5.860  1.00  0.00     0.031 C 
ATOM     23  C   UNL     1       5.052   4.045   5.683  1.00  0.00     0.029 A 
ATOM     24  C   UNL     1       5.840   3.562   6.811  1.00  0.00     0.049 A 
ATOM     25  H   UNL     1       6.501   1.615   7.155  1.00  0.00     0.167 HD
ATOM     26  C   UNL     1       7.543  -2.547   7.937  1.00  0.00     0.034 A 
ATOM     27  C   UNL     1       6.274   4.325   7.832  1.00  0.00     0.034 A 
ATOM     28  C   UNL     1       8.178  -1.791   8.985  1.00  0.00     0.049 A 
ATOM     29  C   UNL     1       7.095   3.693   8.920  1.00  0.00     0.074 A 
ATOM     30  C   UNL     1       8.994  -2.253  10.004  1.00  0.00     0.029 A 
ATOM     31  N   UNL     1       8.058  -0.421   9.163  1.00  0.00    -0.354 N 
ATOM     32  N   UNL     1       7.478   2.446   9.042  1.00  0.00    -0.248 NA
ATOM     33  C   UNL     1       7.570   4.577   9.993  1.00  0.00     0.031 C 
ATOM     34  C   UNL     1       9.342  -1.167  10.815  1.00  0.00     0.029 A 
ATOM     35  C   UNL     1       8.772  -0.023  10.282  1.00  0.00     0.049 A 
ATOM     36  H   UNL     1       7.542   0.181   8.579  1.00  0.00     0.167 HD
ATOM     37  C   UNL     1       8.260   2.399  10.190  1.00  0.00     0.074 A 
ATOM     38  C   UNL     1       8.318   3.750  10.710  1.00  0.00     0.031 C 
ATOM     39  C   UNL     1       8.861   1.331  10.768  1.00  0.00     0.034 A 
BRANCH  26  40
ATOM     40  C   UNL     1       7.720  -4.045   7.945  1.00  0.00     0.023 A 
ATOM     41  C   UNL     1       8.581  -4.650   7.008  1.00  0.00     0.012 A 
ATOM     42  C   UNL     1       7.105  -4.841   8.932  1.00  0.00     0.148 A 
ATOM     43  C   UNL     1       8.805  -6.027   7.033  1.00  0.00     0.002 A 
ATOM     44  C   UNL     1       7.365  -6.206   8.977  1.00  0.00     0.091 A 
ATOM     45  F   UNL     1       6.277  -4.251   9.805  1.00  0.00    -0.205 F 
ATOM     46  C   UNL     1       8.207  -6.802   8.023  1.00  0.00     0.022 A 
BRANCH  44  47
ATOM     47  S   UNL     1       6.706  -7.280  10.258  1.00  0.00     0.127 S 
ATOM     48  O   UNL     1       5.735  -8.073   9.507  1.00  0.00    -0.237 OA
ATOM     49  O   UNL     1       7.895  -8.017  10.684  1.00  0.00    -0.237 OA
ATOM     50  O   UNL     1       6.142  -6.397  11.271  1.00  0.00    -0.744 OA
ENDBRANCH  44  47
ENDBRANCH  26  40
BRANCH  27  51
ATOM     51  C   UNL     1       5.967   5.783   7.846  1.00  0.00     0.023 A 
ATOM     52  C   UNL     1       7.003   6.715   7.645  1.00  0.00     0.012 A 
ATOM     53  C   UNL     1       4.647   6.246   8.009  1.00  0.00     0.148 A 
ATOM     54  C   UNL     1       6.732   8.084   7.632  1.00  0.00     0.002 A 
ATOM     55  C   UNL     1       4.376   7.606   7.934  1.00  0.00     0.091 A 
ATOM     56  F   UNL     1       3.678   5.342   8.213  1.00  0.00    -0.205 F 
ATOM     57  C   UNL     1       5.419   8.529   7.764  1.00  0.00     0.022 A 
BRANCH  55  58
ATOM     58  S   UNL     1       2.701   8.254   7.947  1.00  0.00     0.127 S 
ATOM     59  O   UNL     1       2.641   8.900   9.255  1.00  0.00    -0.237 OA
ATOM     60  O   UNL     1       2.723   9.170   6.806  1.00  0.00    -0.237 OA
ATOM     61  O   UNL     1       1.832   7.098   7.771  1.00  0.00    -0.744 OA
ENDBRANCH  55  58
ENDBRANCH  27  51
BRANCH  39  62
ATOM     62  C   UNL     1       9.665   1.577  12.018  1.00  0.00     0.023 A 
ATOM     63  C   UNL     1       9.008   1.873  13.229  1.00  0.00     0.012 A 
ATOM     64  C   UNL     1      11.068   1.456  12.005  1.00  0.00     0.148 A 
ATOM     65  C   UNL     1       9.737   2.079  14.400  1.00  0.00     0.002 A 
ATOM     66  C   UNL     1      11.784   1.612  13.186  1.00  0.00     0.091 A 
ATOM     67  F   UNL     1      11.677   1.194  10.839  1.00  0.00    -0.205 F 
ATOM     68  C   UNL     1      11.122   1.936  14.381  1.00  0.00     0.022 A 
BRANCH  66  69
ATOM     69  S   UNL     1      13.560   1.353  13.274  1.00  0.00     0.127 S 
ATOM     70  O   UNL     1      14.053   2.722  13.421  1.00  0.00    -0.237 OA
ATOM     71  O   UNL     1      13.694   0.525  14.473  1.00  0.00    -0.237 OA
ATOM     72  O   UNL     1      13.930   0.684  12.034  1.00  0.00    -0.744 OA
ENDBRANCH  66  69
ENDBRANCH  39  62
ENDBRANCH  13  14
ENDBRANCH   6   8
ENDBRANCH   3   4
ENDBRANCH   2   3
ENDBRANCH   1   2
BRANCH   1  73
ATOM     73  C   UNL     1       3.866  -0.432  -4.809  1.00  0.00       nan C 
BRANCH  73  74
ATOM     74  C   UNL     1       5.322  -0.034  -5.083  1.00  0.00       nan C 
BRANCH  74  75
ATOM     75  C   UNL     1       6.295  -1.141  -5.458  1.00  0.00       nan C 
BRANCH  75  76
ATOM     76  N   UNL     1       6.422  -1.484  -6.848  1.00  0.00       nan N 
ATOM     77  C   UNL     1       7.494  -2.063  -7.460  1.00  0.00       nan C 
ATOM     78  H   UNL     1       5.649  -1.277  -7.422  1.00  0.00       nan HD
ATOM     79  O   UNL     1       7.268  -2.584  -8.560  1.00  0.00       nan OA
BRANCH  77  80
ATOM     80  C   UNL     1       8.927  -2.057  -6.906  1.00  0.00       nan C 
BRANCH  80  81
ATOM     81  C   UNL     1       9.726  -0.737  -7.135  1.00  0.00       nan C 
BRANCH  81  82
ATOM     82  C   UNL     1      10.061   0.272  -6.028  1.00  0.00       nan C 
BRANCH  82  83
ATOM     83  C   UNL     1      11.283  -0.012  -5.135  1.00  0.00       nan C 
ATOM     84  Cl  UNL     1      12.825   0.203  -5.989  1.00  0.00       nan Cl
ENDBRANCH  82  83
ENDBRANCH  81  82
ENDBRANCH  80  81
BRANCH  80  85
ATOM     85  P   UNL     1       9.369  -3.416  -5.763  1.00  0.00       nan P 
ATOM     86  O   UNL     1      10.839  -2.951  -5.803  1.00  0.00       nan OA
BRANCH  85  87
ATOM     87  C   UNL     1       8.419  -2.723  -4.078  1.00  0.00       nan A 
ATOM     88  C   UNL     1       8.807  -1.552  -3.416  1.00  0.00       nan A 
ATOM     89  C   UNL     1       7.578  -3.617  -3.366  1.00  0.00       nan A 
ATOM     90  C   UNL     1       8.389  -1.264  -2.112  1.00  0.00       nan A 
ATOM     91  C   UNL     1       7.248  -3.375  -2.024  1.00  0.00       nan A 
ATOM     92  C   UNL     1       7.650  -2.197  -1.399  1.00  0.00       nan A 
ENDBRANCH  85  87
BRANCH  85  93
ATOM     93  C   UNL     1       9.811  -4.775  -4.620  1.00  0.00       nan A 
ATOM     94  C   UNL     1       9.412  -6.067  -5.021  1.00  0.00       nan A 
ATOM     95  C   UNL     1      10.538  -4.646  -3.423  1.00  0.00       nan A 
ATOM     96  C   UNL     1       9.644  -7.174  -4.204  1.00  0.00       nan A 
ATOM     97  C   UNL     1      10.735  -5.750  -2.590  1.00  0.00       nan A 
ATOM     98  C   UNL     1      10.280  -7.010  -2.976  1.00  0.00       nan A 
ENDBRANCH  85  93
ENDBRANCH  80  85
ENDBRANCH  77  80
ENDBRANCH  75  76
ENDBRANCH  74  75
ENDBRANCH  73  74
ENDBRANCH   1  73
TORSDOF 22
