REMARK SMILES CC(C)[C@H]1CC[C@@H](C)/C(=C/c2ccc(NC(=O)CCC(=O)NCCCCCCNC(=O)c3ccc(-c4c5nc(c(-c6cccc(S(=O)(=O)[O-])c6F)c6ccc([nH]6)c(-c6cccc(S(=O)(=O)[O-])c6F)c6nc(c(-c7cccc(S(=O)(=O)[O-])c7F)c7ccc4[nH]7)C=C6)C=C5)cc3)cc2)C1=O
REMARK SMILES IDX 24 1 23 2 22 3 20 4 21 5 19 7 18 8 16 9 15 10 17 12 14 13
REMARK SMILES IDX 11 14 12 15 96 16 13 17 95 18 10 19 4 20 5 21 97 22 6 23
REMARK SMILES IDX 9 24 98 25 7 26 8 27 2 28 1 29 3 30 25 31 26 32 27 33 28 34
REMARK SMILES IDX 29 35 30 36 31 38 32 39 33 40 94 41 34 42 93 43 35 44 36 45
REMARK SMILES IDX 37 46 87 47 38 48 92 49 86 50 88 51 39 52 91 53 85 54 84 55
REMARK SMILES IDX 40 57 72 58 52 59 71 60 53 61 56 62 70 63 89 64 54 65 55 66
REMARK SMILES IDX 69 68 90 69 57 70 41 71 42 72 50 73 43 74 45 75 51 76 44 77
REMARK SMILES IDX 46 78 47 79 48 80 49 81 73 82 74 83 82 84 75 85 77 86 83 87
REMARK SMILES IDX 76 88 78 89 79 90 80 91 81 92 58 93 59 94 67 95 60 96 62 97
REMARK SMILES IDX 68 98 61 99 63 100 64 101 65 102 66 103
REMARK H PARENT 22 6 15 11 29 37 88 56 56 67
REMARK Flexibility Score: inf
ROOT
ATOM      1  C   UNL     1       3.481   4.614   3.303  1.00  0.00     0.021 C 
ENDROOT
BRANCH   1   2
ATOM      2  C   UNL     1       4.046   5.258   2.040  1.00  0.00     0.116 C 
BRANCH   2   3
ATOM      3  N   UNL     1       3.368   4.817   0.834  1.00  0.00    -0.356 N 
ATOM      4  C   UNL     1       2.774   5.548  -0.148  1.00  0.00     0.220 C 
ATOM      5  O   UNL     1       2.356   4.967  -1.151  1.00  0.00    -0.275 OA
ATOM      6  H   UNL     1       3.333   3.841   0.708  1.00  0.00     0.163 HD
BRANCH   4   7
ATOM      7  C   UNL     1       2.661   7.050  -0.014  1.00  0.00     0.110 C 
BRANCH   7   8
ATOM      8  C   UNL     1       1.377   7.569   0.622  1.00  0.00     0.110 C 
BRANCH   8   9
ATOM      9  C   UNL     1       1.085   7.092   2.028  1.00  0.00     0.224 C 
ATOM     10  N   UNL     1       0.406   5.938   2.292  1.00  0.00    -0.326 N 
ATOM     11  H   UNL     1       0.167   5.800   3.237  1.00  0.00     0.169 HD
ATOM     12  O   UNL     1       1.535   7.721   2.991  1.00  0.00    -0.275 OA
BRANCH  10  13
ATOM     13  C   UNL     1      -0.000   4.922   1.421  1.00  0.00     0.041 A 
ATOM     14  C   UNL     1      -0.476   2.799  -0.338  1.00  0.00    -0.025 A 
ATOM     15  C   UNL     1      -0.882   4.096  -0.665  1.00  0.00     0.010 A 
ATOM     16  C   UNL     1       0.152   2.569   0.888  1.00  0.00     0.010 A 
ATOM     17  C   UNL     1      -0.647   5.153   0.214  1.00  0.00     0.027 A 
ATOM     18  C   UNL     1       0.321   3.614   1.790  1.00  0.00     0.027 A 
BRANCH  14  19
ATOM     19  C   UNL     1      -0.757   1.720  -1.284  1.00  0.00     0.015 C 
ATOM     20  C   UNL     1      -1.147  -1.079   0.950  1.00  0.00     0.063 C 
ATOM     21  C   UNL     1      -1.497  -2.203  -0.043  1.00  0.00     0.013 C 
ATOM     22  C   UNL     1      -1.774   0.211   0.426  1.00  0.00     0.162 C 
ATOM     23  C   UNL     1      -1.123  -1.848  -1.492  1.00  0.00     0.009 C 
ATOM     24  C   UNL     1      -1.368   0.565  -0.972  1.00  0.00    -0.001 C 
ATOM     25  O   UNL     1      -2.561   0.912   1.052  1.00  0.00    -0.294 OA
ATOM     26  C   UNL     1      -1.710  -0.507  -1.967  1.00  0.00     0.020 C 
ATOM     27  C   UNL     1      -3.233  -0.555  -2.174  1.00  0.00     0.013 C 
BRANCH  20  28
ATOM     28  C   UNL     1      -1.512  -1.348   2.441  1.00  0.00    -0.007 C 
ATOM     29  C   UNL     1      -2.493  -2.501   2.662  1.00  0.00     0.008 C 
ATOM     30  C   UNL     1      -0.245  -1.587   3.271  1.00  0.00     0.008 C 
ENDBRANCH  20  28
ENDBRANCH  14  19
ENDBRANCH  10  13
ENDBRANCH   8   9
ENDBRANCH   7   8
ENDBRANCH   4   7
ENDBRANCH   2   3
ENDBRANCH   1   2
BRANCH   1  31
ATOM     31  C   UNL     1       3.573   3.086   3.351  1.00  0.00     0.002 C 
BRANCH  31  32
ATOM     32  C   UNL     1       4.996   2.537   3.418  1.00  0.00     0.002 C 
BRANCH  32  33
ATOM     33  C   UNL     1       5.847   3.119   4.545  1.00  0.00     0.021 C 
BRANCH  33  34
ATOM     34  C   UNL     1       5.192   3.073   5.920  1.00  0.00     0.116 C 
BRANCH  34  35
ATOM     35  N   UNL     1       4.877   1.715   6.330  1.00  0.00    -0.352 N 
ATOM     36  C   UNL     1       5.183   1.100   7.520  1.00  0.00     0.251 C 
ATOM     37  H   UNL     1       4.385   1.169   5.676  1.00  0.00     0.163 HD
ATOM     38  O   UNL     1       5.030  -0.103   7.660  1.00  0.00    -0.269 OA
BRANCH  36  39
ATOM     39  C   UNL     1       5.713   1.930   8.619  1.00  0.00     0.039 A 
ATOM     40  C   UNL     1       6.878   1.529   9.272  1.00  0.00     0.014 A 
ATOM     41  C   UNL     1       5.068   3.121   8.970  1.00  0.00     0.014 A 
ATOM     42  C   UNL     1       7.407   2.337  10.277  1.00  0.00     0.010 A 
ATOM     43  C   UNL     1       5.647   3.966   9.908  1.00  0.00     0.010 A 
ATOM     44  C   UNL     1       6.800   3.564  10.598  1.00  0.00    -0.014 A 
BRANCH  44  45
ATOM     45  C   UNL     1       7.330   4.403  11.700  1.00  0.00     0.031 A 
ATOM     46  C   UNL     1       6.486   4.652  12.922  1.00  0.00     0.074 A 
ATOM     47  C   UNL     1       8.550   4.963  11.588  1.00  0.00     0.049 A 
ATOM     48  N   UNL     1       6.784   5.319  14.006  1.00  0.00    -0.248 NA
ATOM     49  C   UNL     1       5.118   4.104  12.917  1.00  0.00     0.031 C 
ATOM     50  C   UNL     1       9.423   4.865  10.416  1.00  0.00     0.029 A 
ATOM     51  N   UNL     1       9.264   5.732  12.471  1.00  0.00    -0.354 N 
ATOM     52  C   UNL     1       5.637   5.297  14.792  1.00  0.00     0.074 A 
ATOM     53  C   UNL     1       4.621   4.597  14.040  1.00  0.00     0.031 C 
ATOM     54  C   UNL     1      10.563   5.530  10.662  1.00  0.00     0.029 A 
ATOM     55  C   UNL     1      10.495   6.117  11.996  1.00  0.00     0.049 A 
ATOM     56  H   UNL     1       8.926   5.984  13.361  1.00  0.00     0.167 HD
ATOM     57  C   UNL     1       5.455   5.780  16.043  1.00  0.00     0.034 A 
ATOM     58  C   UNL     1      11.461   6.854  12.578  1.00  0.00     0.034 A 
ATOM     59  C   UNL     1       6.482   6.442  16.799  1.00  0.00     0.049 A 
ATOM     60  C   UNL     1      11.256   7.333  13.990  1.00  0.00     0.074 A 
ATOM     61  C   UNL     1       6.432   6.903  18.102  1.00  0.00     0.029 A 
ATOM     62  N   UNL     1       7.745   6.745  16.314  1.00  0.00    -0.354 N 
ATOM     63  N   UNL     1      10.220   7.165  14.777  1.00  0.00    -0.248 NA
ATOM     64  C   UNL     1      12.371   8.059  14.611  1.00  0.00     0.031 C 
ATOM     65  C   UNL     1       7.656   7.513  18.395  1.00  0.00     0.029 A 
ATOM     66  C   UNL     1       8.484   7.391  17.290  1.00  0.00     0.049 A 
ATOM     67  H   UNL     1       8.069   6.532  15.409  1.00  0.00     0.167 HD
ATOM     68  C   UNL     1      10.576   7.724  15.999  1.00  0.00     0.074 A 
ATOM     69  C   UNL     1      11.931   8.216  15.851  1.00  0.00     0.031 C 
ATOM     70  C   UNL     1       9.847   7.830  17.139  1.00  0.00     0.034 A 
BRANCH  57  71
ATOM     71  C   UNL     1       4.106   5.570  16.683  1.00  0.00     0.023 A 
ATOM     72  C   UNL     1       3.698   4.269  17.047  1.00  0.00     0.012 A 
ATOM     73  C   UNL     1       3.259   6.660  16.961  1.00  0.00     0.148 A 
ATOM     74  C   UNL     1       2.452   4.051  17.634  1.00  0.00     0.002 A 
ATOM     75  C   UNL     1       2.041   6.441  17.594  1.00  0.00     0.091 A 
ATOM     76  F   UNL     1       3.652   7.886  16.589  1.00  0.00    -0.205 F 
ATOM     77  C   UNL     1       1.630   5.137  17.918  1.00  0.00     0.022 A 
BRANCH  75  78
ATOM     78  S   UNL     1       0.947   7.779  18.080  1.00  0.00     0.127 S 
ATOM     79  O   UNL     1      -0.183   7.581  17.173  1.00  0.00    -0.237 OA
ATOM     80  O   UNL     1       0.670   7.455  19.480  1.00  0.00    -0.237 OA
ATOM     81  O   UNL     1       1.700   9.009  17.879  1.00  0.00    -0.744 OA
ENDBRANCH  75  78
ENDBRANCH  57  71
BRANCH  58  82
ATOM     82  C   UNL     1      12.739   7.116  11.856  1.00  0.00     0.023 A 
ATOM     83  C   UNL     1      13.928   6.506  12.302  1.00  0.00     0.012 A 
ATOM     84  C   UNL     1      12.778   7.949  10.723  1.00  0.00     0.148 A 
ATOM     85  C   UNL     1      15.141   6.755  11.658  1.00  0.00     0.002 A 
ATOM     86  C   UNL     1      13.979   8.148  10.051  1.00  0.00     0.091 A 
ATOM     87  F   UNL     1      11.637   8.524  10.318  1.00  0.00    -0.205 F 
ATOM     88  C   UNL     1      15.165   7.568  10.528  1.00  0.00     0.022 A 
BRANCH  86  89
ATOM     89  S   UNL     1      14.082   9.072   8.514  1.00  0.00     0.127 S 
ATOM     90  O   UNL     1      14.829  10.257   8.928  1.00  0.00    -0.237 OA
ATOM     91  O   UNL     1      14.820   8.145   7.656  1.00  0.00    -0.237 OA
ATOM     92  O   UNL     1      12.705   9.305   8.101  1.00  0.00    -0.744 OA
ENDBRANCH  86  89
ENDBRANCH  58  82
BRANCH  70  93
ATOM     93  C   UNL     1      10.518   8.452  18.336  1.00  0.00     0.023 A 
ATOM     94  C   UNL     1      10.813   9.829  18.351  1.00  0.00     0.012 A 
ATOM     95  C   UNL     1      10.810   7.670  19.472  1.00  0.00     0.148 A 
ATOM     96  C   UNL     1      11.435  10.408  19.456  1.00  0.00     0.002 A 
ATOM     97  C   UNL     1      11.377   8.266  20.591  1.00  0.00     0.091 A 
ATOM     98  F   UNL     1      10.538   6.357  19.434  1.00  0.00    -0.205 F 
ATOM     99  C   UNL     1      11.707   9.630  20.579  1.00  0.00     0.022 A 
BRANCH  97 100
ATOM    100  S   UNL     1      11.662   7.360  22.116  1.00  0.00     0.127 S 
ATOM    101  O   UNL     1      13.111   7.176  22.086  1.00  0.00    -0.237 OA
ATOM    102  O   UNL     1      11.187   8.302  23.130  1.00  0.00    -0.237 OA
ATOM    103  O   UNL     1      10.871   6.141  22.010  1.00  0.00    -0.744 OA
ENDBRANCH  97 100
ENDBRANCH  70  93
ENDBRANCH  44  45
ENDBRANCH  36  39
ENDBRANCH  34  35
ENDBRANCH  33  34
ENDBRANCH  32  33
ENDBRANCH  31  32
ENDBRANCH   1  31
TORSDOF 21
