REMARK SMILES C[C@@H]1c2ccccc2-c2ccc(C(=O)NCCCCCCNC(=O)c3ccc(-c4c5nc(c(-c6cccc(S(=O)(=O)[O-])c6F)c6ccc([nH]6)c(-c6cccc(S(=O)(=O)[O-])c6F)c6nc(c(-c7cccc(S(=O)(=O)[O-])c7F)c7ccc4[nH]7)C=C6)C=C5)cc3)cc21
REMARK SMILES IDX 20 1 19 2 18 3 17 4 16 5 15 6 13 7 14 8 12 10 1 11 2 12 3 13
REMARK SMILES IDX 89 14 4 15 8 16 9 17 88 18 5 19 7 20 10 21 6 22 11 23 21 24
REMARK SMILES IDX 22 25 23 26 24 28 25 29 26 30 87 31 27 32 86 33 28 34 29 35
REMARK SMILES IDX 30 36 80 37 31 38 85 39 79 40 81 41 32 42 84 43 78 44 77 45
REMARK SMILES IDX 33 47 65 48 45 49 64 50 46 51 49 52 63 53 82 54 47 55 48 56
REMARK SMILES IDX 62 58 83 59 50 60 34 61 35 62 43 63 36 64 38 65 44 66 37 67
REMARK SMILES IDX 39 68 40 69 41 70 42 71 66 72 67 73 75 74 68 75 70 76 76 77
REMARK SMILES IDX 69 78 71 79 72 80 73 81 74 82 51 83 52 84 60 85 53 86 55 87
REMARK SMILES IDX 61 88 54 89 56 90 57 91 58 92 59 93
REMARK H PARENT 15 9 22 27 81 46 49 57
REMARK Flexibility Score: inf
ROOT
ATOM      1  C   UNL     1      -5.827  -6.143   0.657  1.00  0.00     0.021 C 
ENDROOT
BRANCH   1   2
ATOM      2  C   UNL     1      -6.804  -4.965   0.720  1.00  0.00     0.002 C 
BRANCH   2   3
ATOM      3  C   UNL     1      -6.386  -3.831   1.665  1.00  0.00     0.002 C 
BRANCH   3   4
ATOM      4  C   UNL     1      -4.991  -3.251   1.389  1.00  0.00     0.021 C 
BRANCH   4   5
ATOM      5  C   UNL     1      -4.883  -2.602   0.006  1.00  0.00     0.116 C 
BRANCH   5   6
ATOM      6  N   UNL     1      -5.371  -1.237   0.059  1.00  0.00    -0.352 N 
ATOM      7  C   UNL     1      -4.754  -0.019   0.165  1.00  0.00     0.251 C 
ATOM      8  O   UNL     1      -5.488   0.972   0.204  1.00  0.00    -0.269 OA
ATOM      9  H   UNL     1      -6.353  -1.173   0.007  1.00  0.00     0.163 HD
BRANCH   7  10
ATOM     10  C   UNL     1      -3.272   0.179   0.181  1.00  0.00     0.040 A 
ATOM     11  C   UNL     1       0.230  -2.283   1.740  1.00  0.00     0.018 C 
ATOM     12  C   UNL     1       0.198  -1.482   0.447  1.00  0.00     0.047 C 
ATOM     13  C   UNL     1       1.376  -0.536   0.266  1.00  0.00    -0.033 A 
ATOM     14  C   UNL     1      -0.982  -0.522   0.350  1.00  0.00    -0.032 A 
ATOM     15  C   UNL     1       2.729  -0.831   0.292  1.00  0.00     0.005 A 
ATOM     16  C   UNL     1       0.914   0.773   0.004  1.00  0.00    -0.014 A 
ATOM     17  C   UNL     1      -0.533   0.772   0.024  1.00  0.00    -0.014 A 
ATOM     18  C   UNL     1      -2.334  -0.809   0.492  1.00  0.00     0.018 A 
ATOM     19  C   UNL     1       3.633   0.210   0.077  1.00  0.00     0.000 A 
ATOM     20  C   UNL     1       1.812   1.806  -0.208  1.00  0.00     0.009 A 
ATOM     21  C   UNL     1      -1.443   1.784  -0.214  1.00  0.00     0.010 A 
ATOM     22  C   UNL     1       3.180   1.518  -0.167  1.00  0.00     0.001 A 
ATOM     23  C   UNL     1      -2.809   1.476  -0.153  1.00  0.00     0.014 A 
ENDBRANCH   7  10
ENDBRANCH   5   6
ENDBRANCH   4   5
ENDBRANCH   3   4
ENDBRANCH   2   3
ENDBRANCH   1   2
BRANCH   1  24
ATOM     24  C   UNL     1      -5.644  -6.870   1.985  1.00  0.00     0.116 C 
BRANCH  24  25
ATOM     25  N   UNL     1      -6.889  -7.477   2.433  1.00  0.00    -0.352 N 
ATOM     26  C   UNL     1      -7.162  -8.794   2.702  1.00  0.00     0.251 C 
ATOM     27  H   UNL     1      -7.641  -6.855   2.561  1.00  0.00     0.163 HD
ATOM     28  O   UNL     1      -8.324  -9.170   2.817  1.00  0.00    -0.269 OA
BRANCH  26  29
ATOM     29  C   UNL     1      -6.050  -9.756   2.850  1.00  0.00     0.039 A 
ATOM     30  C   UNL     1      -6.151 -11.012   2.249  1.00  0.00     0.014 A 
ATOM     31  C   UNL     1      -4.917  -9.419   3.598  1.00  0.00     0.014 A 
ATOM     32  C   UNL     1      -5.092 -11.916   2.359  1.00  0.00     0.010 A 
ATOM     33  C   UNL     1      -3.835 -10.291   3.643  1.00  0.00     0.010 A 
ATOM     34  C   UNL     1      -3.916 -11.553   3.035  1.00  0.00    -0.014 A 
BRANCH  34  35
ATOM     35  C   UNL     1      -2.756 -12.476   3.113  1.00  0.00     0.031 A 
ATOM     36  C   UNL     1      -2.284 -12.988   4.447  1.00  0.00     0.074 A 
ATOM     37  C   UNL     1      -2.076 -12.784   1.991  1.00  0.00     0.049 A 
ATOM     38  N   UNL     1      -1.260 -13.755   4.719  1.00  0.00    -0.248 NA
ATOM     39  C   UNL     1      -3.043 -12.559   5.634  1.00  0.00     0.031 C 
ATOM     40  C   UNL     1      -2.389 -12.284   0.650  1.00  0.00     0.029 A 
ATOM     41  N   UNL     1      -0.966 -13.567   1.803  1.00  0.00    -0.354 N 
ATOM     42  C   UNL     1      -1.230 -13.872   6.104  1.00  0.00     0.074 A 
ATOM     43  C   UNL     1      -2.316 -13.067   6.619  1.00  0.00     0.031 C 
ATOM     44  C   UNL     1      -1.494 -12.776  -0.221  1.00  0.00     0.029 A 
ATOM     45  C   UNL     1      -0.528 -13.598   0.500  1.00  0.00     0.049 A 
ATOM     46  H   UNL     1      -0.524 -14.059   2.532  1.00  0.00     0.167 HD
ATOM     47  C   UNL     1      -0.393 -14.605   6.876  1.00  0.00     0.034 A 
ATOM     48  C   UNL     1       0.537 -14.213  -0.052  1.00  0.00     0.034 A 
ATOM     49  C   UNL     1       0.660 -15.434   6.355  1.00  0.00     0.049 A 
ATOM     50  C   UNL     1       1.428 -15.053   0.823  1.00  0.00     0.074 A 
ATOM     51  C   UNL     1       1.504 -16.286   7.045  1.00  0.00     0.029 A 
ATOM     52  N   UNL     1       1.020 -15.510   5.019  1.00  0.00    -0.354 N 
ATOM     53  N   UNL     1       1.342 -15.280   2.111  1.00  0.00    -0.248 NA
ATOM     54  C   UNL     1       2.539 -15.751   0.162  1.00  0.00     0.031 C 
ATOM     55  C   UNL     1       2.394 -16.855   6.128  1.00  0.00     0.029 A 
ATOM     56  C   UNL     1       2.083 -16.384   4.863  1.00  0.00     0.049 A 
ATOM     57  H   UNL     1       0.585 -15.014   4.288  1.00  0.00     0.167 HD
ATOM     58  C   UNL     1       2.364 -16.174   2.409  1.00  0.00     0.074 A 
ATOM     59  C   UNL     1       3.042 -16.463   1.162  1.00  0.00     0.031 C 
ATOM     60  C   UNL     1       2.716 -16.700   3.608  1.00  0.00     0.034 A 
BRANCH  47  61
ATOM     61  C   UNL     1      -0.612 -14.580   8.367  1.00  0.00     0.023 A 
ATOM     62  C   UNL     1      -1.747 -15.213   8.915  1.00  0.00     0.012 A 
ATOM     63  C   UNL     1       0.327 -13.981   9.229  1.00  0.00     0.148 A 
ATOM     64  C   UNL     1      -1.964 -15.217  10.293  1.00  0.00     0.002 A 
ATOM     65  C   UNL     1       0.129 -14.030  10.604  1.00  0.00     0.091 A 
ATOM     66  F   UNL     1       1.389 -13.366   8.690  1.00  0.00    -0.205 F 
ATOM     67  C   UNL     1      -1.021 -14.636  11.136  1.00  0.00     0.022 A 
BRANCH  65  68
ATOM     68  S   UNL     1       1.324 -13.384  11.779  1.00  0.00     0.127 S 
ATOM     69  O   UNL     1       0.623 -12.208  12.294  1.00  0.00    -0.237 OA
ATOM     70  O   UNL     1       1.446 -14.487  12.733  1.00  0.00    -0.237 OA
ATOM     71  O   UNL     1       2.531 -13.106  11.014  1.00  0.00    -0.744 OA
ENDBRANCH  65  68
ENDBRANCH  47  61
BRANCH  48  72
ATOM     72  C   UNL     1       0.779 -14.107  -1.518  1.00  0.00     0.023 A 
ATOM     73  C   UNL     1       0.584 -15.237  -2.336  1.00  0.00     0.012 A 
ATOM     74  C   UNL     1       1.168 -12.889  -2.110  1.00  0.00     0.148 A 
ATOM     75  C   UNL     1       0.804 -15.166  -3.712  1.00  0.00     0.002 A 
ATOM     76  C   UNL     1       1.330 -12.811  -3.488  1.00  0.00     0.091 A 
ATOM     77  F   UNL     1       1.357 -11.828  -1.313  1.00  0.00    -0.205 F 
ATOM     78  C   UNL     1       1.167 -13.952  -4.289  1.00  0.00     0.022 A 
BRANCH  76  79
ATOM     79  S   UNL     1       1.666 -11.261  -4.331  1.00  0.00     0.127 S 
ATOM     80  O   UNL     1       3.041 -11.456  -4.780  1.00  0.00    -0.237 OA
ATOM     81  O   UNL     1       0.661 -11.273  -5.395  1.00  0.00    -0.237 OA
ATOM     82  O   UNL     1       1.468 -10.218  -3.332  1.00  0.00    -0.744 OA
ENDBRANCH  76  79
ENDBRANCH  48  72
BRANCH  60  83
ATOM     83  C   UNL     1       3.865 -17.674   3.634  1.00  0.00     0.023 A 
ATOM     84  C   UNL     1       5.183 -17.212   3.445  1.00  0.00     0.012 A 
ATOM     85  C   UNL     1       3.643 -19.035   3.921  1.00  0.00     0.148 A 
ATOM     86  C   UNL     1       6.259 -18.097   3.508  1.00  0.00     0.002 A 
ATOM     87  C   UNL     1       4.724 -19.901   4.033  1.00  0.00     0.091 A 
ATOM     88  F   UNL     1       2.380 -19.458   4.079  1.00  0.00    -0.205 F 
ATOM     89  C   UNL     1       6.031 -19.437   3.814  1.00  0.00     0.022 A 
BRANCH  87  90
ATOM     90  S   UNL     1       4.534 -21.620   4.520  1.00  0.00     0.127 S 
ATOM     91  O   UNL     1       4.819 -22.317   3.268  1.00  0.00    -0.237 OA
ATOM     92  O   UNL     1       5.566 -21.766   5.548  1.00  0.00    -0.237 OA
ATOM     93  O   UNL     1       3.169 -21.750   5.012  1.00  0.00    -0.744 OA
ENDBRANCH  87  90
ENDBRANCH  60  83
ENDBRANCH  34  35
ENDBRANCH  26  29
ENDBRANCH  24  25
ENDBRANCH   1  24
TORSDOF 16
