REMARK SMILES CC[C@@H](Sc1nnc2ccc3ccccc3n12)C(=O)Nc1cccc(C(=O)NCCCCCCNC(=O)c2ccc(-c3c4nc(c(-c5cccc(S(=O)(=O)[O-])c5F)c5ccc([nH]5)c(-c5cccc(S(=O)(=O)[O-])c5F)c5nc(c(-c6cccc(S(=O)(=O)[O-])c6F)c6ccc3[nH]6)C=C5)C=C4)cc2)c1
REMARK SMILES IDX 31 1 30 2 29 3 28 4 26 5 27 6 25 8 21 9 22 10 101 11 23 12
REMARK SMILES IDX 24 13 20 14 18 15 19 16 3 18 2 19 1 20 4 21 5 22 6 23 17 24
REMARK SMILES IDX 7 25 8 26 16 27 9 28 11 29 15 30 10 31 12 32 14 33 13 34
REMARK SMILES IDX 32 35 33 36 34 37 35 38 36 39 37 41 38 42 39 43 100 44 40 45
REMARK SMILES IDX 99 46 41 47 42 48 43 49 93 50 44 51 98 52 92 53 94 54 45 55
REMARK SMILES IDX 97 56 91 57 90 58 46 60 78 61 58 62 77 63 59 64 62 65 76 66
REMARK SMILES IDX 95 67 60 68 61 69 75 71 96 72 63 73 47 74 48 75 56 76 49 77
REMARK SMILES IDX 51 78 57 79 50 80 52 81 53 82 54 83 55 84 79 85 80 86 88 87
REMARK SMILES IDX 81 88 83 89 89 90 82 91 84 92 85 93 86 94 87 95 64 96 65 97
REMARK SMILES IDX 73 98 66 99 68 100 74 101 67 102 69 103 70 104 71 105 72 106
REMARK H PARENT 28 7 20 17 35 40 94 59 62 70
REMARK Flexibility Score: inf
ROOT
ATOM      1  C   UNL     1      -4.566   8.173  -1.038  1.00  0.00     0.002 C 
ENDROOT
BRANCH   1   2
ATOM      2  C   UNL     1      -3.450   7.194  -0.696  1.00  0.00     0.021 C 
BRANCH   2   3
ATOM      3  C   UNL     1      -3.857   5.952   0.067  1.00  0.00     0.116 C 
BRANCH   3   4
ATOM      4  N   UNL     1      -4.721   5.057  -0.664  1.00  0.00    -0.352 N 
ATOM      5  C   UNL     1      -4.888   3.697  -0.587  1.00  0.00     0.251 C 
ATOM      6  O   UNL     1      -5.695   3.183  -1.364  1.00  0.00    -0.269 OA
ATOM      7  H   UNL     1      -5.291   5.500  -1.335  1.00  0.00     0.163 HD
BRANCH   5   8
ATOM      8  C   UNL     1      -4.103   2.811   0.332  1.00  0.00     0.041 A 
ATOM      9  C   UNL     1      -2.301   2.398   1.899  1.00  0.00     0.041 A 
ATOM     10  C   UNL     1      -2.455   1.032   1.748  1.00  0.00     0.026 A 
ATOM     11  C   UNL     1      -3.254   3.254   1.349  1.00  0.00     0.040 A 
ATOM     12  C   UNL     1      -3.427   0.544   0.869  1.00  0.00     0.003 A 
ATOM     13  C   UNL     1      -4.182   1.432   0.103  1.00  0.00     0.014 A 
BRANCH   9  14
ATOM     14  N   UNL     1      -1.197   2.983   2.540  1.00  0.00    -0.325 N 
ATOM     15  C   UNL     1       0.093   3.128   2.072  1.00  0.00     0.237 C 
ATOM     16  O   UNL     1       0.789   3.958   2.680  1.00  0.00    -0.273 OA
ATOM     17  H   UNL     1      -1.366   3.337   3.443  1.00  0.00     0.169 HD
BRANCH  15  18
ATOM     18  C   UNL     1       0.762   2.298   0.940  1.00  0.00     0.144 C 
BRANCH  18  19
ATOM     19  C   UNL     1       1.197   0.959   1.559  1.00  0.00     0.021 C 
ATOM     20  C   UNL     1       2.305   0.208   0.834  1.00  0.00     0.005 C 
ENDBRANCH  18  19
BRANCH  18  21
ATOM     21  S   UNL     1      -0.261   2.348  -0.585  1.00  0.00    -0.072 SA
BRANCH  21  22
ATOM     22  C   UNL     1       0.605   1.538  -1.848  1.00  0.00     0.196 A 
ATOM     23  N   UNL     1       1.343   2.190  -2.723  1.00  0.00    -0.122 NA
ATOM     24  N   UNL     1       0.490   0.208  -2.239  1.00  0.00    -0.270 N 
ATOM     25  N   UNL     1       1.710   1.318  -3.719  1.00  0.00    -0.129 NA
ATOM     26  C   UNL     1       1.195   0.141  -3.436  1.00  0.00     0.161 A 
ATOM     27  C   UNL     1      -0.061  -0.954  -1.631  1.00  0.00     0.057 A 
ATOM     28  C   UNL     1       1.286  -1.095  -4.126  1.00  0.00     0.050 A 
ATOM     29  C   UNL     1       0.163  -2.187  -2.260  1.00  0.00    -0.001 A 
ATOM     30  C   UNL     1      -0.718  -0.935  -0.414  1.00  0.00     0.027 A 
ATOM     31  C   UNL     1       0.806  -2.221  -3.577  1.00  0.00     0.014 A 
ATOM     32  C   UNL     1      -0.217  -3.373  -1.614  1.00  0.00     0.010 A 
ATOM     33  C   UNL     1      -1.069  -2.111   0.245  1.00  0.00     0.002 A 
ATOM     34  C   UNL     1      -0.811  -3.334  -0.352  1.00  0.00     0.001 A 
ENDBRANCH  21  22
ENDBRANCH  18  21
ENDBRANCH  15  18
ENDBRANCH   9  14
ENDBRANCH   5   8
ENDBRANCH   3   4
ENDBRANCH   2   3
ENDBRANCH   1   2
BRANCH   1  35
ATOM     35  C   UNL     1      -5.404   8.690   0.134  1.00  0.00     0.002 C 
BRANCH  35  36
ATOM     36  C   UNL     1      -4.629   9.245   1.334  1.00  0.00     0.021 C 
BRANCH  36  37
ATOM     37  C   UNL     1      -3.444  10.149   0.990  1.00  0.00     0.116 C 
BRANCH  37  38
ATOM     38  N   UNL     1      -3.769  11.284   0.160  1.00  0.00    -0.352 N 
ATOM     39  C   UNL     1      -4.224  12.547   0.406  1.00  0.00     0.251 C 
ATOM     40  H   UNL     1      -3.632  11.108  -0.799  1.00  0.00     0.163 HD
ATOM     41  O   UNL     1      -4.271  13.311  -0.559  1.00  0.00    -0.269 OA
BRANCH  39  42
ATOM     42  C   UNL     1      -4.749  12.992   1.719  1.00  0.00     0.039 A 
ATOM     43  C   UNL     1      -4.543  12.329   2.929  1.00  0.00     0.014 A 
ATOM     44  C   UNL     1      -5.579  14.125   1.690  1.00  0.00     0.014 A 
ATOM     45  C   UNL     1      -5.288  12.664   4.042  1.00  0.00     0.010 A 
ATOM     46  C   UNL     1      -6.291  14.499   2.815  1.00  0.00     0.010 A 
ATOM     47  C   UNL     1      -6.198  13.713   3.959  1.00  0.00    -0.014 A 
BRANCH  47  48
ATOM     48  C   UNL     1      -6.982  14.001   5.145  1.00  0.00     0.031 A 
ATOM     49  C   UNL     1      -6.183  14.461   6.315  1.00  0.00     0.074 A 
ATOM     50  C   UNL     1      -8.327  13.946   5.116  1.00  0.00     0.049 A 
ATOM     51  N   UNL     1      -6.103  13.930   7.494  1.00  0.00    -0.248 NA
ATOM     52  C   UNL     1      -5.245  15.575   6.093  1.00  0.00     0.031 C 
ATOM     53  C   UNL     1      -9.192  13.770   3.945  1.00  0.00     0.029 A 
ATOM     54  N   UNL     1      -9.211  14.219   6.112  1.00  0.00    -0.354 N 
ATOM     55  C   UNL     1      -5.265  14.773   8.222  1.00  0.00     0.074 A 
ATOM     56  C   UNL     1      -4.641  15.662   7.277  1.00  0.00     0.031 C 
ATOM     57  C   UNL     1     -10.423  14.239   4.240  1.00  0.00     0.029 A 
ATOM     58  C   UNL     1     -10.454  14.630   5.637  1.00  0.00     0.049 A 
ATOM     59  H   UNL     1      -8.995  14.136   7.069  1.00  0.00     0.167 HD
ATOM     60  C   UNL     1      -5.300  14.850   9.580  1.00  0.00     0.034 A 
ATOM     61  C   UNL     1     -11.357  15.376   6.323  1.00  0.00     0.034 A 
ATOM     62  C   UNL     1      -5.980  13.743  10.183  1.00  0.00     0.049 A 
ATOM     63  C   UNL     1     -11.023  15.231   7.764  1.00  0.00     0.074 A 
ATOM     64  C   UNL     1      -5.779  12.378  10.205  1.00  0.00     0.029 A 
ATOM     65  N   UNL     1      -7.282  13.943  10.572  1.00  0.00    -0.354 N 
ATOM     66  N   UNL     1     -11.091  14.102   8.415  1.00  0.00    -0.248 NA
ATOM     67  C   UNL     1     -10.184  16.254   8.369  1.00  0.00     0.031 C 
ATOM     68  C   UNL     1      -7.086  11.819  10.117  1.00  0.00     0.029 A 
ATOM     69  C   UNL     1      -8.001  12.874  10.104  1.00  0.00     0.049 A 
ATOM     70  H   UNL     1      -7.631  14.705  11.088  1.00  0.00     0.167 HD
ATOM     71  C   UNL     1      -9.982  14.116   9.252  1.00  0.00     0.074 A 
ATOM     72  C   UNL     1      -9.515  15.501   9.245  1.00  0.00     0.031 C 
ATOM     73  C   UNL     1      -9.366  12.961   9.639  1.00  0.00     0.034 A 
BRANCH  60  74
ATOM     74  C   UNL     1      -4.999  16.112  10.333  1.00  0.00     0.023 A 
ATOM     75  C   UNL     1      -4.648  16.030  11.694  1.00  0.00     0.012 A 
ATOM     76  C   UNL     1      -5.285  17.393   9.807  1.00  0.00     0.148 A 
ATOM     77  C   UNL     1      -4.570  17.178  12.491  1.00  0.00     0.002 A 
ATOM     78  C   UNL     1      -5.129  18.535  10.579  1.00  0.00     0.091 A 
ATOM     79  F   UNL     1      -5.831  17.496   8.589  1.00  0.00    -0.205 F 
ATOM     80  C   UNL     1      -4.790  18.433  11.929  1.00  0.00     0.022 A 
BRANCH  78  81
ATOM     81  S   UNL     1      -5.358  20.172   9.879  1.00  0.00     0.127 S 
ATOM     82  O   UNL     1      -6.642  20.562  10.466  1.00  0.00    -0.237 OA
ATOM     83  O   UNL     1      -4.195  20.889  10.413  1.00  0.00    -0.237 OA
ATOM     84  O   UNL     1      -5.336  19.987   8.443  1.00  0.00    -0.744 OA
ENDBRANCH  78  81
ENDBRANCH  60  74
BRANCH  61  85
ATOM     85  C   UNL     1     -12.213  16.483   5.814  1.00  0.00     0.023 A 
ATOM     86  C   UNL     1     -13.222  17.008   6.648  1.00  0.00     0.012 A 
ATOM     87  C   UNL     1     -11.890  17.208   4.643  1.00  0.00     0.148 A 
ATOM     88  C   UNL     1     -13.852  18.225   6.350  1.00  0.00     0.002 A 
ATOM     89  C   UNL     1     -12.538  18.402   4.336  1.00  0.00     0.091 A 
ATOM     90  F   UNL     1     -10.876  16.795   3.873  1.00  0.00    -0.205 F 
ATOM     91  C   UNL     1     -13.508  18.924   5.197  1.00  0.00     0.022 A 
BRANCH  89  92
ATOM     92  S   UNL     1     -12.141  19.336   2.850  1.00  0.00     0.127 S 
ATOM     93  O   UNL     1     -13.465  19.757   2.388  1.00  0.00    -0.237 OA
ATOM     94  O   UNL     1     -11.306  20.410   3.378  1.00  0.00    -0.237 OA
ATOM     95  O   UNL     1     -11.478  18.390   1.960  1.00  0.00    -0.744 OA
ENDBRANCH  89  92
ENDBRANCH  61  85
BRANCH  73  96
ATOM     96  C   UNL     1     -10.026  11.647   9.310  1.00  0.00     0.023 A 
ATOM     97  C   UNL     1     -10.113  11.167   7.986  1.00  0.00     0.012 A 
ATOM     98  C   UNL     1     -10.336  10.783  10.372  1.00  0.00     0.148 A 
ATOM     99  C   UNL     1     -10.501   9.849   7.729  1.00  0.00     0.002 A 
ATOM    100  C   UNL     1     -10.683   9.463  10.114  1.00  0.00     0.091 A 
ATOM    101  F   UNL     1     -10.228  11.258  11.622  1.00  0.00    -0.205 F 
ATOM    102  C   UNL     1     -10.770   8.992   8.794  1.00  0.00     0.022 A 
BRANCH 100 103
ATOM    103  S   UNL     1     -10.921   8.273  11.435  1.00  0.00     0.127 S 
ATOM    104  O   UNL     1     -12.348   7.977  11.325  1.00  0.00    -0.237 OA
ATOM    105  O   UNL     1     -10.037   7.180  11.030  1.00  0.00    -0.237 OA
ATOM    106  O   UNL     1     -10.519   8.944  12.665  1.00  0.00    -0.744 OA
ENDBRANCH 100 103
ENDBRANCH  73  96
ENDBRANCH  47  48
ENDBRANCH  39  42
ENDBRANCH  37  38
ENDBRANCH  36  37
ENDBRANCH  35  36
ENDBRANCH   1  35
TORSDOF 21
