REMARK SMILES Nc1ccc2[nH]cc(C(=O)NCCCCCCNC(=O)c3ccc(-c4c5nc(c(-c6cccc(S(=O)(=O)[O-])c6F)c6ccc([nH]6)c(-c6cccc(S(=O)(=O)[O-])c6F)c6nc(c(-c7cccc(S(=O)(=O)[O-])c7F)c7ccc4[nH]7)C=C6)C=C5)cc3)c2c1
REMARK SMILES IDX 15 1 14 2 13 3 12 4 11 5 9 6 10 7 8 9 2 10 3 11 85 12 4 13
REMARK SMILES IDX 84 14 5 15 6 16 7 17 1 19 16 22 17 23 18 24 19 25 20 27
REMARK SMILES IDX 21 28 22 29 83 30 23 31 82 32 24 33 25 34 26 35 76 36 27 37
REMARK SMILES IDX 81 38 75 39 77 40 28 41 80 42 74 43 73 44 29 46 61 47 41 48
REMARK SMILES IDX 60 49 42 50 45 51 59 52 78 53 43 54 44 55 58 57 79 58 46 59
REMARK SMILES IDX 30 60 31 61 39 62 32 63 34 64 40 65 33 66 35 67 36 68 37 69
REMARK SMILES IDX 38 70 62 71 63 72 71 73 64 74 66 75 72 76 65 77 67 78 68 79
REMARK SMILES IDX 69 80 70 81 47 82 48 83 56 84 49 85 51 86 57 87 50 88 52 89
REMARK SMILES IDX 53 90 54 91 55 92
REMARK H PARENT 11 8 6 18 1 20 1 21 18 26 77 45 45 56
REMARK Flexibility Score: inf
ROOT
ATOM      1  C   UNL     1      -1.982  -3.645  -3.070  1.00  0.00     0.002 C 
ENDROOT
BRANCH   1   2
ATOM      2  C   UNL     1      -1.786  -4.684  -1.961  1.00  0.00     0.002 C 
BRANCH   2   3
ATOM      3  C   UNL     1      -1.092  -4.224  -0.681  1.00  0.00     0.021 C 
BRANCH   3   4
ATOM      4  C   UNL     1      -1.684  -3.017   0.030  1.00  0.00     0.116 C 
BRANCH   4   5
ATOM      5  N   UNL     1      -2.908  -3.254   0.754  1.00  0.00    -0.352 N 
ATOM      6  C   UNL     1      -3.353  -2.719   1.942  1.00  0.00     0.253 C 
ATOM      7  O   UNL     1      -4.453  -3.115   2.338  1.00  0.00    -0.269 OA
ATOM      8  H   UNL     1      -3.521  -3.898   0.333  1.00  0.00     0.163 HD
BRANCH   6   9
ATOM      9  C   UNL     1      -2.540  -1.814   2.772  1.00  0.00     0.065 A 
ATOM     10  C   UNL     1       0.375   0.351   1.461  1.00  0.00     0.032 A 
ATOM     11  C   UNL     1       0.852   0.707   2.716  1.00  0.00     0.027 A 
ATOM     12  C   UNL     1      -0.845  -0.329   1.366  1.00  0.00     0.036 A 
ATOM     13  C   UNL     1       0.167   0.352   3.882  1.00  0.00     0.029 A 
ATOM     14  C   UNL     1      -1.476  -0.868   2.514  1.00  0.00     0.014 A 
ATOM     15  C   UNL     1      -0.973  -0.449   3.750  1.00  0.00     0.046 A 
ATOM     16  N   UNL     1      -1.809  -0.946   4.716  1.00  0.00    -0.360 N 
ATOM     17  C   UNL     1      -2.738  -1.767   4.149  1.00  0.00     0.097 A 
ATOM     18  H   UNL     1      -1.748  -0.740   5.677  1.00  0.00     0.166 HD
BRANCH  10  19
ATOM     19  N   UNL     1       1.051   0.732   0.313  1.00  0.00    -0.399 N 
ATOM     20  H   UNL     1       1.909   1.210   0.383  1.00  0.00     0.156 HD
ATOM     21  H   UNL     1       0.674   0.524  -0.572  1.00  0.00     0.156 HD
ENDBRANCH  10  19
ENDBRANCH   6   9
ENDBRANCH   4   5
ENDBRANCH   3   4
ENDBRANCH   2   3
ENDBRANCH   1   2
BRANCH   1  22
ATOM     22  C   UNL     1      -0.761  -2.818  -3.492  1.00  0.00     0.021 C 
BRANCH  22  23
ATOM     23  C   UNL     1       0.522  -3.599  -3.777  1.00  0.00     0.116 C 
BRANCH  23  24
ATOM     24  N   UNL     1       0.371  -4.694  -4.708  1.00  0.00    -0.352 N 
ATOM     25  C   UNL     1       0.384  -4.821  -6.069  1.00  0.00     0.251 C 
ATOM     26  H   UNL     1       0.224  -5.554  -4.253  1.00  0.00     0.163 HD
ATOM     27  O   UNL     1       0.336  -5.978  -6.495  1.00  0.00    -0.269 OA
BRANCH  25  28
ATOM     28  C   UNL     1       0.399  -3.692  -7.038  1.00  0.00     0.039 A 
ATOM     29  C   UNL     1       0.581  -2.347  -6.716  1.00  0.00     0.014 A 
ATOM     30  C   UNL     1       0.172  -4.034  -8.386  1.00  0.00     0.014 A 
ATOM     31  C   UNL     1       0.450  -1.363  -7.691  1.00  0.00     0.010 A 
ATOM     32  C   UNL     1       0.064  -3.056  -9.368  1.00  0.00     0.010 A 
ATOM     33  C   UNL     1       0.158  -1.715  -9.008  1.00  0.00    -0.014 A 
BRANCH  33  34
ATOM     34  C   UNL     1      -0.009  -0.636  -9.975  1.00  0.00     0.031 A 
ATOM     35  C   UNL     1       1.177   0.232 -10.220  1.00  0.00     0.074 A 
ATOM     36  C   UNL     1      -1.140  -0.458 -10.685  1.00  0.00     0.049 A 
ATOM     37  N   UNL     1       1.290   1.503  -9.999  1.00  0.00    -0.248 NA
ATOM     38  C   UNL     1       2.409  -0.405 -10.704  1.00  0.00     0.031 C 
ATOM     39  C   UNL     1      -2.294  -1.355 -10.778  1.00  0.00     0.029 A 
ATOM     40  N   UNL     1      -1.424   0.516 -11.597  1.00  0.00    -0.354 N 
ATOM     41  C   UNL     1       2.544   1.868 -10.488  1.00  0.00     0.074 A 
ATOM     42  C   UNL     1       3.233   0.640 -10.800  1.00  0.00     0.031 C 
ATOM     43  C   UNL     1      -3.014  -1.027 -11.872  1.00  0.00     0.029 A 
ATOM     44  C   UNL     1      -2.446   0.168 -12.470  1.00  0.00     0.049 A 
ATOM     45  H   UNL     1      -0.952   1.379 -11.632  1.00  0.00     0.167 HD
ATOM     46  C   UNL     1       2.876   3.158 -10.771  1.00  0.00     0.034 A 
ATOM     47  C   UNL     1      -2.728   0.767 -13.651  1.00  0.00     0.034 A 
ATOM     48  C   UNL     1       1.940   4.102 -10.232  1.00  0.00     0.049 A 
ATOM     49  C   UNL     1      -2.174   2.141 -13.589  1.00  0.00     0.074 A 
ATOM     50  C   UNL     1       1.497   4.437  -8.970  1.00  0.00     0.029 A 
ATOM     51  N   UNL     1       1.058   4.681 -11.110  1.00  0.00    -0.354 N 
ATOM     52  N   UNL     1      -2.622   3.069 -12.787  1.00  0.00    -0.248 NA
ATOM     53  C   UNL     1      -0.859   2.391 -14.159  1.00  0.00     0.031 C 
ATOM     54  C   UNL     1       0.128   4.786  -9.144  1.00  0.00     0.029 A 
ATOM     55  C   UNL     1      -0.168   4.657 -10.503  1.00  0.00     0.049 A 
ATOM     56  H   UNL     1       1.266   5.043 -12.002  1.00  0.00     0.167 HD
ATOM     57  C   UNL     1      -1.493   3.787 -12.418  1.00  0.00     0.074 A 
ATOM     58  C   UNL     1      -0.468   3.407 -13.385  1.00  0.00     0.031 C 
ATOM     59  C   UNL     1      -1.409   4.396 -11.198  1.00  0.00     0.034 A 
BRANCH  46  60
ATOM     60  C   UNL     1       3.890   3.588 -11.797  1.00  0.00     0.023 A 
ATOM     61  C   UNL     1       4.363   4.919 -11.745  1.00  0.00     0.012 A 
ATOM     62  C   UNL     1       4.175   2.843 -12.960  1.00  0.00     0.148 A 
ATOM     63  C   UNL     1       5.063   5.489 -12.814  1.00  0.00     0.002 A 
ATOM     64  C   UNL     1       4.930   3.393 -13.991  1.00  0.00     0.091 A 
ATOM     65  F   UNL     1       3.604   1.645 -13.136  1.00  0.00    -0.205 F 
ATOM     66  C   UNL     1       5.356   4.722 -13.934  1.00  0.00     0.022 A 
BRANCH  64  67
ATOM     67  S   UNL     1       5.363   2.418 -15.435  1.00  0.00     0.127 S 
ATOM     68  O   UNL     1       4.350   2.860 -16.398  1.00  0.00    -0.237 OA
ATOM     69  O   UNL     1       6.724   2.885 -15.721  1.00  0.00    -0.237 OA
ATOM     70  O   UNL     1       5.286   1.040 -14.999  1.00  0.00    -0.744 OA
ENDBRANCH  64  67
ENDBRANCH  46  60
BRANCH  47  71
ATOM     71  C   UNL     1      -3.238   0.156 -14.903  1.00  0.00     0.023 A 
ATOM     72  C   UNL     1      -3.736   0.983 -15.928  1.00  0.00     0.012 A 
ATOM     73  C   UNL     1      -3.022  -1.209 -15.205  1.00  0.00     0.148 A 
ATOM     74  C   UNL     1      -3.987   0.476 -17.211  1.00  0.00     0.002 A 
ATOM     75  C   UNL     1      -3.301  -1.715 -16.472  1.00  0.00     0.091 A 
ATOM     76  F   UNL     1      -2.448  -2.001 -14.290  1.00  0.00    -0.205 F 
ATOM     77  C   UNL     1      -3.771  -0.872 -17.483  1.00  0.00     0.022 A 
BRANCH  75  78
ATOM     78  S   UNL     1      -3.056  -3.454 -16.861  1.00  0.00     0.127 S 
ATOM     79  O   UNL     1      -4.197  -3.743 -17.732  1.00  0.00    -0.237 OA
ATOM     80  O   UNL     1      -1.762  -3.437 -17.534  1.00  0.00    -0.237 OA
ATOM     81  O   UNL     1      -3.102  -4.146 -15.579  1.00  0.00    -0.744 OA
ENDBRANCH  75  78
ENDBRANCH  47  71
BRANCH  59  82
ATOM     82  C   UNL     1      -2.652   4.494 -10.353  1.00  0.00     0.023 A 
ATOM     83  C   UNL     1      -3.258   3.341  -9.812  1.00  0.00     0.012 A 
ATOM     84  C   UNL     1      -3.058   5.759  -9.896  1.00  0.00     0.148 A 
ATOM     85  C   UNL     1      -4.253   3.447  -8.840  1.00  0.00     0.002 A 
ATOM     86  C   UNL     1      -4.020   5.859  -8.898  1.00  0.00     0.091 A 
ATOM     87  F   UNL     1      -2.452   6.842 -10.408  1.00  0.00    -0.205 F 
ATOM     88  C   UNL     1      -4.624   4.705  -8.371  1.00  0.00     0.022 A 
BRANCH  86  89
ATOM     89  S   UNL     1      -4.452   7.431  -8.146  1.00  0.00     0.127 S 
ATOM     90  O   UNL     1      -5.835   7.609  -8.584  1.00  0.00    -0.237 OA
ATOM     91  O   UNL     1      -4.295   7.144  -6.719  1.00  0.00    -0.237 OA
ATOM     92  O   UNL     1      -3.505   8.407  -8.668  1.00  0.00    -0.744 OA
ENDBRANCH  86  89
ENDBRANCH  59  82
ENDBRANCH  33  34
ENDBRANCH  25  28
ENDBRANCH  23  24
ENDBRANCH  22  23
ENDBRANCH   1  22
TORSDOF 17
