REMARK SMILES CC1([C@](C)(Nc2cccc(Cl)c2)C(=O)NCCCCCCNC(=O)c2ccc(-c3c4nc(c(-c5cccc(S(=O)(=O)[O-])c5F)c5ccc([nH]5)c(-c5cccc(S(=O)(=O)[O-])c5F)c5nc(c(-c6cccc(S(=O)(=O)[O-])c6F)c6ccc3[nH]6)C=C5)C=C4)cc2)CC1
REMARK SMILES IDX 19 1 18 2 17 3 16 4 15 5 13 6 14 7 3 9 4 10 2 11 1 12 88 13
REMARK SMILES IDX 89 14 5 15 6 17 7 18 12 19 8 20 10 21 9 22 11 23 20 24 21 25
REMARK SMILES IDX 22 26 23 27 24 29 25 30 26 31 87 32 27 33 86 34 28 35 29 36
REMARK SMILES IDX 30 37 80 38 31 39 85 40 79 41 81 42 32 43 84 44 78 45 77 46
REMARK SMILES IDX 33 48 65 49 45 50 64 51 46 52 49 53 63 54 82 55 47 56 48 57
REMARK SMILES IDX 62 59 83 60 50 61 34 62 35 63 43 64 36 65 38 66 44 67 37 68
REMARK SMILES IDX 39 69 40 70 41 71 42 72 66 73 67 74 75 75 68 76 70 77 76 78
REMARK SMILES IDX 69 79 71 80 72 81 73 82 74 83 51 84 52 85 60 86 53 87 55 88
REMARK SMILES IDX 61 89 54 90 56 91 57 92 58 93 59 94
REMARK H PARENT 15 8 5 16 22 28 81 47 49 58
REMARK Flexibility Score: inf
ROOT
ATOM      1  C   UNL     1      -3.190  -3.048   5.104  1.00  0.00     0.002 C 
ENDROOT
BRANCH   1   2
ATOM      2  C   UNL     1      -2.003  -2.093   5.218  1.00  0.00     0.002 C 
BRANCH   2   3
ATOM      3  C   UNL     1      -0.942  -2.321   4.149  1.00  0.00     0.021 C 
BRANCH   3   4
ATOM      4  C   UNL     1      -1.386  -1.972   2.733  1.00  0.00     0.116 C 
BRANCH   4   5
ATOM      5  N   UNL     1      -1.889  -0.619   2.569  1.00  0.00    -0.354 N 
ATOM      6  C   UNL     1      -1.333   0.447   1.902  1.00  0.00     0.245 C 
ATOM      7  O   UNL     1      -1.934   1.526   1.971  1.00  0.00    -0.272 OA
ATOM      8  H   UNL     1      -2.756  -0.439   2.999  1.00  0.00     0.163 HD
BRANCH   6   9
ATOM      9  C   UNL     1      -0.015   0.276   1.058  1.00  0.00     0.119 C 
ATOM     10  C   UNL     1       0.526   1.647   0.566  1.00  0.00     0.046 C 
BRANCH   9  11
ATOM     11  C   UNL     1      -0.412  -0.544  -0.242  1.00  0.00    -0.001 C 
ATOM     12  C   UNL     1      -1.628   0.034  -0.974  1.00  0.00     0.014 C 
ATOM     13  C   UNL     1      -0.275  -2.065  -0.333  1.00  0.00     0.010 C 
ATOM     14  C   UNL     1       0.627  -1.200  -1.147  1.00  0.00     0.010 C 
ENDBRANCH   9  11
BRANCH   9  15
ATOM     15  N   UNL     1       1.106  -0.305   1.853  1.00  0.00    -0.371 N 
ATOM     16  H   UNL     1       1.601  -1.051   1.442  1.00  0.00     0.161 HD
BRANCH  15  17
ATOM     17  C   UNL     1       1.526   0.101   3.125  1.00  0.00     0.036 A 
ATOM     18  C   UNL     1       0.686   0.624   4.124  1.00  0.00     0.026 A 
ATOM     19  C   UNL     1       2.867  -0.083   3.498  1.00  0.00     0.046 A 
ATOM     20  C   UNL     1       1.101   0.804   5.451  1.00  0.00     0.004 A 
ATOM     21  C   UNL     1       3.307   0.169   4.808  1.00  0.00     0.043 A 
ATOM     22  C   UNL     1       2.419   0.568   5.799  1.00  0.00     0.020 A 
ATOM     23  Cl  UNL     1       4.971  -0.023   5.209  1.00  0.00    -0.084 Cl
ENDBRANCH  15  17
ENDBRANCH   9  15
ENDBRANCH   6   9
ENDBRANCH   4   5
ENDBRANCH   3   4
ENDBRANCH   2   3
ENDBRANCH   1   2
BRANCH   1  24
ATOM     24  C   UNL     1      -2.809  -4.532   5.096  1.00  0.00     0.021 C 
BRANCH  24  25
ATOM     25  C   UNL     1      -1.873  -4.951   6.226  1.00  0.00     0.116 C 
BRANCH  25  26
ATOM     26  N   UNL     1      -2.486  -4.754   7.530  1.00  0.00    -0.352 N 
ATOM     27  C   UNL     1      -2.704  -5.686   8.511  1.00  0.00     0.251 C 
ATOM     28  H   UNL     1      -2.781  -3.837   7.734  1.00  0.00     0.163 HD
ATOM     29  O   UNL     1      -3.439  -5.432   9.465  1.00  0.00    -0.269 OA
BRANCH  27  30
ATOM     30  C   UNL     1      -2.055  -7.005   8.396  1.00  0.00     0.039 A 
ATOM     31  C   UNL     1      -2.829  -8.159   8.523  1.00  0.00     0.014 A 
ATOM     32  C   UNL     1      -0.686  -7.091   8.120  1.00  0.00     0.014 A 
ATOM     33  C   UNL     1      -2.236  -9.406   8.324  1.00  0.00     0.010 A 
ATOM     34  C   UNL     1      -0.116  -8.330   7.849  1.00  0.00     0.010 A 
ATOM     35  C   UNL     1      -0.882  -9.501   7.957  1.00  0.00    -0.014 A 
BRANCH  35  36
ATOM     36  C   UNL     1      -0.258 -10.817   7.669  1.00  0.00     0.031 A 
ATOM     37  C   UNL     1       0.879 -11.320   8.516  1.00  0.00     0.074 A 
ATOM     38  C   UNL     1      -0.665 -11.524   6.596  1.00  0.00     0.049 A 
ATOM     39  N   UNL     1       1.567 -12.426   8.399  1.00  0.00    -0.248 NA
ATOM     40  C   UNL     1       1.318 -10.457   9.626  1.00  0.00     0.031 C 
ATOM     41  C   UNL     1      -1.702 -11.105   5.651  1.00  0.00     0.029 A 
ATOM     42  N   UNL     1      -0.240 -12.734   6.106  1.00  0.00    -0.354 N 
ATOM     43  C   UNL     1       2.537 -12.378   9.393  1.00  0.00     0.074 A 
ATOM     44  C   UNL     1       2.373 -11.117  10.082  1.00  0.00     0.031 C 
ATOM     45  C   UNL     1      -1.837 -12.044   4.701  1.00  0.00     0.029 A 
ATOM     46  C   UNL     1      -0.877 -13.115   4.949  1.00  0.00     0.049 A 
ATOM     47  H   UNL     1       0.456 -13.277   6.543  1.00  0.00     0.167 HD
ATOM     48  C   UNL     1       3.462 -13.310   9.721  1.00  0.00     0.034 A 
ATOM     49  C   UNL     1      -0.701 -14.199   4.168  1.00  0.00     0.034 A 
ATOM     50  C   UNL     1       3.600 -14.576   9.053  1.00  0.00     0.049 A 
ATOM     51  C   UNL     1       0.314 -15.233   4.572  1.00  0.00     0.074 A 
ATOM     52  C   UNL     1       4.446 -15.626   9.367  1.00  0.00     0.029 A 
ATOM     53  N   UNL     1       2.888 -14.960   7.928  1.00  0.00    -0.354 N 
ATOM     54  N   UNL     1       1.111 -15.245   5.613  1.00  0.00    -0.248 NA
ATOM     55  C   UNL     1       0.430 -16.421   3.714  1.00  0.00     0.031 C 
ATOM     56  C   UNL     1       4.269 -16.630   8.409  1.00  0.00     0.029 A 
ATOM     57  C   UNL     1       3.285 -16.223   7.523  1.00  0.00     0.049 A 
ATOM     58  H   UNL     1       2.199 -14.415   7.483  1.00  0.00     0.167 HD
ATOM     59  C   UNL     1       1.797 -16.453   5.555  1.00  0.00     0.074 A 
ATOM     60  C   UNL     1       1.304 -17.156   4.388  1.00  0.00     0.031 C 
ATOM     61  C   UNL     1       2.757 -16.931   6.385  1.00  0.00     0.034 A 
BRANCH  48  62
ATOM     62  C   UNL     1       4.374 -13.012  10.884  1.00  0.00     0.023 A 
ATOM     63  C   UNL     1       3.853 -12.993  12.194  1.00  0.00     0.012 A 
ATOM     64  C   UNL     1       5.754 -12.809  10.688  1.00  0.00     0.148 A 
ATOM     65  C   UNL     1       4.681 -12.737  13.286  1.00  0.00     0.002 A 
ATOM     66  C   UNL     1       6.582 -12.604  11.786  1.00  0.00     0.091 A 
ATOM     67  F   UNL     1       6.230 -12.812   9.434  1.00  0.00    -0.205 F 
ATOM     68  C   UNL     1       6.046 -12.554  13.083  1.00  0.00     0.022 A 
BRANCH  66  69
ATOM     69  S   UNL     1       8.365 -12.440  11.638  1.00  0.00     0.127 S 
ATOM     70  O   UNL     1       8.561 -11.032  11.978  1.00  0.00    -0.237 OA
ATOM     71  O   UNL     1       8.844 -13.383  12.650  1.00  0.00    -0.237 OA
ATOM     72  O   UNL     1       8.691 -12.802  10.266  1.00  0.00    -0.744 OA
ENDBRANCH  66  69
ENDBRANCH  48  62
BRANCH  49  73
ATOM     73  C   UNL     1      -1.546 -14.387   2.954  1.00  0.00     0.023 A 
ATOM     74  C   UNL     1      -2.511 -15.413   2.932  1.00  0.00     0.012 A 
ATOM     75  C   UNL     1      -1.416 -13.542   1.835  1.00  0.00     0.148 A 
ATOM     76  C   UNL     1      -3.308 -15.615   1.804  1.00  0.00     0.002 A 
ATOM     77  C   UNL     1      -2.252 -13.712   0.739  1.00  0.00     0.091 A 
ATOM     78  F   UNL     1      -0.486 -12.578   1.873  1.00  0.00    -0.205 F 
ATOM     79  C   UNL     1      -3.186 -14.760   0.713  1.00  0.00     0.022 A 
BRANCH  77  80
ATOM     80  S   UNL     1      -2.258 -12.577  -0.654  1.00  0.00     0.127 S 
ATOM     81  O   UNL     1      -1.714 -13.412  -1.722  1.00  0.00    -0.237 OA
ATOM     82  O   UNL     1      -3.682 -12.264  -0.780  1.00  0.00    -0.237 OA
ATOM     83  O   UNL     1      -1.429 -11.450  -0.248  1.00  0.00    -0.744 OA
ENDBRANCH  77  80
ENDBRANCH  49  73
BRANCH  61  84
ATOM     84  C   UNL     1       3.320 -18.297   6.089  1.00  0.00     0.023 A 
ATOM     85  C   UNL     1       4.164 -18.485   4.976  1.00  0.00     0.012 A 
ATOM     86  C   UNL     1       3.067 -19.379   6.955  1.00  0.00     0.148 A 
ATOM     87  C   UNL     1       4.718 -19.737   4.711  1.00  0.00     0.002 A 
ATOM     88  C   UNL     1       3.665 -20.610   6.714  1.00  0.00     0.091 A 
ATOM     89  F   UNL     1       2.248 -19.184   7.999  1.00  0.00    -0.205 F 
ATOM     90  C   UNL     1       4.479 -20.794   5.585  1.00  0.00     0.022 A 
BRANCH  88  91
ATOM     91  S   UNL     1       3.495 -22.001   7.838  1.00  0.00     0.127 S 
ATOM     92  O   UNL     1       2.654 -22.910   7.060  1.00  0.00    -0.237 OA
ATOM     93  O   UNL     1       4.881 -22.440   7.998  1.00  0.00    -0.237 OA
ATOM     94  O   UNL     1       2.884 -21.469   9.048  1.00  0.00    -0.744 OA
ENDBRANCH  88  91
ENDBRANCH  61  84
ENDBRANCH  35  36
ENDBRANCH  27  30
ENDBRANCH  25  26
ENDBRANCH  24  25
ENDBRANCH   1  24
TORSDOF 19
