REMARK SMILES C[NH+](C)[C@H](CC(=O)Nc1cccc(Cl)c1)C(=O)NCCCCCCNC(=O)c1ccc(-c2c3nc(c(-c4cccc(S(=O)(=O)[O-])c4F)c4ccc([nH]4)c(-c4cccc(S(=O)(=O)[O-])c4F)c4nc(c(-c5cccc(S(=O)(=O)[O-])c5F)c5ccc2[nH]5)C=C4)C=C3)cc1
REMARK SMILES IDX 21 1 20 2 19 3 18 4 16 5 17 6 4 8 2 9 1 10 3 11 5 13 6 14
REMARK SMILES IDX 7 15 8 16 9 18 10 19 15 20 11 21 13 22 12 23 14 24 22 25
REMARK SMILES IDX 23 26 24 27 25 28 26 29 27 31 28 32 29 33 90 34 30 35 89 36
REMARK SMILES IDX 31 37 32 38 33 39 83 40 34 41 88 42 82 43 84 44 35 45 87 46
REMARK SMILES IDX 81 47 80 48 36 50 68 51 48 52 67 53 49 54 52 55 66 56 85 57
REMARK SMILES IDX 50 58 51 59 65 61 86 62 53 63 37 64 38 65 46 66 39 67 41 68
REMARK SMILES IDX 47 69 40 70 42 71 43 72 44 73 45 74 69 75 70 76 78 77 71 78
REMARK SMILES IDX 73 79 79 80 72 81 74 82 75 83 76 84 77 85 54 86 55 87 63 88
REMARK SMILES IDX 56 89 58 90 64 91 57 92 59 93 60 94 61 95 62 96
REMARK H PARENT 18 7 2 12 8 17 25 30 84 49 52 60
REMARK Flexibility Score: inf
ROOT
ATOM      1  C   UNL     1       5.684  -0.924   0.880  1.00  0.00     0.002 C 
ENDROOT
BRANCH   1   2
ATOM      2  C   UNL     1       4.265  -1.128   0.252  1.00  0.00     0.021 C 
BRANCH   2   3
ATOM      3  C   UNL     1       3.183  -0.049  -0.026  1.00  0.00     0.116 C 
BRANCH   3   4
ATOM      4  N   UNL     1       3.207   0.792  -1.248  1.00  0.00    -0.351 N 
ATOM      5  C   UNL     1       2.331   1.718  -1.817  1.00  0.00     0.278 C 
ATOM      6  O   UNL     1       2.910   2.600  -2.477  1.00  0.00    -0.268 OA
ATOM      7  H   UNL     1       4.028   0.668  -1.778  1.00  0.00     0.163 HD
BRANCH   5   8
ATOM      8  C   UNL     1       0.722   1.671  -1.857  1.00  0.00     0.283 C 
BRANCH   8   9
ATOM      9  N   UNL     1      -0.040   2.995  -2.019  1.00  0.00    -0.329 N 
ATOM     10  C   UNL     1      -0.066   3.978  -0.935  1.00  0.00     0.333 C 
ATOM     11  C   UNL     1      -1.443   2.792  -2.427  1.00  0.00     0.333 C 
ATOM     12  H   UNL     1       0.555   3.409  -2.736  1.00  0.00     0.348 HD
ENDBRANCH   8   9
BRANCH   8  13
ATOM     13  C   UNL     1       0.009   0.489  -1.226  1.00  0.00     0.175 C 
BRANCH  13  14
ATOM     14  C   UNL     1      -0.886   0.651  -0.027  1.00  0.00     0.230 C 
ATOM     15  O   UNL     1      -2.032   0.179  -0.093  1.00  0.00    -0.274 OA
ATOM     16  N   UNL     1      -0.522   1.109   1.188  1.00  0.00    -0.326 N 
ATOM     17  H   UNL     1      -1.276   1.139   1.822  1.00  0.00     0.169 HD
BRANCH  16  18
ATOM     18  C   UNL     1       0.671   1.548   1.755  1.00  0.00     0.042 A 
ATOM     19  C   UNL     1       1.604   2.413   1.198  1.00  0.00     0.026 A 
ATOM     20  C   UNL     1       0.949   0.998   2.991  1.00  0.00     0.046 A 
ATOM     21  C   UNL     1       2.806   2.728   1.827  1.00  0.00     0.004 A 
ATOM     22  C   UNL     1       2.213   1.149   3.534  1.00  0.00     0.043 A 
ATOM     23  C   UNL     1       3.134   2.045   2.983  1.00  0.00     0.020 A 
ATOM     24  Cl  UNL     1       2.619   0.041   4.776  1.00  0.00    -0.084 Cl
ENDBRANCH  16  18
ENDBRANCH  13  14
ENDBRANCH   8  13
ENDBRANCH   5   8
ENDBRANCH   3   4
ENDBRANCH   2   3
ENDBRANCH   1   2
BRANCH   1  25
ATOM     25  C   UNL     1       6.219  -0.077   2.068  1.00  0.00     0.002 C 
BRANCH  25  26
ATOM     26  C   UNL     1       5.904  -0.130   3.579  1.00  0.00     0.021 C 
BRANCH  26  27
ATOM     27  C   UNL     1       5.624  -1.399   4.382  1.00  0.00     0.116 C 
BRANCH  27  28
ATOM     28  N   UNL     1       6.802  -1.981   5.000  1.00  0.00    -0.352 N 
ATOM     29  C   UNL     1       6.986  -2.345   6.322  1.00  0.00     0.251 C 
ATOM     30  H   UNL     1       7.567  -2.138   4.401  1.00  0.00     0.163 HD
ATOM     31  O   UNL     1       8.120  -2.617   6.713  1.00  0.00    -0.269 OA
BRANCH  29  32
ATOM     32  C   UNL     1       5.850  -2.416   7.288  1.00  0.00     0.039 A 
ATOM     33  C   UNL     1       6.044  -1.962   8.600  1.00  0.00     0.014 A 
ATOM     34  C   UNL     1       4.631  -3.015   6.949  1.00  0.00     0.014 A 
ATOM     35  C   UNL     1       5.034  -2.113   9.561  1.00  0.00     0.010 A 
ATOM     36  C   UNL     1       3.604  -3.118   7.897  1.00  0.00     0.010 A 
ATOM     37  C   UNL     1       3.806  -2.704   9.223  1.00  0.00    -0.014 A 
BRANCH  37  38
ATOM     38  C   UNL     1       2.772  -2.958  10.268  1.00  0.00     0.031 A 
ATOM     39  C   UNL     1       2.426  -4.374  10.661  1.00  0.00     0.074 A 
ATOM     40  C   UNL     1       2.130  -1.927  10.853  1.00  0.00     0.049 A 
ATOM     41  N   UNL     1       1.588  -4.801  11.572  1.00  0.00    -0.248 NA
ATOM     42  C   UNL     1       3.094  -5.455   9.917  1.00  0.00     0.031 C 
ATOM     43  C   UNL     1       2.319  -0.516  10.514  1.00  0.00     0.029 A 
ATOM     44  N   UNL     1       1.180  -1.905  11.846  1.00  0.00    -0.354 N 
ATOM     45  C   UNL     1       1.607  -6.190  11.491  1.00  0.00     0.074 A 
ATOM     46  C   UNL     1       2.508  -6.535  10.414  1.00  0.00     0.031 C 
ATOM     47  C   UNL     1       1.520   0.234  11.291  1.00  0.00     0.029 A 
ATOM     48  C   UNL     1       0.749  -0.639  12.171  1.00  0.00     0.049 A 
ATOM     49  H   UNL     1       0.839  -2.718  12.284  1.00  0.00     0.167 HD
ATOM     50  C   UNL     1       0.960  -7.100  12.260  1.00  0.00     0.034 A 
ATOM     51  C   UNL     1      -0.161  -0.228  13.079  1.00  0.00     0.034 A 
ATOM     52  C   UNL     1       0.094  -6.753  13.355  1.00  0.00     0.049 A 
ATOM     53  C   UNL     1      -0.830  -1.255  13.955  1.00  0.00     0.074 A 
ATOM     54  C   UNL     1      -0.547  -7.593  14.248  1.00  0.00     0.029 A 
ATOM     55  N   UNL     1      -0.257  -5.457  13.701  1.00  0.00    -0.354 N 
ATOM     56  N   UNL     1      -0.678  -2.557  13.965  1.00  0.00    -0.248 NA
ATOM     57  C   UNL     1      -1.764  -0.754  14.975  1.00  0.00     0.031 C 
ATOM     58  C   UNL     1      -1.309  -6.805  15.117  1.00  0.00     0.029 A 
ATOM     59  C   UNL     1      -1.114  -5.473  14.788  1.00  0.00     0.049 A 
ATOM     60  H   UNL     1       0.056  -4.645  13.242  1.00  0.00     0.167 HD
ATOM     61  C   UNL     1      -1.464  -3.027  15.010  1.00  0.00     0.074 A 
ATOM     62  C   UNL     1      -2.075  -1.867  15.626  1.00  0.00     0.031 C 
ATOM     63  C   UNL     1      -1.673  -4.304  15.418  1.00  0.00     0.034 A 
BRANCH  50  64
ATOM     64  C   UNL     1       1.200  -8.562  11.972  1.00  0.00     0.023 A 
ATOM     65  C   UNL     1       2.458  -9.133  12.258  1.00  0.00     0.012 A 
ATOM     66  C   UNL     1       0.172  -9.383  11.466  1.00  0.00     0.148 A 
ATOM     67  C   UNL     1       2.704 -10.482  12.003  1.00  0.00     0.002 A 
ATOM     68  C   UNL     1       0.410 -10.739  11.260  1.00  0.00     0.091 A 
ATOM     69  F   UNL     1      -1.013  -8.825  11.185  1.00  0.00    -0.205 F 
ATOM     70  C   UNL     1       1.679 -11.286  11.514  1.00  0.00     0.022 A 
BRANCH  68  71
ATOM     71  S   UNL     1      -0.866 -11.877  10.707  1.00  0.00     0.127 S 
ATOM     72  O   UNL     1      -0.403 -12.205   9.358  1.00  0.00    -0.237 OA
ATOM     73  O   UNL     1      -0.743 -12.968  11.674  1.00  0.00    -0.237 OA
ATOM     74  O   UNL     1      -2.119 -11.141  10.775  1.00  0.00    -0.744 OA
ENDBRANCH  68  71
ENDBRANCH  50  64
BRANCH  51  75
ATOM     75  C   UNL     1      -0.439   1.228  13.254  1.00  0.00     0.023 A 
ATOM     76  C   UNL     1      -0.027   1.879  14.434  1.00  0.00     0.012 A 
ATOM     77  C   UNL     1      -1.085   1.974  12.249  1.00  0.00     0.148 A 
ATOM     78  C   UNL     1      -0.283   3.239  14.623  1.00  0.00     0.002 A 
ATOM     79  C   UNL     1      -1.285   3.340  12.421  1.00  0.00     0.091 A 
ATOM     80  F   UNL     1      -1.482   1.335  11.140  1.00  0.00    -0.205 F 
ATOM     81  C   UNL     1      -0.901   3.970  13.614  1.00  0.00     0.022 A 
BRANCH  79  82
ATOM     82  S   UNL     1      -1.949   4.378  11.112  1.00  0.00     0.127 S 
ATOM     83  O   UNL     1      -3.274   4.715  11.647  1.00  0.00    -0.237 OA
ATOM     84  O   UNL     1      -0.996   5.496  11.105  1.00  0.00    -0.237 OA
ATOM     85  O   UNL     1      -1.936   3.571   9.917  1.00  0.00    -0.744 OA
ENDBRANCH  79  82
ENDBRANCH  51  75
BRANCH  63  86
ATOM     86  C   UNL     1      -2.569  -4.519  16.610  1.00  0.00     0.023 A 
ATOM     87  C   UNL     1      -3.959  -4.320  16.492  1.00  0.00     0.012 A 
ATOM     88  C   UNL     1      -2.038  -4.990  17.827  1.00  0.00     0.148 A 
ATOM     89  C   UNL     1      -4.802  -4.551  17.578  1.00  0.00     0.002 A 
ATOM     90  C   UNL     1      -2.890  -5.269  18.888  1.00  0.00     0.091 A 
ATOM     91  F   UNL     1      -0.711  -5.156  17.925  1.00  0.00    -0.205 F 
ATOM     92  C   UNL     1      -4.270  -5.037  18.770  1.00  0.00     0.022 A 
BRANCH  90  93
ATOM     93  S   UNL     1      -2.307  -5.994  20.424  1.00  0.00     0.127 S 
ATOM     94  O   UNL     1      -2.413  -4.863  21.346  1.00  0.00    -0.237 OA
ATOM     95  O   UNL     1      -3.281  -7.061  20.654  1.00  0.00    -0.237 OA
ATOM     96  O   UNL     1      -0.952  -6.460  20.160  1.00  0.00    -0.744 OA
ENDBRANCH  90  93
ENDBRANCH  63  86
ENDBRANCH  37  38
ENDBRANCH  29  32
ENDBRANCH  27  28
ENDBRANCH  26  27
ENDBRANCH  25  26
ENDBRANCH   1  25
TORSDOF 20
