REMARK SMILES C[C@H](CCC(=O)NCCCCCCNC(=O)c1ccc(-c2c3nc(c(-c4cccc(S(=O)(=O)[O-])c4F)c4ccc([nH]4)c(-c4cccc(S(=O)(=O)[O-])c4F)c4nc(c(-c5cccc(S(=O)(=O)[O-])c5F)c5ccc2[nH]5)C=C4)C=C3)cc1)NC(=O)OC(C)(C)C
REMARK SMILES IDX 9 1 8 2 7 3 5 4 6 5 4 7 3 8 2 9 1 10 80 11 81 12 82 14 83 15
REMARK SMILES IDX 84 16 85 17 86 18 87 19 10 20 11 21 12 22 13 23 14 24 15 25
REMARK SMILES IDX 16 27 17 28 18 29 79 30 19 31 78 32 20 33 21 34 22 35 72 36
REMARK SMILES IDX 23 37 77 38 71 39 73 40 24 41 76 42 70 43 69 44 25 46 57 47
REMARK SMILES IDX 37 48 56 49 38 50 41 51 55 52 74 53 39 54 40 55 54 57 75 58
REMARK SMILES IDX 42 59 26 60 27 61 35 62 28 63 30 64 36 65 29 66 31 67 32 68
REMARK SMILES IDX 33 69 34 70 58 71 59 72 67 73 60 74 62 75 68 76 61 77 63 78
REMARK SMILES IDX 64 79 65 80 66 81 43 82 44 83 52 84 45 85 47 86 53 87 46 88
REMARK SMILES IDX 48 89 49 90 50 91 51 92
REMARK H PARENT 7 6 80 13 14 26 73 45 41 56
REMARK Flexibility Score: inf
ROOT
ATOM      1  C   UNL     1       0.417  -3.632  -1.840  1.00  0.00     0.021 C 
ENDROOT
BRANCH   1   2
ATOM      2  C   UNL     1      -0.437  -3.245  -0.627  1.00  0.00     0.116 C 
BRANCH   2   3
ATOM      3  N   UNL     1       0.388  -3.182   0.568  1.00  0.00    -0.356 N 
ATOM      4  C   UNL     1       0.753  -2.133   1.354  1.00  0.00     0.220 C 
ATOM      5  O   UNL     1       1.625  -2.325   2.205  1.00  0.00    -0.275 OA
ATOM      6  H   UNL     1       0.745  -4.052   0.861  1.00  0.00     0.163 HD
BRANCH   4   7
ATOM      7  C   UNL     1       0.060  -0.788   1.259  1.00  0.00     0.102 C 
BRANCH   7   8
ATOM      8  C   UNL     1       0.776   0.325   0.467  1.00  0.00     0.034 C 
BRANCH   8   9
ATOM      9  C   UNL     1       0.587   0.373  -1.071  1.00  0.00     0.082 C 
ATOM     10  C   UNL     1       1.643  -0.484  -1.764  1.00  0.00     0.031 C 
BRANCH   9  11
ATOM     11  N   UNL     1      -0.783   0.039  -1.418  1.00  0.00    -0.319 N 
ATOM     12  C   UNL     1      -1.524   0.219  -2.537  1.00  0.00     0.407 C 
ATOM     13  H   UNL     1      -1.273  -0.410  -0.692  1.00  0.00     0.167 HD
ATOM     14  O   UNL     1      -2.700  -0.111  -2.494  1.00  0.00    -0.225 OA
BRANCH  12  15
ATOM     15  O   UNL     1      -0.882   0.803  -3.571  1.00  0.00    -0.444 OA
BRANCH  15  16
ATOM     16  C   UNL     1      -1.696   1.288  -4.678  1.00  0.00     0.106 C 
ATOM     17  C   UNL     1      -2.494   0.175  -5.376  1.00  0.00     0.056 C 
ATOM     18  C   UNL     1      -2.612   2.421  -4.190  1.00  0.00     0.056 C 
ATOM     19  C   UNL     1      -0.701   1.867  -5.693  1.00  0.00     0.056 C 
ENDBRANCH  15  16
ENDBRANCH  12  15
ENDBRANCH   9  11
ENDBRANCH   8   9
ENDBRANCH   7   8
ENDBRANCH   4   7
ENDBRANCH   2   3
ENDBRANCH   1   2
BRANCH   1  20
ATOM     20  C   UNL     1       0.430  -5.131  -2.137  1.00  0.00     0.002 C 
BRANCH  20  21
ATOM     21  C   UNL     1      -0.875  -5.674  -2.724  1.00  0.00     0.002 C 
BRANCH  21  22
ATOM     22  C   UNL     1      -1.353  -4.986  -4.007  1.00  0.00     0.021 C 
BRANCH  22  23
ATOM     23  C   UNL     1      -0.311  -4.900  -5.119  1.00  0.00     0.116 C 
BRANCH  23  24
ATOM     24  N   UNL     1       0.192  -6.214  -5.494  1.00  0.00    -0.352 N 
ATOM     25  C   UNL     1       0.025  -6.911  -6.663  1.00  0.00     0.251 C 
ATOM     26  H   UNL     1       0.731  -6.669  -4.807  1.00  0.00     0.163 HD
ATOM     27  O   UNL     1       0.301  -8.106  -6.712  1.00  0.00    -0.269 OA
BRANCH  25  28
ATOM     28  C   UNL     1      -0.491  -6.219  -7.862  1.00  0.00     0.039 A 
ATOM     29  C   UNL     1      -1.481  -6.835  -8.630  1.00  0.00     0.014 A 
ATOM     30  C   UNL     1       0.015  -4.970  -8.234  1.00  0.00     0.014 A 
ATOM     31  C   UNL     1      -2.001  -6.173  -9.743  1.00  0.00     0.010 A 
ATOM     32  C   UNL     1      -0.558  -4.280  -9.297  1.00  0.00     0.010 A 
ATOM     33  C   UNL     1      -1.566  -4.877 -10.069  1.00  0.00    -0.014 A 
BRANCH  33  34
ATOM     34  C   UNL     1      -2.158  -4.133 -11.210  1.00  0.00     0.031 A 
ATOM     35  C   UNL     1      -1.300  -3.724 -12.378  1.00  0.00     0.074 A 
ATOM     36  C   UNL     1      -3.453  -3.761 -11.160  1.00  0.00     0.049 A 
ATOM     37  N   UNL     1      -1.627  -3.031 -13.437  1.00  0.00    -0.248 NA
ATOM     38  C   UNL     1       0.117  -4.125 -12.341  1.00  0.00     0.031 C 
ATOM     39  C   UNL     1      -4.368  -4.032 -10.049  1.00  0.00     0.029 A 
ATOM     40  N   UNL     1      -4.218  -3.054 -12.053  1.00  0.00    -0.354 N 
ATOM     41  C   UNL     1      -0.459  -2.887 -14.175  1.00  0.00     0.074 A 
ATOM     42  C   UNL     1       0.596  -3.534 -13.426  1.00  0.00     0.031 C 
ATOM     43  C   UNL     1      -5.570  -3.504 -10.329  1.00  0.00     0.029 A 
ATOM     44  C   UNL     1      -5.503  -2.825 -11.619  1.00  0.00     0.049 A 
ATOM     45  H   UNL     1      -3.879  -2.740 -12.923  1.00  0.00     0.167 HD
ATOM     46  C   UNL     1      -0.283  -2.296 -15.381  1.00  0.00     0.034 A 
ATOM     47  C   UNL     1      -6.510  -2.133 -12.188  1.00  0.00     0.034 A 
ATOM     48  C   UNL     1      -1.341  -1.682 -16.137  1.00  0.00     0.049 A 
ATOM     49  C   UNL     1      -6.290  -1.502 -13.537  1.00  0.00     0.074 A 
ATOM     50  C   UNL     1      -1.280  -1.124 -17.402  1.00  0.00     0.029 A 
ATOM     51  N   UNL     1      -2.647  -1.534 -15.698  1.00  0.00    -0.354 N 
ATOM     52  N   UNL     1      -5.215  -1.508 -14.286  1.00  0.00    -0.248 NA
ATOM     53  C   UNL     1      -7.435  -0.800 -14.136  1.00  0.00     0.031 C 
ATOM     54  C   UNL     1      -2.541  -0.607 -17.713  1.00  0.00     0.029 A 
ATOM     55  C   UNL     1      -3.398  -0.881 -16.660  1.00  0.00     0.049 A 
ATOM     56  H   UNL     1      -2.989  -1.846 -14.829  1.00  0.00     0.167 HD
ATOM     57  C   UNL     1      -5.564  -0.847 -15.459  1.00  0.00     0.074 A 
ATOM     58  C   UNL     1      -6.957  -0.474 -15.329  1.00  0.00     0.031 C 
ATOM     59  C   UNL     1      -4.797  -0.562 -16.540  1.00  0.00     0.034 A 
BRANCH  46  60
ATOM     60  C   UNL     1       1.098  -2.321 -15.985  1.00  0.00     0.023 A 
ATOM     61  C   UNL     1       1.628  -3.538 -16.462  1.00  0.00     0.012 A 
ATOM     62  C   UNL     1       1.838  -1.134 -16.149  1.00  0.00     0.148 A 
ATOM     63  C   UNL     1       2.884  -3.578 -17.065  1.00  0.00     0.002 A 
ATOM     64  C   UNL     1       3.068  -1.174 -16.794  1.00  0.00     0.091 A 
ATOM     65  F   UNL     1       1.325   0.009 -15.673  1.00  0.00    -0.205 F 
ATOM     66  C   UNL     1       3.598  -2.396 -17.241  1.00  0.00     0.022 A 
BRANCH  64  67
ATOM     67  S   UNL     1       4.030   0.301 -17.145  1.00  0.00     0.127 S 
ATOM     68  O   UNL     1       5.200   0.101 -16.290  1.00  0.00    -0.237 OA
ATOM     69  O   UNL     1       4.291   0.163 -18.578  1.00  0.00    -0.237 OA
ATOM     70  O   UNL     1       3.185   1.431 -16.784  1.00  0.00    -0.744 OA
ENDBRANCH  64  67
ENDBRANCH  46  60
BRANCH  47  71
ATOM     71  C   UNL     1      -7.832  -2.032 -11.507  1.00  0.00     0.023 A 
ATOM     72  C   UNL     1      -8.955  -2.674 -12.064  1.00  0.00     0.012 A 
ATOM     73  C   UNL     1      -7.981  -1.303 -10.312  1.00  0.00     0.148 A 
ATOM     74  C   UNL     1     -10.211  -2.554 -11.469  1.00  0.00     0.002 A 
ATOM     75  C   UNL     1      -9.223  -1.236  -9.692  1.00  0.00     0.091 A 
ATOM     76  F   UNL     1      -6.903  -0.691  -9.801  1.00  0.00    -0.205 F 
ATOM     77  C   UNL     1     -10.344  -1.843 -10.280  1.00  0.00     0.022 A 
BRANCH  75  78
ATOM     78  S   UNL     1      -9.460  -0.452  -8.094  1.00  0.00     0.127 S 
ATOM     79  O   UNL     1     -10.236   0.732  -8.455  1.00  0.00    -0.237 OA
ATOM     80  O   UNL     1     -10.204  -1.477  -7.363  1.00  0.00    -0.237 OA
ATOM     81  O   UNL     1      -8.122  -0.198  -7.579  1.00  0.00    -0.744 OA
ENDBRANCH  75  78
ENDBRANCH  47  71
BRANCH  59  82
ATOM     82  C   UNL     1      -5.454   0.146 -17.696  1.00  0.00     0.023 A 
ATOM     83  C   UNL     1      -5.824   1.500 -17.578  1.00  0.00     0.012 A 
ATOM     84  C   UNL     1      -5.641  -0.518 -18.925  1.00  0.00     0.148 A 
ATOM     85  C   UNL     1      -6.404   2.172 -18.654  1.00  0.00     0.002 A 
ATOM     86  C   UNL     1      -6.169   0.173 -20.008  1.00  0.00     0.091 A 
ATOM     87  F   UNL     1      -5.297  -1.811 -19.012  1.00  0.00    -0.205 F 
ATOM     88  C   UNL     1      -6.565   1.513 -19.870  1.00  0.00     0.022 A 
BRANCH  86  89
ATOM     89  S   UNL     1      -6.320  -0.561 -21.640  1.00  0.00     0.127 S 
ATOM     90  O   UNL     1      -7.770  -0.691 -21.775  1.00  0.00    -0.237 OA
ATOM     91  O   UNL     1      -5.716   0.461 -22.495  1.00  0.00    -0.237 OA
ATOM     92  O   UNL     1      -5.585  -1.818 -21.587  1.00  0.00    -0.744 OA
ENDBRANCH  86  89
ENDBRANCH  59  82
ENDBRANCH  33  34
ENDBRANCH  25  28
ENDBRANCH  23  24
ENDBRANCH  22  23
ENDBRANCH  21  22
ENDBRANCH  20  21
ENDBRANCH   1  20
TORSDOF 21
