REMARK SMILES O=C(NCCCCCCNC(=O)[C@H]1[C@H]2CC[C@H](CC2)[C@H]1C(=O)Nc1ccc(C(=O)N2CCCC2)cc1)c1ccc(-c2c3nc(c(-c4cccc(S(=O)(=O)[O-])c4F)c4ccc([nH]4)c(-c4cccc(S(=O)(=O)[O-])c4F)c4nc(c(-c5cccc(S(=O)(=O)[O-])c5F)c5ccc2[nH]5)C=C4)C=C3)cc1
REMARK SMILES IDX 6 1 5 2 4 3 3 4 1 5 2 6 37 8 38 9 99 10 39 11 98 12 40 13
REMARK SMILES IDX 41 14 42 15 92 16 43 17 97 18 91 19 93 20 44 21 96 22 90 23
REMARK SMILES IDX 89 24 45 26 77 27 57 28 76 29 58 30 61 31 75 32 94 33 59 34
REMARK SMILES IDX 60 35 74 37 95 38 62 39 46 40 47 41 55 42 48 43 50 44 56 45
REMARK SMILES IDX 49 46 51 47 52 48 53 49 54 50 78 51 79 52 87 53 80 54 82 55
REMARK SMILES IDX 88 56 81 57 83 58 84 59 85 60 86 61 63 62 64 63 72 64 65 65
REMARK SMILES IDX 67 66 73 67 66 68 68 69 69 70 70 71 71 72 7 73 8 74 9 75
REMARK SMILES IDX 10 76 11 77 12 79 13 80 14 81 20 82 19 83 15 84 17 85 18 86
REMARK SMILES IDX 16 87 21 88 22 89 23 90 24 92 25 93 36 94 26 95 35 96 27 97
REMARK SMILES IDX 28 98 29 99 30 100 31 101 34 102 32 103 33 104
REMARK H PARENT 3 7 93 25 61 36 10 78 23 91
REMARK Flexibility Score: inf
ROOT
ATOM      1  C   UNL     1       3.491  -3.804  -1.784  1.00  0.00     0.002 C 
ENDROOT
BRANCH   1   2
ATOM      2  C   UNL     1       4.014  -2.784  -0.775  1.00  0.00     0.021 C 
BRANCH   2   3
ATOM      3  C   UNL     1       3.771  -1.296  -0.993  1.00  0.00     0.116 C 
BRANCH   3   4
ATOM      4  N   UNL     1       2.414  -0.858  -0.757  1.00  0.00    -0.352 N 
ATOM      5  O   UNL     1       0.706   0.285   0.130  1.00  0.00    -0.269 OA
ATOM      6  C   UNL     1       1.925   0.149   0.051  1.00  0.00     0.251 C 
ATOM      7  H   UNL     1       1.727  -1.359  -1.253  1.00  0.00     0.163 HD
BRANCH   6   8
ATOM      8  C   UNL     1       2.813   1.042   0.854  1.00  0.00     0.039 A 
ATOM      9  C   UNL     1       4.025   1.544   0.374  1.00  0.00     0.014 A 
ATOM     10  C   UNL     1       2.380   1.439   2.127  1.00  0.00     0.014 A 
ATOM     11  C   UNL     1       4.858   2.305   1.207  1.00  0.00     0.010 A 
ATOM     12  C   UNL     1       3.177   2.272   2.928  1.00  0.00     0.010 A 
ATOM     13  C   UNL     1       4.445   2.684   2.495  1.00  0.00    -0.014 A 
BRANCH  13  14
ATOM     14  C   UNL     1       5.320   3.541   3.353  1.00  0.00     0.031 A 
ATOM     15  C   UNL     1       5.822   3.057   4.693  1.00  0.00     0.074 A 
ATOM     16  C   UNL     1       5.649   4.784   2.940  1.00  0.00     0.049 A 
ATOM     17  N   UNL     1       6.581   3.677   5.564  1.00  0.00    -0.248 NA
ATOM     18  C   UNL     1       5.404   1.714   5.120  1.00  0.00     0.031 C 
ATOM     19  C   UNL     1       5.195   5.405   1.695  1.00  0.00     0.029 A 
ATOM     20  N   UNL     1       6.430   5.752   3.524  1.00  0.00    -0.354 N 
ATOM     21  C   UNL     1       6.694   2.822   6.657  1.00  0.00     0.074 A 
ATOM     22  C   UNL     1       5.912   1.645   6.344  1.00  0.00     0.031 C 
ATOM     23  C   UNL     1       5.721   6.635   1.596  1.00  0.00     0.029 A 
ATOM     24  C   UNL     1       6.510   6.914   2.792  1.00  0.00     0.049 A 
ATOM     25  H   UNL     1       6.890   5.626   4.386  1.00  0.00     0.167 HD
ATOM     26  C   UNL     1       7.395   2.989   7.806  1.00  0.00     0.034 A 
ATOM     27  C   UNL     1       7.133   8.081   3.051  1.00  0.00     0.034 A 
ATOM     28  C   UNL     1       8.209   4.140   8.102  1.00  0.00     0.049 A 
ATOM     29  C   UNL     1       7.925   8.229   4.321  1.00  0.00     0.074 A 
ATOM     30  C   UNL     1       9.021   4.360   9.203  1.00  0.00     0.029 A 
ATOM     31  N   UNL     1       8.308   5.271   7.307  1.00  0.00    -0.354 N 
ATOM     32  N   UNL     1       8.127   7.354   5.275  1.00  0.00    -0.248 NA
ATOM     33  C   UNL     1       8.603   9.516   4.534  1.00  0.00     0.031 C 
ATOM     34  C   UNL     1       9.579   5.638   9.091  1.00  0.00     0.029 A 
ATOM     35  C   UNL     1       9.154   6.196   7.897  1.00  0.00     0.049 A 
ATOM     36  H   UNL     1       7.844   5.398   6.448  1.00  0.00     0.167 HD
ATOM     37  C   UNL     1       8.993   7.965   6.175  1.00  0.00     0.074 A 
ATOM     38  C   UNL     1       9.288   9.279   5.644  1.00  0.00     0.031 C 
ATOM     39  C   UNL     1       9.492   7.481   7.339  1.00  0.00     0.034 A 
BRANCH  26  40
ATOM     40  C   UNL     1       7.337   1.887   8.838  1.00  0.00     0.023 A 
ATOM     41  C   UNL     1       7.976   0.654   8.590  1.00  0.00     0.012 A 
ATOM     42  C   UNL     1       6.711   2.097  10.084  1.00  0.00     0.148 A 
ATOM     43  C   UNL     1       7.956  -0.363   9.544  1.00  0.00     0.002 A 
ATOM     44  C   UNL     1       6.738   1.096  11.050  1.00  0.00     0.091 A 
ATOM     45  F   UNL     1       6.098   3.269  10.302  1.00  0.00    -0.205 F 
ATOM     46  C   UNL     1       7.348  -0.139  10.776  1.00  0.00     0.022 A 
BRANCH  44  47
ATOM     47  S   UNL     1       6.059   1.318  12.698  1.00  0.00     0.127 S 
ATOM     48  O   UNL     1       4.885   0.449  12.655  1.00  0.00    -0.237 OA
ATOM     49  O   UNL     1       7.146   0.832  13.548  1.00  0.00    -0.237 OA
ATOM     50  O   UNL     1       5.778   2.742  12.830  1.00  0.00    -0.744 OA
ENDBRANCH  44  47
ENDBRANCH  26  40
BRANCH  27  51
ATOM     51  C   UNL     1       7.083   9.191   2.056  1.00  0.00     0.023 A 
ATOM     52  C   UNL     1       8.257   9.556   1.366  1.00  0.00     0.012 A 
ATOM     53  C   UNL     1       5.884   9.875   1.780  1.00  0.00     0.148 A 
ATOM     54  C   UNL     1       8.244  10.604   0.446  1.00  0.00     0.002 A 
ATOM     55  C   UNL     1       5.865  10.878   0.818  1.00  0.00     0.091 A 
ATOM     56  F   UNL     1       4.781   9.520   2.454  1.00  0.00    -0.205 F 
ATOM     57  C   UNL     1       7.048  11.258   0.165  1.00  0.00     0.022 A 
BRANCH  55  58
ATOM     58  S   UNL     1       4.351  11.687   0.293  1.00  0.00     0.127 S 
ATOM     59  O   UNL     1       4.546  13.043   0.795  1.00  0.00    -0.237 OA
ATOM     60  O   UNL     1       4.425  11.548  -1.160  1.00  0.00    -0.237 OA
ATOM     61  O   UNL     1       3.266  10.934   0.915  1.00  0.00    -0.744 OA
ENDBRANCH  55  58
ENDBRANCH  27  51
BRANCH  39  62
ATOM     62  C   UNL     1      10.470   8.344   8.095  1.00  0.00     0.023 A 
ATOM     63  C   UNL     1      10.035   9.519   8.740  1.00  0.00     0.012 A 
ATOM     64  C   UNL     1      11.821   7.957   8.206  1.00  0.00     0.148 A 
ATOM     65  C   UNL     1      10.937  10.317   9.445  1.00  0.00     0.002 A 
ATOM     66  C   UNL     1      12.701   8.727   8.956  1.00  0.00     0.091 A 
ATOM     67  F   UNL     1      12.223   6.848   7.569  1.00  0.00    -0.205 F 
ATOM     68  C   UNL     1      12.265   9.916   9.562  1.00  0.00     0.022 A 
BRANCH  66  69
ATOM     69  S   UNL     1      14.404   8.233   9.243  1.00  0.00     0.127 S 
ATOM     70  O   UNL     1      15.135   9.170   8.391  1.00  0.00    -0.237 OA
ATOM     71  O   UNL     1      14.558   8.468  10.680  1.00  0.00    -0.237 OA
ATOM     72  O   UNL     1      14.488   6.833   8.850  1.00  0.00    -0.744 OA
ENDBRANCH  66  69
ENDBRANCH  39  62
ENDBRANCH  13  14
ENDBRANCH   6   8
ENDBRANCH   3   4
ENDBRANCH   2   3
ENDBRANCH   1   2
BRANCH   1  73
ATOM     73  C   UNL     1       3.820  -3.659  -3.284  1.00  0.00     0.002 C 
BRANCH  73  74
ATOM     74  C   UNL     1       5.273  -3.654  -3.831  1.00  0.00     0.021 C 
BRANCH  74  75
ATOM     75  C   UNL     1       6.275  -4.638  -3.225  1.00  0.00     0.116 C 
BRANCH  75  76
ATOM     76  N   UNL     1       6.783  -5.737  -4.019  1.00  0.00    -0.356 N 
ATOM     77  C   UNL     1       7.759  -6.653  -3.748  1.00  0.00     0.224 C 
ATOM     78  H   UNL     1       6.354  -5.842  -4.898  1.00  0.00     0.163 HD
ATOM     79  O   UNL     1       7.597  -7.734  -4.340  1.00  0.00    -0.275 OA
BRANCH  77  80
ATOM     80  C   UNL     1       9.064  -6.516  -2.864  1.00  0.00     0.094 C 
ATOM     81  C   UNL     1       9.983  -5.267  -2.508  1.00  0.00     0.002 C 
ATOM     82  C   UNL     1       9.301  -7.644  -1.817  1.00  0.00     0.094 C 
ATOM     83  C   UNL     1      10.289  -4.945  -0.998  1.00  0.00     0.005 C 
ATOM     84  C   UNL     1      11.414  -5.701  -2.946  1.00  0.00     0.005 C 
ATOM     85  C   UNL     1      10.678  -7.384  -1.116  1.00  0.00     0.002 C 
ATOM     86  C   UNL     1      10.561  -6.199  -0.167  1.00  0.00     0.005 C 
ATOM     87  C   UNL     1      11.787  -6.987  -2.154  1.00  0.00     0.005 C 
BRANCH  82  88
ATOM     88  C   UNL     1       8.178  -8.242  -0.874  1.00  0.00     0.228 C 
ATOM     89  O   UNL     1       8.002  -9.473  -0.933  1.00  0.00    -0.274 OA
ATOM     90  N   UNL     1       7.454  -7.622   0.124  1.00  0.00    -0.326 N 
ATOM     91  H   UNL     1       7.037  -8.256   0.752  1.00  0.00     0.169 HD
BRANCH  90  92
ATOM     92  C   UNL     1       7.187  -6.279   0.433  1.00  0.00     0.041 A 
ATOM     93  C   UNL     1       6.762  -5.787   1.665  1.00  0.00     0.027 A 
ATOM     94  C   UNL     1       7.357  -5.352  -0.540  1.00  0.00     0.027 A 
ATOM     95  C   UNL     1       6.717  -4.373   1.900  1.00  0.00     0.016 A 
ATOM     96  C   UNL     1       7.341  -3.983  -0.333  1.00  0.00     0.016 A 
ATOM     97  C   UNL     1       7.063  -3.451   0.895  1.00  0.00     0.040 A 
BRANCH  97  98
ATOM     98  C   UNL     1       7.361  -1.992   1.112  1.00  0.00     0.253 C 
ATOM     99  O   UNL     1       7.438  -1.599   2.268  1.00  0.00    -0.269 OA
ATOM    100  N   UNL     1       7.764  -1.204   0.021  1.00  0.00    -0.339 N 
ATOM    101  C   UNL     1       7.113  -0.967  -1.261  1.00  0.00     0.120 C 
ATOM    102  C   UNL     1       8.886  -0.288   0.156  1.00  0.00     0.120 C 
ATOM    103  C   UNL     1       8.243  -0.533  -2.173  1.00  0.00     0.023 C 
ATOM    104  C   UNL     1       9.102   0.313  -1.240  1.00  0.00     0.023 C 
ENDBRANCH  97  98
ENDBRANCH  90  92
ENDBRANCH  82  88
ENDBRANCH  77  80
ENDBRANCH  75  76
ENDBRANCH  74  75
ENDBRANCH  73  74
ENDBRANCH   1  73
TORSDOF 19
