REMARK SMILES O=C(/C=C/[C@@]12C=C(O)C(=O)C=C1C(=O)C1=Cc3cc(O)c(O)cc3O[C@@H](c3ccc(O)c(O)c3)[C@@H]12)NCCCCCCNC(=O)c1ccc(-c2c3nc(c(-c4cccc(S(=O)(=O)[O-])c4F)c4ccc([nH]4)c(-c4cccc(S(=O)(=O)[O-])c4F)c4nc(c(-c5cccc(S(=O)(=O)[O-])c5F)c5ccc2[nH]5)C=C4)C=C3)cc1
REMARK SMILES IDX 38 1 37 2 36 3 1 4 2 5 3 7 4 8 5 9 6 10 12 11 35 12 7 13
REMARK SMILES IDX 11 14 13 15 15 16 9 18 14 19 16 20 10 21 8 22 17 24 18 25
REMARK SMILES IDX 24 26 19 27 23 28 21 29 25 30 26 31 27 33 28 34 34 35 29 36
REMARK SMILES IDX 32 37 30 38 33 39 31 41 20 43 22 45 39 47 40 48 41 49 42 50
REMARK SMILES IDX 43 51 44 52 45 54 46 55 47 56 108 57 48 58 107 59 49 60
REMARK SMILES IDX 50 61 51 62 101 63 52 64 106 65 100 66 102 67 53 68 105 69
REMARK SMILES IDX 99 70 98 71 54 73 86 74 66 75 85 76 67 77 70 78 84 79 103 80
REMARK SMILES IDX 68 81 69 82 83 84 104 85 71 86 55 87 56 88 64 89 57 90 59 91
REMARK SMILES IDX 65 92 58 93 60 94 61 95 62 96 63 97 87 98 88 99 96 100
REMARK SMILES IDX 89 101 91 102 97 103 90 104 92 105 93 106 94 107 95 108
REMARK SMILES IDX 72 109 73 110 81 111 74 112 76 113 82 114 75 115 77 116
REMARK SMILES IDX 78 117 79 118 80 119
REMARK H PARENT 36 6 8 23 33 40 31 42 20 44 22 46 43 53 102 72 70 83
REMARK Flexibility Score: 90.00
ROOT
ATOM      1  C   UNL     1       2.535  -3.368   0.559  1.00  0.00     0.021 C 
ENDROOT
BRANCH   1   2
ATOM      2  C   UNL     1       1.927  -2.087   1.136  1.00  0.00     0.116 C 
BRANCH   2   3
ATOM      3  N   UNL     1       2.440  -0.889   0.495  1.00  0.00    -0.353 N 
ATOM      4  O   UNL     1       0.512  -0.270  -0.619  1.00  0.00    -0.270 OA
ATOM      5  C   UNL     1       1.688  -0.090  -0.337  1.00  0.00     0.243 C 
ATOM      6  H   UNL     1       3.376  -0.634   0.664  1.00  0.00     0.163 HD
BRANCH   5   7
ATOM      7  C   UNL     1       2.395   1.133  -0.828  1.00  0.00     0.068 C 
ATOM      8  C   UNL     1       3.692   1.094  -1.175  1.00  0.00    -0.005 C 
BRANCH   8   9
ATOM      9  C   UNL     1       4.676   2.252  -1.491  1.00  0.00     0.051 C 
ATOM     10  C   UNL     1       4.385   3.379  -0.540  1.00  0.00     0.040 C 
ATOM     11  C   UNL     1       6.046   1.653  -1.264  1.00  0.00     0.018 C 
ATOM     12  C   UNL     1       4.816   2.637  -3.002  1.00  0.00     0.087 CG0
ATOM     13  C   UNL     1       5.147   3.650   0.527  1.00  0.00     0.160 C 
ATOM     14  C   UNL     1       6.858   1.898  -0.232  1.00  0.00     0.065 C 
ATOM     15  C   UNL     1       6.332   0.818  -2.475  1.00  0.00     0.186 C 
ATOM     16  C   UNL     1       5.452   1.375  -3.554  1.00  0.00     0.009 C 
ATOM     17  G   UNL     1       5.841   3.748  -3.458  1.00  0.00     0.000 G0
ATOM     18  C   UNL     1       6.423   2.901   0.774  1.00  0.00     0.220 C 
ATOM     19  O   UNL     1       7.138  -0.074  -2.566  1.00  0.00    -0.289 OA
ATOM     20  C   UNL     1       5.355   0.999  -4.832  1.00  0.00     0.020 C 
ATOM     21  O   UNL     1       7.114   3.192   1.744  1.00  0.00    -0.286 OA
BRANCH  13  22
ATOM     22  O   UNL     1       4.808   4.670   1.394  1.00  0.00    -0.504 OA
ATOM     23  H   UNL     1       4.016   5.153   1.263  1.00  0.00     0.293 HD
ENDBRANCH  13  22
BRANCH  20  24
ATOM     24  C   UNL     1       4.758   1.968  -5.773  1.00  0.00     0.021 A 
ATOM     25  C   UNL     1       3.786   1.565  -6.702  1.00  0.00     0.062 A 
ATOM     26  C   UNL     1       5.181   3.319  -5.767  1.00  0.00     0.131 A 
ATOM     27  C   UNL     1       3.278   2.499  -7.608  1.00  0.00     0.158 A 
ATOM     28  C   UNL     1       4.727   4.216  -6.734  1.00  0.00     0.097 A 
ATOM     29  C   UNL     1       3.758   3.807  -7.630  1.00  0.00     0.161 A 
BRANCH  26  30
ATOM     30  O   UNL     1       6.101   3.833  -4.891  1.00  0.00    -0.484 OA
BRANCH  30  31
ATOM     31  C   UNL     1       5.841   3.748  -3.458  1.00  0.00     0.213 CG0
ATOM     32  G   UNL     1       4.816   2.637  -3.002  1.00  0.00     0.000 G0
BRANCH  31  33
ATOM     33  C   UNL     1       5.582   5.150  -2.942  1.00  0.00    -0.003 A 
ATOM     34  C   UNL     1       6.251   5.598  -1.790  1.00  0.00     0.011 A 
ATOM     35  C   UNL     1       4.692   6.028  -3.576  1.00  0.00     0.057 A 
ATOM     36  C   UNL     1       5.916   6.811  -1.190  1.00  0.00     0.050 A 
ATOM     37  C   UNL     1       4.426   7.279  -3.023  1.00  0.00     0.157 A 
ATOM     38  C   UNL     1       4.980   7.636  -1.799  1.00  0.00     0.157 A 
BRANCH  37  39
ATOM     39  O   UNL     1       3.596   8.148  -3.671  1.00  0.00    -0.504 OA
ATOM     40  H   UNL     1       3.417   8.989  -3.300  1.00  0.00     0.293 HD
ENDBRANCH  37  39
BRANCH  38  41
ATOM     41  O   UNL     1       4.604   8.796  -1.189  1.00  0.00    -0.504 OA
ATOM     42  H   UNL     1       4.978   9.035  -0.364  1.00  0.00     0.293 HD
ENDBRANCH  38  41
ENDBRANCH  31  33
ENDBRANCH  30  31
ENDBRANCH  26  30
BRANCH  27  43
ATOM     43  O   UNL     1       2.301   2.183  -8.513  1.00  0.00    -0.504 OA
ATOM     44  H   UNL     1       1.947   1.316  -8.536  1.00  0.00     0.293 HD
ENDBRANCH  27  43
BRANCH  29  45
ATOM     45  O   UNL     1       3.265   4.711  -8.526  1.00  0.00    -0.504 OA
ATOM     46  H   UNL     1       2.608   4.451  -9.141  1.00  0.00     0.293 HD
ENDBRANCH  29  45
ENDBRANCH  20  24
ENDBRANCH   8   9
ENDBRANCH   5   7
ENDBRANCH   2   3
ENDBRANCH   1   2
BRANCH   1  47
ATOM     47  C   UNL     1       4.050  -3.529   0.758  1.00  0.00     0.002 C 
BRANCH  47  48
ATOM     48  C   UNL     1       4.545  -3.571   2.208  1.00  0.00     0.002 C 
BRANCH  48  49
ATOM     49  C   UNL     1       3.907  -4.634   3.102  1.00  0.00     0.021 C 
BRANCH  49  50
ATOM     50  C   UNL     1       4.062  -6.073   2.624  1.00  0.00     0.116 C 
BRANCH  50  51
ATOM     51  N   UNL     1       5.436  -6.556   2.673  1.00  0.00    -0.352 N 
ATOM     52  C   UNL     1       5.926  -7.732   3.202  1.00  0.00     0.251 C 
ATOM     53  H   UNL     1       6.109  -5.959   2.271  1.00  0.00     0.163 HD
ATOM     54  O   UNL     1       7.137  -7.920   3.267  1.00  0.00    -0.269 OA
BRANCH  52  55
ATOM     55  C   UNL     1       4.981  -8.741   3.736  1.00  0.00     0.039 A 
ATOM     56  C   UNL     1       3.831  -9.077   3.021  1.00  0.00     0.014 A 
ATOM     57  C   UNL     1       5.213  -9.305   4.993  1.00  0.00     0.014 A 
ATOM     58  C   UNL     1       2.819  -9.796   3.648  1.00  0.00     0.010 A 
ATOM     59  C   UNL     1       4.234 -10.115   5.580  1.00  0.00     0.010 A 
ATOM     60  C   UNL     1       2.997 -10.309   4.944  1.00  0.00    -0.014 A 
BRANCH  60  61
ATOM     61  C   UNL     1       1.868 -11.014   5.613  1.00  0.00     0.031 A 
ATOM     62  C   UNL     1       1.265 -10.477   6.889  1.00  0.00     0.074 A 
ATOM     63  C   UNL     1       1.341 -12.114   5.038  1.00  0.00     0.049 A 
ATOM     64  N   UNL     1       0.251 -10.939   7.577  1.00  0.00    -0.248 NA
ATOM     65  C   UNL     1       1.876  -9.271   7.472  1.00  0.00     0.031 C 
ATOM     66  C   UNL     1       1.838 -12.740   3.811  1.00  0.00     0.029 A 
ATOM     67  N   UNL     1       0.268 -12.892   5.396  1.00  0.00    -0.354 N 
ATOM     68  C   UNL     1       0.126 -10.107   8.685  1.00  0.00     0.074 A 
ATOM     69  C   UNL     1       1.181  -9.123   8.592  1.00  0.00     0.031 C 
ATOM     70  C   UNL     1       1.048 -13.776   3.494  1.00  0.00     0.029 A 
ATOM     71  C   UNL     1       0.028 -13.931   4.526  1.00  0.00     0.049 A 
ATOM     72  H   UNL     1      -0.278 -12.723   6.197  1.00  0.00     0.167 HD
ATOM     73  C   UNL     1      -0.798 -10.142   9.676  1.00  0.00     0.034 A 
ATOM     74  C   UNL     1      -0.897 -14.911   4.557  1.00  0.00     0.034 A 
ATOM     75  C   UNL     1      -1.875 -11.094   9.743  1.00  0.00     0.049 A 
ATOM     76  C   UNL     1      -1.897 -14.936   5.680  1.00  0.00     0.074 A 
ATOM     77  C   UNL     1      -2.889 -11.174  10.682  1.00  0.00     0.029 A 
ATOM     78  N   UNL     1      -2.079 -12.131   8.846  1.00  0.00    -0.354 N 
ATOM     79  N   UNL     1      -2.061 -14.078   6.657  1.00  0.00    -0.248 NA
ATOM     80  C   UNL     1      -2.853 -16.053   5.695  1.00  0.00     0.031 C 
ATOM     81  C   UNL     1      -3.686 -12.279  10.371  1.00  0.00     0.029 A 
ATOM     82  C   UNL     1      -3.191 -12.867   9.219  1.00  0.00     0.049 A 
ATOM     83  H   UNL     1      -1.516 -12.316   8.060  1.00  0.00     0.167 HD
ATOM     84  C   UNL     1      -3.147 -14.539   7.392  1.00  0.00     0.074 A 
ATOM     85  C   UNL     1      -3.623 -15.735   6.727  1.00  0.00     0.031 C 
ATOM     86  C   UNL     1      -3.685 -14.030   8.527  1.00  0.00     0.034 A 
BRANCH  73  87
ATOM     87  C   UNL     1      -0.727  -9.089  10.755  1.00  0.00     0.023 A 
ATOM     88  C   UNL     1      -1.089  -7.760  10.455  1.00  0.00     0.012 A 
ATOM     89  C   UNL     1      -0.408  -9.433  12.085  1.00  0.00     0.148 A 
ATOM     90  C   UNL     1      -1.110  -6.785  11.453  1.00  0.00     0.002 A 
ATOM     91  C   UNL     1      -0.478  -8.467  13.083  1.00  0.00     0.091 A 
ATOM     92  F   UNL     1      -0.053 -10.698  12.350  1.00  0.00    -0.205 F 
ATOM     93  C   UNL     1      -0.817  -7.141  12.767  1.00  0.00     0.022 A 
BRANCH  91  94
ATOM     94  S   UNL     1      -0.209  -8.838  14.820  1.00  0.00     0.127 S 
ATOM     95  O   UNL     1       1.026  -8.103  15.091  1.00  0.00    -0.237 OA
ATOM     96  O   UNL     1      -1.405  -8.270  15.443  1.00  0.00    -0.237 OA
ATOM     97  O   UNL     1      -0.102 -10.287  14.912  1.00  0.00    -0.744 OA
ENDBRANCH  91  94
ENDBRANCH  73  87
BRANCH  74  98
ATOM     98  C   UNL     1      -0.941 -15.920   3.461  1.00  0.00     0.023 A 
ATOM     99  C   UNL     1      -2.034 -15.933   2.574  1.00  0.00     0.012 A 
ATOM    100  C   UNL     1       0.118 -16.828   3.258  1.00  0.00     0.148 A 
ATOM    101  C   UNL     1      -2.080 -16.843   1.516  1.00  0.00     0.002 A 
ATOM    102  C   UNL     1       0.096 -17.686   2.166  1.00  0.00     0.091 A 
ATOM    103  F   UNL     1       1.143 -16.811   4.123  1.00  0.00    -0.205 F 
ATOM    104  C   UNL     1      -1.011 -17.708   1.304  1.00  0.00     0.022 A 
BRANCH 102 105
ATOM    105  S   UNL     1       1.493 -18.727   1.727  1.00  0.00     0.127 S 
ATOM    106  O   UNL     1       0.952 -20.065   1.957  1.00  0.00    -0.237 OA
ATOM    107  O   UNL     1       1.696 -18.377   0.321  1.00  0.00    -0.237 OA
ATOM    108  O   UNL     1       2.578 -18.326   2.611  1.00  0.00    -0.744 OA
ENDBRANCH 102 105
ENDBRANCH  74  98
BRANCH  86 109
ATOM    109  C   UNL     1      -4.859 -14.752   9.140  1.00  0.00     0.023 A 
ATOM    110  C   UNL     1      -4.655 -15.988   9.784  1.00  0.00     0.012 A 
ATOM    111  C   UNL     1      -6.135 -14.154   9.181  1.00  0.00     0.148 A 
ATOM    112  C   UNL     1      -5.705 -16.629  10.440  1.00  0.00     0.002 A 
ATOM    113  C   UNL     1      -7.163 -14.772   9.883  1.00  0.00     0.091 A 
ATOM    114  F   UNL     1      -6.312 -12.984   8.550  1.00  0.00    -0.205 F 
ATOM    115  C   UNL     1      -6.953 -16.014  10.502  1.00  0.00     0.022 A 
BRANCH 113 116
ATOM    116  S   UNL     1      -8.775 -14.011  10.112  1.00  0.00     0.127 S 
ATOM    117  O   UNL     1      -9.638 -14.904   9.339  1.00  0.00    -0.237 OA
ATOM    118  O   UNL     1      -8.952 -14.095  11.561  1.00  0.00    -0.237 OA
ATOM    119  O   UNL     1      -8.661 -12.656   9.590  1.00  0.00    -0.744 OA
ENDBRANCH 113 116
ENDBRANCH  86 109
ENDBRANCH  60  61
ENDBRANCH  52  55
ENDBRANCH  50  51
ENDBRANCH  49  50
ENDBRANCH  48  49
ENDBRANCH  47  48
ENDBRANCH   1  47
TORSDOF 23
