REMARK SMILES O=C(NCCCCCCNC(=O)[C@H]1[C@@H](C(=O)NNC(=O)c2ccccc2Cl)[C@H]2C=C[C@@H]1C2)c1ccc(-c2c3nc(c(-c4cccc(S(=O)(=O)[O-])c4F)c4ccc([nH]4)c(-c4cccc(S(=O)(=O)[O-])c4F)c4nc(c(-c5cccc(S(=O)(=O)[O-])c5F)c5ccc2[nH]5)C=C4)C=C3)cc1
REMARK SMILES IDX 6 1 5 2 4 3 3 4 1 5 2 6 33 8 34 9 95 10 35 11 94 12 36 13
REMARK SMILES IDX 37 14 38 15 88 16 39 17 93 18 87 19 89 20 40 21 92 22 86 23
REMARK SMILES IDX 85 24 41 26 73 27 53 28 72 29 54 30 57 31 71 32 90 33 55 34
REMARK SMILES IDX 56 35 70 37 91 38 58 39 42 40 43 41 51 42 44 43 46 44 52 45
REMARK SMILES IDX 45 46 47 47 48 48 49 49 50 50 74 51 75 52 83 53 76 54 78 55
REMARK SMILES IDX 84 56 77 57 79 58 80 59 81 60 82 61 59 62 60 63 68 64 61 65
REMARK SMILES IDX 63 66 69 67 62 68 64 69 65 70 66 71 67 72 7 73 8 74 9 75
REMARK SMILES IDX 10 76 11 77 12 79 13 80 14 81 31 82 28 83 30 84 32 85 29 86
REMARK SMILES IDX 15 87 16 88 17 89 18 91 19 92 20 94 21 95 22 96 26 97 23 98
REMARK SMILES IDX 25 99 27 100 24 101
REMARK H PARENT 3 7 89 25 57 36 10 78 17 90 18 93
REMARK Flexibility Score: inf
ROOT
ATOM      1  C   UNL     1       7.985  12.318  -1.587  1.00  0.00     0.002 C 
ENDROOT
BRANCH   1   2
ATOM      2  C   UNL     1       7.006  13.105  -0.716  1.00  0.00     0.021 C 
BRANCH   2   3
ATOM      3  C   UNL     1       7.597  14.371  -0.111  1.00  0.00     0.116 C 
BRANCH   3   4
ATOM      4  N   UNL     1       7.911  15.361  -1.129  1.00  0.00    -0.352 N 
ATOM      5  O   UNL     1       7.657  17.305  -2.243  1.00  0.00    -0.269 OA
ATOM      6  C   UNL     1       7.488  16.664  -1.210  1.00  0.00     0.251 C 
ATOM      7  H   UNL     1       8.504  15.057  -1.854  1.00  0.00     0.163 HD
BRANCH   6   8
ATOM      8  C   UNL     1       6.812  17.273  -0.045  1.00  0.00     0.039 A 
ATOM      9  C   UNL     1       7.333  17.086   1.239  1.00  0.00     0.014 A 
ATOM     10  C   UNL     1       5.651  18.025  -0.234  1.00  0.00     0.014 A 
ATOM     11  C   UNL     1       6.625  17.542   2.343  1.00  0.00     0.010 A 
ATOM     12  C   UNL     1       4.990  18.562   0.875  1.00  0.00     0.010 A 
ATOM     13  C   UNL     1       5.462  18.310   2.172  1.00  0.00    -0.014 A 
BRANCH  13  14
ATOM     14  C   UNL     1       4.835  18.938   3.362  1.00  0.00     0.031 A 
ATOM     15  C   UNL     1       3.439  18.590   3.796  1.00  0.00     0.074 A 
ATOM     16  C   UNL     1       5.556  19.847   4.048  1.00  0.00     0.049 A 
ATOM     17  N   UNL     1       2.766  19.044   4.821  1.00  0.00    -0.248 NA
ATOM     18  C   UNL     1       2.698  17.616   2.978  1.00  0.00     0.031 C 
ATOM     19  C   UNL     1       6.904  20.298   3.685  1.00  0.00     0.029 A 
ATOM     20  N   UNL     1       5.265  20.560   5.182  1.00  0.00    -0.354 N 
ATOM     21  C   UNL     1       1.512  18.450   4.753  1.00  0.00     0.074 A 
ATOM     22  C   UNL     1       1.516  17.596   3.584  1.00  0.00     0.031 C 
ATOM     23  C   UNL     1       7.329  21.192   4.587  1.00  0.00     0.029 A 
ATOM     24  C   UNL     1       6.267  21.426   5.556  1.00  0.00     0.049 A 
ATOM     25  H   UNL     1       4.422  20.461   5.681  1.00  0.00     0.167 HD
ATOM     26  C   UNL     1       0.461  18.599   5.595  1.00  0.00     0.034 A 
ATOM     27  C   UNL     1       6.317  22.331   6.550  1.00  0.00     0.034 A 
ATOM     28  C   UNL     1       0.481  19.427   6.773  1.00  0.00     0.049 A 
ATOM     29  C   UNL     1       5.140  22.454   7.473  1.00  0.00     0.074 A 
ATOM     30  C   UNL     1      -0.507  19.580   7.730  1.00  0.00     0.029 A 
ATOM     31  N   UNL     1       1.529  20.253   7.147  1.00  0.00    -0.354 N 
ATOM     32  N   UNL     1       4.021  21.771   7.476  1.00  0.00    -0.248 NA
ATOM     33  C   UNL     1       5.242  23.451   8.546  1.00  0.00     0.031 C 
ATOM     34  C   UNL     1      -0.069  20.522   8.666  1.00  0.00     0.029 A 
ATOM     35  C   UNL     1       1.205  20.932   8.310  1.00  0.00     0.049 A 
ATOM     36  H   UNL     1       2.379  20.344   6.658  1.00  0.00     0.167 HD
ATOM     37  C   UNL     1       3.296  22.239   8.564  1.00  0.00     0.074 A 
ATOM     38  C   UNL     1       4.118  23.238   9.216  1.00  0.00     0.031 C 
ATOM     39  C   UNL     1       2.053  21.889   8.974  1.00  0.00     0.034 A 
BRANCH  26  40
ATOM     40  C   UNL     1      -0.802  17.830   5.306  1.00  0.00     0.023 A 
ATOM     41  C   UNL     1      -0.851  16.446   5.565  1.00  0.00     0.012 A 
ATOM     42  C   UNL     1      -1.972  18.497   4.891  1.00  0.00     0.148 A 
ATOM     43  C   UNL     1      -2.040  15.735   5.402  1.00  0.00     0.002 A 
ATOM     44  C   UNL     1      -3.163  17.790   4.769  1.00  0.00     0.091 A 
ATOM     45  F   UNL     1      -1.900  19.811   4.635  1.00  0.00    -0.205 F 
ATOM     46  C   UNL     1      -3.197  16.408   5.016  1.00  0.00     0.022 A 
BRANCH  44  47
ATOM     47  S   UNL     1      -4.725  18.576   4.357  1.00  0.00     0.127 S 
ATOM     48  O   UNL     1      -4.998  18.012   3.035  1.00  0.00    -0.237 OA
ATOM     49  O   UNL     1      -5.603  18.089   5.420  1.00  0.00    -0.237 OA
ATOM     50  O   UNL     1      -4.474  20.010   4.380  1.00  0.00    -0.744 OA
ENDBRANCH  44  47
ENDBRANCH  26  40
BRANCH  27  51
ATOM     51  C   UNL     1       7.531  23.174   6.730  1.00  0.00     0.023 A 
ATOM     52  C   UNL     1       8.341  22.997   7.867  1.00  0.00     0.012 A 
ATOM     53  C   UNL     1       7.900  24.133   5.766  1.00  0.00     0.148 A 
ATOM     54  C   UNL     1       9.477  23.785   8.059  1.00  0.00     0.002 A 
ATOM     55  C   UNL     1       9.066  24.869   5.932  1.00  0.00     0.091 A 
ATOM     56  F   UNL     1       7.108  24.300   4.697  1.00  0.00    -0.205 F 
ATOM     57  C   UNL     1       9.845  24.712   7.087  1.00  0.00     0.022 A 
BRANCH  55  58
ATOM     58  S   UNL     1       9.683  25.973   4.657  1.00  0.00     0.127 S 
ATOM     59  O   UNL     1       9.326  27.282   5.196  1.00  0.00    -0.237 OA
ATOM     60  O   UNL     1      11.116  25.674   4.661  1.00  0.00    -0.237 OA
ATOM     61  O   UNL     1       8.996  25.575   3.436  1.00  0.00    -0.744 OA
ENDBRANCH  55  58
ENDBRANCH  27  51
BRANCH  39  62
ATOM     62  C   UNL     1       1.515  22.570  10.204  1.00  0.00     0.023 A 
ATOM     63  C   UNL     1       1.129  23.924  10.142  1.00  0.00     0.012 A 
ATOM     64  C   UNL     1       1.344  21.855  11.405  1.00  0.00     0.148 A 
ATOM     65  C   UNL     1       0.615  24.565  11.268  1.00  0.00     0.002 A 
ATOM     66  C   UNL     1       0.783  22.486  12.507  1.00  0.00     0.091 A 
ATOM     67  F   UNL     1       1.737  20.573  11.448  1.00  0.00    -0.205 F 
ATOM     68  C   UNL     1       0.431  23.845  12.445  1.00  0.00     0.022 A 
BRANCH  66  69
ATOM     69  S   UNL     1       0.422  21.613  14.035  1.00  0.00     0.127 S 
ATOM     70  O   UNL     1       1.446  22.146  14.932  1.00  0.00    -0.237 OA
ATOM     71  O   UNL     1      -0.940  22.058  14.332  1.00  0.00    -0.237 OA
ATOM     72  O   UNL     1       0.540  20.195  13.724  1.00  0.00    -0.744 OA
ENDBRANCH  66  69
ENDBRANCH  39  62
ENDBRANCH  13  14
ENDBRANCH   6   8
ENDBRANCH   3   4
ENDBRANCH   2   3
ENDBRANCH   1   2
BRANCH   1  73
ATOM     73  C   UNL     1       9.250  11.849  -0.859  1.00  0.00     0.002 C 
BRANCH  73  74
ATOM     74  C   UNL     1       8.992  11.032   0.415  1.00  0.00     0.021 C 
BRANCH  74  75
ATOM     75  C   UNL     1       8.154   9.775   0.175  1.00  0.00     0.116 C 
BRANCH  75  76
ATOM     76  N   UNL     1       8.907   8.822  -0.620  1.00  0.00    -0.356 N 
ATOM     77  C   UNL     1       9.544   7.681  -0.217  1.00  0.00     0.224 C 
ATOM     78  H   UNL     1       8.968   9.025  -1.581  1.00  0.00     0.163 HD
ATOM     79  O   UNL     1      10.431   7.229  -0.936  1.00  0.00    -0.275 OA
BRANCH  77  80
ATOM     80  C   UNL     1       9.142   7.084   1.125  1.00  0.00     0.098 C 
ATOM     81  C   UNL     1       9.464   5.565   1.422  1.00  0.00     0.100 C 
ATOM     82  C   UNL     1       9.863   7.818   2.292  1.00  0.00     0.025 C 
ATOM     83  C   UNL     1      10.353   5.677   2.684  1.00  0.00     0.025 C 
ATOM     84  C   UNL     1      11.357   7.662   2.135  1.00  0.00    -0.027 C 
ATOM     85  C   UNL     1       9.650   6.824   3.428  1.00  0.00     0.017 C 
ATOM     86  C   UNL     1      11.647   6.374   2.358  1.00  0.00    -0.027 C 
BRANCH  81  87
ATOM     87  C   UNL     1       9.838   4.714   0.206  1.00  0.00     0.242 C 
ATOM     88  O   UNL     1       9.171   4.804  -0.833  1.00  0.00    -0.273 OA
ATOM     89  N   UNL     1      10.758   3.702   0.253  1.00  0.00    -0.267 N 
ATOM     90  H   UNL     1      11.007   3.284  -0.603  1.00  0.00     0.191 HD
BRANCH  89  91
ATOM     91  N   UNL     1      11.369   3.211   1.391  1.00  0.00    -0.263 N 
ATOM     92  C   UNL     1      12.518   2.454   1.425  1.00  0.00     0.271 C 
ATOM     93  H   UNL     1      10.944   3.421   2.255  1.00  0.00     0.191 HD
ATOM     94  O   UNL     1      12.935   2.009   2.494  1.00  0.00    -0.267 OA
BRANCH  92  95
ATOM     95  C   UNL     1      13.177   2.030   0.177  1.00  0.00     0.060 A 
ATOM     96  C   UNL     1      13.225   0.643  -0.046  1.00  0.00     0.015 A 
ATOM     97  C   UNL     1      13.781   2.902  -0.728  1.00  0.00     0.053 A 
ATOM     98  C   UNL     1      13.834   0.134  -1.191  1.00  0.00     0.001 A 
ATOM     99  C   UNL     1      14.381   2.385  -1.883  1.00  0.00     0.021 A 
ATOM    100  Cl  UNL     1      13.879   4.603  -0.465  1.00  0.00    -0.083 Cl
ATOM    101  C   UNL     1      14.403   1.006  -2.115  1.00  0.00     0.002 A 
ENDBRANCH  92  95
ENDBRANCH  89  91
ENDBRANCH  81  87
ENDBRANCH  77  80
ENDBRANCH  75  76
ENDBRANCH  74  75
ENDBRANCH  73  74
ENDBRANCH   1  73
TORSDOF 19
