REMARK SMILES CCOC(=O)[C@H](C)NC(=O)N1CC[C@H](C(=O)NCCCCCCNC(=O)c2ccc(-c3c4nc(c(-c5cccc(S(=O)(=O)[O-])c5F)c5ccc([nH]5)c(-c5cccc(S(=O)(=O)[O-])c5F)c5nc(c(-c6cccc(S(=O)(=O)[O-])c6F)c6ccc3[nH]6)C=C5)C=C4)cc2)[C@@H]1C
REMARK SMILES IDX 19 1 18 2 17 3 15 4 16 5 14 7 11 8 12 9 90 10 13 11 91 12
REMARK SMILES IDX 9 13 8 14 10 16 6 17 7 18 4 19 5 20 3 21 2 22 1 23 20 24
REMARK SMILES IDX 21 25 22 26 23 27 24 28 25 29 26 31 27 32 28 33 89 34 29 35
REMARK SMILES IDX 88 36 30 37 31 38 32 39 82 40 33 41 87 42 81 43 83 44 34 45
REMARK SMILES IDX 86 46 80 47 79 48 35 50 67 51 47 52 66 53 48 54 51 55 65 56
REMARK SMILES IDX 84 57 49 58 50 59 64 61 85 62 52 63 36 64 37 65 45 66 38 67
REMARK SMILES IDX 40 68 46 69 39 70 41 71 42 72 43 73 44 74 68 75 69 76 77 77
REMARK SMILES IDX 70 78 72 79 78 80 71 81 73 82 74 83 75 84 76 85 53 86 54 87
REMARK SMILES IDX 62 88 55 89 57 90 63 91 56 92 58 93 59 94 60 95 61 96
REMARK H PARENT 17 6 8 15 24 30 83 49 51 60
REMARK Flexibility Score: inf
ROOT
ATOM      1  C   UNL     1      11.030   4.221   1.019  1.00  0.00     0.021 C 
ENDROOT
BRANCH   1   2
ATOM      2  C   UNL     1       9.720   4.750   1.590  1.00  0.00     0.116 C 
BRANCH   2   3
ATOM      3  N   UNL     1       9.261   5.931   0.881  1.00  0.00    -0.356 N 
ATOM      4  C   UNL     1       8.003   6.275   0.481  1.00  0.00     0.225 C 
ATOM      5  O   UNL     1       7.887   7.324  -0.145  1.00  0.00    -0.275 OA
ATOM      6  H   UNL     1       9.964   6.583   0.655  1.00  0.00     0.163 HD
BRANCH   4   7
ATOM      7  C   UNL     1       6.857   5.318   0.792  1.00  0.00     0.102 C 
ATOM      8  N   UNL     1       4.602   5.619   1.518  1.00  0.00    -0.321 N 
ATOM      9  C   UNL     1       5.436   5.856   2.668  1.00  0.00     0.122 C 
ATOM     10  C   UNL     1       5.423   5.655   0.296  1.00  0.00     0.096 C 
ATOM     11  C   UNL     1       6.699   5.113   2.314  1.00  0.00     0.037 C 
ATOM     12  C   UNL     1       5.213   6.972  -0.448  1.00  0.00     0.032 C 
BRANCH   8  13
ATOM     13  C   UNL     1       3.256   5.725   1.649  1.00  0.00     0.318 C 
ATOM     14  N   UNL     1       2.438   5.076   0.803  1.00  0.00    -0.325 N 
ATOM     15  H   UNL     1       1.542   5.475   0.715  1.00  0.00     0.166 HD
ATOM     16  O   UNL     1       2.731   6.371   2.557  1.00  0.00    -0.249 OA
BRANCH  14  17
ATOM     17  C   UNL     1       2.650   3.877  -0.009  1.00  0.00     0.190 C 
ATOM     18  C   UNL     1       1.921   2.692   0.616  1.00  0.00     0.043 C 
BRANCH  17  19
ATOM     19  C   UNL     1       2.209   4.101  -1.464  1.00  0.00     0.328 C 
ATOM     20  O   UNL     1       1.924   3.202  -2.246  1.00  0.00    -0.250 OA
BRANCH  19  21
ATOM     21  O   UNL     1       2.277   5.422  -1.800  1.00  0.00    -0.464 OA
BRANCH  21  22
ATOM     22  C   UNL     1       1.886   5.775  -3.132  1.00  0.00     0.229 C 
ATOM     23  C   UNL     1       2.955   5.416  -4.148  1.00  0.00     0.049 C 
ENDBRANCH  21  22
ENDBRANCH  19  21
ENDBRANCH  17  19
ENDBRANCH  14  17
ENDBRANCH   8  13
ENDBRANCH   4   7
ENDBRANCH   2   3
ENDBRANCH   1   2
BRANCH   1  24
ATOM     24  C   UNL     1      12.188   5.223   1.037  1.00  0.00     0.002 C 
BRANCH  24  25
ATOM     25  C   UNL     1      12.479   5.865   2.397  1.00  0.00     0.002 C 
BRANCH  25  26
ATOM     26  C   UNL     1      12.734   4.883   3.540  1.00  0.00     0.021 C 
BRANCH  26  27
ATOM     27  C   UNL     1      13.811   3.842   3.261  1.00  0.00     0.116 C 
BRANCH  27  28
ATOM     28  N   UNL     1      15.101   4.447   2.970  1.00  0.00    -0.352 N 
ATOM     29  C   UNL     1      16.330   4.152   3.503  1.00  0.00     0.251 C 
ATOM     30  H   UNL     1      15.092   5.166   2.298  1.00  0.00     0.163 HD
ATOM     31  O   UNL     1      17.294   4.878   3.269  1.00  0.00    -0.269 OA
BRANCH  29  32
ATOM     32  C   UNL     1      16.483   2.971   4.378  1.00  0.00     0.039 A 
ATOM     33  C   UNL     1      17.193   3.103   5.573  1.00  0.00     0.014 A 
ATOM     34  C   UNL     1      15.916   1.742   4.028  1.00  0.00     0.014 A 
ATOM     35  C   UNL     1      17.290   2.015   6.441  1.00  0.00     0.010 A 
ATOM     36  C   UNL     1      15.945   0.684   4.931  1.00  0.00     0.010 A 
ATOM     37  C   UNL     1      16.641   0.805   6.143  1.00  0.00    -0.014 A 
BRANCH  37  38
ATOM     38  C   UNL     1      16.675  -0.337   7.091  1.00  0.00     0.031 A 
ATOM     39  C   UNL     1      17.309  -1.641   6.687  1.00  0.00     0.074 A 
ATOM     40  C   UNL     1      16.072  -0.224   8.291  1.00  0.00     0.049 A 
ATOM     41  N   UNL     1      17.403  -2.756   7.365  1.00  0.00    -0.248 NA
ATOM     42  C   UNL     1      17.890  -1.713   5.336  1.00  0.00     0.031 C 
ATOM     43  C   UNL     1      15.355   0.961   8.768  1.00  0.00     0.029 A 
ATOM     44  N   UNL     1      15.943  -1.125   9.318  1.00  0.00    -0.354 N 
ATOM     45  C   UNL     1      18.021  -3.667   6.517  1.00  0.00     0.074 A 
ATOM     46  C   UNL     1      18.246  -2.987   5.261  1.00  0.00     0.031 C 
ATOM     47  C   UNL     1      14.872   0.718   9.997  1.00  0.00     0.029 A 
ATOM     48  C   UNL     1      15.211  -0.648  10.381  1.00  0.00     0.049 A 
ATOM     49  H   UNL     1      16.338  -2.026   9.297  1.00  0.00     0.167 HD
ATOM     50  C   UNL     1      18.393  -4.944   6.769  1.00  0.00     0.034 A 
ATOM     51  C   UNL     1      14.845  -1.247  11.531  1.00  0.00     0.034 A 
ATOM     52  C   UNL     1      18.198  -5.606   8.031  1.00  0.00     0.049 A 
ATOM     53  C   UNL     1      15.296  -2.657  11.797  1.00  0.00     0.074 A 
ATOM     54  C   UNL     1      18.616  -6.868   8.413  1.00  0.00     0.029 A 
ATOM     55  N   UNL     1      17.517  -5.066   9.111  1.00  0.00    -0.354 N 
ATOM     56  N   UNL     1      16.018  -3.449  11.041  1.00  0.00    -0.248 NA
ATOM     57  C   UNL     1      14.914  -3.245  13.089  1.00  0.00     0.031 C 
ATOM     58  C   UNL     1      18.156  -7.105   9.712  1.00  0.00     0.029 A 
ATOM     59  C   UNL     1      17.488  -5.975  10.155  1.00  0.00     0.049 A 
ATOM     60  H   UNL     1      17.112  -4.168   9.132  1.00  0.00     0.167 HD
ATOM     61  C   UNL     1      16.208  -4.611  11.780  1.00  0.00     0.074 A 
ATOM     62  C   UNL     1      15.544  -4.411  13.051  1.00  0.00     0.031 C 
ATOM     63  C   UNL     1      16.864  -5.746  11.433  1.00  0.00     0.034 A 
BRANCH  50  64
ATOM     64  C   UNL     1      19.090  -5.702   5.667  1.00  0.00     0.023 A 
ATOM     65  C   UNL     1      20.400  -5.341   5.290  1.00  0.00     0.012 A 
ATOM     66  C   UNL     1      18.473  -6.806   5.047  1.00  0.00     0.148 A 
ATOM     67  C   UNL     1      21.070  -6.042   4.288  1.00  0.00     0.002 A 
ATOM     68  C   UNL     1      19.166  -7.531   4.085  1.00  0.00     0.091 A 
ATOM     69  F   UNL     1      17.220  -7.123   5.404  1.00  0.00    -0.205 F 
ATOM     70  C   UNL     1      20.459  -7.142   3.694  1.00  0.00     0.022 A 
BRANCH  68  71
ATOM     71  S   UNL     1      18.499  -9.012   3.318  1.00  0.00     0.127 S 
ATOM     72  O   UNL     1      18.274  -8.558   1.947  1.00  0.00    -0.237 OA
ATOM     73  O   UNL     1      19.603  -9.960   3.473  1.00  0.00    -0.237 OA
ATOM     74  O   UNL     1      17.298  -9.348   4.069  1.00  0.00    -0.744 OA
ENDBRANCH  68  71
ENDBRANCH  50  64
BRANCH  51  75
ATOM     75  C   UNL     1      14.050  -0.495  12.543  1.00  0.00     0.023 A 
ATOM     76  C   UNL     1      14.647  -0.130  13.766  1.00  0.00     0.012 A 
ATOM     77  C   UNL     1      12.715  -0.124  12.293  1.00  0.00     0.148 A 
ATOM     78  C   UNL     1      13.917   0.557  14.736  1.00  0.00     0.002 A 
ATOM     79  C   UNL     1      12.012   0.611  13.240  1.00  0.00     0.091 A 
ATOM     80  F   UNL     1      12.163  -0.488  11.127  1.00  0.00    -0.205 F 
ATOM     81  C   UNL     1      12.604   0.936  14.470  1.00  0.00     0.022 A 
BRANCH  79  82
ATOM     82  S   UNL     1      10.364   1.255  12.930  1.00  0.00     0.127 S 
ATOM     83  O   UNL     1       9.554   0.458  13.846  1.00  0.00    -0.237 OA
ATOM     84  O   UNL     1      10.516   2.662  13.303  1.00  0.00    -0.237 OA
ATOM     85  O   UNL     1      10.116   1.035  11.511  1.00  0.00    -0.744 OA
ENDBRANCH  79  82
ENDBRANCH  51  75
BRANCH  63  86
ATOM     86  C   UNL     1      16.940  -6.851  12.455  1.00  0.00     0.023 A 
ATOM     87  C   UNL     1      15.788  -7.594  12.779  1.00  0.00     0.012 A 
ATOM     88  C   UNL     1      18.173  -7.195  13.044  1.00  0.00     0.148 A 
ATOM     89  C   UNL     1      15.855  -8.638  13.702  1.00  0.00     0.002 A 
ATOM     90  C   UNL     1      18.243  -8.271  13.921  1.00  0.00     0.091 A 
ATOM     91  F   UNL     1      19.255  -6.465  12.736  1.00  0.00    -0.205 F 
ATOM     92  C   UNL     1      17.082  -8.984  14.262  1.00  0.00     0.022 A 
BRANCH  90  93
ATOM     93  S   UNL     1      19.795  -8.851  14.613  1.00  0.00     0.127 S 
ATOM     94  O   UNL     1      19.660  -8.460  16.015  1.00  0.00    -0.237 OA
ATOM     95  O   UNL     1      19.721 -10.293  14.371  1.00  0.00    -0.237 OA
ATOM     96  O   UNL     1      20.847  -8.168  13.873  1.00  0.00    -0.744 OA
ENDBRANCH  90  93
ENDBRANCH  63  86
ENDBRANCH  37  38
ENDBRANCH  29  32
ENDBRANCH  27  28
ENDBRANCH  26  27
ENDBRANCH  25  26
ENDBRANCH  24  25
ENDBRANCH   1  24
TORSDOF 21
