REMARK SMILES CCc1[nH]nc(-n2cccc2)c1C(=O)NCCCCCCNC(=O)c1ccc(-c2c3nc(c(-c4cccc(S(=O)(=O)[O-])c4F)c4ccc([nH]4)c(-c4cccc(S(=O)(=O)[O-])c4F)c4nc(c(-c5cccc(S(=O)(=O)[O-])c5F)c5ccc2[nH]5)C=C4)C=C3)cc1
REMARK SMILES IDX 19 1 18 2 17 3 16 4 15 5 13 6 14 7 12 9 3 10 4 11 5 12 6 14
REMARK SMILES IDX 2 15 1 16 7 17 8 18 11 19 9 20 10 21 20 22 21 23 22 24 23 25
REMARK SMILES IDX 24 27 25 28 26 29 87 30 27 31 86 32 28 33 29 34 30 35 80 36
REMARK SMILES IDX 31 37 85 38 79 39 81 40 32 41 84 42 78 43 77 44 33 46 65 47
REMARK SMILES IDX 45 48 64 49 46 50 49 51 63 52 82 53 47 54 48 55 62 57 83 58
REMARK SMILES IDX 50 59 34 60 35 61 43 62 36 63 38 64 44 65 37 66 39 67 40 68
REMARK SMILES IDX 41 69 42 70 66 71 67 72 75 73 68 74 70 75 76 76 69 77 71 78
REMARK SMILES IDX 72 79 73 80 74 81 51 82 52 83 60 84 53 85 55 86 61 87 54 88
REMARK SMILES IDX 56 89 57 90 58 91 59 92
REMARK H PARENT 15 8 4 13 22 26 81 45 49 56
REMARK Flexibility Score: inf
ROOT
ATOM      1  C   UNL     1      -1.299  -0.607   3.037  1.00  0.00     0.002 C 
ENDROOT
BRANCH   1   2
ATOM      2  C   UNL     1      -2.457  -0.926   2.085  1.00  0.00     0.002 C 
BRANCH   2   3
ATOM      3  C   UNL     1      -2.369  -0.401   0.651  1.00  0.00     0.021 C 
BRANCH   3   4
ATOM      4  C   UNL     1      -1.080  -0.659  -0.117  1.00  0.00     0.116 C 
BRANCH   4   5
ATOM      5  N   UNL     1      -0.755  -2.033  -0.376  1.00  0.00    -0.352 N 
ATOM      6  C   UNL     1       0.076  -2.583  -1.323  1.00  0.00     0.256 C 
ATOM      7  O   UNL     1       0.238  -3.801  -1.220  1.00  0.00    -0.269 OA
ATOM      8  H   UNL     1      -1.196  -2.683   0.217  1.00  0.00     0.163 HD
BRANCH   6   9
ATOM      9  C   UNL     1       0.739  -1.825  -2.397  1.00  0.00     0.105 A 
ATOM     10  C   UNL     1       1.225  -0.511  -2.499  1.00  0.00     0.050 A 
ATOM     11  N   UNL     1       1.821  -0.422  -3.735  1.00  0.00    -0.280 N 
ATOM     12  N   UNL     1       1.976  -1.590  -4.352  1.00  0.00    -0.156 NA
ATOM     13  H   UNL     1       2.108   0.432  -4.130  1.00  0.00     0.190 HD
ATOM     14  C   UNL     1       1.247  -2.424  -3.604  1.00  0.00     0.171 A 
BRANCH  10  15
ATOM     15  C   UNL     1       1.291   0.717  -1.645  1.00  0.00     0.053 C 
ATOM     16  C   UNL     1       2.107   0.515  -0.378  1.00  0.00     0.011 C 
ENDBRANCH  10  15
BRANCH  14  17
ATOM     17  N   UNL     1       1.117  -3.763  -4.090  1.00  0.00    -0.307 N 
ATOM     18  C   UNL     1       0.003  -4.577  -4.038  1.00  0.00     0.093 A 
ATOM     19  C   UNL     1       2.104  -4.464  -4.765  1.00  0.00     0.093 A 
ATOM     20  C   UNL     1       0.306  -5.794  -4.613  1.00  0.00     0.020 A 
ATOM     21  C   UNL     1       1.650  -5.734  -5.040  1.00  0.00     0.020 A 
ENDBRANCH  14  17
ENDBRANCH   6   9
ENDBRANCH   4   5
ENDBRANCH   3   4
ENDBRANCH   2   3
ENDBRANCH   1   2
BRANCH   1  22
ATOM     22  C   UNL     1      -0.859   0.860   3.155  1.00  0.00     0.021 C 
BRANCH  22  23
ATOM     23  C   UNL     1      -1.965   1.845   3.522  1.00  0.00     0.116 C 
BRANCH  23  24
ATOM     24  N   UNL     1      -2.553   1.539   4.814  1.00  0.00    -0.352 N 
ATOM     25  C   UNL     1      -3.558   2.187   5.492  1.00  0.00     0.251 C 
ATOM     26  H   UNL     1      -2.178   0.752   5.271  1.00  0.00     0.163 HD
ATOM     27  O   UNL     1      -3.685   1.987   6.694  1.00  0.00    -0.269 OA
BRANCH  25  28
ATOM     28  C   UNL     1      -4.473   3.123   4.802  1.00  0.00     0.039 A 
ATOM     29  C   UNL     1      -4.916   4.248   5.511  1.00  0.00     0.014 A 
ATOM     30  C   UNL     1      -4.964   2.863   3.518  1.00  0.00     0.014 A 
ATOM     31  C   UNL     1      -5.809   5.130   4.916  1.00  0.00     0.010 A 
ATOM     32  C   UNL     1      -5.820   3.764   2.902  1.00  0.00     0.010 A 
ATOM     33  C   UNL     1      -6.244   4.892   3.605  1.00  0.00    -0.014 A 
BRANCH  33  34
ATOM     34  C   UNL     1      -7.061   5.918   2.926  1.00  0.00     0.031 A 
ATOM     35  C   UNL     1      -6.168   7.108   2.490  1.00  0.00     0.074 A 
ATOM     36  C   UNL     1      -8.406   5.658   2.856  1.00  0.00     0.049 A 
ATOM     37  N   UNL     1      -6.370   8.391   2.569  1.00  0.00    -0.248 NA
ATOM     38  C   UNL     1      -4.775   6.825   2.044  1.00  0.00     0.031 C 
ATOM     39  C   UNL     1      -9.057   4.397   3.297  1.00  0.00     0.029 A 
ATOM     40  N   UNL     1      -9.502   6.364   2.408  1.00  0.00    -0.354 N 
ATOM     41  C   UNL     1      -5.247   9.036   1.978  1.00  0.00     0.074 A 
ATOM     42  C   UNL     1      -4.239   8.033   1.841  1.00  0.00     0.031 C 
ATOM     43  C   UNL     1     -10.402   4.470   3.180  1.00  0.00     0.029 A 
ATOM     44  C   UNL     1     -10.769   5.771   2.655  1.00  0.00     0.049 A 
ATOM     45  H   UNL     1      -9.412   7.228   1.945  1.00  0.00     0.167 HD
ATOM     46  C   UNL     1      -5.288  10.312   1.479  1.00  0.00     0.034 A 
ATOM     47  C   UNL     1     -12.019   6.321   2.514  1.00  0.00     0.034 A 
ATOM     48  C   UNL     1      -6.621  10.805   1.605  1.00  0.00     0.049 A 
ATOM     49  C   UNL     1     -11.776   7.659   1.958  1.00  0.00     0.074 A 
ATOM     50  C   UNL     1      -7.363  11.245   2.667  1.00  0.00     0.029 A 
ATOM     51  N   UNL     1      -7.453  10.487   0.556  1.00  0.00    -0.354 N 
ATOM     52  N   UNL     1     -11.392   7.899   0.740  1.00  0.00    -0.248 NA
ATOM     53  C   UNL     1     -11.794   8.804   2.877  1.00  0.00     0.031 C 
ATOM     54  C   UNL     1      -8.638  10.703   2.399  1.00  0.00     0.029 A 
ATOM     55  C   UNL     1      -8.678  10.196   1.093  1.00  0.00     0.049 A 
ATOM     56  H   UNL     1      -7.213  10.471  -0.398  1.00  0.00     0.167 HD
ATOM     57  C   UNL     1     -10.790   9.126   0.868  1.00  0.00     0.074 A 
ATOM     58  C   UNL     1     -11.348   9.743   2.051  1.00  0.00     0.031 C 
ATOM     59  C   UNL     1      -9.559   9.341   0.338  1.00  0.00     0.034 A 
BRANCH  46  60
ATOM     60  C   UNL     1      -4.372  11.157   0.612  1.00  0.00     0.023 A 
ATOM     61  C   UNL     1      -4.700  12.546   0.553  1.00  0.00     0.012 A 
ATOM     62  C   UNL     1      -3.454  10.681  -0.337  1.00  0.00     0.148 A 
ATOM     63  C   UNL     1      -4.261  13.384  -0.471  1.00  0.00     0.002 A 
ATOM     64  C   UNL     1      -2.973  11.540  -1.335  1.00  0.00     0.091 A 
ATOM     65  F   UNL     1      -3.104   9.392  -0.327  1.00  0.00    -0.205 F 
ATOM     66  C   UNL     1      -3.408  12.872  -1.429  1.00  0.00     0.022 A 
BRANCH  64  67
ATOM     67  S   UNL     1      -1.786  11.027  -2.585  1.00  0.00     0.127 S 
ATOM     68  O   UNL     1      -2.606  11.009  -3.793  1.00  0.00    -0.237 OA
ATOM     69  O   UNL     1      -0.807  12.116  -2.533  1.00  0.00    -0.237 OA
ATOM     70  O   UNL     1      -1.268   9.742  -2.136  1.00  0.00    -0.744 OA
ENDBRANCH  64  67
ENDBRANCH  46  60
BRANCH  47  71
ATOM     71  C   UNL     1     -13.437   5.996   2.945  1.00  0.00     0.023 A 
ATOM     72  C   UNL     1     -13.883   4.720   3.315  1.00  0.00     0.012 A 
ATOM     73  C   UNL     1     -14.401   7.046   3.076  1.00  0.00     0.148 A 
ATOM     74  C   UNL     1     -15.161   4.527   3.887  1.00  0.00     0.002 A 
ATOM     75  C   UNL     1     -15.601   6.881   3.759  1.00  0.00     0.091 A 
ATOM     76  F   UNL     1     -14.180   8.227   2.490  1.00  0.00    -0.205 F 
ATOM     77  C   UNL     1     -15.996   5.611   4.159  1.00  0.00     0.022 A 
BRANCH  75  78
ATOM     78  S   UNL     1     -16.593   8.293   4.292  1.00  0.00     0.127 S 
ATOM     79  O   UNL     1     -17.911   7.975   3.747  1.00  0.00    -0.237 OA
ATOM     80  O   UNL     1     -16.489   8.190   5.747  1.00  0.00    -0.237 OA
ATOM     81  O   UNL     1     -15.959   9.477   3.726  1.00  0.00    -0.744 OA
ENDBRANCH  75  78
ENDBRANCH  47  71
BRANCH  59  82
ATOM     82  C   UNL     1      -9.183   8.427  -0.829  1.00  0.00     0.023 A 
ATOM     83  C   UNL     1      -9.985   8.515  -1.983  1.00  0.00     0.012 A 
ATOM     84  C   UNL     1      -8.174   7.431  -0.821  1.00  0.00     0.148 A 
ATOM     85  C   UNL     1      -9.804   7.658  -3.073  1.00  0.00     0.002 A 
ATOM     86  C   UNL     1      -8.000   6.561  -1.905  1.00  0.00     0.091 A 
ATOM     87  F   UNL     1      -7.386   7.329   0.245  1.00  0.00    -0.205 F 
ATOM     88  C   UNL     1      -8.814   6.682  -3.037  1.00  0.00     0.022 A 
BRANCH  86  89
ATOM     89  S   UNL     1      -6.811   5.195  -1.922  1.00  0.00     0.127 S 
ATOM     90  O   UNL     1      -7.633   4.064  -2.358  1.00  0.00    -0.237 OA
ATOM     91  O   UNL     1      -5.839   5.642  -2.916  1.00  0.00    -0.237 OA
ATOM     92  O   UNL     1      -6.302   5.064  -0.560  1.00  0.00    -0.744 OA
ENDBRANCH  86  89
ENDBRANCH  59  82
ENDBRANCH  33  34
ENDBRANCH  25  28
ENDBRANCH  23  24
ENDBRANCH  22  23
ENDBRANCH   1  22
TORSDOF 18
