REMARK SMILES O=C(NCCCCCCNC(=O)[C@@H]1CCCCC[C@@H]1NS(=O)(=O)c1cccc(F)c1)c1ccc(-c2c3nc(c(-c4cccc(S(=O)(=O)[O-])c4F)c4ccc([nH]4)c(-c4cccc(S(=O)(=O)[O-])c4F)c4nc(c(-c5cccc(S(=O)(=O)[O-])c5F)c5ccc2[nH]5)C=C4)C=C3)cc1
REMARK SMILES IDX 7 1 6 2 5 3 4 4 3 5 1 6 2 7 31 9 32 10 93 11 33 12 92 13
REMARK SMILES IDX 34 14 35 15 36 16 86 17 37 18 91 19 85 20 87 21 38 22 90 23
REMARK SMILES IDX 84 24 83 25 39 27 71 28 51 29 70 30 52 31 55 32 69 33 88 34
REMARK SMILES IDX 53 35 54 36 68 38 89 39 56 40 40 41 41 42 49 43 42 44 44 45
REMARK SMILES IDX 50 46 43 47 45 48 46 49 47 50 48 51 72 52 73 53 81 54 74 55
REMARK SMILES IDX 76 56 82 57 75 58 77 59 78 60 79 61 80 62 57 63 58 64 66 65
REMARK SMILES IDX 59 66 61 67 67 68 60 69 62 70 63 71 64 72 65 73 8 74 9 75
REMARK SMILES IDX 10 76 11 77 12 79 13 80 14 81 15 82 19 84 18 85 17 86 16 87
REMARK SMILES IDX 20 89 21 91 22 92 23 93 24 94 25 95 30 96 26 97 28 98 27 99
REMARK SMILES IDX 29 100
REMARK H PARENT 3 8 87 26 55 37 10 78 20 90
REMARK Flexibility Score: 100.00
ROOT
ATOM      1  C   UNL     1       4.561  -1.292   4.253  1.00  0.00     0.002 C 
ENDROOT
BRANCH   1   2
ATOM      2  C   UNL     1       4.096   0.136   3.950  1.00  0.00     0.002 C 
BRANCH   2   3
ATOM      3  C   UNL     1       4.629   0.749   2.653  1.00  0.00     0.021 C 
BRANCH   3   4
ATOM      4  C   UNL     1       4.381  -0.074   1.394  1.00  0.00     0.116 C 
BRANCH   4   5
ATOM      5  N   UNL     1       2.967  -0.282   1.135  1.00  0.00    -0.352 N 
ATOM      6  O   UNL     1       1.023  -0.110   0.017  1.00  0.00    -0.269 OA
ATOM      7  C   UNL     1       2.247  -0.029  -0.006  1.00  0.00     0.251 C 
ATOM      8  H   UNL     1       2.451  -0.657   1.885  1.00  0.00     0.163 HD
BRANCH   7   9
ATOM      9  C   UNL     1       2.948   0.359  -1.251  1.00  0.00     0.039 A 
ATOM     10  C   UNL     1       4.088  -0.331  -1.676  1.00  0.00     0.014 A 
ATOM     11  C   UNL     1       2.441   1.413  -2.015  1.00  0.00     0.014 A 
ATOM     12  C   UNL     1       4.781   0.103  -2.802  1.00  0.00     0.010 A 
ATOM     13  C   UNL     1       3.099   1.803  -3.185  1.00  0.00     0.010 A 
ATOM     14  C   UNL     1       4.285   1.163  -3.579  1.00  0.00    -0.014 A 
BRANCH  14  15
ATOM     15  C   UNL     1       4.965   1.531  -4.846  1.00  0.00     0.031 A 
ATOM     16  C   UNL     1       5.622   2.872  -5.018  1.00  0.00     0.074 A 
ATOM     17  C   UNL     1       4.974   0.635  -5.854  1.00  0.00     0.049 A 
ATOM     18  N   UNL     1       6.236   3.355  -6.068  1.00  0.00    -0.248 NA
ATOM     19  C   UNL     1       5.590   3.791  -3.868  1.00  0.00     0.031 C 
ATOM     20  C   UNL     1       4.349  -0.689  -5.807  1.00  0.00     0.029 A 
ATOM     21  N   UNL     1       5.522   0.697  -7.110  1.00  0.00    -0.354 N 
ATOM     22  C   UNL     1       6.639   4.639  -5.720  1.00  0.00     0.074 A 
ATOM     23  C   UNL     1       6.193   4.866  -4.362  1.00  0.00     0.031 C 
ATOM     24  C   UNL     1       4.570  -1.323  -6.968  1.00  0.00     0.029 A 
ATOM     25  C   UNL     1       5.303  -0.434  -7.862  1.00  0.00     0.049 A 
ATOM     26  H   UNL     1       6.025   1.476  -7.441  1.00  0.00     0.167 HD
ATOM     27  C   UNL     1       7.334   5.535  -6.461  1.00  0.00     0.034 A 
ATOM     28  C   UNL     1       5.638  -0.720  -9.134  1.00  0.00     0.034 A 
ATOM     29  C   UNL     1       7.800   5.288  -7.801  1.00  0.00     0.049 A 
ATOM     30  C   UNL     1       6.399   0.301  -9.931  1.00  0.00     0.074 A 
ATOM     31  C   UNL     1       8.534   6.128  -8.621  1.00  0.00     0.029 A 
ATOM     32  N   UNL     1       7.582   4.122  -8.517  1.00  0.00    -0.354 N 
ATOM     33  N   UNL     1       6.847   1.473  -9.553  1.00  0.00    -0.248 NA
ATOM     34  C   UNL     1       6.720  -0.046 -11.322  1.00  0.00     0.031 C 
ATOM     35  C   UNL     1       8.750   5.473  -9.837  1.00  0.00     0.029 A 
ATOM     36  C   UNL     1       8.168   4.218  -9.768  1.00  0.00     0.049 A 
ATOM     37  H   UNL     1       7.084   3.340  -8.185  1.00  0.00     0.167 HD
ATOM     38  C   UNL     1       7.527   1.992 -10.648  1.00  0.00     0.074 A 
ATOM     39  C   UNL     1       7.454   0.994 -11.695  1.00  0.00     0.031 C 
ATOM     40  C   UNL     1       8.137   3.194 -10.780  1.00  0.00     0.034 A 
BRANCH  27  41
ATOM     41  C   UNL     1       7.697   6.855  -5.833  1.00  0.00     0.023 A 
ATOM     42  C   UNL     1       8.748   6.904  -4.895  1.00  0.00     0.012 A 
ATOM     43  C   UNL     1       7.097   8.056  -6.262  1.00  0.00     0.148 A 
ATOM     44  C   UNL     1       9.191   8.124  -4.387  1.00  0.00     0.002 A 
ATOM     45  C   UNL     1       7.570   9.272  -5.780  1.00  0.00     0.091 A 
ATOM     46  F   UNL     1       6.092   7.986  -7.146  1.00  0.00    -0.205 F 
ATOM     47  C   UNL     1       8.612   9.307  -4.839  1.00  0.00     0.022 A 
BRANCH  45  48
ATOM     48  S   UNL     1       6.950  10.858  -6.355  1.00  0.00     0.127 S 
ATOM     49  O   UNL     1       6.328  11.389  -5.142  1.00  0.00    -0.237 OA
ATOM     50  O   UNL     1       8.179  11.540  -6.759  1.00  0.00    -0.237 OA
ATOM     51  O   UNL     1       6.028  10.562  -7.443  1.00  0.00    -0.744 OA
ENDBRANCH  45  48
ENDBRANCH  27  41
BRANCH  28  52
ATOM     52  C   UNL     1       5.306  -2.055  -9.707  1.00  0.00     0.023 A 
ATOM     53  C   UNL     1       6.347  -2.961  -9.988  1.00  0.00     0.012 A 
ATOM     54  C   UNL     1       3.973  -2.453  -9.927  1.00  0.00     0.148 A 
ATOM     55  C   UNL     1       6.068  -4.229 -10.499  1.00  0.00     0.002 A 
ATOM     56  C   UNL     1       3.699  -3.739 -10.378  1.00  0.00     0.091 A 
ATOM     57  F   UNL     1       2.995  -1.571  -9.674  1.00  0.00    -0.205 F 
ATOM     58  C   UNL     1       4.745  -4.622 -10.681  1.00  0.00     0.022 A 
BRANCH  56  59
ATOM     59  S   UNL     1       2.022  -4.374 -10.496  1.00  0.00     0.127 S 
ATOM     60  O   UNL     1       1.796  -4.356 -11.939  1.00  0.00    -0.237 OA
ATOM     61  O   UNL     1       2.159  -5.708  -9.910  1.00  0.00    -0.237 OA
ATOM     62  O   UNL     1       1.205  -3.459  -9.711  1.00  0.00    -0.744 OA
ENDBRANCH  56  59
ENDBRANCH  28  52
BRANCH  40  63
ATOM     63  C   UNL     1       8.802   3.499 -12.096  1.00  0.00     0.023 A 
ATOM     64  C   UNL     1       8.011   3.801 -13.221  1.00  0.00     0.012 A 
ATOM     65  C   UNL     1      10.205   3.577 -12.194  1.00  0.00     0.148 A 
ATOM     66  C   UNL     1       8.606   4.151 -14.432  1.00  0.00     0.002 A 
ATOM     67  C   UNL     1      10.790   3.972 -13.391  1.00  0.00     0.091 A 
ATOM     68  F   UNL     1      10.941   3.266 -11.116  1.00  0.00    -0.205 F 
ATOM     69  C   UNL     1       9.993   4.249 -14.513  1.00  0.00     0.022 A 
BRANCH  67  70
ATOM     70  S   UNL     1      12.562   4.220 -13.559  1.00  0.00     0.127 S 
ATOM     71  O   UNL     1      12.952   3.053 -14.348  1.00  0.00    -0.237 OA
ATOM     72  O   UNL     1      12.632   5.493 -14.277  1.00  0.00    -0.237 OA
ATOM     73  O   UNL     1      13.090   4.263 -12.202  1.00  0.00    -0.744 OA
ENDBRANCH  67  70
ENDBRANCH  40  63
ENDBRANCH  14  15
ENDBRANCH   7   9
ENDBRANCH   4   5
ENDBRANCH   3   4
ENDBRANCH   2   3
ENDBRANCH   1   2
BRANCH   1  74
ATOM     74  C   UNL     1       6.076  -1.518   4.230  1.00  0.00     0.021 C 
BRANCH  74  75
ATOM     75  C   UNL     1       6.877  -0.598   5.142  1.00  0.00     0.116 C 
BRANCH  75  76
ATOM     76  N   UNL     1       6.609  -0.827   6.551  1.00  0.00    -0.356 N 
ATOM     77  C   UNL     1       7.474  -0.840   7.609  1.00  0.00     0.224 C 
ATOM     78  H   UNL     1       5.666  -0.999   6.777  1.00  0.00     0.163 HD
ATOM     79  O   UNL     1       6.996  -0.919   8.741  1.00  0.00    -0.275 OA
BRANCH  77  80
ATOM     80  C   UNL     1       8.982  -0.724   7.367  1.00  0.00     0.096 C 
BRANCH  80  81
ATOM     81  C   UNL     1       9.725  -1.592   8.403  1.00  0.00     0.015 C 
BRANCH  81  82
ATOM     82  C   UNL     1      11.230  -1.342   8.475  1.00  0.00     0.001 CG0
ATOM     83  G   UNL     1      11.599  -0.247   9.477  1.00  0.00     0.000 G0
ENDBRANCH  81  82
ENDBRANCH  80  81
BRANCH  80  84
ATOM     84  C   UNL     1       9.465   0.744   7.314  1.00  0.00     0.082 C 
BRANCH  84  85
ATOM     85  C   UNL     1       9.726   1.370   8.690  1.00  0.00     0.021 C 
BRANCH  85  86
ATOM     86  C   UNL     1      11.189   1.180   9.111  1.00  0.00     0.002 C 
BRANCH  86  87
ATOM     87  C   UNL     1      11.599  -0.247   9.477  1.00  0.00     0.000 CG0
ATOM     88  G   UNL     1      11.230  -1.342   8.475  1.00  0.00     0.000 G0
ENDBRANCH  86  87
ENDBRANCH  85  86
ENDBRANCH  84  85
BRANCH  84  89
ATOM     89  N   UNL     1       8.541   1.576   6.521  1.00  0.00    -0.207 NA
ATOM     90  H   UNL     1       7.856   1.951   7.177  1.00  0.00     0.141 HD
BRANCH  89  91
ATOM     91  S   UNL     1       9.089   2.879   5.614  1.00  0.00     0.240 S 
ATOM     92  O   UNL     1       7.913   3.692   5.419  1.00  0.00    -0.207 OA
ATOM     93  O   UNL     1      10.296   3.394   6.225  1.00  0.00    -0.207 OA
BRANCH  91  94
ATOM     94  C   UNL     1       9.529   2.208   4.028  1.00  0.00     0.085 A 
ATOM     95  C   UNL     1      10.113   0.944   3.896  1.00  0.00     0.022 A 
ATOM     96  C   UNL     1       9.304   2.996   2.896  1.00  0.00     0.061 A 
ATOM     97  C   UNL     1      10.489   0.472   2.636  1.00  0.00     0.004 A 
ATOM     98  C   UNL     1       9.693   2.517   1.651  1.00  0.00     0.124 A 
ATOM     99  C   UNL     1      10.284   1.266   1.510  1.00  0.00     0.039 A 
ATOM    100  F   UNL     1       9.505   3.278   0.566  1.00  0.00    -0.207 F 
ENDBRANCH  91  94
ENDBRANCH  89  91
ENDBRANCH  84  89
ENDBRANCH  80  84
ENDBRANCH  77  80
ENDBRANCH  75  76
ENDBRANCH  74  75
ENDBRANCH   1  74
TORSDOF 19
