REMARK SMILES C[NH+](C)CCCN1c2ccccc2CCc2cc(O[C@@H]3O[C@H](C(=O)NCCCCCCNC(=O)c4ccc(-c5c6nc(c(-c7cccc(S(=O)(=O)[O-])c7F)c7ccc([nH]7)c(-c7cccc(S(=O)(=O)[O-])c7F)c7nc(c(-c8cccc(S(=O)(=O)[O-])c8F)c8ccc5[nH]8)C=C7)C=C6)cc4)[C@@H](O)[C@H](O)[C@H]3O)ccc21
REMARK SMILES IDX 26 1 25 2 23 3 24 4 22 6 20 7 21 8 102 9 100 10 98 11 19 12
REMARK SMILES IDX 18 13 106 14 16 15 105 16 17 17 104 18 7 19 6 20 5 21 4 22
REMARK SMILES IDX 2 23 1 24 3 25 8 27 9 28 13 29 10 30 12 31 11 32 14 33 15 35
REMARK SMILES IDX 103 37 101 39 99 41 27 43 28 44 29 45 30 46 31 47 32 48
REMARK SMILES IDX 33 49 34 51 35 52 36 53 97 54 37 55 96 56 38 57 39 58 40 59
REMARK SMILES IDX 90 60 41 61 95 62 89 63 91 64 42 65 94 66 88 67 87 68 43 70
REMARK SMILES IDX 75 71 55 72 74 73 56 74 59 75 73 76 92 77 57 78 58 79 72 81
REMARK SMILES IDX 93 82 60 83 44 84 45 85 53 86 46 87 48 88 54 89 47 90 49 91
REMARK SMILES IDX 50 92 51 93 52 94 76 95 77 96 85 97 78 98 80 99 86 100
REMARK SMILES IDX 79 101 81 102 82 103 83 104 84 105 61 106 62 107 70 108
REMARK SMILES IDX 63 109 65 110 71 111 64 112 66 113 67 114 68 115 69 116
REMARK H PARENT 25 5 2 26 103 38 101 40 99 42 32 50 91 69 59 80
REMARK Flexibility Score: 90.00
ROOT
ATOM      1  C   UNL     1       2.766   6.169   8.070  1.00  0.00     0.116 C 
ENDROOT
BRANCH   1   2
ATOM      2  N   UNL     1       1.782   6.064   7.010  1.00  0.00    -0.354 N 
ATOM      3  C   UNL     1       1.942   5.723   5.697  1.00  0.00     0.252 C 
ATOM      4  O   UNL     1       0.936   5.714   4.979  1.00  0.00    -0.272 OA
ATOM      5  H   UNL     1       0.858   6.271   7.277  1.00  0.00     0.163 HD
BRANCH   3   6
ATOM      6  C   UNL     1       3.322   5.372   5.114  1.00  0.00     0.242 C 
ATOM      7  C   UNL     1       5.503   6.244   4.727  1.00  0.00     0.339 C 
ATOM      8  O   UNL     1       4.248   6.417   5.382  1.00  0.00    -0.324 OA
ATOM      9  C   UNL     1       6.213   4.915   5.109  1.00  0.00     0.214 C 
ATOM     10  C   UNL     1       5.227   3.742   4.974  1.00  0.00     0.181 C 
ATOM     11  C   UNL     1       3.852   4.025   5.615  1.00  0.00     0.184 C 
BRANCH   7  12
ATOM     12  O   UNL     1       6.327   7.407   4.872  1.00  0.00    -0.462 OA
BRANCH  12  13
ATOM     13  C   UNL     1       6.569   7.922   6.113  1.00  0.00     0.123 A 
ATOM     14  C   UNL     1       7.366   9.107   8.542  1.00  0.00     0.045 A 
ATOM     15  C   UNL     1       6.815   7.824   8.533  1.00  0.00    -0.020 A 
ATOM     16  C   UNL     1       7.481   9.800   7.329  1.00  0.00     0.030 A 
ATOM     17  C   UNL     1       6.383   7.265   7.325  1.00  0.00     0.052 A 
ATOM     18  C   UNL     1       7.108   9.205   6.124  1.00  0.00     0.049 A 
BRANCH  14  19
ATOM     19  N   UNL     1       7.836   9.695   9.725  1.00  0.00    -0.341 N 
BRANCH  19  20
ATOM     20  C   UNL     1       7.055  10.857  10.201  1.00  0.00     0.128 C 
BRANCH  20  21
ATOM     21  C   UNL     1       5.762  10.422  10.887  1.00  0.00     0.083 C 
BRANCH  21  22
ATOM     22  C   UNL     1       5.966   9.739  12.238  1.00  0.00     0.263 C 
BRANCH  22  23
ATOM     23  N   UNL     1       6.304  10.548  13.402  1.00  0.00    -0.340 N 
ATOM     24  C   UNL     1       7.731  10.645  13.682  1.00  0.00     0.332 C 
ATOM     25  C   UNL     1       5.609  11.810  13.547  1.00  0.00     0.332 C 
ATOM     26  H   UNL     1       5.910   9.981  14.153  1.00  0.00     0.347 HD
ENDBRANCH  22  23
ENDBRANCH  21  22
ENDBRANCH  20  21
ENDBRANCH  19  20
BRANCH  19  27
ATOM     27  C   UNL     1       8.842   9.166  10.557  1.00  0.00     0.044 A 
ATOM     28  C   UNL     1       9.813  10.051  11.077  1.00  0.00     0.026 A 
ATOM     29  C   UNL     1       8.976   7.794  10.861  1.00  0.00    -0.024 A 
ATOM     30  C   UNL     1      10.854   9.620  11.900  1.00  0.00     0.002 A 
ATOM     31  C   UNL     1      10.046   7.373  11.686  1.00  0.00     0.006 A 
ATOM     32  C   UNL     1      10.967   8.275  12.209  1.00  0.00     0.000 A 
BRANCH  29  33
ATOM     33  C   UNL     1       8.068   6.680  10.384  1.00  0.00     0.042 CG0
ATOM     34  G   UNL     1       6.702   7.028   9.803  1.00  0.00     0.000 G0
ENDBRANCH  29  33
ENDBRANCH  19  27
ENDBRANCH  14  19
BRANCH  15  35
ATOM     35  C   UNL     1       6.702   7.028   9.803  1.00  0.00     0.042 CG0
ATOM     36  G   UNL     1       8.068   6.680  10.384  1.00  0.00     0.000 G0
ENDBRANCH  15  35
ENDBRANCH  12  13
ENDBRANCH   7  12
BRANCH   9  37
ATOM     37  O   UNL     1       7.383   4.687   4.309  1.00  0.00    -0.384 OA
ATOM     38  H   UNL     1       7.128   4.612   3.376  1.00  0.00     0.211 HD
ENDBRANCH   9  37
BRANCH  10  39
ATOM     39  O   UNL     1       5.772   2.536   5.528  1.00  0.00    -0.387 OA
ATOM     40  H   UNL     1       5.911   2.651   6.481  1.00  0.00     0.211 HD
ENDBRANCH  10  39
BRANCH  11  41
ATOM     41  O   UNL     1       2.927   2.979   5.292  1.00  0.00    -0.387 OA
ATOM     42  H   UNL     1       2.817   2.932   4.329  1.00  0.00     0.211 HD
ENDBRANCH  11  41
ENDBRANCH   3   6
ENDBRANCH   1   2
BRANCH   1  43
ATOM     43  C   UNL     1       2.764   7.540   8.746  1.00  0.00     0.021 C 
BRANCH  43  44
ATOM     44  C   UNL     1       1.505   7.868   9.559  1.00  0.00     0.002 C 
BRANCH  44  45
ATOM     45  C   UNL     1       1.097   6.837  10.618  1.00  0.00     0.002 C 
BRANCH  45  46
ATOM     46  C   UNL     1       2.160   6.481  11.663  1.00  0.00     0.021 C 
BRANCH  46  47
ATOM     47  C   UNL     1       2.556   7.606  12.620  1.00  0.00     0.116 C 
BRANCH  47  48
ATOM     48  N   UNL     1       1.486   7.992  13.535  1.00  0.00    -0.352 N 
ATOM     49  C   UNL     1       1.500   8.258  14.892  1.00  0.00     0.251 C 
ATOM     50  H   UNL     1       0.600   8.077  13.113  1.00  0.00     0.163 HD
ATOM     51  O   UNL     1       0.429   8.451  15.466  1.00  0.00    -0.269 OA
BRANCH  49  52
ATOM     52  C   UNL     1       2.766   8.323  15.671  1.00  0.00     0.039 A 
ATOM     53  C   UNL     1       2.818   7.909  17.009  1.00  0.00     0.014 A 
ATOM     54  C   UNL     1       3.916   8.846  15.103  1.00  0.00     0.014 A 
ATOM     55  C   UNL     1       4.032   7.955  17.727  1.00  0.00     0.010 A 
ATOM     56  C   UNL     1       5.132   8.795  15.778  1.00  0.00     0.010 A 
ATOM     57  C   UNL     1       5.214   8.378  17.102  1.00  0.00    -0.014 A 
BRANCH  57  58
ATOM     58  C   UNL     1       6.570   8.311  17.715  1.00  0.00     0.031 A 
ATOM     59  C   UNL     1       7.410   9.551  17.935  1.00  0.00     0.074 A 
ATOM     60  C   UNL     1       7.149   7.102  17.847  1.00  0.00     0.049 A 
ATOM     61  N   UNL     1       8.623   9.651  18.422  1.00  0.00    -0.248 NA
ATOM     62  C   UNL     1       6.834  10.839  17.517  1.00  0.00     0.031 C 
ATOM     63  C   UNL     1       6.531   5.830  17.470  1.00  0.00     0.029 A 
ATOM     64  N   UNL     1       8.403   6.748  18.280  1.00  0.00    -0.354 N 
ATOM     65  C   UNL     1       8.963  11.000  18.353  1.00  0.00     0.074 A 
ATOM     66  C   UNL     1       7.842  11.676  17.735  1.00  0.00     0.031 C 
ATOM     67  C   UNL     1       7.404   4.835  17.691  1.00  0.00     0.029 A 
ATOM     68  C   UNL     1       8.641   5.396  18.226  1.00  0.00     0.049 A 
ATOM     69  H   UNL     1       9.068   7.401  18.598  1.00  0.00     0.167 HD
ATOM     70  C   UNL     1      10.087  11.622  18.792  1.00  0.00     0.034 A 
ATOM     71  C   UNL     1       9.724   4.680  18.587  1.00  0.00     0.034 A 
ATOM     72  C   UNL     1      11.184  10.941  19.434  1.00  0.00     0.049 A 
ATOM     73  C   UNL     1      10.904   5.385  19.194  1.00  0.00     0.074 A 
ATOM     74  C   UNL     1      12.289  11.489  20.065  1.00  0.00     0.029 A 
ATOM     75  N   UNL     1      11.325   9.565  19.515  1.00  0.00    -0.354 N 
ATOM     76  N   UNL     1      11.101   6.669  19.362  1.00  0.00    -0.248 NA
ATOM     77  C   UNL     1      11.987   4.538  19.715  1.00  0.00     0.031 C 
ATOM     78  C   UNL     1      13.110  10.444  20.503  1.00  0.00     0.029 A 
ATOM     79  C   UNL     1      12.500   9.245  20.177  1.00  0.00     0.049 A 
ATOM     80  H   UNL     1      10.684   8.910  19.155  1.00  0.00     0.167 HD
ATOM     81  C   UNL     1      12.305   6.783  20.048  1.00  0.00     0.074 A 
ATOM     82  C   UNL     1      12.784   5.436  20.278  1.00  0.00     0.031 C 
ATOM     83  C   UNL     1      12.955   7.905  20.444  1.00  0.00     0.034 A 
BRANCH  70  84
ATOM     84  C   UNL     1      10.165  13.130  18.697  1.00  0.00     0.023 A 
ATOM     85  C   UNL     1       9.317  13.912  19.510  1.00  0.00     0.012 A 
ATOM     86  C   UNL     1      11.153  13.774  17.923  1.00  0.00     0.148 A 
ATOM     87  C   UNL     1       9.429  15.302  19.535  1.00  0.00     0.002 A 
ATOM     88  C   UNL     1      11.289  15.159  17.988  1.00  0.00     0.091 A 
ATOM     89  F   UNL     1      11.949  13.024  17.147  1.00  0.00    -0.205 F 
ATOM     90  C   UNL     1      10.422  15.923  18.785  1.00  0.00     0.022 A 
BRANCH  88  91
ATOM     91  S   UNL     1      12.594  16.054  17.133  1.00  0.00     0.127 S 
ATOM     92  O   UNL     1      11.830  16.798  16.129  1.00  0.00    -0.237 OA
ATOM     93  O   UNL     1      13.152  16.883  18.206  1.00  0.00    -0.237 OA
ATOM     94  O   UNL     1      13.498  15.048  16.607  1.00  0.00    -0.744 OA
ENDBRANCH  88  91
ENDBRANCH  70  84
BRANCH  71  95
ATOM     95  C   UNL     1       9.668   3.194  18.521  1.00  0.00     0.023 A 
ATOM     96  C   UNL     1       9.521   2.467  19.719  1.00  0.00     0.012 A 
ATOM     97  C   UNL     1       9.695   2.506  17.295  1.00  0.00     0.148 A 
ATOM     98  C   UNL     1       9.434   1.077  19.701  1.00  0.00     0.002 A 
ATOM     99  C   UNL     1       9.554   1.123  17.280  1.00  0.00     0.091 A 
ATOM    100  F   UNL     1       9.834   3.219  16.169  1.00  0.00    -0.205 F 
ATOM    101  C   UNL     1       9.440   0.406  18.482  1.00  0.00     0.022 A 
BRANCH  99 102
ATOM    102  S   UNL     1       9.414   0.184  15.755  1.00  0.00     0.127 S 
ATOM    103  O   UNL     1      10.670  -0.562  15.748  1.00  0.00    -0.237 OA
ATOM    104  O   UNL     1       8.219  -0.622  16.006  1.00  0.00    -0.237 OA
ATOM    105  O   UNL     1       9.260   1.171  14.696  1.00  0.00    -0.744 OA
ENDBRANCH  99 102
ENDBRANCH  71  95
BRANCH  83 106
ATOM    106  C   UNL     1      14.246   7.735  21.204  1.00  0.00     0.023 A 
ATOM    107  C   UNL     1      15.399   7.271  20.540  1.00  0.00     0.012 A 
ATOM    108  C   UNL     1      14.330   8.091  22.566  1.00  0.00     0.148 A 
ATOM    109  C   UNL     1      16.604   7.124  21.228  1.00  0.00     0.002 A 
ATOM    110  C   UNL     1      15.545   7.989  23.232  1.00  0.00     0.091 A 
ATOM    111  F   UNL     1      13.219   8.515  23.185  1.00  0.00    -0.205 F 
ATOM    112  C   UNL     1      16.679   7.493  22.569  1.00  0.00     0.022 A 
BRANCH 110 113
ATOM    113  S   UNL     1      15.762   8.526  24.933  1.00  0.00     0.127 S 
ATOM    114  O   UNL     1      15.924   7.250  25.629  1.00  0.00    -0.237 OA
ATOM    115  O   UNL     1      16.980   9.333  24.849  1.00  0.00    -0.237 OA
ATOM    116  O   UNL     1      14.562   9.276  25.275  1.00  0.00    -0.744 OA
ENDBRANCH 110 113
ENDBRANCH  83 106
ENDBRANCH  57  58
ENDBRANCH  49  52
ENDBRANCH  47  48
ENDBRANCH  46  47
ENDBRANCH  45  46
ENDBRANCH  44  45
ENDBRANCH  43  44
ENDBRANCH   1  43
TORSDOF 25
