REMARK SMILES CCn1ncc(Br)c1C(=O)N[C@@H]1C(=O)N2C(C(=O)NCCCCCCNC(=O)c3ccc(-c4c5nc(c(-c6cccc(S(=O)(=O)[O-])c6F)c6ccc([nH]6)c(-c6cccc(S(=O)(=O)[O-])c6F)c6nc(c(-c7cccc(S(=O)(=O)[O-])c7F)c7ccc4[nH]7)C=C6)C=C5)cc3)=C(C)CS[C@H]12
REMARK SMILES IDX 22 1 21 2 20 3 19 4 17 5 18 6 16 8 12 9 13 10 96 11 14 12
REMARK SMILES IDX 15 13 95 14 94 15 92 16 93 17 11 18 9 19 10 20 8 22 3 23
REMARK SMILES IDX 4 24 5 25 6 26 7 27 2 28 1 29 23 30 24 31 25 32 26 33 27 34
REMARK SMILES IDX 28 36 29 37 30 38 91 39 31 40 90 41 32 42 33 43 34 44 84 45
REMARK SMILES IDX 35 46 89 47 83 48 85 49 36 50 88 51 82 52 81 53 37 55 69 56
REMARK SMILES IDX 49 57 68 58 50 59 53 60 67 61 86 62 51 63 52 64 66 66 87 67
REMARK SMILES IDX 54 68 38 69 39 70 47 71 40 72 42 73 48 74 41 75 43 76 44 77
REMARK SMILES IDX 45 78 46 79 70 80 71 81 79 82 72 83 74 84 80 85 73 86 75 87
REMARK SMILES IDX 76 88 77 89 78 90 55 91 56 92 64 93 57 94 59 95 65 96 58 97
REMARK SMILES IDX 60 98 61 99 62 100 63 101
REMARK H PARENT 19 7 11 21 26 35 85 54 53 65
REMARK Flexibility Score: inf
ROOT
ATOM      1  C   UNL     1       2.409   3.783  -8.039  1.00  0.00     0.002 C 
ENDROOT
BRANCH   1   2
ATOM      2  C   UNL     1       2.759   3.301  -6.631  1.00  0.00     0.021 C 
BRANCH   2   3
ATOM      3  C   UNL     1       1.619   2.793  -5.760  1.00  0.00     0.116 C 
BRANCH   3   4
ATOM      4  N   UNL     1       0.740   1.775  -6.313  1.00  0.00    -0.351 N 
ATOM      5  C   UNL     1      -0.182   0.989  -5.650  1.00  0.00     0.268 C 
ATOM      6  O   UNL     1      -1.010   0.339  -6.285  1.00  0.00    -0.268 OA
ATOM      7  H   UNL     1       0.811   1.627  -7.284  1.00  0.00     0.163 HD
BRANCH   5   8
ATOM      8  C   UNL     1      -0.100   0.888  -4.152  1.00  0.00     0.110 C 
ATOM      9  C   UNL     1      -0.148  -2.043  -2.365  1.00  0.00     0.206 C 
ATOM     10  C   UNL     1       0.086  -1.670  -3.869  1.00  0.00     0.253 C 
ATOM     11  C   UNL     1      -0.084  -0.510  -2.149  1.00  0.00     0.181 C 
ATOM     12  O   UNL     1       0.283  -2.291  -4.901  1.00  0.00    -0.272 OA
ATOM     13  N   UNL     1      -0.074  -0.363  -3.583  1.00  0.00    -0.290 N 
ATOM     14  S   UNL     1       1.464   0.343  -1.688  1.00  0.00    -0.129 SA
ATOM     15  C   UNL     1       0.657   1.943  -1.982  1.00  0.00     0.104 C 
ATOM     16  C   UNL     1      -0.043   1.975  -3.336  1.00  0.00    -0.034 C 
ATOM     17  C   UNL     1      -0.584   3.342  -3.653  1.00  0.00     0.043 C 
BRANCH   9  18
ATOM     18  N   UNL     1       0.796  -2.876  -1.544  1.00  0.00    -0.336 N 
ATOM     19  C   UNL     1       0.317  -3.765  -0.590  1.00  0.00     0.271 C 
ATOM     20  O   UNL     1      -0.564  -4.569  -0.885  1.00  0.00    -0.267 OA
ATOM     21  H   UNL     1       1.767  -2.790  -1.685  1.00  0.00     0.164 HD
BRANCH  19  22
ATOM     22  C   UNL     1       0.844  -3.646   0.760  1.00  0.00     0.140 A 
ATOM     23  N   UNL     1       0.912  -2.494   1.530  1.00  0.00    -0.259 N 
ATOM     24  N   UNL     1       1.318  -2.688   2.798  1.00  0.00    -0.180 NA
ATOM     25  C   UNL     1       1.540  -3.999   2.859  1.00  0.00     0.151 A 
ATOM     26  C   UNL     1       1.219  -4.633   1.651  1.00  0.00     0.069 A 
ATOM     27  Br  UNL     1       1.303  -6.485   1.407  1.00  0.00    -0.047 Br
BRANCH  23  28
ATOM     28  C   UNL     1       0.481  -1.180   1.123  1.00  0.00     0.142 C 
ATOM     29  C   UNL     1       0.943   0.032   1.913  1.00  0.00     0.029 C 
ENDBRANCH  23  28
ENDBRANCH  19  22
ENDBRANCH   9  18
ENDBRANCH   5   8
ENDBRANCH   3   4
ENDBRANCH   2   3
ENDBRANCH   1   2
BRANCH   1  30
ATOM     30  C   UNL     1       1.142   4.623  -8.246  1.00  0.00     0.002 C 
BRANCH  30  31
ATOM     31  C   UNL     1       0.969   5.932  -7.466  1.00  0.00     0.021 C 
BRANCH  31  32
ATOM     32  C   UNL     1       2.100   6.943  -7.586  1.00  0.00     0.116 C 
BRANCH  32  33
ATOM     33  N   UNL     1       2.380   7.348  -8.964  1.00  0.00    -0.352 N 
ATOM     34  C   UNL     1       3.443   8.093  -9.441  1.00  0.00     0.251 C 
ATOM     35  H   UNL     1       1.727   7.051  -9.638  1.00  0.00     0.163 HD
ATOM     36  O   UNL     1       3.379   8.638 -10.539  1.00  0.00    -0.269 OA
BRANCH  34  37
ATOM     37  C   UNL     1       4.650   8.239  -8.606  1.00  0.00     0.039 A 
ATOM     38  C   UNL     1       5.315   9.463  -8.494  1.00  0.00     0.014 A 
ATOM     39  C   UNL     1       5.085   7.132  -7.886  1.00  0.00     0.014 A 
ATOM     40  C   UNL     1       6.360   9.585  -7.577  1.00  0.00     0.010 A 
ATOM     41  C   UNL     1       5.989   7.299  -6.868  1.00  0.00     0.010 A 
ATOM     42  C   UNL     1       6.677   8.502  -6.743  1.00  0.00    -0.014 A 
BRANCH  42  43
ATOM     43  C   UNL     1       7.666   8.636  -5.672  1.00  0.00     0.031 A 
ATOM     44  C   UNL     1       7.429   9.751  -4.716  1.00  0.00     0.074 A 
ATOM     45  C   UNL     1       8.592   7.686  -5.411  1.00  0.00     0.049 A 
ATOM     46  N   UNL     1       8.159  10.802  -4.532  1.00  0.00    -0.248 NA
ATOM     47  C   UNL     1       6.175   9.755  -3.946  1.00  0.00     0.031 C 
ATOM     48  C   UNL     1       8.730   6.377  -6.069  1.00  0.00     0.029 A 
ATOM     49  N   UNL     1       9.501   7.610  -4.396  1.00  0.00    -0.354 N 
ATOM     50  C   UNL     1       7.586  11.470  -3.450  1.00  0.00     0.074 A 
ATOM     51  C   UNL     1       6.275  10.904  -3.274  1.00  0.00     0.031 C 
ATOM     52  C   UNL     1       9.438   5.548  -5.275  1.00  0.00     0.029 A 
ATOM     53  C   UNL     1       9.975   6.322  -4.175  1.00  0.00     0.049 A 
ATOM     54  H   UNL     1       9.791   8.391  -3.872  1.00  0.00     0.167 HD
ATOM     55  C   UNL     1       8.343  12.230  -2.610  1.00  0.00     0.034 A 
ATOM     56  C   UNL     1      10.750   5.895  -3.154  1.00  0.00     0.034 A 
ATOM     57  C   UNL     1       9.664  12.437  -3.144  1.00  0.00     0.049 A 
ATOM     58  C   UNL     1      11.457   7.069  -2.610  1.00  0.00     0.074 A 
ATOM     59  C   UNL     1      10.232  13.123  -4.192  1.00  0.00     0.029 A 
ATOM     60  N   UNL     1      10.591  11.533  -2.693  1.00  0.00    -0.354 N 
ATOM     61  N   UNL     1      12.345   7.744  -3.286  1.00  0.00    -0.248 NA
ATOM     62  C   UNL     1      10.966   7.717  -1.403  1.00  0.00     0.031 C 
ATOM     63  C   UNL     1      11.425  12.410  -4.518  1.00  0.00     0.029 A 
ATOM     64  C   UNL     1      11.553  11.330  -3.642  1.00  0.00     0.049 A 
ATOM     65  H   UNL     1      10.567  11.093  -1.812  1.00  0.00     0.167 HD
ATOM     66  C   UNL     1      12.170   9.049  -2.859  1.00  0.00     0.074 A 
ATOM     67  C   UNL     1      11.478   8.938  -1.582  1.00  0.00     0.031 C 
ATOM     68  C   UNL     1      12.300  10.091  -3.730  1.00  0.00     0.034 A 
BRANCH  55  69
ATOM     69  C   UNL     1       8.102  12.432  -1.125  1.00  0.00     0.023 A 
ATOM     70  C   UNL     1       8.932  13.367  -0.460  1.00  0.00     0.012 A 
ATOM     71  C   UNL     1       7.346  11.563  -0.307  1.00  0.00     0.148 A 
ATOM     72  C   UNL     1       9.044  13.399   0.935  1.00  0.00     0.002 A 
ATOM     73  C   UNL     1       7.399  11.653   1.082  1.00  0.00     0.091 A 
ATOM     74  F   UNL     1       6.678  10.543  -0.850  1.00  0.00    -0.205 F 
ATOM     75  C   UNL     1       8.269  12.546   1.709  1.00  0.00     0.022 A 
BRANCH  73  76
ATOM     76  S   UNL     1       6.378  10.603   2.124  1.00  0.00     0.127 S 
ATOM     77  O   UNL     1       7.345   9.608   2.575  1.00  0.00    -0.237 OA
ATOM     78  O   UNL     1       5.927  11.543   3.151  1.00  0.00    -0.237 OA
ATOM     79  O   UNL     1       5.312  10.119   1.254  1.00  0.00    -0.744 OA
ENDBRANCH  73  76
ENDBRANCH  55  69
BRANCH  56  80
ATOM     80  C   UNL     1      10.841   4.555  -2.544  1.00  0.00     0.023 A 
ATOM     81  C   UNL     1      12.038   4.135  -1.938  1.00  0.00     0.012 A 
ATOM     82  C   UNL     1       9.672   3.789  -2.334  1.00  0.00     0.148 A 
ATOM     83  C   UNL     1      12.066   3.004  -1.115  1.00  0.00     0.002 A 
ATOM     84  C   UNL     1       9.703   2.666  -1.514  1.00  0.00     0.091 A 
ATOM     85  F   UNL     1       8.521   4.212  -2.876  1.00  0.00    -0.205 F 
ATOM     86  C   UNL     1      10.898   2.278  -0.893  1.00  0.00     0.022 A 
BRANCH  84  87
ATOM     87  S   UNL     1       8.232   1.697  -1.151  1.00  0.00     0.127 S 
ATOM     88  O   UNL     1       8.675   0.343  -1.483  1.00  0.00    -0.237 OA
ATOM     89  O   UNL     1       8.049   1.950   0.275  1.00  0.00    -0.237 OA
ATOM     90  O   UNL     1       7.184   2.218  -2.021  1.00  0.00    -0.744 OA
ENDBRANCH  84  87
ENDBRANCH  56  80
BRANCH  68  91
ATOM     91  C   UNL     1      13.081   9.851  -4.993  1.00  0.00     0.023 A 
ATOM     92  C   UNL     1      12.644   8.965  -5.999  1.00  0.00     0.012 A 
ATOM     93  C   UNL     1      14.223  10.633  -5.225  1.00  0.00     0.148 A 
ATOM     94  C   UNL     1      13.349   8.843  -7.199  1.00  0.00     0.002 A 
ATOM     95  C   UNL     1      14.894  10.546  -6.438  1.00  0.00     0.091 A 
ATOM     96  F   UNL     1      14.627  11.471  -4.257  1.00  0.00    -0.205 F 
ATOM     97  C   UNL     1      14.467   9.643  -7.424  1.00  0.00     0.022 A 
BRANCH  95  98
ATOM     98  S   UNL     1      16.259  11.642  -6.830  1.00  0.00     0.127 S 
ATOM     99  O   UNL     1      17.417  10.775  -6.626  1.00  0.00    -0.237 OA
ATOM    100  O   UNL     1      15.994  11.991  -8.227  1.00  0.00    -0.237 OA
ATOM    101  O   UNL     1      16.142  12.766  -5.908  1.00  0.00    -0.744 OA
ENDBRANCH  95  98
ENDBRANCH  68  91
ENDBRANCH  42  43
ENDBRANCH  34  37
ENDBRANCH  32  33
ENDBRANCH  31  32
ENDBRANCH  30  31
ENDBRANCH   1  30
TORSDOF 19
