REMARK SMILES O=C(NCCCCCCNC(=O)[C@H]1CC[C@@H](CNc2cccc(F)c2[N+](=O)[O-])O1)c1ccc(-c2c3nc(c(-c4cccc(S(=O)(=O)[O-])c4F)c4ccc([nH]4)c(-c4cccc(S(=O)(=O)[O-])c4F)c4nc(c(-c5cccc(S(=O)(=O)[O-])c5F)c5ccc2[nH]5)C=C4)C=C3)cc1
REMARK SMILES IDX 7 1 6 2 5 3 4 4 3 5 1 6 2 7 30 9 31 10 92 11 32 12 91 13
REMARK SMILES IDX 33 14 34 15 35 16 85 17 36 18 90 19 84 20 86 21 37 22 89 23
REMARK SMILES IDX 83 24 82 25 38 27 70 28 50 29 69 30 51 31 54 32 68 33 87 34
REMARK SMILES IDX 52 35 53 36 67 38 88 39 55 40 39 41 40 42 48 43 41 44 43 45
REMARK SMILES IDX 49 46 42 47 44 48 45 49 46 50 47 51 71 52 72 53 80 54 73 55
REMARK SMILES IDX 75 56 81 57 74 58 76 59 77 60 78 61 79 62 56 63 57 64 65 65
REMARK SMILES IDX 58 66 60 67 66 68 59 69 61 70 62 71 63 72 64 73 8 74 9 75
REMARK SMILES IDX 10 76 11 77 12 79 13 80 14 81 29 82 15 83 16 84 17 85 18 86
REMARK SMILES IDX 19 88 20 89 25 90 21 91 23 92 22 93 24 94 26 95 27 96 28 97
REMARK H PARENT 3 8 86 26 54 37 10 78 18 87
REMARK Flexibility Score: inf
ROOT
ATOM      1  C   UNL     1       6.188   4.497  -2.381  1.00  0.00     0.002 C 
ENDROOT
BRANCH   1   2
ATOM      2  C   UNL     1       6.419   5.929  -1.889  1.00  0.00     0.002 C 
BRANCH   2   3
ATOM      3  C   UNL     1       5.444   6.978  -2.422  1.00  0.00     0.021 C 
BRANCH   3   4
ATOM      4  C   UNL     1       3.974   6.689  -2.150  1.00  0.00     0.116 C 
BRANCH   4   5
ATOM      5  N   UNL     1       3.632   6.776  -0.739  1.00  0.00    -0.352 N 
ATOM      6  O   UNL     1       2.541   7.551   1.078  1.00  0.00    -0.269 OA
ATOM      7  C   UNL     1       2.599   7.466  -0.146  1.00  0.00     0.251 C 
ATOM      8  H   UNL     1       4.217   6.274  -0.127  1.00  0.00     0.163 HD
BRANCH   7   9
ATOM      9  C   UNL     1       1.584   8.131  -0.994  1.00  0.00     0.039 A 
ATOM     10  C   UNL     1       1.045   7.471  -2.099  1.00  0.00     0.014 A 
ATOM     11  C   UNL     1       1.182   9.436  -0.695  1.00  0.00     0.014 A 
ATOM     12  C   UNL     1       0.238   8.166  -2.991  1.00  0.00     0.010 A 
ATOM     13  C   UNL     1       0.288  10.101  -1.542  1.00  0.00     0.010 A 
ATOM     14  C   UNL     1      -0.164   9.485  -2.718  1.00  0.00    -0.014 A 
BRANCH  14  15
ATOM     15  C   UNL     1      -1.125  10.141  -3.643  1.00  0.00     0.031 A 
ATOM     16  C   UNL     1      -0.763  11.369  -4.429  1.00  0.00     0.074 A 
ATOM     17  C   UNL     1      -2.339   9.577  -3.797  1.00  0.00     0.049 A 
ATOM     18  N   UNL     1      -1.454  11.973  -5.362  1.00  0.00    -0.248 NA
ATOM     19  C   UNL     1       0.526  12.013  -4.131  1.00  0.00     0.031 C 
ATOM     20  C   UNL     1      -2.821   8.419  -3.040  1.00  0.00     0.029 A 
ATOM     21  N   UNL     1      -3.374   9.872  -4.647  1.00  0.00    -0.354 N 
ATOM     22  C   UNL     1      -0.709  13.084  -5.736  1.00  0.00     0.074 A 
ATOM     23  C   UNL     1       0.489  13.078  -4.923  1.00  0.00     0.031 C 
ATOM     24  C   UNL     1      -4.026   8.062  -3.503  1.00  0.00     0.029 A 
ATOM     25  C   UNL     1      -4.430   8.996  -4.548  1.00  0.00     0.049 A 
ATOM     26  H   UNL     1      -3.362  10.636  -5.268  1.00  0.00     0.167 HD
ATOM     27  C   UNL     1      -0.992  14.013  -6.681  1.00  0.00     0.034 A 
ATOM     28  C   UNL     1      -5.595   8.940  -5.222  1.00  0.00     0.034 A 
ATOM     29  C   UNL     1      -2.164  13.983  -7.516  1.00  0.00     0.049 A 
ATOM     30  C   UNL     1      -5.859   9.947  -6.301  1.00  0.00     0.074 A 
ATOM     31  C   UNL     1      -2.494  14.831  -8.559  1.00  0.00     0.029 A 
ATOM     32  N   UNL     1      -3.200  13.068  -7.402  1.00  0.00    -0.354 N 
ATOM     33  N   UNL     1      -5.077  10.906  -6.735  1.00  0.00    -0.248 NA
ATOM     34  C   UNL     1      -7.149   9.859  -6.998  1.00  0.00     0.031 C 
ATOM     35  C   UNL     1      -3.740  14.443  -9.060  1.00  0.00     0.029 A 
ATOM     36  C   UNL     1      -4.177  13.339  -8.345  1.00  0.00     0.049 A 
ATOM     37  H   UNL     1      -3.235  12.334  -6.747  1.00  0.00     0.167 HD
ATOM     38  C   UNL     1      -5.772  11.530  -7.762  1.00  0.00     0.074 A 
ATOM     39  C   UNL     1      -7.030  10.823  -7.904  1.00  0.00     0.031 C 
ATOM     40  C   UNL     1      -5.407  12.604  -8.504  1.00  0.00     0.034 A 
BRANCH  27  41
ATOM     41  C   UNL     1       0.002  15.123  -6.909  1.00  0.00     0.023 A 
ATOM     42  C   UNL     1       1.207  14.848  -7.585  1.00  0.00     0.012 A 
ATOM     43  C   UNL     1      -0.300  16.452  -6.551  1.00  0.00     0.148 A 
ATOM     44  C   UNL     1       2.106  15.872  -7.881  1.00  0.00     0.002 A 
ATOM     45  C   UNL     1       0.582  17.474  -6.885  1.00  0.00     0.091 A 
ATOM     46  F   UNL     1      -1.442  16.694  -5.890  1.00  0.00    -0.205 F 
ATOM     47  C   UNL     1       1.788  17.185  -7.542  1.00  0.00     0.022 A 
BRANCH  45  48
ATOM     48  S   UNL     1       0.219  19.205  -6.564  1.00  0.00     0.127 S 
ATOM     49  O   UNL     1       1.083  19.480  -5.418  1.00  0.00    -0.237 OA
ATOM     50  O   UNL     1       0.638  19.848  -7.811  1.00  0.00    -0.237 OA
ATOM     51  O   UNL     1      -1.212  19.270  -6.304  1.00  0.00    -0.744 OA
ENDBRANCH  45  48
ENDBRANCH  27  41
BRANCH  28  52
ATOM     52  C   UNL     1      -6.542   7.829  -4.925  1.00  0.00     0.023 A 
ATOM     53  C   UNL     1      -6.692   6.783  -5.854  1.00  0.00     0.012 A 
ATOM     54  C   UNL     1      -7.182   7.737  -3.673  1.00  0.00     0.148 A 
ATOM     55  C   UNL     1      -7.458   5.660  -5.538  1.00  0.00     0.002 A 
ATOM     56  C   UNL     1      -7.888   6.588  -3.341  1.00  0.00     0.091 A 
ATOM     57  F   UNL     1      -7.035   8.753  -2.811  1.00  0.00    -0.205 F 
ATOM     58  C   UNL     1      -8.039   5.554  -4.276  1.00  0.00     0.022 A 
BRANCH  56  59
ATOM     59  S   UNL     1      -8.516   6.291  -1.683  1.00  0.00     0.127 S 
ATOM     60  O   UNL     1      -9.960   6.354  -1.895  1.00  0.00    -0.237 OA
ATOM     61  O   UNL     1      -7.991   4.955  -1.399  1.00  0.00    -0.237 OA
ATOM     62  O   UNL     1      -7.952   7.346  -0.853  1.00  0.00    -0.744 OA
ENDBRANCH  56  59
ENDBRANCH  28  52
BRANCH  40  63
ATOM     63  C   UNL     1      -6.371  13.101  -9.547  1.00  0.00     0.023 A 
ATOM     64  C   UNL     1      -7.502  13.839  -9.147  1.00  0.00     0.012 A 
ATOM     65  C   UNL     1      -6.090  12.949 -10.919  1.00  0.00     0.148 A 
ATOM     66  C   UNL     1      -8.345  14.411 -10.098  1.00  0.00     0.002 A 
ATOM     67  C   UNL     1      -6.911  13.559 -11.860  1.00  0.00     0.091 A 
ATOM     68  F   UNL     1      -5.017  12.228 -11.275  1.00  0.00    -0.205 F 
ATOM     69  C   UNL     1      -8.042  14.284 -11.451  1.00  0.00     0.022 A 
BRANCH  67  70
ATOM     70  S   UNL     1      -6.548  13.533 -13.619  1.00  0.00     0.127 S 
ATOM     71  O   UNL     1      -7.617  12.676 -14.130  1.00  0.00    -0.237 OA
ATOM     72  O   UNL     1      -6.672  14.944 -13.982  1.00  0.00    -0.237 OA
ATOM     73  O   UNL     1      -5.202  12.989 -13.746  1.00  0.00    -0.744 OA
ENDBRANCH  67  70
ENDBRANCH  40  63
ENDBRANCH  14  15
ENDBRANCH   7   9
ENDBRANCH   4   5
ENDBRANCH   3   4
ENDBRANCH   2   3
ENDBRANCH   1   2
BRANCH   1  74
ATOM     74  C   UNL     1       6.078   4.318  -3.901  1.00  0.00     0.021 C 
BRANCH  74  75
ATOM     75  C   UNL     1       7.255   4.869  -4.702  1.00  0.00     0.116 C 
BRANCH  75  76
ATOM     76  N   UNL     1       8.496   4.200  -4.368  1.00  0.00    -0.354 N 
ATOM     77  C   UNL     1       9.235   3.328  -5.116  1.00  0.00     0.249 C 
ATOM     78  H   UNL     1       8.859   4.403  -3.476  1.00  0.00     0.163 HD
ATOM     79  O   UNL     1      10.251   2.843  -4.611  1.00  0.00    -0.272 OA
BRANCH  77  80
ATOM     80  C   UNL     1       8.781   2.999  -6.557  1.00  0.00     0.207 C 
ATOM     81  C   UNL     1       9.069   4.150  -7.508  1.00  0.00     0.045 C 
ATOM     82  O   UNL     1       9.507   1.882  -7.094  1.00  0.00    -0.363 OA
ATOM     83  C   UNL     1      10.514   3.897  -7.855  1.00  0.00     0.037 C 
ATOM     84  C   UNL     1      10.584   2.378  -7.926  1.00  0.00     0.138 C 
BRANCH  84  85
ATOM     85  C   UNL     1      11.913   1.695  -7.527  1.00  0.00     0.145 C 
BRANCH  85  86
ATOM     86  N   UNL     1      13.004   2.624  -7.221  1.00  0.00    -0.377 N 
ATOM     87  H   UNL     1      13.348   3.219  -7.925  1.00  0.00     0.160 HD
BRANCH  86  88
ATOM     88  C   UNL     1      13.560   2.674  -5.945  1.00  0.00     0.116 A 
ATOM     89  C   UNL     1      13.958   1.487  -5.306  1.00  0.00     0.033 A 
ATOM     90  C   UNL     1      13.690   3.863  -5.200  1.00  0.00     0.327 A 
ATOM     91  C   UNL     1      14.472   1.487  -4.003  1.00  0.00     0.006 A 
ATOM     92  C   UNL     1      14.192   3.869  -3.900  1.00  0.00     0.202 A 
ATOM     93  C   UNL     1      14.585   2.680  -3.298  1.00  0.00     0.047 A 
ATOM     94  F   UNL     1      14.338   5.010  -3.209  1.00  0.00    -0.199 F 
BRANCH  90  95
ATOM     95  N   UNL     1      13.298   5.133  -5.764  1.00  0.00     0.068 N 
ATOM     96  O   UNL     1      13.732   5.411  -6.894  1.00  0.00    -0.258 OA
ATOM     97  O   UNL     1      12.536   5.855  -5.104  1.00  0.00    -0.258 OA
ENDBRANCH  90  95
ENDBRANCH  86  88
ENDBRANCH  85  86
ENDBRANCH  84  85
ENDBRANCH  77  80
ENDBRANCH  75  76
ENDBRANCH  74  75
ENDBRANCH   1  74
TORSDOF 20
