REMARK SMILES CCOC(=O)C1=NN(c2ccc([N+](=O)[O-])cc2C(F)(F)F)[C@@](C)(C(=O)NCCCCCCNC(=O)c2ccc(-c3c4nc(c(-c5cccc(S(=O)(=O)[O-])c5F)c5ccc([nH]5)c(-c5cccc(S(=O)(=O)[O-])c5F)c5nc(c(-c6cccc(S(=O)(=O)[O-])c6F)c6ccc3[nH]6)C=C5)C=C4)cc2)C1
REMARK SMILES IDX 29 1 28 2 27 3 26 4 24 5 25 6 22 8 6 9 7 10 99 11 8 12 23 13
REMARK SMILES IDX 4 14 5 15 3 16 2 17 1 18 9 19 10 20 17 21 11 22 16 23 12 24
REMARK SMILES IDX 18 25 19 26 20 27 21 28 13 29 14 30 15 31 30 32 31 33 32 34
REMARK SMILES IDX 33 35 34 36 35 38 36 39 37 40 98 41 38 42 97 43 39 44 40 45
REMARK SMILES IDX 41 46 91 47 42 48 96 49 90 50 92 51 43 52 95 53 89 54 88 55
REMARK SMILES IDX 44 57 76 58 56 59 75 60 57 61 60 62 74 63 93 64 58 65 59 66
REMARK SMILES IDX 73 68 94 69 61 70 45 71 46 72 54 73 47 74 49 75 55 76 48 77
REMARK SMILES IDX 50 78 51 79 52 80 53 81 77 82 78 83 86 84 79 85 81 86 87 87
REMARK SMILES IDX 80 88 82 89 83 90 84 91 85 92 62 93 63 94 71 95 64 96 66 97
REMARK SMILES IDX 72 98 65 99 67 100 68 101 69 102 70 103
REMARK H PARENT 26 7 33 37 92 56 60 67
REMARK Flexibility Score: inf
ROOT
ATOM      1  C   UNL     1       6.786   4.870   8.586  1.00  0.00     0.002 C 
ENDROOT
BRANCH   1   2
ATOM      2  C   UNL     1       5.568   5.359   7.797  1.00  0.00     0.021 C 
BRANCH   2   3
ATOM      3  C   UNL     1       5.673   5.233   6.275  1.00  0.00     0.116 C 
BRANCH   3   4
ATOM      4  N   UNL     1       5.683   3.847   5.843  1.00  0.00    -0.354 N 
ATOM      5  C   UNL     1       5.135   3.211   4.771  1.00  0.00     0.248 C 
ATOM      6  O   UNL     1       5.299   1.982   4.760  1.00  0.00    -0.272 OA
ATOM      7  H   UNL     1       6.185   3.249   6.443  1.00  0.00     0.163 HD
BRANCH   5   8
ATOM      8  C   UNL     1       4.331   3.922   3.638  1.00  0.00     0.144 C 
ATOM      9  C   UNL     1       2.893   2.365   2.688  1.00  0.00     0.149 C 
ATOM     10  N   UNL     1       2.140   3.017   3.519  1.00  0.00    -0.169 NA
ATOM     11  C   UNL     1       4.246   2.943   2.434  1.00  0.00     0.106 C 
ATOM     12  N   UNL     1       2.888   4.071   3.973  1.00  0.00    -0.249 N 
ATOM     13  C   UNL     1       4.965   5.216   3.132  1.00  0.00     0.048 C 
BRANCH   9  14
ATOM     14  C   UNL     1       2.463   1.120   1.952  1.00  0.00     0.354 C 
ATOM     15  O   UNL     1       3.273   0.356   1.460  1.00  0.00    -0.245 OA
BRANCH  14  16
ATOM     16  O   UNL     1       1.119   1.035   1.906  1.00  0.00    -0.461 OA
BRANCH  16  17
ATOM     17  C   UNL     1       0.587  -0.131   1.266  1.00  0.00     0.230 C 
ATOM     18  C   UNL     1       0.547   0.051  -0.241  1.00  0.00     0.049 C 
ENDBRANCH  16  17
ENDBRANCH  14  16
ENDBRANCH   9  14
BRANCH  12  19
ATOM     19  C   UNL     1       2.382   4.750   5.074  1.00  0.00     0.073 A 
ATOM     20  C   UNL     1       2.312   4.095   6.320  1.00  0.00     0.036 A 
ATOM     21  C   UNL     1       1.877   6.061   4.968  1.00  0.00     0.088 A 
ATOM     22  C   UNL     1       1.833   4.740   7.462  1.00  0.00     0.088 A 
ATOM     23  C   UNL     1       1.408   6.720   6.128  1.00  0.00     0.101 A 
ATOM     24  C   UNL     1       1.398   6.060   7.361  1.00  0.00     0.270 A 
BRANCH  21  25
ATOM     25  C   UNL     1       1.839   6.806   3.654  1.00  0.00     0.418 C 
ATOM     26  F   UNL     1       0.826   7.719   3.598  1.00  0.00    -0.166 F 
ATOM     27  F   UNL     1       2.982   7.522   3.449  1.00  0.00    -0.166 F 
ATOM     28  F   UNL     1       1.683   6.034   2.544  1.00  0.00    -0.166 F 
ENDBRANCH  21  25
BRANCH  24  29
ATOM     29  N   UNL     1       0.930   6.758   8.561  1.00  0.00     0.062 N 
ATOM     30  O   UNL     1       1.327   6.333   9.655  1.00  0.00    -0.258 OA
ATOM     31  O   UNL     1       0.178   7.727   8.399  1.00  0.00    -0.258 OA
ENDBRANCH  24  29
ENDBRANCH  12  19
ENDBRANCH   5   8
ENDBRANCH   3   4
ENDBRANCH   2   3
ENDBRANCH   1   2
BRANCH   1  32
ATOM     32  C   UNL     1       8.072   5.677   8.392  1.00  0.00     0.002 C 
BRANCH  32  33
ATOM     33  C   UNL     1       7.990   7.175   8.717  1.00  0.00     0.021 C 
BRANCH  33  34
ATOM     34  C   UNL     1       7.332   7.545  10.048  1.00  0.00     0.116 C 
BRANCH  34  35
ATOM     35  N   UNL     1       7.961   6.920  11.197  1.00  0.00    -0.352 N 
ATOM     36  C   UNL     1       7.911   7.301  12.517  1.00  0.00     0.251 C 
ATOM     37  H   UNL     1       8.496   6.115  11.005  1.00  0.00     0.163 HD
ATOM     38  O   UNL     1       8.578   6.695  13.351  1.00  0.00    -0.269 OA
BRANCH  36  39
ATOM     39  C   UNL     1       7.099   8.471  12.929  1.00  0.00     0.039 A 
ATOM     40  C   UNL     1       7.704   9.443  13.733  1.00  0.00     0.014 A 
ATOM     41  C   UNL     1       5.759   8.610  12.551  1.00  0.00     0.014 A 
ATOM     42  C   UNL     1       6.991  10.587  14.100  1.00  0.00     0.010 A 
ATOM     43  C   UNL     1       5.053   9.765  12.900  1.00  0.00     0.010 A 
ATOM     44  C   UNL     1       5.669  10.765  13.666  1.00  0.00    -0.014 A 
BRANCH  44  45
ATOM     45  C   UNL     1       4.955  12.030  13.956  1.00  0.00     0.031 A 
ATOM     46  C   UNL     1       3.965  12.120  15.078  1.00  0.00     0.074 A 
ATOM     47  C   UNL     1       5.192  13.104  13.180  1.00  0.00     0.049 A 
ATOM     48  N   UNL     1       3.343  13.175  15.539  1.00  0.00    -0.248 NA
ATOM     49  C   UNL     1       3.635  10.870  15.777  1.00  0.00     0.031 C 
ATOM     50  C   UNL     1       6.102  13.131  12.033  1.00  0.00     0.029 A 
ATOM     51  N   UNL     1       4.683  14.376  13.233  1.00  0.00    -0.354 N 
ATOM     52  C   UNL     1       2.551  12.722  16.585  1.00  0.00     0.074 A 
ATOM     53  C   UNL     1       2.757  11.291  16.678  1.00  0.00     0.031 C 
ATOM     54  C   UNL     1       6.090  14.361  11.495  1.00  0.00     0.029 A 
ATOM     55  C   UNL     1       5.174  15.206  12.255  1.00  0.00     0.049 A 
ATOM     56  H   UNL     1       4.027  14.666  13.908  1.00  0.00     0.167 HD
ATOM     57  C   UNL     1       1.763  13.442  17.419  1.00  0.00     0.034 A 
ATOM     58  C   UNL     1       4.924  16.506  12.008  1.00  0.00     0.034 A 
ATOM     59  C   UNL     1       1.615  14.874  17.364  1.00  0.00     0.049 A 
ATOM     60  C   UNL     1       3.983  17.259  12.903  1.00  0.00     0.074 A 
ATOM     61  C   UNL     1       0.995  15.722  18.267  1.00  0.00     0.029 A 
ATOM     62  N   UNL     1       2.073  15.667  16.324  1.00  0.00    -0.354 N 
ATOM     63  N   UNL     1       3.418  16.864  14.017  1.00  0.00    -0.248 NA
ATOM     64  C   UNL     1       3.657  18.639  12.515  1.00  0.00     0.031 C 
ATOM     65  C   UNL     1       1.080  17.031  17.771  1.00  0.00     0.029 A 
ATOM     66  C   UNL     1       1.720  16.988  16.543  1.00  0.00     0.049 A 
ATOM     67  H   UNL     1       2.576  15.340  15.543  1.00  0.00     0.167 HD
ATOM     68  C   UNL     1       2.702  17.957  14.486  1.00  0.00     0.074 A 
ATOM     69  C   UNL     1       2.891  19.028  13.527  1.00  0.00     0.031 C 
ATOM     70  C   UNL     1       1.952  18.059  15.610  1.00  0.00     0.034 A 
BRANCH  57  71
ATOM     71  C   UNL     1       1.097  12.693  18.537  1.00  0.00     0.023 A 
ATOM     72  C   UNL     1       1.691  12.729  19.814  1.00  0.00     0.012 A 
ATOM     73  C   UNL     1      -0.082  11.952  18.344  1.00  0.00     0.148 A 
ATOM     74  C   UNL     1       1.119  12.040  20.883  1.00  0.00     0.002 A 
ATOM     75  C   UNL     1      -0.638  11.252  19.412  1.00  0.00     0.091 A 
ATOM     76  F   UNL     1      -0.632  11.909  17.121  1.00  0.00    -0.205 F 
ATOM     77  C   UNL     1      -0.045  11.297  20.682  1.00  0.00     0.022 A 
BRANCH  75  78
ATOM     78  S   UNL     1      -2.097  10.238  19.139  1.00  0.00     0.127 S 
ATOM     79  O   UNL     1      -1.657   9.309  18.102  1.00  0.00    -0.237 OA
ATOM     80  O   UNL     1      -2.325   9.611  20.442  1.00  0.00    -0.237 OA
ATOM     81  O   UNL     1      -3.112  11.214  18.756  1.00  0.00    -0.744 OA
ENDBRANCH  75  78
ENDBRANCH  57  71
BRANCH  58  82
ATOM     82  C   UNL     1       5.649  17.197  10.912  1.00  0.00     0.023 A 
ATOM     83  C   UNL     1       6.719  18.052  11.236  1.00  0.00     0.012 A 
ATOM     84  C   UNL     1       5.330  16.978   9.563  1.00  0.00     0.148 A 
ATOM     85  C   UNL     1       7.454  18.682  10.230  1.00  0.00     0.002 A 
ATOM     86  C   UNL     1       6.084  17.587   8.565  1.00  0.00     0.091 A 
ATOM     87  F   UNL     1       4.313  16.155   9.262  1.00  0.00    -0.205 F 
ATOM     88  C   UNL     1       7.141  18.447   8.892  1.00  0.00     0.022 A 
BRANCH  86  89
ATOM     89  S   UNL     1       5.725  17.217   6.846  1.00  0.00     0.127 S 
ATOM     90  O   UNL     1       4.344  17.663   6.698  1.00  0.00    -0.237 OA
ATOM     91  O   UNL     1       6.703  18.023   6.115  1.00  0.00    -0.237 OA
ATOM     92  O   UNL     1       5.961  15.778   6.774  1.00  0.00    -0.744 OA
ENDBRANCH  86  89
ENDBRANCH  58  82
BRANCH  70  93
ATOM     93  C   UNL     1       1.281  19.376  15.868  1.00  0.00     0.023 A 
ATOM     94  C   UNL     1      -0.015  19.587  15.362  1.00  0.00     0.012 A 
ATOM     95  C   UNL     1       1.902  20.384  16.628  1.00  0.00     0.148 A 
ATOM     96  C   UNL     1      -0.680  20.791  15.602  1.00  0.00     0.002 A 
ATOM     97  C   UNL     1       1.230  21.579  16.870  1.00  0.00     0.091 A 
ATOM     98  F   UNL     1       3.136  20.171  17.110  1.00  0.00    -0.205 F 
ATOM     99  C   UNL     1      -0.059  21.787  16.357  1.00  0.00     0.022 A 
BRANCH  97 100
ATOM    100  S   UNL     1       2.028  22.858  17.848  1.00  0.00     0.127 S 
ATOM    101  O   UNL     1       3.247  23.137  17.095  1.00  0.00    -0.237 OA
ATOM    102  O   UNL     1       1.056  23.954  17.837  1.00  0.00    -0.237 OA
ATOM    103  O   UNL     1       2.196  22.221  19.150  1.00  0.00    -0.744 OA
ENDBRANCH  97 100
ENDBRANCH  70  93
ENDBRANCH  44  45
ENDBRANCH  36  39
ENDBRANCH  34  35
ENDBRANCH  33  34
ENDBRANCH  32  33
ENDBRANCH   1  32
TORSDOF 22
