REMARK SMILES C[C@H](c1ccc(Br)s1)[NH+]1CCC(CC(=O)NCCCCCCNC(=O)c2ccc(-c3c4nc(c(-c5cccc(S(=O)(=O)[O-])c5F)c5ccc([nH]5)c(-c5cccc(S(=O)(=O)[O-])c5F)c5nc(c(-c6cccc(S(=O)(=O)[O-])c6F)c6ccc3[nH]6)C=C5)C=C4)cc2)CC1
REMARK SMILES IDX 19 1 18 2 17 3 16 4 14 5 15 6 13 8 12 9 9 10 10 11 90 12
REMARK SMILES IDX 11 14 89 15 2 16 1 17 3 18 4 19 8 20 5 21 6 22 7 23 20 24
REMARK SMILES IDX 21 25 22 26 23 27 24 28 25 30 26 31 27 32 88 33 28 34 87 35
REMARK SMILES IDX 29 36 30 37 31 38 81 39 32 40 86 41 80 42 82 43 33 44 85 45
REMARK SMILES IDX 79 46 78 47 34 49 66 50 46 51 65 52 47 53 50 54 64 55 83 56
REMARK SMILES IDX 48 57 49 58 63 60 84 61 51 62 35 63 36 64 44 65 37 66 39 67
REMARK SMILES IDX 45 68 38 69 40 70 41 71 42 72 43 73 67 74 68 75 76 76 69 77
REMARK SMILES IDX 71 78 77 79 70 80 72 81 73 82 74 83 75 84 52 85 53 86 61 87
REMARK SMILES IDX 54 88 56 89 62 90 55 91 57 92 58 93 59 94 60 95
REMARK H PARENT 16 7 9 13 23 29 82 48 50 59
REMARK Flexibility Score: inf
ROOT
ATOM      1  C   UNL     1      -4.235   3.958  -1.381  1.00  0.00     0.002 C 
ENDROOT
BRANCH   1   2
ATOM      2  C   UNL     1      -3.853   2.501  -1.127  1.00  0.00     0.021 C 
BRANCH   2   3
ATOM      3  C   UNL     1      -5.009   1.595  -0.683  1.00  0.00     0.116 C 
BRANCH   3   4
ATOM      4  N   UNL     1      -5.611   0.918  -1.824  1.00  0.00    -0.356 N 
ATOM      5  C   UNL     1      -5.552  -0.386  -2.223  1.00  0.00     0.220 C 
ATOM      6  O   UNL     1      -6.087  -0.691  -3.292  1.00  0.00    -0.275 OA
ATOM      7  H   UNL     1      -6.152   1.500  -2.406  1.00  0.00     0.163 HD
BRANCH   5   8
ATOM      8  C   UNL     1      -4.856  -1.442  -1.376  1.00  0.00     0.104 C 
BRANCH   8   9
ATOM      9  C   UNL     1      -3.389  -1.712  -1.774  1.00  0.00     0.009 C 
ATOM     10  N   UNL     1      -0.679  -1.710  -0.600  1.00  0.00    -0.328 N 
ATOM     11  C   UNL     1      -1.038  -0.700  -1.606  1.00  0.00     0.263 C 
ATOM     12  C   UNL     1      -1.286  -2.987  -1.007  1.00  0.00     0.263 C 
ATOM     13  H   UNL     1      -1.049  -1.472   0.320  1.00  0.00     0.348 HD
ATOM     14  C   UNL     1      -2.536  -0.467  -1.569  1.00  0.00     0.066 C 
ATOM     15  C   UNL     1      -2.820  -2.892  -0.969  1.00  0.00     0.066 C 
BRANCH  10  16
ATOM     16  C   UNL     1       0.795  -1.761  -0.407  1.00  0.00     0.222 C 
ATOM     17  C   UNL     1       1.242  -2.850   0.585  1.00  0.00     0.082 C 
BRANCH  16  18
ATOM     18  C   UNL     1       1.310  -0.424   0.118  1.00  0.00     0.063 A 
ATOM     19  C   UNL     1       0.923   0.270   1.255  1.00  0.00     0.023 A 
ATOM     20  S   UNL     1       2.522   0.440  -0.747  1.00  0.00    -0.127 S 
ATOM     21  C   UNL     1       1.615   1.510   1.405  1.00  0.00     0.028 A 
ATOM     22  C   UNL     1       2.495   1.711   0.373  1.00  0.00     0.070 A 
ATOM     23  Br  UNL     1       3.562   3.242   0.209  1.00  0.00    -0.039 Br
ENDBRANCH  16  18
ENDBRANCH  10  16
ENDBRANCH   8   9
ENDBRANCH   5   8
ENDBRANCH   3   4
ENDBRANCH   2   3
ENDBRANCH   1   2
BRANCH   1  24
ATOM     24  C   UNL     1      -4.554   4.771  -0.126  1.00  0.00     0.002 C 
BRANCH  24  25
ATOM     25  C   UNL     1      -3.463   4.788   0.951  1.00  0.00     0.021 C 
BRANCH  25  26
ATOM     26  C   UNL     1      -2.074   5.208   0.473  1.00  0.00     0.116 C 
BRANCH  26  27
ATOM     27  N   UNL     1      -2.072   6.550  -0.088  1.00  0.00    -0.352 N 
ATOM     28  C   UNL     1      -1.424   7.680   0.346  1.00  0.00     0.251 C 
ATOM     29  H   UNL     1      -2.616   6.665  -0.901  1.00  0.00     0.163 HD
ATOM     30  O   UNL     1      -1.716   8.773  -0.130  1.00  0.00    -0.269 OA
BRANCH  28  31
ATOM     31  C   UNL     1      -0.383   7.583   1.391  1.00  0.00     0.039 A 
ATOM     32  C   UNL     1      -0.392   8.503   2.443  1.00  0.00     0.014 A 
ATOM     33  C   UNL     1       0.616   6.607   1.320  1.00  0.00     0.014 A 
ATOM     34  C   UNL     1       0.570   8.412   3.453  1.00  0.00     0.010 A 
ATOM     35  C   UNL     1       1.534   6.478   2.360  1.00  0.00     0.010 A 
ATOM     36  C   UNL     1       1.526   7.383   3.433  1.00  0.00    -0.014 A 
BRANCH  36  37
ATOM     37  C   UNL     1       2.520   7.233   4.527  1.00  0.00     0.031 A 
ATOM     38  C   UNL     1       3.990   7.392   4.245  1.00  0.00     0.074 A 
ATOM     39  C   UNL     1       2.105   6.866   5.756  1.00  0.00     0.049 A 
ATOM     40  N   UNL     1       5.004   7.246   5.058  1.00  0.00    -0.248 NA
ATOM     41  C   UNL     1       4.372   7.734   2.865  1.00  0.00     0.031 C 
ATOM     42  C   UNL     1       0.715   6.601   6.135  1.00  0.00     0.029 A 
ATOM     43  N   UNL     1       2.814   6.623   6.906  1.00  0.00    -0.354 N 
ATOM     44  C   UNL     1       6.143   7.441   4.284  1.00  0.00     0.074 A 
ATOM     45  C   UNL     1       5.696   7.686   2.930  1.00  0.00     0.031 C 
ATOM     46  C   UNL     1       0.674   6.231   7.425  1.00  0.00     0.029 A 
ATOM     47  C   UNL     1       2.032   6.209   7.959  1.00  0.00     0.049 A 
ATOM     48  H   UNL     1       3.789   6.735   6.971  1.00  0.00     0.167 HD
ATOM     49  C   UNL     1       7.441   7.445   4.670  1.00  0.00     0.034 A 
ATOM     50  C   UNL     1       2.370   5.846   9.212  1.00  0.00     0.034 A 
ATOM     51  C   UNL     1       7.880   7.250   6.026  1.00  0.00     0.049 A 
ATOM     52  C   UNL     1       3.815   5.911   9.628  1.00  0.00     0.074 A 
ATOM     53  C   UNL     1       9.164   7.332   6.534  1.00  0.00     0.029 A 
ATOM     54  N   UNL     1       7.049   6.930   7.088  1.00  0.00    -0.354 N 
ATOM     55  N   UNL     1       4.861   6.265   8.921  1.00  0.00    -0.248 NA
ATOM     56  C   UNL     1       4.123   5.565  11.023  1.00  0.00     0.031 C 
ATOM     57  C   UNL     1       9.111   7.043   7.902  1.00  0.00     0.029 A 
ATOM     58  C   UNL     1       7.792   6.803   8.249  1.00  0.00     0.049 A 
ATOM     59  H   UNL     1       6.073   6.811   7.026  1.00  0.00     0.167 HD
ATOM     60  C   UNL     1       5.944   6.219   9.792  1.00  0.00     0.074 A 
ATOM     61  C   UNL     1       5.423   5.824  11.085  1.00  0.00     0.031 C 
ATOM     62  C   UNL     1       7.253   6.465   9.541  1.00  0.00     0.034 A 
BRANCH  49  63
ATOM     63  C   UNL     1       8.484   7.731   3.621  1.00  0.00     0.023 A 
ATOM     64  C   UNL     1       8.611   9.039   3.110  1.00  0.00     0.012 A 
ATOM     65  C   UNL     1       9.378   6.732   3.191  1.00  0.00     0.148 A 
ATOM     66  C   UNL     1       9.590   9.341   2.164  1.00  0.00     0.002 A 
ATOM     67  C   UNL     1      10.380   7.050   2.280  1.00  0.00     0.091 A 
ATOM     68  F   UNL     1       9.230   5.490   3.673  1.00  0.00    -0.205 F 
ATOM     69  C   UNL     1      10.480   8.351   1.758  1.00  0.00     0.022 A 
BRANCH  67  70
ATOM     70  S   UNL     1      11.625   5.867   1.753  1.00  0.00     0.127 S 
ATOM     71  O   UNL     1      11.226   5.615   0.370  1.00  0.00    -0.237 OA
ATOM     72  O   UNL     1      12.862   6.635   1.900  1.00  0.00    -0.237 OA
ATOM     73  O   UNL     1      11.506   4.731   2.656  1.00  0.00    -0.744 OA
ENDBRANCH  67  70
ENDBRANCH  49  63
BRANCH  50  74
ATOM     74  C   UNL     1       1.311   5.457  10.186  1.00  0.00     0.023 A 
ATOM     75  C   UNL     1       1.009   6.320  11.258  1.00  0.00     0.012 A 
ATOM     76  C   UNL     1       0.583   4.261  10.042  1.00  0.00     0.148 A 
ATOM     77  C   UNL     1       0.025   5.982  12.188  1.00  0.00     0.002 A 
ATOM     78  C   UNL     1      -0.434   3.957  10.940  1.00  0.00     0.091 A 
ATOM     79  F   UNL     1       0.893   3.446   9.024  1.00  0.00    -0.205 F 
ATOM     80  C   UNL     1      -0.704   4.807  12.024  1.00  0.00     0.022 A 
BRANCH  78  81
ATOM     81  S   UNL     1      -1.510   2.534  10.725  1.00  0.00     0.127 S 
ATOM     82  O   UNL     1      -1.028   1.633  11.768  1.00  0.00    -0.237 OA
ATOM     83  O   UNL     1      -2.832   3.111  10.970  1.00  0.00    -0.237 OA
ATOM     84  O   UNL     1      -1.298   2.090   9.353  1.00  0.00    -0.744 OA
ENDBRANCH  78  81
ENDBRANCH  50  74
BRANCH  62  85
ATOM     85  C   UNL     1       8.219   6.350  10.690  1.00  0.00     0.023 A 
ATOM     86  C   UNL     1       8.566   5.078  11.186  1.00  0.00     0.012 A 
ATOM     87  C   UNL     1       8.841   7.495  11.225  1.00  0.00     0.148 A 
ATOM     88  C   UNL     1       9.495   4.949  12.218  1.00  0.00     0.002 A 
ATOM     89  C   UNL     1       9.801   7.356  12.221  1.00  0.00     0.091 A 
ATOM     90  F   UNL     1       8.483   8.698  10.754  1.00  0.00    -0.205 F 
ATOM     91  C   UNL     1      10.121   6.085  12.726  1.00  0.00     0.022 A 
BRANCH  89  92
ATOM     92  S   UNL     1      10.725   8.755  12.867  1.00  0.00     0.127 S 
ATOM     93  O   UNL     1      10.115   8.934  14.182  1.00  0.00    -0.237 OA
ATOM     94  O   UNL     1      12.094   8.238  12.895  1.00  0.00    -0.237 OA
ATOM     95  O   UNL     1      10.513   9.844  11.923  1.00  0.00    -0.744 OA
ENDBRANCH  89  92
ENDBRANCH  62  85
ENDBRANCH  36  37
ENDBRANCH  28  31
ENDBRANCH  26  27
ENDBRANCH  25  26
ENDBRANCH  24  25
ENDBRANCH   1  24
TORSDOF 19
