REMARK SMILES Cc1c(NC(=O)[C@@H]2CC=CC[C@@H]2C(=O)NCCCCCCNC(=O)c2ccc(-c3c4nc(c(-c5cccc(S(=O)(=O)[O-])c5F)c5ccc([nH]5)c(-c5cccc(S(=O)(=O)[O-])c5F)c5nc(c(-c6cccc(S(=O)(=O)[O-])c6F)c6ccc3[nH]6)C=C5)C=C4)cc2)cccc1C(=O)N1CCOCC1
REMARK SMILES IDX 18 1 17 2 16 3 15 4 13 5 14 6 12 8 7 9 8 10 9 11 11 12 10 13
REMARK SMILES IDX 5 14 4 15 6 17 3 18 1 19 2 20 91 21 88 22 90 23 89 24 92 25
REMARK SMILES IDX 93 26 94 27 95 28 99 29 96 30 98 31 97 32 19 33 20 34 21 35
REMARK SMILES IDX 22 36 23 37 24 39 25 40 26 41 87 42 27 43 86 44 28 45 29 46
REMARK SMILES IDX 30 47 80 48 31 49 85 50 79 51 81 52 32 53 84 54 78 55 77 56
REMARK SMILES IDX 33 58 65 59 45 60 64 61 46 62 49 63 63 64 82 65 47 66 48 67
REMARK SMILES IDX 62 69 83 70 50 71 34 72 35 73 43 74 36 75 38 76 44 77 37 78
REMARK SMILES IDX 39 79 40 80 41 81 42 82 66 83 67 84 75 85 68 86 70 87 76 88
REMARK SMILES IDX 69 89 71 90 72 91 73 92 74 93 51 94 52 95 60 96 53 97 55 98
REMARK SMILES IDX 61 99 54 100 56 101 57 102 58 103 59 104
REMARK H PARENT 15 7 4 16 22 38 81 57 49 68
REMARK Flexibility Score: inf
ROOT
ATOM      1  C   UNL     1      -6.098  -5.020   1.738  1.00  0.00     0.002 C 
ENDROOT
BRANCH   1   2
ATOM      2  C   UNL     1      -4.623  -4.610   1.719  1.00  0.00     0.021 C 
BRANCH   2   3
ATOM      3  C   UNL     1      -3.976  -4.590   0.334  1.00  0.00     0.116 C 
BRANCH   3   4
ATOM      4  N   UNL     1      -4.229  -3.353  -0.373  1.00  0.00    -0.356 N 
ATOM      5  C   UNL     1      -3.482  -2.421  -1.005  1.00  0.00     0.224 C 
ATOM      6  O   UNL     1      -4.163  -1.566  -1.598  1.00  0.00    -0.275 OA
ATOM      7  H   UNL     1      -5.188  -3.134  -0.400  1.00  0.00     0.163 HD
BRANCH   5   8
ATOM      8  C   UNL     1      -1.944  -2.349  -1.137  1.00  0.00     0.095 C 
ATOM      9  C   UNL     1      -0.983  -3.201  -0.275  1.00  0.00     0.095 C 
ATOM     10  C   UNL     1      -1.192  -2.872   1.213  1.00  0.00     0.041 C 
ATOM     11  C   UNL     1      -1.125  -1.388   1.454  1.00  0.00    -0.030 C 
ATOM     12  C   UNL     1      -1.516  -0.864  -0.964  1.00  0.00     0.041 C 
ATOM     13  C   UNL     1      -1.247  -0.486   0.469  1.00  0.00    -0.030 C 
BRANCH   9  14
ATOM     14  C   UNL     1      -0.984  -4.654  -0.736  1.00  0.00     0.228 C 
ATOM     15  N   UNL     1      -0.301  -5.659  -0.138  1.00  0.00    -0.326 N 
ATOM     16  H   UNL     1      -0.621  -6.541  -0.434  1.00  0.00     0.169 HD
ATOM     17  O   UNL     1      -1.658  -5.001  -1.716  1.00  0.00    -0.274 OA
BRANCH  15  18
ATOM     18  C   UNL     1       0.746  -5.773   0.795  1.00  0.00     0.044 A 
ATOM     19  C   UNL     1      -0.115  -8.100   1.244  1.00  0.00     0.047 C 
ATOM     20  C   UNL     1       0.965  -7.055   1.382  1.00  0.00    -0.015 A 
ATOM     21  C   UNL     1       2.141  -7.281   2.138  1.00  0.00     0.045 A 
ATOM     22  C   UNL     1       1.609  -4.718   1.090  1.00  0.00     0.026 A 
ATOM     23  C   UNL     1       2.962  -6.179   2.442  1.00  0.00     0.014 A 
ATOM     24  C   UNL     1       2.684  -4.908   1.950  1.00  0.00     0.003 A 
BRANCH  21  25
ATOM     25  C   UNL     1       2.559  -8.572   2.785  1.00  0.00     0.254 C 
ATOM     26  O   UNL     1       3.305  -8.522   3.764  1.00  0.00    -0.269 OA
ATOM     27  N   UNL     1       2.084  -9.795   2.332  1.00  0.00    -0.334 N 
ATOM     28  C   UNL     1       2.216 -10.269   0.954  1.00  0.00     0.148 C 
ATOM     29  C   UNL     1       1.968 -10.869   3.317  1.00  0.00     0.148 C 
ATOM     30  C   UNL     1       1.146 -11.324   0.621  1.00  0.00     0.181 C 
ATOM     31  C   UNL     1       0.843 -11.822   2.916  1.00  0.00     0.181 C 
ATOM     32  O   UNL     1       1.090 -12.368   1.606  1.00  0.00    -0.378 OA
ENDBRANCH  21  25
ENDBRANCH  15  18
ENDBRANCH   9  14
ENDBRANCH   5   8
ENDBRANCH   3   4
ENDBRANCH   2   3
ENDBRANCH   1   2
BRANCH   1  33
ATOM     33  C   UNL     1      -6.442  -6.350   1.047  1.00  0.00     0.002 C 
BRANCH  33  34
ATOM     34  C   UNL     1      -5.503  -7.525   1.329  1.00  0.00     0.021 C 
BRANCH  34  35
ATOM     35  C   UNL     1      -5.479  -7.957   2.785  1.00  0.00     0.116 C 
BRANCH  35  36
ATOM     36  N   UNL     1      -6.545  -8.874   3.137  1.00  0.00    -0.352 N 
ATOM     37  C   UNL     1      -6.868  -9.453   4.354  1.00  0.00     0.251 C 
ATOM     38  H   UNL     1      -7.136  -9.127   2.391  1.00  0.00     0.163 HD
ATOM     39  O   UNL     1      -7.690 -10.355   4.362  1.00  0.00    -0.269 OA
BRANCH  37  40
ATOM     40  C   UNL     1      -6.335  -8.889   5.626  1.00  0.00     0.039 A 
ATOM     41  C   UNL     1      -7.179  -8.885   6.748  1.00  0.00     0.014 A 
ATOM     42  C   UNL     1      -5.131  -8.198   5.677  1.00  0.00     0.014 A 
ATOM     43  C   UNL     1      -6.937  -7.999   7.800  1.00  0.00     0.010 A 
ATOM     44  C   UNL     1      -4.949  -7.244   6.649  1.00  0.00     0.010 A 
ATOM     45  C   UNL     1      -5.885  -7.104   7.678  1.00  0.00    -0.014 A 
BRANCH  45  46
ATOM     46  C   UNL     1      -5.600  -5.987   8.562  1.00  0.00     0.031 A 
ATOM     47  C   UNL     1      -4.505  -6.117   9.541  1.00  0.00     0.074 A 
ATOM     48  C   UNL     1      -6.077  -4.770   8.219  1.00  0.00     0.049 A 
ATOM     49  N   UNL     1      -4.141  -5.171  10.331  1.00  0.00    -0.248 NA
ATOM     50  C   UNL     1      -3.748  -7.350   9.724  1.00  0.00     0.031 C 
ATOM     51  C   UNL     1      -5.487  -3.472   8.524  1.00  0.00     0.029 A 
ATOM     52  N   UNL     1      -7.338  -4.454   7.703  1.00  0.00    -0.354 N 
ATOM     53  C   UNL     1      -2.966  -5.555  10.934  1.00  0.00     0.074 A 
ATOM     54  C   UNL     1      -2.826  -6.953  10.608  1.00  0.00     0.031 C 
ATOM     55  C   UNL     1      -6.444  -2.537   8.464  1.00  0.00     0.029 A 
ATOM     56  C   UNL     1      -7.706  -3.238   8.314  1.00  0.00     0.049 A 
ATOM     57  H   UNL     1      -7.860  -4.973   7.049  1.00  0.00     0.167 HD
ATOM     58  C   UNL     1      -2.216  -4.593  11.539  1.00  0.00     0.034 A 
ATOM     59  C   UNL     1      -8.786  -3.100   9.140  1.00  0.00     0.034 A 
ATOM     60  C   UNL     1      -2.971  -3.333  11.639  1.00  0.00     0.049 A 
ATOM     61  C   UNL     1      -8.439  -2.598  10.537  1.00  0.00     0.074 A 
ATOM     62  C   UNL     1      -2.971  -2.119  10.976  1.00  0.00     0.029 A 
ATOM     63  N   UNL     1      -4.098  -3.331  12.438  1.00  0.00    -0.354 N 
ATOM     64  N   UNL     1      -7.241  -2.266  10.934  1.00  0.00    -0.248 NA
ATOM     65  C   UNL     1      -9.415  -2.527  11.627  1.00  0.00     0.031 C 
ATOM     66  C   UNL     1      -4.145  -1.403  11.372  1.00  0.00     0.029 A 
ATOM     67  C   UNL     1      -4.833  -2.173  12.295  1.00  0.00     0.049 A 
ATOM     68  H   UNL     1      -4.347  -4.070  13.039  1.00  0.00     0.167 HD
ATOM     69  C   UNL     1      -7.233  -2.150  12.301  1.00  0.00     0.074 A 
ATOM     70  C   UNL     1      -8.629  -2.253  12.683  1.00  0.00     0.031 C 
ATOM     71  C   UNL     1      -6.083  -2.067  13.036  1.00  0.00     0.034 A 
BRANCH  58  72
ATOM     72  C   UNL     1      -0.762  -4.687  11.964  1.00  0.00     0.023 A 
ATOM     73  C   UNL     1      -0.178  -3.507  12.484  1.00  0.00     0.012 A 
ATOM     74  C   UNL     1       0.111  -5.790  11.819  1.00  0.00     0.148 A 
ATOM     75  C   UNL     1       1.182  -3.407  12.792  1.00  0.00     0.002 A 
ATOM     76  C   UNL     1       1.467  -5.701  12.148  1.00  0.00     0.091 A 
ATOM     77  F   UNL     1      -0.333  -6.940  11.316  1.00  0.00    -0.205 F 
ATOM     78  C   UNL     1       2.008  -4.505  12.621  1.00  0.00     0.022 A 
BRANCH  76  79
ATOM     79  S   UNL     1       2.606  -7.086  11.950  1.00  0.00     0.127 S 
ATOM     80  O   UNL     1       3.487  -6.601  10.888  1.00  0.00    -0.237 OA
ATOM     81  O   UNL     1       3.233  -7.169  13.269  1.00  0.00    -0.237 OA
ATOM     82  O   UNL     1       1.795  -8.243  11.591  1.00  0.00    -0.744 OA
ENDBRANCH  76  79
ENDBRANCH  58  72
BRANCH  59  83
ATOM     83  C   UNL     1      -9.880  -4.067   8.832  1.00  0.00     0.023 A 
ATOM     84  C   UNL     1     -10.523  -3.934   7.579  1.00  0.00     0.012 A 
ATOM     85  C   UNL     1      -9.968  -5.291   9.519  1.00  0.00     0.148 A 
ATOM     86  C   UNL     1     -11.118  -5.035   6.963  1.00  0.00     0.002 A 
ATOM     87  C   UNL     1     -10.559  -6.386   8.894  1.00  0.00     0.091 A 
ATOM     88  F   UNL     1      -9.387  -5.395  10.720  1.00  0.00    -0.205 F 
ATOM     89  C   UNL     1     -11.102  -6.269   7.605  1.00  0.00     0.022 A 
BRANCH  87  90
ATOM     90  S   UNL     1     -10.504  -8.027   9.628  1.00  0.00     0.127 S 
ATOM     91  O   UNL     1     -11.826  -8.116  10.240  1.00  0.00    -0.237 OA
ATOM     92  O   UNL     1     -10.302  -8.882   8.458  1.00  0.00    -0.237 OA
ATOM     93  O   UNL     1      -9.369  -7.990  10.538  1.00  0.00    -0.744 OA
ENDBRANCH  87  90
ENDBRANCH  59  83
BRANCH  71  94
ATOM     94  C   UNL     1      -6.053  -1.909  14.542  1.00  0.00     0.023 A 
ATOM     95  C   UNL     1      -6.930  -1.011  15.180  1.00  0.00     0.012 A 
ATOM     96  C   UNL     1      -5.054  -2.517  15.347  1.00  0.00     0.148 A 
ATOM     97  C   UNL     1      -6.840  -0.751  16.553  1.00  0.00     0.002 A 
ATOM     98  C   UNL     1      -4.905  -2.177  16.687  1.00  0.00     0.091 A 
ATOM     99  F   UNL     1      -4.274  -3.472  14.831  1.00  0.00    -0.205 F 
ATOM    100  C   UNL     1      -5.813  -1.313  17.301  1.00  0.00     0.022 A 
BRANCH  98 101
ATOM    101  S   UNL     1      -3.489  -2.712  17.663  1.00  0.00     0.127 S 
ATOM    102  O   UNL     1      -3.017  -1.443  18.221  1.00  0.00    -0.237 OA
ATOM    103  O   UNL     1      -4.115  -3.608  18.632  1.00  0.00    -0.237 OA
ATOM    104  O   UNL     1      -2.569  -3.334  16.723  1.00  0.00    -0.744 OA
ENDBRANCH  98 101
ENDBRANCH  71  94
ENDBRANCH  45  46
ENDBRANCH  37  40
ENDBRANCH  35  36
ENDBRANCH  34  35
ENDBRANCH  33  34
ENDBRANCH   1  33
TORSDOF 19
