REMARK SMILES O=C(COc1ccnc(NCc2ccc(Br)cc2)n1)NCCCCCCNC(=O)c1ccc(-c2c3nc(c(-c4cccc(S(=O)(=O)[O-])c4F)c4ccc([nH]4)c(-c4cccc(S(=O)(=O)[O-])c4F)c4nc(c(-c5cccc(S(=O)(=O)[O-])c5F)c5ccc2[nH]5)C=C4)C=C3)cc1
REMARK SMILES IDX 22 1 21 2 20 3 1 4 2 5 3 7 4 8 5 9 6 10 19 11 7 12 9 13 8 14
REMARK SMILES IDX 10 15 11 17 12 18 13 19 18 20 14 21 17 22 15 23 16 24 23 25
REMARK SMILES IDX 24 26 25 27 26 28 27 29 28 30 29 32 30 33 31 34 92 35 32 36
REMARK SMILES IDX 91 37 33 38 34 39 35 40 85 41 36 42 90 43 84 44 86 45 37 46
REMARK SMILES IDX 89 47 83 48 82 49 38 51 70 52 50 53 69 54 51 55 54 56 68 57
REMARK SMILES IDX 87 58 52 59 53 60 67 62 88 63 55 64 39 65 40 66 48 67 41 68
REMARK SMILES IDX 43 69 49 70 42 71 44 72 45 73 46 74 47 75 71 76 72 77 80 78
REMARK SMILES IDX 73 79 75 80 81 81 74 82 76 83 77 84 78 85 79 86 56 87 57 88
REMARK SMILES IDX 65 89 58 90 60 91 66 92 59 93 61 94 62 95 63 96 64 97
REMARK H PARENT 20 6 10 16 27 31 86 50 54 61
REMARK Flexibility Score: inf
ROOT
ATOM      1  C   UNL     1       2.748   3.544   0.060  1.00  0.00     0.021 C 
ENDROOT
BRANCH   1   2
ATOM      2  C   UNL     1       2.169   2.373  -0.725  1.00  0.00     0.116 C 
BRANCH   2   3
ATOM      3  N   UNL     1       2.829   1.121  -0.416  1.00  0.00    -0.353 N 
ATOM      4  O   UNL     1       1.068   0.122   0.682  1.00  0.00    -0.271 OA
ATOM      5  C   UNL     1       2.192   0.062   0.198  1.00  0.00     0.258 C 
ATOM      6  H   UNL     1       3.779   1.022  -0.654  1.00  0.00     0.163 HD
BRANCH   5   7
ATOM      7  C   UNL     1       3.019  -1.225   0.200  1.00  0.00     0.331 C 
BRANCH   7   8
ATOM      8  O   UNL     1       3.828  -1.372  -0.968  1.00  0.00    -0.467 OA
BRANCH   8   9
ATOM      9  C   UNL     1       3.133  -1.937  -2.011  1.00  0.00     0.218 A 
ATOM     10  C   UNL     1       2.165  -1.231  -2.685  1.00  0.00     0.088 A 
ATOM     11  N   UNL     1       3.564  -3.151  -2.387  1.00  0.00    -0.177 NA
ATOM     12  C   UNL     1       1.619  -1.871  -3.764  1.00  0.00     0.121 A 
ATOM     13  C   UNL     1       2.980  -3.686  -3.467  1.00  0.00     0.226 A 
ATOM     14  N   UNL     1       2.006  -3.091  -4.165  1.00  0.00    -0.221 NA
BRANCH  13  15
ATOM     15  N   UNL     1       3.351  -4.910  -3.936  1.00  0.00    -0.350 N 
ATOM     16  H   UNL     1       2.884  -5.263  -4.727  1.00  0.00     0.164 HD
BRANCH  15  17
ATOM     17  C   UNL     1       4.380  -5.715  -3.348  1.00  0.00     0.152 C 
BRANCH  17  18
ATOM     18  C   UNL     1       3.832  -7.090  -3.033  1.00  0.00    -0.029 A 
ATOM     19  C   UNL     1       4.462  -8.245  -3.519  1.00  0.00     0.007 A 
ATOM     20  C   UNL     1       2.699  -7.230  -2.214  1.00  0.00     0.007 A 
ATOM     21  C   UNL     1       3.967  -9.511  -3.195  1.00  0.00     0.016 A 
ATOM     22  C   UNL     1       2.200  -8.493  -1.894  1.00  0.00     0.016 A 
ATOM     23  C   UNL     1       2.840  -9.629  -2.384  1.00  0.00     0.017 A 
ATOM     24  Br  UNL     1       2.178 -11.342  -1.938  1.00  0.00    -0.051 Br
ENDBRANCH  17  18
ENDBRANCH  15  17
ENDBRANCH  13  15
ENDBRANCH   8   9
ENDBRANCH   7   8
ENDBRANCH   5   7
ENDBRANCH   2   3
ENDBRANCH   1   2
BRANCH   1  25
ATOM     25  C   UNL     1       4.244   3.791  -0.170  1.00  0.00     0.002 C 
BRANCH  25  26
ATOM     26  C   UNL     1       4.655   4.066  -1.620  1.00  0.00     0.002 C 
BRANCH  26  27
ATOM     27  C   UNL     1       3.961   5.255  -2.287  1.00  0.00     0.021 C 
BRANCH  27  28
ATOM     28  C   UNL     1       4.111   6.587  -1.557  1.00  0.00     0.116 C 
BRANCH  28  29
ATOM     29  N   UNL     1       5.498   7.018  -1.458  1.00  0.00    -0.352 N 
ATOM     30  C   UNL     1       6.064   8.222  -1.798  1.00  0.00     0.251 C 
ATOM     31  H   UNL     1       6.122   6.348  -1.095  1.00  0.00     0.163 HD
ATOM     32  O   UNL     1       7.287   8.347  -1.794  1.00  0.00    -0.269 OA
BRANCH  30  33
ATOM     33  C   UNL     1       5.205   9.361  -2.192  1.00  0.00     0.039 A 
ATOM     34  C   UNL     1       5.556  10.113  -3.316  1.00  0.00     0.014 A 
ATOM     35  C   UNL     1       4.056   9.683  -1.465  1.00  0.00     0.014 A 
ATOM     36  C   UNL     1       4.717  11.141  -3.752  1.00  0.00     0.010 A 
ATOM     37  C   UNL     1       3.183  10.657  -1.944  1.00  0.00     0.010 A 
ATOM     38  C   UNL     1       3.502  11.395  -3.094  1.00  0.00    -0.014 A 
BRANCH  38  39
ATOM     39  C   UNL     1       2.536  12.393  -3.623  1.00  0.00     0.031 A 
ATOM     40  C   UNL     1       2.145  13.595  -2.809  1.00  0.00     0.074 A 
ATOM     41  C   UNL     1       1.937  12.166  -4.809  1.00  0.00     0.049 A 
ATOM     42  N   UNL     1       1.286  14.540  -3.094  1.00  0.00    -0.248 NA
ATOM     43  C   UNL     1       2.782  13.741  -1.491  1.00  0.00     0.031 C 
ATOM     44  C   UNL     1       2.161  10.992  -5.656  1.00  0.00     0.029 A 
ATOM     45  N   UNL     1       0.995  12.894  -5.494  1.00  0.00    -0.354 N 
ATOM     46  C   UNL     1       1.257  15.376  -1.984  1.00  0.00     0.074 A 
ATOM     47  C   UNL     1       2.155  14.802  -1.004  1.00  0.00     0.031 C 
ATOM     48  C   UNL     1       1.379  11.078  -6.742  1.00  0.00     0.029 A 
ATOM     49  C   UNL     1       0.573  12.292  -6.655  1.00  0.00     0.049 A 
ATOM     50  H   UNL     1       0.655  13.764  -5.182  1.00  0.00     0.167 HD
ATOM     51  C   UNL     1       0.569  16.530  -1.805  1.00  0.00     0.034 A 
ATOM     52  C   UNL     1      -0.371  12.660  -7.544  1.00  0.00     0.034 A 
ATOM     53  C   UNL     1      -0.311  17.105  -2.788  1.00  0.00     0.049 A 
ATOM     54  C   UNL     1      -1.108  13.954  -7.338  1.00  0.00     0.074 A 
ATOM     55  C   UNL     1      -0.985  18.312  -2.738  1.00  0.00     0.029 A 
ATOM     56  N   UNL     1      -0.659  16.505  -3.989  1.00  0.00    -0.354 N 
ATOM     57  N   UNL     1      -0.996  14.819  -6.359  1.00  0.00    -0.248 NA
ATOM     58  C   UNL     1      -2.075  14.341  -8.375  1.00  0.00     0.031 C 
ATOM     59  C   UNL     1      -1.771  18.424  -3.891  1.00  0.00     0.029 A 
ATOM     60  C   UNL     1      -1.555  17.305  -4.679  1.00  0.00     0.049 A 
ATOM     61  H   UNL     1      -0.318  15.637  -4.305  1.00  0.00     0.167 HD
ATOM     62  C   UNL     1      -1.860  15.862  -6.671  1.00  0.00     0.074 A 
ATOM     63  C   UNL     1      -2.467  15.533  -7.946  1.00  0.00     0.031 C 
ATOM     64  C   UNL     1      -2.134  16.984  -5.960  1.00  0.00     0.034 A 
BRANCH  51  65
ATOM     65  C   UNL     1       0.775  17.265  -0.503  1.00  0.00     0.023 A 
ATOM     66  C   UNL     1       2.022  17.865  -0.230  1.00  0.00     0.012 A 
ATOM     67  C   UNL     1      -0.267  17.387   0.436  1.00  0.00     0.148 A 
ATOM     68  C   UNL     1       2.246  18.529   0.976  1.00  0.00     0.002 A 
ATOM     69  C   UNL     1      -0.052  18.093   1.615  1.00  0.00     0.091 A 
ATOM     70  F   UNL     1      -1.441  16.796   0.172  1.00  0.00    -0.205 F 
ATOM     71  C   UNL     1       1.207  18.650   1.893  1.00  0.00     0.022 A 
BRANCH  69  72
ATOM     72  S   UNL     1      -1.350  18.376   2.824  1.00  0.00     0.127 S 
ATOM     73  O   UNL     1      -0.942  17.485   3.909  1.00  0.00    -0.237 OA
ATOM     74  O   UNL     1      -1.194  19.802   3.115  1.00  0.00    -0.237 OA
ATOM     75  O   UNL     1      -2.598  18.026   2.160  1.00  0.00    -0.744 OA
ENDBRANCH  69  72
ENDBRANCH  51  65
BRANCH  52  76
ATOM     76  C   UNL     1      -0.634  11.799  -8.731  1.00  0.00     0.023 A 
ATOM     77  C   UNL     1      -0.231  12.230 -10.009  1.00  0.00     0.012 A 
ATOM     78  C   UNL     1      -1.226  10.529  -8.586  1.00  0.00     0.148 A 
ATOM     79  C   UNL     1      -0.431  11.418 -11.127  1.00  0.00     0.002 A 
ATOM     80  C   UNL     1      -1.369   9.703  -9.694  1.00  0.00     0.091 A 
ATOM     81  F   UNL     1      -1.608  10.144  -7.361  1.00  0.00    -0.205 F 
ATOM     82  C   UNL     1      -0.988  10.152 -10.968  1.00  0.00     0.022 A 
BRANCH  80  83
ATOM     83  S   UNL     1      -1.941   8.005  -9.563  1.00  0.00     0.127 S 
ATOM     84  O   UNL     1      -3.210   8.061 -10.284  1.00  0.00    -0.237 OA
ATOM     85  O   UNL     1      -0.873   7.276 -10.248  1.00  0.00    -0.237 OA
ATOM     86  O   UNL     1      -2.040   7.728  -8.136  1.00  0.00    -0.744 OA
ENDBRANCH  80  83
ENDBRANCH  52  76
BRANCH  64  87
ATOM     87  C   UNL     1      -3.126  17.957  -6.547  1.00  0.00     0.023 A 
ATOM     88  C   UNL     1      -4.494  17.624  -6.592  1.00  0.00     0.012 A 
ATOM     89  C   UNL     1      -2.710  19.227  -6.993  1.00  0.00     0.148 A 
ATOM     90  C   UNL     1      -5.428  18.525  -7.104  1.00  0.00     0.002 A 
ATOM     91  C   UNL     1      -3.652  20.140  -7.453  1.00  0.00     0.091 A 
ATOM     92  F   UNL     1      -1.402  19.520  -6.958  1.00  0.00    -0.205 F 
ATOM     93  C   UNL     1      -5.009  19.786  -7.523  1.00  0.00     0.022 A 
BRANCH  91  94
ATOM     94  S   UNL     1      -3.221  21.819  -7.925  1.00  0.00     0.127 S 
ATOM     95  O   UNL     1      -3.429  21.784  -9.372  1.00  0.00    -0.237 OA
ATOM     96  O   UNL     1      -4.206  22.609  -7.186  1.00  0.00    -0.237 OA
ATOM     97  O   UNL     1      -1.842  22.017  -7.500  1.00  0.00    -0.744 OA
ENDBRANCH  91  94
ENDBRANCH  64  87
ENDBRANCH  38  39
ENDBRANCH  30  33
ENDBRANCH  28  29
ENDBRANCH  27  28
ENDBRANCH  26  27
ENDBRANCH  25  26
ENDBRANCH   1  25
TORSDOF 21
