REMARK SMILES CC1(C)[C@H](O)CC[C@]2(C)[C@@H]1CC[C@@]1(C)Oc3oc(C(=O)NCCCCCCNC(=O)c4ccc(-c5c6nc(c(-c7cccc(S(=O)(=O)[O-])c7F)c7ccc([nH]7)c(-c7cccc(S(=O)(=O)[O-])c7F)c7nc(c(-c8cccc(S(=O)(=O)[O-])c8F)c8ccc5[nH]8)C=C7)C=C6)cc4)cc(=O)c3C[C@H]21
REMARK SMILES IDX 25 1 24 2 23 3 22 4 21 5 19 6 20 7 18 9 1 10 2 11 3 12 4 13
REMARK SMILES IDX 10 14 6 15 8 16 11 17 7 18 9 19 99 20 12 21 13 22 98 23
REMARK SMILES IDX 14 24 15 25 97 26 16 27 95 28 17 29 94 30 96 31 5 32 26 34
REMARK SMILES IDX 27 35 28 36 29 37 30 39 31 40 32 41 93 42 33 43 92 44 34 45
REMARK SMILES IDX 35 46 36 47 86 48 37 49 91 50 85 51 87 52 38 53 90 54 84 55
REMARK SMILES IDX 83 56 39 58 71 59 51 60 70 61 52 62 55 63 69 64 88 65 53 66
REMARK SMILES IDX 54 67 68 69 89 70 56 71 40 72 41 73 49 74 42 75 44 76 50 77
REMARK SMILES IDX 43 78 45 79 46 80 47 81 48 82 72 83 73 84 81 85 74 86 76 87
REMARK SMILES IDX 82 88 75 89 77 90 78 91 79 92 80 93 57 94 58 95 66 96 59 97
REMARK SMILES IDX 61 98 67 99 60 100 62 101 63 102 64 103 65 104
REMARK H PARENT 21 8 5 33 28 38 87 57 55 68
REMARK Flexibility Score: inf
ROOT
ATOM      1  C   UNL     1       4.602   4.366  11.004  1.00  0.00     0.002 C 
ENDROOT
BRANCH   1   2
ATOM      2  C   UNL     1       5.409   5.169   9.980  1.00  0.00     0.002 C 
BRANCH   2   3
ATOM      3  C   UNL     1       5.031   4.920   8.519  1.00  0.00     0.021 C 
BRANCH   3   4
ATOM      4  C   UNL     1       3.632   5.430   8.113  1.00  0.00     0.116 C 
BRANCH   4   5
ATOM      5  N   UNL     1       3.641   6.846   7.680  1.00  0.00    -0.349 N 
ATOM      6  C   UNL     1       3.761   7.515   6.473  1.00  0.00     0.287 C 
ATOM      7  O   UNL     1       3.606   8.737   6.484  1.00  0.00    -0.266 OA
ATOM      8  H   UNL     1       3.536   7.466   8.438  1.00  0.00     0.163 HD
BRANCH   6   9
ATOM      9  C   UNL     1       3.992   6.808   5.166  1.00  0.00     0.199 A 
ATOM     10  C   UNL     1       1.394   1.027  -2.335  1.00  0.00     0.014 C 
ATOM     11  C   UNL     1       0.744   2.190  -1.516  1.00  0.00    -0.006 C 
ATOM     12  C   UNL     1      -0.699   2.306  -2.069  1.00  0.00     0.014 C 
ATOM     13  C   UNL     1       0.560   1.453   0.022  1.00  0.00     0.120 C 
ATOM     14  C   UNL     1       1.849   3.632  -1.486  1.00  0.00     0.004 C 
ATOM     15  C   UNL     1       1.842   1.397   0.837  1.00  0.00     0.033 C 
ATOM     16  C   UNL     1       1.884   3.822   0.004  1.00  0.00    -0.022 C 
ATOM     17  C   UNL     1       1.995   5.084  -2.079  1.00  0.00     0.009 C 
ATOM     18  C   UNL     1       2.676   2.471   0.271  1.00  0.00     0.010 C 
ATOM     19  C   UNL     1       0.373   4.387   0.139  1.00  0.00     0.012 C 
ATOM     20  C   UNL     1       2.501   4.863   0.903  1.00  0.00     0.044 C 
ATOM     21  C   UNL     1       2.580   6.303  -1.084  1.00  0.00     0.049 C 
ATOM     22  C   UNL     1       3.328   5.950   0.302  1.00  0.00     0.113 C 
ATOM     23  C   UNL     1       3.023   4.236   2.158  1.00  0.00     0.055 C 
ATOM     24  C   UNL     1       4.787   5.602   0.004  1.00  0.00     0.057 C 
ATOM     25  O   UNL     1       3.332   7.030   1.397  1.00  0.00    -0.458 OA
ATOM     26  C   UNL     1       3.551   5.248   3.027  1.00  0.00     0.081 A 
ATOM     27  C   UNL     1       3.564   6.556   2.762  1.00  0.00     0.292 A 
ATOM     28  C   UNL     1       4.094   4.662   4.237  1.00  0.00     0.192 A 
ATOM     29  O   UNL     1       3.691   7.417   3.896  1.00  0.00    -0.420 OA
ATOM     30  C   UNL     1       4.491   5.575   5.258  1.00  0.00     0.105 A 
ATOM     31  O   UNL     1       4.179   3.447   4.430  1.00  0.00    -0.289 OA
BRANCH  13  32
ATOM     32  O   UNL     1      -0.462   2.050   0.825  1.00  0.00    -0.393 OA
ATOM     33  H   UNL     1      -0.206   2.957   1.053  1.00  0.00     0.210 HD
ENDBRANCH  13  32
ENDBRANCH   6   9
ENDBRANCH   4   5
ENDBRANCH   3   4
ENDBRANCH   2   3
ENDBRANCH   1   2
BRANCH   1  34
ATOM     34  C   UNL     1       4.725   2.842  10.889  1.00  0.00     0.021 C 
BRANCH  34  35
ATOM     35  C   UNL     1       6.135   2.300  11.111  1.00  0.00     0.116 C 
BRANCH  35  36
ATOM     36  N   UNL     1       6.610   2.587  12.459  1.00  0.00    -0.352 N 
ATOM     37  C   UNL     1       6.945   1.703  13.454  1.00  0.00     0.251 C 
ATOM     38  H   UNL     1       6.704   3.541  12.686  1.00  0.00     0.163 HD
ATOM     39  O   UNL     1       7.085   2.084  14.612  1.00  0.00    -0.269 OA
BRANCH  37  40
ATOM     40  C   UNL     1       7.136   0.283  13.106  1.00  0.00     0.039 A 
ATOM     41  C   UNL     1       6.460  -0.701  13.831  1.00  0.00     0.014 A 
ATOM     42  C   UNL     1       7.974  -0.060  12.041  1.00  0.00     0.014 A 
ATOM     43  C   UNL     1       6.585  -2.038  13.449  1.00  0.00     0.010 A 
ATOM     44  C   UNL     1       8.054  -1.384  11.630  1.00  0.00     0.010 A 
ATOM     45  C   UNL     1       7.367  -2.383  12.335  1.00  0.00    -0.014 A 
BRANCH  45  46
ATOM     46  C   UNL     1       7.504  -3.789  11.896  1.00  0.00     0.031 A 
ATOM     47  C   UNL     1       8.830  -4.481  12.034  1.00  0.00     0.074 A 
ATOM     48  C   UNL     1       6.466  -4.411  11.307  1.00  0.00     0.049 A 
ATOM     49  N   UNL     1       9.173  -5.679  11.645  1.00  0.00    -0.248 NA
ATOM     50  C   UNL     1       9.916  -3.723  12.680  1.00  0.00     0.031 C 
ATOM     51  C   UNL     1       5.146  -3.821  11.077  1.00  0.00     0.029 A 
ATOM     52  N   UNL     1       6.367  -5.670  10.769  1.00  0.00    -0.354 N 
ATOM     53  C   UNL     1      10.515  -5.812  11.976  1.00  0.00     0.074 A 
ATOM     54  C   UNL     1      10.934  -4.565  12.575  1.00  0.00     0.031 C 
ATOM     55  C   UNL     1       4.370  -4.716  10.445  1.00  0.00     0.029 A 
ATOM     56  C   UNL     1       5.143  -5.931  10.201  1.00  0.00     0.049 A 
ATOM     57  H   UNL     1       7.103  -6.323  10.789  1.00  0.00     0.167 HD
ATOM     58  C   UNL     1      11.318  -6.888  11.818  1.00  0.00     0.034 A 
ATOM     59  C   UNL     1       4.697  -7.023   9.550  1.00  0.00     0.034 A 
ATOM     60  C   UNL     1      10.889  -8.135  11.251  1.00  0.00     0.049 A 
ATOM     61  C   UNL     1       5.607  -8.209   9.393  1.00  0.00     0.074 A 
ATOM     62  C   UNL     1      11.618  -9.302  11.104  1.00  0.00     0.029 A 
ATOM     63  N   UNL     1       9.628  -8.377  10.735  1.00  0.00    -0.354 N 
ATOM     64  N   UNL     1       6.845  -8.351   9.800  1.00  0.00    -0.248 NA
ATOM     65  C   UNL     1       5.056  -9.393   8.717  1.00  0.00     0.031 C 
ATOM     66  C   UNL     1      10.800 -10.246  10.480  1.00  0.00     0.029 A 
ATOM     67  C   UNL     1       9.555  -9.676  10.267  1.00  0.00     0.049 A 
ATOM     68  H   UNL     1       8.892  -7.723  10.706  1.00  0.00     0.167 HD
ATOM     69  C   UNL     1       7.210  -9.649   9.464  1.00  0.00     0.074 A 
ATOM     70  C   UNL     1       6.063 -10.253   8.819  1.00  0.00     0.031 C 
ATOM     71  C   UNL     1       8.391 -10.279   9.672  1.00  0.00     0.034 A 
BRANCH  58  72
ATOM     72  C   UNL     1      12.732  -6.794  12.314  1.00  0.00     0.023 A 
ATOM     73  C   UNL     1      12.983  -6.899  13.696  1.00  0.00     0.012 A 
ATOM     74  C   UNL     1      13.809  -6.716  11.413  1.00  0.00     0.148 A 
ATOM     75  C   UNL     1      14.291  -6.924  14.176  1.00  0.00     0.002 A 
ATOM     76  C   UNL     1      15.110  -6.773  11.896  1.00  0.00     0.091 A 
ATOM     77  F   UNL     1      13.539  -6.601  10.105  1.00  0.00    -0.205 F 
ATOM     78  C   UNL     1      15.353  -6.874  13.276  1.00  0.00     0.022 A 
BRANCH  76  79
ATOM     79  S   UNL     1      16.548  -6.768  10.820  1.00  0.00     0.127 S 
ATOM     80  O   UNL     1      17.209  -5.525  11.218  1.00  0.00    -0.237 OA
ATOM     81  O   UNL     1      17.242  -7.988  11.231  1.00  0.00    -0.237 OA
ATOM     82  O   UNL     1      16.035  -6.782   9.457  1.00  0.00    -0.744 OA
ENDBRANCH  76  79
ENDBRANCH  58  72
BRANCH  59  83
ATOM     83  C   UNL     1       3.291  -7.058   9.065  1.00  0.00     0.023 A 
ATOM     84  C   UNL     1       2.337  -7.805   9.781  1.00  0.00     0.012 A 
ATOM     85  C   UNL     1       2.883  -6.300   7.950  1.00  0.00     0.148 A 
ATOM     86  C   UNL     1       0.998  -7.804   9.390  1.00  0.00     0.002 A 
ATOM     87  C   UNL     1       1.542  -6.275   7.588  1.00  0.00     0.091 A 
ATOM     88  F   UNL     1       3.813  -5.596   7.290  1.00  0.00    -0.205 F 
ATOM     89  C   UNL     1       0.599  -7.032   8.301  1.00  0.00     0.022 A 
BRANCH  87  90
ATOM     90  S   UNL     1       0.915  -5.244   6.258  1.00  0.00     0.127 S 
ATOM     91  O   UNL     1       0.375  -6.240   5.336  1.00  0.00    -0.237 OA
ATOM     92  O   UNL     1      -0.090  -4.439   6.954  1.00  0.00    -0.237 OA
ATOM     93  O   UNL     1       2.059  -4.492   5.762  1.00  0.00    -0.744 OA
ENDBRANCH  87  90
ENDBRANCH  59  83
BRANCH  71  94
ATOM     94  C   UNL     1       8.520 -11.714   9.245  1.00  0.00     0.023 A 
ATOM     95  C   UNL     1       8.738 -12.022   7.890  1.00  0.00     0.012 A 
ATOM     96  C   UNL     1       8.575 -12.737  10.213  1.00  0.00     0.148 A 
ATOM     97  C   UNL     1       9.006 -13.335   7.502  1.00  0.00     0.002 A 
ATOM     98  C   UNL     1       8.877 -14.035   9.823  1.00  0.00     0.091 A 
ATOM     99  F   UNL     1       8.359 -12.413  11.496  1.00  0.00    -0.205 F 
ATOM    100  C   UNL     1       9.089 -14.336   8.467  1.00  0.00     0.022 A 
BRANCH  98 101
ATOM    101  S   UNL     1       9.080 -15.376  11.000  1.00  0.00     0.127 S 
ATOM    102  O   UNL     1       7.957 -16.247  10.653  1.00  0.00    -0.237 OA
ATOM    103  O   UNL     1      10.396 -15.905  10.641  1.00  0.00    -0.237 OA
ATOM    104  O   UNL     1       9.006 -14.771  12.323  1.00  0.00    -0.744 OA
ENDBRANCH  98 101
ENDBRANCH  71  94
ENDBRANCH  45  46
ENDBRANCH  37  40
ENDBRANCH  35  36
ENDBRANCH  34  35
ENDBRANCH   1  34
TORSDOF 17
