REMARK SMILES CSc1nc(N)cc(Nc2cccc(C(=O)NCCCCCCNC(=O)c3ccc(-c4c5nc(c(-c6cccc(S(=O)(=O)[O-])c6F)c6ccc([nH]6)c(-c6cccc(S(=O)(=O)[O-])c6F)c6nc(c(-c7cccc(S(=O)(=O)[O-])c7F)c7ccc4[nH]7)C=C6)C=C5)cc3)c2)n1
REMARK SMILES IDX 20 1 19 2 18 3 17 4 15 5 16 6 14 8 10 9 11 10 90 11 12 12
REMARK SMILES IDX 13 13 9 14 8 16 3 17 4 18 91 19 5 20 7 21 2 22 1 23 6 24
REMARK SMILES IDX 21 27 22 28 23 29 24 30 25 31 26 33 27 34 28 35 89 36 29 37
REMARK SMILES IDX 88 38 30 39 31 40 32 41 82 42 33 43 87 44 81 45 83 46 34 47
REMARK SMILES IDX 86 48 80 49 79 50 35 52 67 53 47 54 66 55 48 56 51 57 65 58
REMARK SMILES IDX 84 59 49 60 50 61 64 63 85 64 52 65 36 66 37 67 45 68 38 69
REMARK SMILES IDX 40 70 46 71 39 72 41 73 42 74 43 75 44 76 68 77 69 78 77 79
REMARK SMILES IDX 70 80 72 81 78 82 71 83 73 84 74 85 75 86 76 87 53 88 54 89
REMARK SMILES IDX 62 90 55 91 57 92 63 93 56 94 58 95 59 96 60 97 61 98
REMARK H PARENT 17 7 9 15 6 25 6 26 24 32 83 51 51 62
REMARK Flexibility Score: inf
ROOT
ATOM      1  C   UNL     1      -1.800   3.345   4.333  1.00  0.00     0.002 C 
ENDROOT
BRANCH   1   2
ATOM      2  C   UNL     1      -1.598   4.340   3.193  1.00  0.00     0.021 C 
BRANCH   2   3
ATOM      3  C   UNL     1      -1.887   3.825   1.788  1.00  0.00     0.116 C 
BRANCH   3   4
ATOM      4  N   UNL     1      -3.287   3.510   1.543  1.00  0.00    -0.352 N 
ATOM      5  C   UNL     1      -4.101   3.785   0.463  1.00  0.00     0.251 C 
ATOM      6  O   UNL     1      -5.283   3.443   0.515  1.00  0.00    -0.269 OA
ATOM      7  H   UNL     1      -3.728   3.017   2.272  1.00  0.00     0.163 HD
BRANCH   5   8
ATOM      8  C   UNL     1      -3.615   4.540  -0.726  1.00  0.00     0.041 A 
ATOM      9  C   UNL     1      -1.776   5.364  -2.108  1.00  0.00     0.040 A 
ATOM     10  C   UNL     1      -2.677   6.207  -2.765  1.00  0.00     0.026 A 
ATOM     11  C   UNL     1      -2.293   4.471  -1.163  1.00  0.00     0.040 A 
ATOM     12  C   UNL     1      -4.042   6.177  -2.455  1.00  0.00     0.003 A 
ATOM     13  C   UNL     1      -4.506   5.364  -1.419  1.00  0.00     0.014 A 
BRANCH   9  14
ATOM     14  N   UNL     1      -0.399   5.425  -2.393  1.00  0.00    -0.340 N 
ATOM     15  H   UNL     1      -0.077   6.280  -2.759  1.00  0.00     0.168 HD
BRANCH  14  16
ATOM     16  C   UNL     1       0.580   4.426  -2.227  1.00  0.00     0.137 A 
ATOM     17  C   UNL     1       1.143   2.227  -1.917  1.00  0.00     0.191 A 
ATOM     18  N   UNL     1       2.453   2.475  -1.885  1.00  0.00    -0.206 NA
ATOM     19  N   UNL     1       0.193   3.153  -2.074  1.00  0.00    -0.205 NA
ATOM     20  C   UNL     1       2.827   3.750  -2.022  1.00  0.00     0.130 A 
ATOM     21  C   UNL     1       1.917   4.773  -2.188  1.00  0.00     0.093 A 
BRANCH  17  22
ATOM     22  S   UNL     1       0.578   0.555  -1.760  1.00  0.00    -0.090 SA
ATOM     23  C   UNL     1       1.294   0.178  -0.147  1.00  0.00     0.094 C 
ENDBRANCH  17  22
BRANCH  20  24
ATOM     24  N   UNL     1       4.184   3.992  -2.081  1.00  0.00    -0.383 N 
ATOM     25  H   UNL     1       4.822   3.252  -1.960  1.00  0.00     0.158 HD
ATOM     26  H   UNL     1       4.513   4.905  -2.244  1.00  0.00     0.158 HD
ENDBRANCH  20  24
ENDBRANCH  14  16
ENDBRANCH   9  14
ENDBRANCH   5   8
ENDBRANCH   3   4
ENDBRANCH   2   3
ENDBRANCH   1   2
BRANCH   1  27
ATOM     27  C   UNL     1      -1.038   2.022   4.217  1.00  0.00     0.002 C 
BRANCH  27  28
ATOM     28  C   UNL     1       0.467   2.127   3.958  1.00  0.00     0.021 C 
BRANCH  28  29
ATOM     29  C   UNL     1       1.249   2.990   4.944  1.00  0.00     0.116 C 
BRANCH  29  30
ATOM     30  N   UNL     1       1.146   2.510   6.312  1.00  0.00    -0.352 N 
ATOM     31  C   UNL     1       2.141   2.209   7.211  1.00  0.00     0.251 C 
ATOM     32  H   UNL     1       0.228   2.381   6.644  1.00  0.00     0.163 HD
ATOM     33  O   UNL     1       1.862   1.657   8.269  1.00  0.00    -0.269 OA
BRANCH  31  34
ATOM     34  C   UNL     1       3.550   2.533   6.894  1.00  0.00     0.039 A 
ATOM     35  C   UNL     1       4.536   1.579   7.156  1.00  0.00     0.014 A 
ATOM     36  C   UNL     1       3.901   3.773   6.353  1.00  0.00     0.014 A 
ATOM     37  C   UNL     1       5.867   1.846   6.823  1.00  0.00     0.010 A 
ATOM     38  C   UNL     1       5.214   4.007   5.951  1.00  0.00     0.010 A 
ATOM     39  C   UNL     1       6.213   3.050   6.188  1.00  0.00    -0.014 A 
BRANCH  39  40
ATOM     40  C   UNL     1       7.610   3.319   5.757  1.00  0.00     0.031 A 
ATOM     41  C   UNL     1       8.376   4.479   6.334  1.00  0.00     0.074 A 
ATOM     42  C   UNL     1       8.163   2.566   4.786  1.00  0.00     0.049 A 
ATOM     43  N   UNL     1       9.577   4.904   6.037  1.00  0.00    -0.248 NA
ATOM     44  C   UNL     1       7.693   5.284   7.361  1.00  0.00     0.031 C 
ATOM     45  C   UNL     1       7.498   1.464   4.089  1.00  0.00     0.029 A 
ATOM     46  N   UNL     1       9.401   2.634   4.195  1.00  0.00    -0.354 N 
ATOM     47  C   UNL     1       9.783   6.037   6.814  1.00  0.00     0.074 A 
ATOM     48  C   UNL     1       8.567   6.259   7.565  1.00  0.00     0.031 C 
ATOM     49  C   UNL     1       8.332   0.959   3.167  1.00  0.00     0.029 A 
ATOM     50  C   UNL     1       9.576   1.723   3.180  1.00  0.00     0.049 A 
ATOM     51  H   UNL     1      10.096   3.273   4.471  1.00  0.00     0.167 HD
ATOM     52  C   UNL     1      10.893   6.806   6.919  1.00  0.00     0.034 A 
ATOM     53  C   UNL     1      10.613   1.533   2.341  1.00  0.00     0.034 A 
ATOM     54  C   UNL     1      12.111   6.568   6.191  1.00  0.00     0.049 A 
ATOM     55  C   UNL     1      11.844   2.384   2.490  1.00  0.00     0.074 A 
ATOM     56  C   UNL     1      13.314   7.246   6.281  1.00  0.00     0.029 A 
ATOM     57  N   UNL     1      12.279   5.584   5.229  1.00  0.00    -0.354 N 
ATOM     58  N   UNL     1      12.072   3.361   3.333  1.00  0.00    -0.248 NA
ATOM     59  C   UNL     1      12.973   2.083   1.598  1.00  0.00     0.031 C 
ATOM     60  C   UNL     1      14.199   6.693   5.350  1.00  0.00     0.029 A 
ATOM     61  C   UNL     1      13.561   5.643   4.709  1.00  0.00     0.049 A 
ATOM     62  H   UNL     1      11.589   4.937   4.956  1.00  0.00     0.167 HD
ATOM     63  C   UNL     1      13.380   3.769   3.098  1.00  0.00     0.074 A 
ATOM     64  C   UNL     1      13.900   2.919   2.047  1.00  0.00     0.031 C 
ATOM     65  C   UNL     1      14.083   4.764   3.693  1.00  0.00     0.034 A 
BRANCH  52  66
ATOM     66  C   UNL     1      10.854   7.957   7.893  1.00  0.00     0.023 A 
ATOM     67  C   UNL     1      10.820   7.696   9.279  1.00  0.00     0.012 A 
ATOM     68  C   UNL     1      10.896   9.291   7.444  1.00  0.00     0.148 A 
ATOM     69  C   UNL     1      10.783   8.742  10.200  1.00  0.00     0.002 A 
ATOM     70  C   UNL     1      10.909  10.329   8.370  1.00  0.00     0.091 A 
ATOM     71  F   UNL     1      10.909   9.522   6.124  1.00  0.00    -0.205 F 
ATOM     72  C   UNL     1      10.838  10.057   9.746  1.00  0.00     0.022 A 
BRANCH  70  73
ATOM     73  S   UNL     1      11.060  12.053   7.891  1.00  0.00     0.127 S 
ATOM     74  O   UNL     1       9.726  12.564   8.207  1.00  0.00    -0.237 OA
ATOM     75  O   UNL     1      12.121  12.527   8.780  1.00  0.00    -0.237 OA
ATOM     76  O   UNL     1      11.407  12.049   6.477  1.00  0.00    -0.744 OA
ENDBRANCH  70  73
ENDBRANCH  52  66
BRANCH  53  77
ATOM     77  C   UNL     1      10.540   0.465   1.306  1.00  0.00     0.023 A 
ATOM     78  C   UNL     1      11.344  -0.685   1.426  1.00  0.00     0.012 A 
ATOM     79  C   UNL     1       9.650   0.572   0.220  1.00  0.00     0.148 A 
ATOM     80  C   UNL     1      11.285  -1.696   0.466  1.00  0.00     0.002 A 
ATOM     81  C   UNL     1       9.553  -0.463  -0.700  1.00  0.00     0.091 A 
ATOM     82  F   UNL     1       8.901   1.680   0.122  1.00  0.00    -0.205 F 
ATOM     83  C   UNL     1      10.383  -1.590  -0.591  1.00  0.00     0.022 A 
BRANCH  81  84
ATOM     84  S   UNL     1       8.327  -0.469  -2.012  1.00  0.00     0.127 S 
ATOM     85  O   UNL     1       9.165  -0.356  -3.203  1.00  0.00    -0.237 OA
ATOM     86  O   UNL     1       7.695  -1.774  -1.821  1.00  0.00    -0.237 OA
ATOM     87  O   UNL     1       7.457   0.669  -1.745  1.00  0.00    -0.744 OA
ENDBRANCH  81  84
ENDBRANCH  53  77
BRANCH  65  88
ATOM     88  C   UNL     1      15.510   4.971   3.255  1.00  0.00     0.023 A 
ATOM     89  C   UNL     1      15.788   5.518   1.987  1.00  0.00     0.012 A 
ATOM     90  C   UNL     1      16.574   4.688   4.135  1.00  0.00     0.148 A 
ATOM     91  C   UNL     1      17.105   5.747   1.587  1.00  0.00     0.002 A 
ATOM     92  C   UNL     1      17.879   4.968   3.751  1.00  0.00     0.091 A 
ATOM     93  F   UNL     1      16.289   4.151   5.330  1.00  0.00    -0.205 F 
ATOM     94  C   UNL     1      18.148   5.484   2.473  1.00  0.00     0.022 A 
BRANCH  92  95
ATOM     95  S   UNL     1      19.277   4.756   4.859  1.00  0.00     0.127 S 
ATOM     96  O   UNL     1      19.968   3.619   4.251  1.00  0.00    -0.237 OA
ATOM     97  O   UNL     1      19.973   6.036   4.725  1.00  0.00    -0.237 OA
ATOM     98  O   UNL     1      18.712   4.509   6.178  1.00  0.00    -0.744 OA
ENDBRANCH  92  95
ENDBRANCH  65  88
ENDBRANCH  39  40
ENDBRANCH  31  34
ENDBRANCH  29  30
ENDBRANCH  28  29
ENDBRANCH  27  28
ENDBRANCH   1  27
TORSDOF 20
