REMARK SMILES COCc1c(C(=O)NCCCCCCNC(=O)c2ccc(-c3c4nc(c(-c5cccc(S(=O)(=O)[O-])c5F)c5ccc([nH]5)c(-c5cccc(S(=O)(=O)[O-])c5F)c5nc(c(-c6cccc(S(=O)(=O)[O-])c6F)c6ccc3[nH]6)C=C5)C=C4)cc2)nnn1-c1ccc(S(C)(=O)=O)cc1
REMARK SMILES IDX 12 1 11 2 10 3 9 4 8 5 6 6 7 7 5 9 4 10 83 11 81 12 82 13
REMARK SMILES IDX 3 14 2 15 1 16 84 17 85 18 93 19 86 20 92 21 87 22 88 23
REMARK SMILES IDX 89 24 90 25 91 26 13 27 14 28 15 29 16 30 17 32 18 33 19 34
REMARK SMILES IDX 80 35 20 36 79 37 21 38 22 39 23 40 73 41 24 42 78 43 72 44
REMARK SMILES IDX 74 45 25 46 77 47 71 48 70 49 26 51 58 52 38 53 57 54 39 55
REMARK SMILES IDX 42 56 56 57 75 58 40 59 41 60 55 62 76 63 43 64 27 65 28 66
REMARK SMILES IDX 36 67 29 68 31 69 37 70 30 71 32 72 33 73 34 74 35 75 59 76
REMARK SMILES IDX 60 77 68 78 61 79 63 80 69 81 62 82 64 83 65 84 66 85 67 86
REMARK SMILES IDX 44 87 45 88 53 89 46 90 48 91 54 92 47 93 49 94 50 95 51 96
REMARK SMILES IDX 52 97
REMARK H PARENT 8 8 15 31 74 50 42 61
REMARK Flexibility Score: inf
ROOT
ATOM      1  C   UNL     1      -0.876  -3.579  -1.089  1.00  0.00     0.002 C 
ENDROOT
BRANCH   1   2
ATOM      2  C   UNL     1       0.057  -2.979  -0.030  1.00  0.00     0.002 C 
BRANCH   2   3
ATOM      3  C   UNL     1       0.519  -1.544  -0.289  1.00  0.00     0.021 C 
BRANCH   3   4
ATOM      4  C   UNL     1      -0.595  -0.489  -0.315  1.00  0.00     0.116 C 
BRANCH   4   5
ATOM      5  N   UNL     1      -0.814   0.069   1.002  1.00  0.00    -0.351 N 
ATOM      6  C   UNL     1      -0.672   1.320   1.549  1.00  0.00     0.273 C 
ATOM      7  O   UNL     1      -1.066   1.400   2.719  1.00  0.00    -0.267 OA
ATOM      8  H   UNL     1      -1.137  -0.597   1.651  1.00  0.00     0.163 HD
BRANCH   6   9
ATOM      9  C   UNL     1      -0.182   2.518   0.853  1.00  0.00     0.176 A 
ATOM     10  C   UNL     1       0.677   2.768  -0.213  1.00  0.00     0.103 A 
ATOM     11  N   UNL     1       0.706   4.146  -0.308  1.00  0.00    -0.214 N 
ATOM     12  N   UNL     1      -0.531   3.751   1.396  1.00  0.00    -0.124 NA
ATOM     13  N   UNL     1       0.045   4.720   0.705  1.00  0.00    -0.061 NA
BRANCH  10  14
ATOM     14  C   UNL     1       1.571   1.973  -1.090  1.00  0.00     0.218 C 
BRANCH  14  15
ATOM     15  O   UNL     1       2.012   0.833  -0.381  1.00  0.00    -0.378 OA
ATOM     16  C   UNL     1       2.973   1.093   0.636  1.00  0.00     0.195 C 
ENDBRANCH  14  15
ENDBRANCH  10  14
BRANCH  11  17
ATOM     17  C   UNL     1       1.222   4.914  -1.367  1.00  0.00     0.067 A 
ATOM     18  C   UNL     1       2.406   5.636  -1.187  1.00  0.00     0.030 A 
ATOM     19  C   UNL     1       0.611   4.811  -2.623  1.00  0.00     0.030 A 
ATOM     20  C   UNL     1       3.012   6.229  -2.298  1.00  0.00     0.022 A 
ATOM     21  C   UNL     1       1.195   5.438  -3.719  1.00  0.00     0.022 A 
ATOM     22  C   UNL     1       2.400   6.131  -3.555  1.00  0.00     0.067 A 
BRANCH  22  23
ATOM     23  S   UNL     1       3.184   6.835  -4.988  1.00  0.00     0.175 S 
ATOM     24  C   UNL     1       3.379   8.550  -4.599  1.00  0.00     0.163 C 
ATOM     25  O   UNL     1       4.509   6.244  -5.077  1.00  0.00    -0.224 OA
ATOM     26  O   UNL     1       2.244   6.757  -6.083  1.00  0.00    -0.224 OA
ENDBRANCH  22  23
ENDBRANCH  11  17
ENDBRANCH   6   9
ENDBRANCH   4   5
ENDBRANCH   3   4
ENDBRANCH   2   3
ENDBRANCH   1   2
BRANCH   1  27
ATOM     27  C   UNL     1      -0.423  -3.438  -2.549  1.00  0.00     0.021 C 
BRANCH  27  28
ATOM     28  C   UNL     1       0.922  -4.089  -2.852  1.00  0.00     0.116 C 
BRANCH  28  29
ATOM     29  N   UNL     1       0.868  -5.538  -2.709  1.00  0.00    -0.352 N 
ATOM     30  C   UNL     1       1.855  -6.461  -2.967  1.00  0.00     0.251 C 
ATOM     31  H   UNL     1       0.013  -5.905  -2.385  1.00  0.00     0.163 HD
ATOM     32  O   UNL     1       1.557  -7.637  -3.155  1.00  0.00    -0.269 OA
BRANCH  30  33
ATOM     33  C   UNL     1       3.265  -6.034  -3.023  1.00  0.00     0.039 A 
ATOM     34  C   UNL     1       4.121  -6.601  -3.970  1.00  0.00     0.014 A 
ATOM     35  C   UNL     1       3.744  -5.087  -2.114  1.00  0.00     0.014 A 
ATOM     36  C   UNL     1       5.438  -6.161  -4.039  1.00  0.00     0.010 A 
ATOM     37  C   UNL     1       5.020  -4.580  -2.245  1.00  0.00     0.010 A 
ATOM     38  C   UNL     1       5.878  -5.128  -3.192  1.00  0.00    -0.014 A 
BRANCH  38  39
ATOM     39  C   UNL     1       7.163  -4.485  -3.463  1.00  0.00     0.031 A 
ATOM     40  C   UNL     1       7.266  -4.010  -4.867  1.00  0.00     0.074 A 
ATOM     41  C   UNL     1       8.094  -4.176  -2.533  1.00  0.00     0.049 A 
ATOM     42  N   UNL     1       7.930  -4.565  -5.827  1.00  0.00    -0.248 NA
ATOM     43  C   UNL     1       6.368  -2.932  -5.315  1.00  0.00     0.031 C 
ATOM     44  C   UNL     1       7.961  -4.318  -1.079  1.00  0.00     0.029 A 
ATOM     45  N   UNL     1       9.306  -3.554  -2.665  1.00  0.00    -0.354 N 
ATOM     46  C   UNL     1       7.796  -3.689  -6.901  1.00  0.00     0.074 A 
ATOM     47  C   UNL     1       6.631  -2.896  -6.625  1.00  0.00     0.031 C 
ATOM     48  C   UNL     1       8.913  -3.582  -0.464  1.00  0.00     0.029 A 
ATOM     49  C   UNL     1       9.822  -3.061  -1.467  1.00  0.00     0.049 A 
ATOM     50  H   UNL     1       9.772  -3.463  -3.528  1.00  0.00     0.167 HD
ATOM     51  C   UNL     1       8.879  -3.423  -7.684  1.00  0.00     0.034 A 
ATOM     52  C   UNL     1      10.910  -2.268  -1.300  1.00  0.00     0.034 A 
ATOM     53  C   UNL     1       9.926  -4.386  -7.441  1.00  0.00     0.049 A 
ATOM     54  C   UNL     1      11.787  -2.471  -2.470  1.00  0.00     0.074 A 
ATOM     55  C   UNL     1      10.162  -5.720  -7.680  1.00  0.00     0.029 A 
ATOM     56  N   UNL     1      10.784  -3.987  -6.453  1.00  0.00    -0.354 N 
ATOM     57  N   UNL     1      12.417  -3.590  -2.696  1.00  0.00    -0.248 NA
ATOM     58  C   UNL     1      11.748  -1.531  -3.583  1.00  0.00     0.031 C 
ATOM     59  C   UNL     1      11.122  -6.135  -6.707  1.00  0.00     0.029 A 
ATOM     60  C   UNL     1      11.482  -5.036  -5.931  1.00  0.00     0.049 A 
ATOM     61  H   UNL     1      10.885  -3.054  -6.154  1.00  0.00     0.167 HD
ATOM     62  C   UNL     1      12.405  -3.687  -4.073  1.00  0.00     0.074 A 
ATOM     63  C   UNL     1      12.191  -2.330  -4.556  1.00  0.00     0.031 C 
ATOM     64  C   UNL     1      12.189  -4.889  -4.678  1.00  0.00     0.034 A 
BRANCH  51  65
ATOM     65  C   UNL     1       9.258  -2.046  -8.218  1.00  0.00     0.023 A 
ATOM     66  C   UNL     1      10.413  -1.979  -9.034  1.00  0.00     0.012 A 
ATOM     67  C   UNL     1       8.771  -0.816  -7.718  1.00  0.00     0.148 A 
ATOM     68  C   UNL     1      11.076  -0.770  -9.284  1.00  0.00     0.002 A 
ATOM     69  C   UNL     1       9.391   0.390  -8.026  1.00  0.00     0.091 A 
ATOM     70  F   UNL     1       7.786  -0.796  -6.821  1.00  0.00    -0.205 F 
ATOM     71  C   UNL     1      10.562   0.417  -8.783  1.00  0.00     0.022 A 
BRANCH  69  72
ATOM     72  S   UNL     1       8.752   1.957  -7.417  1.00  0.00     0.127 S 
ATOM     73  O   UNL     1       9.783   2.332  -6.453  1.00  0.00    -0.237 OA
ATOM     74  O   UNL     1       8.721   2.755  -8.642  1.00  0.00    -0.237 OA
ATOM     75  O   UNL     1       7.438   1.655  -6.863  1.00  0.00    -0.744 OA
ENDBRANCH  69  72
ENDBRANCH  51  65
BRANCH  52  76
ATOM     76  C   UNL     1      11.252  -1.266  -0.264  1.00  0.00     0.023 A 
ATOM     77  C   UNL     1      12.600  -0.891  -0.078  1.00  0.00     0.012 A 
ATOM     78  C   UNL     1      10.249  -0.459   0.312  1.00  0.00     0.148 A 
ATOM     79  C   UNL     1      12.936   0.286   0.601  1.00  0.00     0.002 A 
ATOM     80  C   UNL     1      10.587   0.713   0.984  1.00  0.00     0.091 A 
ATOM     81  F   UNL     1       8.966  -0.794   0.122  1.00  0.00    -0.205 F 
ATOM     82  C   UNL     1      11.929   1.097   1.115  1.00  0.00     0.022 A 
BRANCH  80  83
ATOM     83  S   UNL     1       9.347   1.836   1.644  1.00  0.00     0.127 S 
ATOM     84  O   UNL     1       9.814   2.029   3.017  1.00  0.00    -0.237 OA
ATOM     85  O   UNL     1       9.498   3.002   0.778  1.00  0.00    -0.237 OA
ATOM     86  O   UNL     1       8.072   1.136   1.537  1.00  0.00    -0.744 OA
ENDBRANCH  80  83
ENDBRANCH  52  76
BRANCH  64  87
ATOM     87  C   UNL     1      12.562  -6.127  -3.923  1.00  0.00     0.023 A 
ATOM     88  C   UNL     1      11.923  -6.538  -2.738  1.00  0.00     0.012 A 
ATOM     89  C   UNL     1      13.562  -6.940  -4.480  1.00  0.00     0.148 A 
ATOM     90  C   UNL     1      12.295  -7.730  -2.110  1.00  0.00     0.002 A 
ATOM     91  C   UNL     1      13.896  -8.144  -3.881  1.00  0.00     0.091 A 
ATOM     92  F   UNL     1      14.169  -6.519  -5.600  1.00  0.00    -0.205 F 
ATOM     93  C   UNL     1      13.273  -8.539  -2.688  1.00  0.00     0.022 A 
BRANCH  91  94
ATOM     94  S   UNL     1      15.070  -9.264  -4.643  1.00  0.00     0.127 S 
ATOM     95  O   UNL     1      16.263  -9.061  -3.824  1.00  0.00    -0.237 OA
ATOM     96  O   UNL     1      14.421 -10.564  -4.471  1.00  0.00    -0.237 OA
ATOM     97  O   UNL     1      15.181  -8.838  -6.034  1.00  0.00    -0.744 OA
ENDBRANCH  91  94
ENDBRANCH  64  87
ENDBRANCH  38  39
ENDBRANCH  30  33
ENDBRANCH  28  29
ENDBRANCH  27  28
ENDBRANCH   1  27
TORSDOF 20
