REMARK SMILES CC[C@H]1CCCC[C@@H]1C1(C(=O)NCCCCCCNC(=O)c2ccc(-c3c4nc(c(-c5cccc(S(=O)(=O)[O-])c5F)c5ccc([nH]5)c(-c5cccc(S(=O)(=O)[O-])c5F)c5nc(c(-c6cccc(S(=O)(=O)[O-])c6F)c6ccc3[nH]6)C=C5)C=C4)cc2)CC1
REMARK SMILES IDX 16 1 15 2 14 3 13 4 12 5 10 6 11 7 9 9 85 10 86 11 8 12 3 13
REMARK SMILES IDX 4 14 5 15 7 16 6 17 2 18 1 19 17 20 18 21 19 22 20 23 21 25
REMARK SMILES IDX 22 26 23 27 84 28 24 29 83 30 25 31 26 32 27 33 77 34 28 35
REMARK SMILES IDX 82 36 76 37 78 38 29 39 81 40 75 41 74 42 30 44 62 45 42 46
REMARK SMILES IDX 61 47 43 48 46 49 60 50 79 51 44 52 45 53 59 55 80 56 47 57
REMARK SMILES IDX 31 58 32 59 40 60 33 61 35 62 41 63 34 64 36 65 37 66 38 67
REMARK SMILES IDX 39 68 63 69 64 70 72 71 65 72 67 73 73 74 66 75 68 76 69 77
REMARK SMILES IDX 70 78 71 79 48 80 49 81 57 82 50 83 52 84 58 85 51 86 53 87
REMARK SMILES IDX 54 88 55 89 56 90
REMARK H PARENT 12 8 19 24 78 43 46 54
REMARK Flexibility Score: inf
ROOT
ATOM      1  C   UNL     1      -2.368   7.375   0.224  1.00  0.00     0.002 C 
ENDROOT
BRANCH   1   2
ATOM      2  C   UNL     1      -2.308   6.701   1.600  1.00  0.00     0.002 C 
BRANCH   2   3
ATOM      3  C   UNL     1      -2.916   5.292   1.690  1.00  0.00     0.021 C 
BRANCH   3   4
ATOM      4  C   UNL     1      -2.484   4.335   0.579  1.00  0.00     0.116 C 
BRANCH   4   5
ATOM      5  N   UNL     1      -1.047   4.218   0.498  1.00  0.00    -0.356 N 
ATOM      6  C   UNL     1      -0.123   3.293   0.874  1.00  0.00     0.226 C 
ATOM      7  O   UNL     1       1.033   3.530   0.525  1.00  0.00    -0.274 OA
ATOM      8  H   UNL     1      -0.634   5.000   0.065  1.00  0.00     0.163 HD
BRANCH   6   9
ATOM      9  C   UNL     1      -0.411   2.012   1.658  1.00  0.00     0.052 C 
ATOM     10  C   UNL     1      -1.308   1.026   0.896  1.00  0.00     0.018 C 
ATOM     11  C   UNL     1      -1.778   1.610   2.188  1.00  0.00     0.018 C 
BRANCH   9  12
ATOM     12  C   UNL     1       0.828   1.533   2.492  1.00  0.00     0.008 C 
ATOM     13  C   UNL     1       1.033   0.014   2.733  1.00  0.00    -0.007 C 
ATOM     14  C   UNL     1       0.274  -0.513   3.967  1.00  0.00     0.004 C 
ATOM     15  C   UNL     1       0.439   0.356   5.211  1.00  0.00     0.000 C 
ATOM     16  C   UNL     1       0.969   2.364   3.781  1.00  0.00     0.005 C 
ATOM     17  C   UNL     1       0.149   1.827   4.947  1.00  0.00     0.000 C 
BRANCH  13  18
ATOM     18  C   UNL     1       2.538  -0.351   2.889  1.00  0.00     0.000 C 
ATOM     19  C   UNL     1       3.396  -0.051   1.663  1.00  0.00     0.004 C 
ENDBRANCH  13  18
ENDBRANCH   9  12
ENDBRANCH   6   9
ENDBRANCH   4   5
ENDBRANCH   3   4
ENDBRANCH   2   3
ENDBRANCH   1   2
BRANCH   1  20
ATOM     20  C   UNL     1      -3.751   7.433  -0.423  1.00  0.00     0.021 C 
BRANCH  20  21
ATOM     21  C   UNL     1      -4.805   8.160   0.398  1.00  0.00     0.116 C 
BRANCH  21  22
ATOM     22  N   UNL     1      -4.508   9.578   0.533  1.00  0.00    -0.352 N 
ATOM     23  C   UNL     1      -5.297  10.653   0.200  1.00  0.00     0.251 C 
ATOM     24  H   UNL     1      -3.627   9.796   0.913  1.00  0.00     0.163 HD
ATOM     25  O   UNL     1      -4.831  11.788   0.195  1.00  0.00    -0.269 OA
BRANCH  23  26
ATOM     26  C   UNL     1      -6.707  10.422  -0.177  1.00  0.00     0.039 A 
ATOM     27  C   UNL     1      -7.202  11.001  -1.347  1.00  0.00     0.014 A 
ATOM     28  C   UNL     1      -7.522   9.598   0.605  1.00  0.00     0.014 A 
ATOM     29  C   UNL     1      -8.497  10.694  -1.772  1.00  0.00     0.010 A 
ATOM     30  C   UNL     1      -8.783   9.236   0.142  1.00  0.00     0.010 A 
ATOM     31  C   UNL     1      -9.282   9.777  -1.053  1.00  0.00    -0.014 A 
BRANCH  31  32
ATOM     32  C   UNL     1     -10.614   9.343  -1.546  1.00  0.00     0.031 A 
ATOM     33  C   UNL     1     -11.850   9.628  -0.738  1.00  0.00     0.074 A 
ATOM     34  C   UNL     1     -10.696   8.606  -2.672  1.00  0.00     0.049 A 
ATOM     35  N   UNL     1     -13.084   9.256  -0.962  1.00  0.00    -0.248 NA
ATOM     36  C   UNL     1     -11.676  10.413   0.495  1.00  0.00     0.031 C 
ATOM     37  C   UNL     1      -9.560   8.200  -3.504  1.00  0.00     0.029 A 
ATOM     38  N   UNL     1     -11.780   8.037  -3.295  1.00  0.00    -0.354 N 
ATOM     39  C   UNL     1     -13.825   9.733   0.112  1.00  0.00     0.074 A 
ATOM     40  C   UNL     1     -12.899  10.393   1.005  1.00  0.00     0.031 C 
ATOM     41  C   UNL     1     -10.006   7.450  -4.524  1.00  0.00     0.029 A 
ATOM     42  C   UNL     1     -11.451   7.290  -4.403  1.00  0.00     0.049 A 
ATOM     43  H   UNL     1     -12.705   8.154  -2.979  1.00  0.00     0.167 HD
ATOM     44  C   UNL     1     -15.161   9.655   0.320  1.00  0.00     0.034 A 
ATOM     45  C   UNL     1     -12.223   6.545  -5.218  1.00  0.00     0.034 A 
ATOM     46  C   UNL     1     -16.084   9.032  -0.590  1.00  0.00     0.049 A 
ATOM     47  C   UNL     1     -13.706   6.486  -4.967  1.00  0.00     0.074 A 
ATOM     48  C   UNL     1     -17.464   8.977  -0.509  1.00  0.00     0.029 A 
ATOM     49  N   UNL     1     -15.722   8.348  -1.740  1.00  0.00    -0.354 N 
ATOM     50  N   UNL     1     -14.409   7.081  -4.034  1.00  0.00    -0.248 NA
ATOM     51  C   UNL     1     -14.507   5.676  -5.897  1.00  0.00     0.031 C 
ATOM     52  C   UNL     1     -17.936   8.238  -1.598  1.00  0.00     0.029 A 
ATOM     53  C   UNL     1     -16.851   7.853  -2.369  1.00  0.00     0.049 A 
ATOM     54  H   UNL     1     -14.799   8.232  -2.061  1.00  0.00     0.167 HD
ATOM     55  C   UNL     1     -15.734   6.743  -4.282  1.00  0.00     0.074 A 
ATOM     56  C   UNL     1     -15.739   5.913  -5.469  1.00  0.00     0.031 C 
ATOM     57  C   UNL     1     -16.846   7.073  -3.579  1.00  0.00     0.034 A 
BRANCH  44  58
ATOM     58  C   UNL     1     -15.720  10.313   1.555  1.00  0.00     0.023 A 
ATOM     59  C   UNL     1     -15.775  11.720   1.624  1.00  0.00     0.012 A 
ATOM     60  C   UNL     1     -16.259   9.547   2.607  1.00  0.00     0.148 A 
ATOM     61  C   UNL     1     -16.334  12.355   2.731  1.00  0.00     0.002 A 
ATOM     62  C   UNL     1     -16.853  10.187   3.688  1.00  0.00     0.091 A 
ATOM     63  F   UNL     1     -16.179   8.211   2.531  1.00  0.00    -0.205 F 
ATOM     64  C   UNL     1     -16.882  11.590   3.756  1.00  0.00     0.022 A 
BRANCH  62  65
ATOM     65  S   UNL     1     -17.656   9.296   5.025  1.00  0.00     0.127 S 
ATOM     66  O   UNL     1     -16.759   9.575   6.146  1.00  0.00    -0.237 OA
ATOM     67  O   UNL     1     -18.955   9.965   5.103  1.00  0.00    -0.237 OA
ATOM     68  O   UNL     1     -17.711   7.903   4.605  1.00  0.00    -0.744 OA
ENDBRANCH  62  65
ENDBRANCH  44  58
BRANCH  45  69
ATOM     69  C   UNL     1     -11.618   5.829  -6.378  1.00  0.00     0.023 A 
ATOM     70  C   UNL     1     -11.918   6.255  -7.686  1.00  0.00     0.012 A 
ATOM     71  C   UNL     1     -10.745   4.740  -6.195  1.00  0.00     0.148 A 
ATOM     72  C   UNL     1     -11.390   5.587  -8.792  1.00  0.00     0.002 A 
ATOM     73  C   UNL     1     -10.177   4.114  -7.299  1.00  0.00     0.091 A 
ATOM     74  F   UNL     1     -10.483   4.338  -4.943  1.00  0.00    -0.205 F 
ATOM     75  C   UNL     1     -10.513   4.523  -8.599  1.00  0.00     0.022 A 
BRANCH  73  76
ATOM     76  S   UNL     1      -8.937   2.824  -7.137  1.00  0.00     0.127 S 
ATOM     77  O   UNL     1      -9.694   1.632  -7.508  1.00  0.00    -0.237 OA
ATOM     78  O   UNL     1      -7.931   3.245  -8.113  1.00  0.00    -0.237 OA
ATOM     79  O   UNL     1      -8.488   2.887  -5.753  1.00  0.00    -0.744 OA
ENDBRANCH  73  76
ENDBRANCH  45  69
BRANCH  57  80
ATOM     80  C   UNL     1     -18.169   6.559  -4.082  1.00  0.00     0.023 A 
ATOM     81  C   UNL     1     -18.491   5.196  -3.932  1.00  0.00     0.012 A 
ATOM     82  C   UNL     1     -19.126   7.441  -4.624  1.00  0.00     0.148 A 
ATOM     83  C   UNL     1     -19.733   4.712  -4.339  1.00  0.00     0.002 A 
ATOM     84  C   UNL     1     -20.379   6.960  -4.982  1.00  0.00     0.091 A 
ATOM     85  F   UNL     1     -18.794   8.732  -4.771  1.00  0.00    -0.205 F 
ATOM     86  C   UNL     1     -20.680   5.595  -4.851  1.00  0.00     0.022 A 
BRANCH  84  87
ATOM     87  S   UNL     1     -21.697   8.034  -5.563  1.00  0.00     0.127 S 
ATOM     88  O   UNL     1     -21.817   7.627  -6.962  1.00  0.00    -0.237 OA
ATOM     89  O   UNL     1     -22.818   7.634  -4.712  1.00  0.00    -0.237 OA
ATOM     90  O   UNL     1     -21.231   9.397  -5.350  1.00  0.00    -0.744 OA
ENDBRANCH  84  87
ENDBRANCH  57  80
ENDBRANCH  31  32
ENDBRANCH  23  26
ENDBRANCH  21  22
ENDBRANCH  20  21
ENDBRANCH   1  20
TORSDOF 18
