REMARK SMILES O=C(NCCCCCCNC(=O)c1sccc1S(=O)(=O)N1CCO[C@@H]2CCCC[C@@H]21)c1ccc(-c2c3nc(c(-c4cccc(S(=O)(=O)[O-])c4F)c4ccc([nH]4)c(-c4cccc(S(=O)(=O)[O-])c4F)c4nc(c(-c5cccc(S(=O)(=O)[O-])c5F)c5ccc2[nH]5)C=C4)C=C3)cc1
REMARK SMILES IDX 6 1 5 2 4 3 3 4 1 5 2 6 31 8 32 9 93 10 33 11 92 12 34 13
REMARK SMILES IDX 35 14 36 15 86 16 37 17 91 18 85 19 87 20 38 21 90 22 84 23
REMARK SMILES IDX 83 24 39 26 71 27 51 28 70 29 52 30 55 31 69 32 88 33 53 34
REMARK SMILES IDX 54 35 68 37 89 38 56 39 40 40 41 41 49 42 42 43 44 44 50 45
REMARK SMILES IDX 43 46 45 47 46 48 47 49 48 50 72 51 73 52 81 53 74 54 76 55
REMARK SMILES IDX 82 56 75 57 77 58 78 59 79 60 80 61 57 62 58 63 66 64 59 65
REMARK SMILES IDX 61 66 67 67 60 68 62 69 63 70 64 71 65 72 7 73 8 74 9 75
REMARK SMILES IDX 10 76 11 77 12 79 13 80 14 81 17 82 15 83 16 84 18 85 19 86
REMARK SMILES IDX 20 87 21 88 22 89 30 90 23 91 25 92 29 93 24 94 26 95 28 96
REMARK SMILES IDX 27 97
REMARK H PARENT 3 7 87 25 55 36 10 78
REMARK Flexibility Score: inf
ROOT
ATOM      1  C   UNL     1       5.429   3.018   0.874  1.00  0.00     0.002 C 
ENDROOT
BRANCH   1   2
ATOM      2  C   UNL     1       5.339   2.099  -0.334  1.00  0.00     0.021 C 
BRANCH   2   3
ATOM      3  C   UNL     1       4.668   0.767  -0.070  1.00  0.00     0.116 C 
BRANCH   3   4
ATOM      4  N   UNL     1       3.233   0.834   0.177  1.00  0.00    -0.352 N 
ATOM      5  O   UNL     1       1.121  -0.016   0.061  1.00  0.00    -0.269 OA
ATOM      6  C   UNL     1       2.324  -0.171  -0.103  1.00  0.00     0.251 C 
ATOM      7  H   UNL     1       2.882   1.663   0.577  1.00  0.00     0.163 HD
BRANCH   6   8
ATOM      8  C   UNL     1       2.875  -1.430  -0.652  1.00  0.00     0.039 A 
ATOM      9  C   UNL     1       3.908  -2.063   0.043  1.00  0.00     0.014 A 
ATOM     10  C   UNL     1       2.510  -1.852  -1.932  1.00  0.00     0.014 A 
ATOM     11  C   UNL     1       4.695  -2.996  -0.613  1.00  0.00     0.010 A 
ATOM     12  C   UNL     1       3.232  -2.881  -2.544  1.00  0.00     0.010 A 
ATOM     13  C   UNL     1       4.350  -3.439  -1.902  1.00  0.00    -0.014 A 
BRANCH  13  14
ATOM     14  C   UNL     1       5.094  -4.585  -2.481  1.00  0.00     0.031 A 
ATOM     15  C   UNL     1       5.879  -4.476  -3.758  1.00  0.00     0.074 A 
ATOM     16  C   UNL     1       5.036  -5.754  -1.810  1.00  0.00     0.049 A 
ATOM     17  N   UNL     1       6.562  -5.405  -4.377  1.00  0.00    -0.248 NA
ATOM     18  C   UNL     1       5.900  -3.170  -4.438  1.00  0.00     0.031 C 
ATOM     19  C   UNL     1       4.260  -5.977  -0.585  1.00  0.00     0.029 A 
ATOM     20  N   UNL     1       5.624  -6.967  -2.052  1.00  0.00    -0.354 N 
ATOM     21  C   UNL     1       7.047  -4.820  -5.541  1.00  0.00     0.074 A 
ATOM     22  C   UNL     1       6.597  -3.444  -5.536  1.00  0.00     0.031 C 
ATOM     23  C   UNL     1       4.441  -7.235  -0.168  1.00  0.00     0.029 A 
ATOM     24  C   UNL     1       5.275  -7.932  -1.135  1.00  0.00     0.049 A 
ATOM     25  H   UNL     1       6.235  -7.132  -2.805  1.00  0.00     0.167 HD
ATOM     26  C   UNL     1       7.798  -5.386  -6.516  1.00  0.00     0.034 A 
ATOM     27  C   UNL     1       5.554  -9.246  -1.095  1.00  0.00     0.034 A 
ATOM     28  C   UNL     1       8.277  -6.745  -6.479  1.00  0.00     0.049 A 
ATOM     29  C   UNL     1       6.411  -9.828  -2.177  1.00  0.00     0.074 A 
ATOM     30  C   UNL     1       9.125  -7.381  -7.369  1.00  0.00     0.029 A 
ATOM     31  N   UNL     1       7.938  -7.681  -5.514  1.00  0.00    -0.354 N 
ATOM     32  N   UNL     1       6.977  -9.220  -3.191  1.00  0.00    -0.248 NA
ATOM     33  C   UNL     1       6.681 -11.268  -2.104  1.00  0.00     0.031 C 
ATOM     34  C   UNL     1       9.277  -8.710  -6.958  1.00  0.00     0.029 A 
ATOM     35  C   UNL     1       8.539  -8.896  -5.800  1.00  0.00     0.049 A 
ATOM     36  H   UNL     1       7.356  -7.508  -4.739  1.00  0.00     0.167 HD
ATOM     37  C   UNL     1       7.675 -10.203  -3.877  1.00  0.00     0.074 A 
ATOM     38  C   UNL     1       7.497 -11.436  -3.135  1.00  0.00     0.031 C 
ATOM     39  C   UNL     1       8.376 -10.102  -5.032  1.00  0.00     0.034 A 
BRANCH  26  40
ATOM     40  C   UNL     1       8.191  -4.548  -7.707  1.00  0.00     0.023 A 
ATOM     41  C   UNL     1       9.233  -3.608  -7.586  1.00  0.00     0.012 A 
ATOM     42  C   UNL     1       7.623  -4.791  -8.975  1.00  0.00     0.148 A 
ATOM     43  C   UNL     1       9.697  -2.915  -8.705  1.00  0.00     0.002 A 
ATOM     44  C   UNL     1       8.114  -4.122 -10.091  1.00  0.00     0.091 A 
ATOM     45  F   UNL     1       6.625  -5.681  -9.066  1.00  0.00    -0.205 F 
ATOM     46  C   UNL     1       9.147  -3.180  -9.957  1.00  0.00     0.022 A 
BRANCH  44  47
ATOM     47  S   UNL     1       7.525  -4.444 -11.759  1.00  0.00     0.127 S 
ATOM     48  O   UNL     1       6.862  -3.182 -12.085  1.00  0.00    -0.237 OA
ATOM     49  O   UNL     1       8.774  -4.682 -12.484  1.00  0.00    -0.237 OA
ATOM     50  O   UNL     1       6.646  -5.601 -11.660  1.00  0.00    -0.744 OA
ENDBRANCH  44  47
ENDBRANCH  26  40
BRANCH  27  51
ATOM     51  C   UNL     1       5.010 -10.081   0.011  1.00  0.00     0.023 A 
ATOM     52  C   UNL     1       5.884 -10.620   0.973  1.00  0.00     0.012 A 
ATOM     53  C   UNL     1       3.623 -10.289   0.148  1.00  0.00     0.148 A 
ATOM     54  C   UNL     1       5.386 -11.369   2.040  1.00  0.00     0.002 A 
ATOM     55  C   UNL     1       3.131 -10.977   1.250  1.00  0.00     0.091 A 
ATOM     56  F   UNL     1       2.805  -9.787  -0.789  1.00  0.00    -0.205 F 
ATOM     57  C   UNL     1       4.011 -11.534   2.188  1.00  0.00     0.022 A 
BRANCH  55  58
ATOM     58  S   UNL     1       1.368 -11.071   1.583  1.00  0.00     0.127 S 
ATOM     59  O   UNL     1       1.027 -12.378   1.030  1.00  0.00    -0.237 OA
ATOM     60  O   UNL     1       1.321 -10.987   3.043  1.00  0.00    -0.237 OA
ATOM     61  O   UNL     1       0.795  -9.914   0.906  1.00  0.00    -0.744 OA
ENDBRANCH  55  58
ENDBRANCH  27  51
BRANCH  39  62
ATOM     62  C   UNL     1       8.998 -11.364  -5.561  1.00  0.00     0.023 A 
ATOM     63  C   UNL     1       8.175 -12.347  -6.147  1.00  0.00     0.012 A 
ATOM     64  C   UNL     1      10.391 -11.559  -5.517  1.00  0.00     0.148 A 
ATOM     65  C   UNL     1       8.727 -13.522  -6.652  1.00  0.00     0.002 A 
ATOM     66  C   UNL     1      10.939 -12.713  -6.065  1.00  0.00     0.091 A 
ATOM     67  F   UNL     1      11.151 -10.621  -4.934  1.00  0.00    -0.205 F 
ATOM     68  C   UNL     1      10.108 -13.700  -6.622  1.00  0.00     0.022 A 
BRANCH  66  69
ATOM     69  S   UNL     1      12.711 -12.987  -6.146  1.00  0.00     0.127 S 
ATOM     70  O   UNL     1      12.902 -14.009  -5.118  1.00  0.00    -0.237 OA
ATOM     71  O   UNL     1      12.890 -13.461  -7.519  1.00  0.00    -0.237 OA
ATOM     72  O   UNL     1      13.329 -11.697  -5.869  1.00  0.00    -0.744 OA
ENDBRANCH  66  69
ENDBRANCH  39  62
ENDBRANCH  13  14
ENDBRANCH   6   8
ENDBRANCH   3   4
ENDBRANCH   2   3
ENDBRANCH   1   2
BRANCH   1  73
ATOM     73  C   UNL     1       6.086   2.450   2.138  1.00  0.00     0.002 C 
BRANCH  73  74
ATOM     74  C   UNL     1       7.580   2.106   2.044  1.00  0.00     0.021 C 
BRANCH  74  75
ATOM     75  C   UNL     1       8.527   3.304   1.982  1.00  0.00     0.116 C 
BRANCH  75  76
ATOM     76  N   UNL     1       8.390   4.157   3.151  1.00  0.00    -0.351 N 
ATOM     77  C   UNL     1       9.089   5.293   3.470  1.00  0.00     0.262 C 
ATOM     78  H   UNL     1       7.704   3.883   3.801  1.00  0.00     0.163 HD
ATOM     79  O   UNL     1       9.021   5.715   4.624  1.00  0.00    -0.268 OA
BRANCH  77  80
ATOM     80  C   UNL     1       9.921   5.876   2.463  1.00  0.00     0.112 A 
ATOM     81  S   UNL     1      11.617   5.793   2.760  1.00  0.00    -0.137 S 
ATOM     82  C   UNL     1       9.630   6.515   1.275  1.00  0.00     0.106 A 
ATOM     83  C   UNL     1      11.985   6.418   1.221  1.00  0.00     0.067 A 
ATOM     84  C   UNL     1      10.845   6.759   0.529  1.00  0.00     0.034 A 
BRANCH  82  85
ATOM     85  S   UNL     1       8.061   6.947   0.618  1.00  0.00     0.245 S 
ATOM     86  O   UNL     1       8.418   8.119  -0.163  1.00  0.00    -0.207 OA
ATOM     87  O   UNL     1       7.616   5.749  -0.050  1.00  0.00    -0.207 OA
BRANCH  85  88
ATOM     88  N   UNL     1       6.875   7.426   1.756  1.00  0.00    -0.190 NA
ATOM     89  C   UNL     1       6.277   8.787   1.540  1.00  0.00     0.131 C 
ATOM     90  C   UNL     1       5.921   6.401   2.355  1.00  0.00     0.102 C 
ATOM     91  C   UNL     1       4.790   8.778   1.188  1.00  0.00     0.177 C 
ATOM     92  C   UNL     1       4.440   6.606   1.944  1.00  0.00     0.136 C 
ATOM     93  C   UNL     1       6.077   6.309   3.882  1.00  0.00     0.023 C 
ATOM     94  O   UNL     1       4.041   7.975   2.090  1.00  0.00    -0.375 OA
ATOM     95  C   UNL     1       3.471   5.775   2.791  1.00  0.00     0.034 C 
ATOM     96  C   UNL     1       4.873   6.706   4.723  1.00  0.00     0.002 C 
ATOM     97  C   UNL     1       3.582   6.022   4.294  1.00  0.00     0.003 C 
ENDBRANCH  85  88
ENDBRANCH  82  85
ENDBRANCH  77  80
ENDBRANCH  75  76
ENDBRANCH  74  75
ENDBRANCH  73  74
ENDBRANCH   1  73
TORSDOF 18
