REMARK SMILES C/C(=N/[NH+]=C1\NC(=O)[C@H](CC(=O)NCCCCCCNC(=O)c2ccc(-c3c4nc(c(-c5cccc(S(=O)(=O)[O-])c5F)c5ccc([nH]5)c(-c5cccc(S(=O)(=O)[O-])c5F)c5nc(c(-c6cccc(S(=O)(=O)[O-])c6F)c6ccc3[nH]6)C=C5)C=C4)cc2)S1)c1ccc(OC(C)C)cc1
REMARK SMILES IDX 15 1 14 2 13 3 11 4 12 5 10 7 9 8 4 9 5 10 6 12 86 13 7 14
REMARK SMILES IDX 8 16 3 17 1 18 2 19 87 20 88 21 96 22 89 23 95 24 90 25
REMARK SMILES IDX 91 26 92 27 93 28 94 29 16 30 17 31 18 32 19 33 20 34 21 35
REMARK SMILES IDX 22 37 23 38 24 39 85 40 25 41 84 42 26 43 27 44 28 45 78 46
REMARK SMILES IDX 29 47 83 48 77 49 79 50 30 51 82 52 76 53 75 54 31 56 63 57
REMARK SMILES IDX 43 58 62 59 44 60 47 61 61 62 80 63 45 64 46 65 60 67 81 68
REMARK SMILES IDX 48 69 32 70 33 71 41 72 34 73 36 74 42 75 35 76 37 77 38 78
REMARK SMILES IDX 39 79 40 80 64 81 65 82 73 83 66 84 68 85 74 86 67 87 69 88
REMARK SMILES IDX 70 89 71 90 72 91 49 92 50 93 58 94 51 95 53 96 59 97 52 98
REMARK SMILES IDX 54 99 55 100 56 101 57 102
REMARK H PARENT 13 6 4 11 6 15 20 36 79 55 47 66
REMARK Flexibility Score: inf
ROOT
ATOM      1  C   UNL     1       4.860   2.949  -3.236  1.00  0.00     0.021 C 
ENDROOT
BRANCH   1   2
ATOM      2  C   UNL     1       3.826   4.068  -3.252  1.00  0.00     0.116 C 
BRANCH   2   3
ATOM      3  N   UNL     1       3.885   4.873  -4.456  1.00  0.00    -0.356 N 
ATOM      4  C   UNL     1       2.864   5.302  -5.251  1.00  0.00     0.221 C 
ATOM      5  O   UNL     1       3.120   5.984  -6.243  1.00  0.00    -0.275 OA
ATOM      6  H   UNL     1       4.787   5.149  -4.738  1.00  0.00     0.163 HD
BRANCH   4   7
ATOM      7  C   UNL     1       1.440   4.944  -4.898  1.00  0.00     0.127 C 
BRANCH   7   8
ATOM      8  C   UNL     1       0.969   3.679  -5.610  1.00  0.00     0.183 C 
ATOM      9  N   UNL     1      -0.878   1.660  -2.957  1.00  0.00    -0.142 N 
ATOM     10  C   UNL     1      -0.165   2.095  -3.937  1.00  0.00     0.337 C 
ATOM     11  H   UNL     1      -1.801   1.969  -2.809  1.00  0.00     0.343 HD
ATOM     12  N   UNL     1       1.097   1.726  -4.236  1.00  0.00    -0.202 N 
ATOM     13  S   UNL     1      -0.736   3.318  -5.035  1.00  0.00    -0.020 SA
ATOM     14  C   UNL     1       1.741   2.426  -5.215  1.00  0.00     0.322 C 
ATOM     15  H   UNL     1       1.536   0.980  -3.766  1.00  0.00     0.316 HD
ATOM     16  O   UNL     1       2.822   2.102  -5.677  1.00  0.00    -0.246 OA
BRANCH   9  17
ATOM     17  N   UNL     1      -0.271   0.724  -2.113  1.00  0.00    -0.090 NA
ATOM     18  C   UNL     1       0.807   0.147  -0.040  1.00  0.00     0.071 C 
ATOM     19  C   UNL     1       0.302   1.180  -1.029  1.00  0.00     0.088 C 
BRANCH  19  20
ATOM     20  C   UNL     1       0.606   2.616  -0.726  1.00  0.00    -0.000 A 
ATOM     21  C   UNL     1      -0.310   3.632  -0.987  1.00  0.00     0.014 A 
ATOM     22  C   UNL     1       1.894   2.966  -0.306  1.00  0.00     0.014 A 
ATOM     23  C   UNL     1       0.096   4.970  -0.938  1.00  0.00     0.047 A 
ATOM     24  C   UNL     1       2.286   4.316  -0.242  1.00  0.00     0.047 A 
ATOM     25  C   UNL     1       1.403   5.327  -0.591  1.00  0.00     0.119 A 
BRANCH  25  26
ATOM     26  O   UNL     1       1.646   6.660  -0.674  1.00  0.00    -0.491 OA
BRANCH  26  27
ATOM     27  C   UNL     1       2.847   7.340  -0.301  1.00  0.00     0.167 C 
ATOM     28  C   UNL     1       3.384   7.054   1.096  1.00  0.00     0.052 C 
ATOM     29  C   UNL     1       3.924   7.295  -1.376  1.00  0.00     0.052 C 
ENDBRANCH  26  27
ENDBRANCH  25  26
ENDBRANCH  19  20
ENDBRANCH   9  17
ENDBRANCH   7   8
ENDBRANCH   4   7
ENDBRANCH   2   3
ENDBRANCH   1   2
BRANCH   1  30
ATOM     30  C   UNL     1       6.293   3.409  -2.950  1.00  0.00     0.002 C 
BRANCH  30  31
ATOM     31  C   UNL     1       6.547   3.995  -1.557  1.00  0.00     0.002 C 
BRANCH  31  32
ATOM     32  C   UNL     1       6.056   3.152  -0.382  1.00  0.00     0.021 C 
BRANCH  32  33
ATOM     33  C   UNL     1       6.588   1.728  -0.349  1.00  0.00     0.116 C 
BRANCH  33  34
ATOM     34  N   UNL     1       8.030   1.688  -0.170  1.00  0.00    -0.352 N 
ATOM     35  C   UNL     1       8.757   1.092   0.831  1.00  0.00     0.251 C 
ATOM     36  H   UNL     1       8.557   2.152  -0.860  1.00  0.00     0.163 HD
ATOM     37  O   UNL     1       9.956   1.325   0.947  1.00  0.00    -0.269 OA
BRANCH  35  38
ATOM     38  C   UNL     1       8.076   0.184   1.778  1.00  0.00     0.039 A 
ATOM     39  C   UNL     1       8.313   0.324   3.148  1.00  0.00     0.014 A 
ATOM     40  C   UNL     1       7.185  -0.786   1.311  1.00  0.00     0.014 A 
ATOM     41  C   UNL     1       7.607  -0.471   4.054  1.00  0.00     0.010 A 
ATOM     42  C   UNL     1       6.421  -1.512   2.216  1.00  0.00     0.010 A 
ATOM     43  C   UNL     1       6.630  -1.371   3.597  1.00  0.00    -0.014 A 
BRANCH  43  44
ATOM     44  C   UNL     1       5.816  -2.186   4.534  1.00  0.00     0.031 A 
ATOM     45  C   UNL     1       5.886  -3.688   4.470  1.00  0.00     0.074 A 
ATOM     46  C   UNL     1       4.940  -1.583   5.362  1.00  0.00     0.049 A 
ATOM     47  N   UNL     1       5.170  -4.575   5.109  1.00  0.00    -0.248 NA
ATOM     48  C   UNL     1       6.868  -4.270   3.538  1.00  0.00     0.031 C 
ATOM     49  C   UNL     1       4.733  -0.138   5.470  1.00  0.00     0.029 A 
ATOM     50  N   UNL     1       4.033  -2.114   6.246  1.00  0.00    -0.354 N 
ATOM     51  C   UNL     1       5.581  -5.812   4.627  1.00  0.00     0.074 A 
ATOM     52  C   UNL     1       6.585  -5.561   3.617  1.00  0.00     0.031 C 
ATOM     53  C   UNL     1       3.761   0.103   6.364  1.00  0.00     0.029 A 
ATOM     54  C   UNL     1       3.247  -1.169   6.864  1.00  0.00     0.049 A 
ATOM     55  H   UNL     1       3.952  -3.079   6.421  1.00  0.00     0.167 HD
ATOM     56  C   UNL     1       5.179  -7.047   5.009  1.00  0.00     0.034 A 
ATOM     57  C   UNL     1       2.215  -1.310   7.720  1.00  0.00     0.034 A 
ATOM     58  C   UNL     1       4.215  -7.290   6.046  1.00  0.00     0.049 A 
ATOM     59  C   UNL     1       1.804  -2.693   8.147  1.00  0.00     0.074 A 
ATOM     60  C   UNL     1       3.805  -8.503   6.570  1.00  0.00     0.029 A 
ATOM     61  N   UNL     1       3.502  -6.305   6.711  1.00  0.00    -0.354 N 
ATOM     62  N   UNL     1       2.305  -3.849   7.786  1.00  0.00    -0.248 NA
ATOM     63  C   UNL     1       0.708  -2.793   9.122  1.00  0.00     0.031 C 
ATOM     64  C   UNL     1       2.821  -8.253   7.529  1.00  0.00     0.029 A 
ATOM     65  C   UNL     1       2.646  -6.882   7.631  1.00  0.00     0.049 A 
ATOM     66  H   UNL     1       3.592  -5.338   6.552  1.00  0.00     0.167 HD
ATOM     67  C   UNL     1       1.617  -4.809   8.520  1.00  0.00     0.074 A 
ATOM     68  C   UNL     1       0.670  -4.099   9.354  1.00  0.00     0.031 C 
ATOM     69  C   UNL     1       1.753  -6.157   8.499  1.00  0.00     0.034 A 
BRANCH  56  70
ATOM     70  C   UNL     1       5.812  -8.234   4.331  1.00  0.00     0.023 A 
ATOM     71  C   UNL     1       7.162  -8.547   4.586  1.00  0.00     0.012 A 
ATOM     72  C   UNL     1       5.055  -9.072   3.490  1.00  0.00     0.148 A 
ATOM     73  C   UNL     1       7.761  -9.654   3.985  1.00  0.00     0.002 A 
ATOM     74  C   UNL     1       5.645 -10.201   2.934  1.00  0.00     0.091 A 
ATOM     75  F   UNL     1       3.778  -8.747   3.243  1.00  0.00    -0.205 F 
ATOM     76  C   UNL     1       7.000 -10.486   3.169  1.00  0.00     0.022 A 
BRANCH  74  77
ATOM     77  S   UNL     1       4.729 -11.382   1.937  1.00  0.00     0.127 S 
ATOM     78  O   UNL     1       5.301 -11.153   0.611  1.00  0.00    -0.237 OA
ATOM     79  O   UNL     1       5.101 -12.656   2.551  1.00  0.00    -0.237 OA
ATOM     80  O   UNL     1       3.324 -11.025   2.080  1.00  0.00    -0.744 OA
ENDBRANCH  74  77
ENDBRANCH  56  70
BRANCH  57  81
ATOM     81  C   UNL     1       1.530  -0.104   8.266  1.00  0.00     0.023 A 
ATOM     82  C   UNL     1       1.683   0.224   9.627  1.00  0.00     0.012 A 
ATOM     83  C   UNL     1       0.751   0.731   7.442  1.00  0.00     0.148 A 
ATOM     84  C   UNL     1       1.046   1.343  10.165  1.00  0.00     0.002 A 
ATOM     85  C   UNL     1       0.168   1.876   7.971  1.00  0.00     0.091 A 
ATOM     86  F   UNL     1       0.611   0.396   6.152  1.00  0.00    -0.205 F 
ATOM     87  C   UNL     1       0.297   2.174   9.336  1.00  0.00     0.022 A 
BRANCH  85  88
ATOM     88  S   UNL     1      -0.696   3.074   6.949  1.00  0.00     0.127 S 
ATOM     89  O   UNL     1      -2.078   2.900   7.387  1.00  0.00    -0.237 OA
ATOM     90  O   UNL     1      -0.069   4.330   7.364  1.00  0.00    -0.237 OA
ATOM     91  O   UNL     1      -0.414   2.691   5.572  1.00  0.00    -0.744 OA
ENDBRANCH  85  88
ENDBRANCH  57  81
BRANCH  69  92
ATOM     92  C   UNL     1       0.906  -6.969   9.442  1.00  0.00     0.023 A 
ATOM     93  C   UNL     1      -0.468  -7.144   9.185  1.00  0.00     0.012 A 
ATOM     94  C   UNL     1       1.503  -7.651  10.521  1.00  0.00     0.148 A 
ATOM     95  C   UNL     1      -1.238  -7.972  10.001  1.00  0.00     0.002 A 
ATOM     96  C   UNL     1       0.741  -8.514  11.297  1.00  0.00     0.091 A 
ATOM     97  F   UNL     1       2.809  -7.456  10.754  1.00  0.00    -0.205 F 
ATOM     98  C   UNL     1      -0.632  -8.667  11.046  1.00  0.00     0.022 A 
BRANCH  96  99
ATOM     99  S   UNL     1       1.454  -9.529  12.596  1.00  0.00     0.127 S 
ATOM    100  O   UNL     1       0.853  -8.944  13.794  1.00  0.00    -0.237 OA
ATOM    101  O   UNL     1       0.959 -10.861  12.253  1.00  0.00    -0.237 OA
ATOM    102  O   UNL     1       2.898  -9.370  12.487  1.00  0.00    -0.744 OA
ENDBRANCH  96  99
ENDBRANCH  69  92
ENDBRANCH  43  44
ENDBRANCH  35  38
ENDBRANCH  33  34
ENDBRANCH  32  33
ENDBRANCH  31  32
ENDBRANCH  30  31
ENDBRANCH   1  30
TORSDOF 21
