REMARK SMILES COc1cccc(-c2c(C(=O)NCCCCCCNC(=O)c3ccc(-c4c5nc(c(-c6cccc(S(=O)(=O)[O-])c6F)c6ccc([nH]6)c(-c6cccc(S(=O)(=O)[O-])c6F)c6nc(c(-c7cccc(S(=O)(=O)[O-])c7F)c7ccc4[nH]7)C=C6)C=C5)cc3)nnn2Cc2ccc(OC(F)(F)F)cc2)c1
REMARK SMILES IDX 15 1 14 2 13 3 12 4 10 5 11 6 9 8 8 9 87 10 85 11 86 12 7 13
REMARK SMILES IDX 3 14 4 15 100 16 5 17 6 18 2 19 1 20 88 21 89 22 90 23 99 24
REMARK SMILES IDX 91 25 98 26 92 27 93 28 94 29 95 30 96 31 97 32 16 33 17 34
REMARK SMILES IDX 18 35 19 36 20 37 21 39 22 40 23 41 84 42 24 43 83 44 25 45
REMARK SMILES IDX 26 46 27 47 77 48 28 49 82 50 76 51 78 52 29 53 81 54 75 55
REMARK SMILES IDX 74 56 30 58 62 59 42 60 61 61 43 62 46 63 60 64 79 65 44 66
REMARK SMILES IDX 45 67 59 69 80 70 47 71 31 72 32 73 40 74 33 75 35 76 41 77
REMARK SMILES IDX 34 78 36 79 37 80 38 81 39 82 63 83 64 84 72 85 65 86 67 87
REMARK SMILES IDX 73 88 66 89 68 90 69 91 70 92 71 93 48 94 49 95 57 96 50 97
REMARK SMILES IDX 52 98 58 99 51 100 53 101 54 102 55 103 56 104
REMARK H PARENT 12 7 19 38 78 57 46 68
REMARK Flexibility Score: inf
ROOT
ATOM      1  C   UNL     1      -0.024  -6.719   0.353  1.00  0.00     0.002 C 
ENDROOT
BRANCH   1   2
ATOM      2  C   UNL     1       0.906  -5.514   0.290  1.00  0.00     0.021 C 
BRANCH   2   3
ATOM      3  C   UNL     1       1.831  -5.283   1.468  1.00  0.00     0.116 C 
BRANCH   3   4
ATOM      4  N   UNL     1       2.917  -6.197   1.653  1.00  0.00    -0.351 N 
ATOM      5  C   UNL     1       4.180  -5.945   2.149  1.00  0.00     0.274 C 
ATOM      6  O   UNL     1       4.893  -6.950   2.270  1.00  0.00    -0.267 OA
ATOM      7  H   UNL     1       2.740  -7.129   1.390  1.00  0.00     0.163 HD
BRANCH   5   8
ATOM      8  C   UNL     1       4.706  -4.606   2.490  1.00  0.00     0.178 A 
ATOM      9  C   UNL     1       4.166  -3.350   2.807  1.00  0.00     0.102 A 
ATOM     10  N   UNL     1       5.284  -2.553   2.976  1.00  0.00    -0.239 N 
ATOM     11  N   UNL     1       6.088  -4.494   2.533  1.00  0.00    -0.124 NA
ATOM     12  N   UNL     1       6.419  -3.245   2.786  1.00  0.00    -0.066 NA
BRANCH   9  13
ATOM     13  C   UNL     1       2.816  -2.803   2.946  1.00  0.00     0.006 A 
ATOM     14  C   UNL     1       1.006  -1.452   2.025  1.00  0.00     0.119 A 
ATOM     15  C   UNL     1       0.186  -1.879   3.072  1.00  0.00     0.046 A 
ATOM     16  C   UNL     1       2.319  -1.914   1.966  1.00  0.00     0.056 A 
ATOM     17  C   UNL     1       0.669  -2.746   4.055  1.00  0.00     0.005 A 
ATOM     18  C   UNL     1       1.987  -3.200   4.001  1.00  0.00     0.011 A 
BRANCH  14  19
ATOM     19  O   UNL     1       0.402  -0.606   1.140  1.00  0.00    -0.497 OA
ATOM     20  C   UNL     1       1.133  -0.203  -0.020  1.00  0.00     0.278 C 
ENDBRANCH  14  19
ENDBRANCH   9  13
BRANCH  10  21
ATOM     21  C   UNL     1       5.368  -1.129   3.281  1.00  0.00     0.182 C 
BRANCH  21  22
ATOM     22  C   UNL     1       5.920  -0.872   4.666  1.00  0.00    -0.026 A 
ATOM     23  C   UNL     1       5.115  -0.344   5.683  1.00  0.00     0.009 A 
ATOM     24  C   UNL     1       7.265  -1.144   4.950  1.00  0.00     0.009 A 
ATOM     25  C   UNL     1       5.654  -0.099   6.950  1.00  0.00     0.047 A 
ATOM     26  C   UNL     1       7.796  -0.915   6.221  1.00  0.00     0.047 A 
ATOM     27  C   UNL     1       6.995  -0.386   7.229  1.00  0.00     0.129 A 
BRANCH  27  28
ATOM     28  O   UNL     1       7.391  -0.100   8.505  1.00  0.00    -0.406 OA
BRANCH  28  29
ATOM     29  C   UNL     1       8.722  -0.434   8.861  1.00  0.00     0.573 C 
ATOM     30  F   UNL     1       8.941  -1.763   8.752  1.00  0.00    -0.132 F 
ATOM     31  F   UNL     1       9.622   0.236   8.110  1.00  0.00    -0.132 F 
ATOM     32  F   UNL     1       8.924  -0.088  10.153  1.00  0.00    -0.132 F 
ENDBRANCH  28  29
ENDBRANCH  27  28
ENDBRANCH  21  22
ENDBRANCH  10  21
ENDBRANCH   5   8
ENDBRANCH   3   4
ENDBRANCH   2   3
ENDBRANCH   1   2
BRANCH   1  33
ATOM     33  C   UNL     1      -0.829  -6.943   1.641  1.00  0.00     0.002 C 
BRANCH  33  34
ATOM     34  C   UNL     1      -1.620  -5.765   2.231  1.00  0.00     0.021 C 
BRANCH  34  35
ATOM     35  C   UNL     1      -2.605  -5.106   1.284  1.00  0.00     0.116 C 
BRANCH  35  36
ATOM     36  N   UNL     1      -3.677  -6.000   0.839  1.00  0.00    -0.352 N 
ATOM     37  C   UNL     1      -4.726  -5.715  -0.025  1.00  0.00     0.251 C 
ATOM     38  H   UNL     1      -3.651  -6.917   1.197  1.00  0.00     0.163 HD
ATOM     39  O   UNL     1      -5.728  -6.408  -0.049  1.00  0.00    -0.269 OA
BRANCH  37  40
ATOM     40  C   UNL     1      -4.591  -4.552  -0.924  1.00  0.00     0.039 A 
ATOM     41  C   UNL     1      -5.664  -3.707  -1.223  1.00  0.00     0.014 A 
ATOM     42  C   UNL     1      -3.328  -4.299  -1.443  1.00  0.00     0.014 A 
ATOM     43  C   UNL     1      -5.421  -2.569  -1.990  1.00  0.00     0.010 A 
ATOM     44  C   UNL     1      -3.050  -3.075  -1.977  1.00  0.00     0.010 A 
ATOM     45  C   UNL     1      -4.101  -2.255  -2.349  1.00  0.00    -0.014 A 
BRANCH  45  46
ATOM     46  C   UNL     1      -3.765  -1.029  -3.060  1.00  0.00     0.031 A 
ATOM     47  C   UNL     1      -4.245   0.210  -2.396  1.00  0.00     0.074 A 
ATOM     48  C   UNL     1      -2.909  -1.017  -4.108  1.00  0.00     0.049 A 
ATOM     49  N   UNL     1      -5.178   1.003  -2.804  1.00  0.00    -0.248 NA
ATOM     50  C   UNL     1      -3.754   0.514  -1.042  1.00  0.00     0.031 C 
ATOM     51  C   UNL     1      -2.111  -2.130  -4.651  1.00  0.00     0.029 A 
ATOM     52  N   UNL     1      -2.449   0.042  -4.824  1.00  0.00    -0.354 N 
ATOM     53  C   UNL     1      -5.215   2.045  -1.880  1.00  0.00     0.074 A 
ATOM     54  C   UNL     1      -4.491   1.582  -0.727  1.00  0.00     0.031 C 
ATOM     55  C   UNL     1      -1.095  -1.640  -5.393  1.00  0.00     0.029 A 
ATOM     56  C   UNL     1      -1.281  -0.212  -5.539  1.00  0.00     0.049 A 
ATOM     57  H   UNL     1      -2.904   0.915  -4.838  1.00  0.00     0.167 HD
ATOM     58  C   UNL     1      -5.612   3.295  -2.249  1.00  0.00     0.034 A 
ATOM     59  C   UNL     1      -0.499   0.702  -6.164  1.00  0.00     0.034 A 
ATOM     60  C   UNL     1      -6.250   3.273  -3.543  1.00  0.00     0.049 A 
ATOM     61  C   UNL     1      -1.335   1.903  -6.382  1.00  0.00     0.074 A 
ATOM     62  C   UNL     1      -7.360   2.651  -4.077  1.00  0.00     0.029 A 
ATOM     63  N   UNL     1      -5.477   3.660  -4.611  1.00  0.00    -0.354 N 
ATOM     64  N   UNL     1      -2.380   1.914  -7.162  1.00  0.00    -0.248 NA
ATOM     65  C   UNL     1      -1.287   2.951  -5.378  1.00  0.00     0.031 C 
ATOM     66  C   UNL     1      -6.964   2.273  -5.394  1.00  0.00     0.029 A 
ATOM     67  C   UNL     1      -5.671   2.752  -5.616  1.00  0.00     0.049 A 
ATOM     68  H   UNL     1      -4.889   4.448  -4.647  1.00  0.00     0.167 HD
ATOM     69  C   UNL     1      -3.322   2.651  -6.457  1.00  0.00     0.074 A 
ATOM     70  C   UNL     1      -2.561   3.352  -5.423  1.00  0.00     0.031 C 
ATOM     71  C   UNL     1      -4.656   2.390  -6.583  1.00  0.00     0.034 A 
BRANCH  58  72
ATOM     72  C   UNL     1      -5.096   4.592  -1.665  1.00  0.00     0.023 A 
ATOM     73  C   UNL     1      -5.718   5.784  -2.107  1.00  0.00     0.012 A 
ATOM     74  C   UNL     1      -3.883   4.731  -0.954  1.00  0.00     0.148 A 
ATOM     75  C   UNL     1      -5.128   7.037  -1.915  1.00  0.00     0.002 A 
ATOM     76  C   UNL     1      -3.337   5.985  -0.702  1.00  0.00     0.091 A 
ATOM     77  F   UNL     1      -3.170   3.653  -0.624  1.00  0.00    -0.205 F 
ATOM     78  C   UNL     1      -3.937   7.139  -1.210  1.00  0.00     0.022 A 
BRANCH  76  79
ATOM     79  S   UNL     1      -1.815   6.181   0.236  1.00  0.00     0.127 S 
ATOM     80  O   UNL     1      -0.876   6.572  -0.811  1.00  0.00    -0.237 OA
ATOM     81  O   UNL     1      -2.178   7.242   1.174  1.00  0.00    -0.237 OA
ATOM     82  O   UNL     1      -1.569   4.888   0.863  1.00  0.00    -0.744 OA
ENDBRANCH  76  79
ENDBRANCH  58  72
BRANCH  59  83
ATOM     83  C   UNL     1       0.974   0.733  -6.309  1.00  0.00     0.023 A 
ATOM     84  C   UNL     1       1.565   1.528  -7.310  1.00  0.00     0.012 A 
ATOM     85  C   UNL     1       1.803   0.226  -5.282  1.00  0.00     0.148 A 
ATOM     86  C   UNL     1       2.932   1.836  -7.272  1.00  0.00     0.002 A 
ATOM     87  C   UNL     1       3.158   0.538  -5.245  1.00  0.00     0.091 A 
ATOM     88  F   UNL     1       1.242  -0.483  -4.294  1.00  0.00    -0.205 F 
ATOM     89  C   UNL     1       3.726   1.352  -6.235  1.00  0.00     0.022 A 
BRANCH  87  90
ATOM     90  S   UNL     1       4.229  -0.002  -3.903  1.00  0.00     0.127 S 
ATOM     91  O   UNL     1       5.302  -0.677  -4.630  1.00  0.00    -0.237 OA
ATOM     92  O   UNL     1       4.605   1.267  -3.286  1.00  0.00    -0.237 OA
ATOM     93  O   UNL     1       3.417  -0.878  -3.064  1.00  0.00    -0.744 OA
ENDBRANCH  87  90
ENDBRANCH  59  83
BRANCH  71  94
ATOM     94  C   UNL     1      -5.101   1.459  -7.683  1.00  0.00     0.023 A 
ATOM     95  C   UNL     1      -4.788   0.083  -7.694  1.00  0.00     0.012 A 
ATOM     96  C   UNL     1      -6.033   1.952  -8.610  1.00  0.00     0.148 A 
ATOM     97  C   UNL     1      -5.388  -0.779  -8.616  1.00  0.00     0.002 A 
ATOM     98  C   UNL     1      -6.665   1.084  -9.490  1.00  0.00     0.091 A 
ATOM     99  F   UNL     1      -6.317   3.262  -8.582  1.00  0.00    -0.205 F 
ATOM    100  C   UNL     1      -6.340  -0.281  -9.504  1.00  0.00     0.022 A 
BRANCH  98 101
ATOM    101  S   UNL     1      -7.997   1.640 -10.554  1.00  0.00     0.127 S 
ATOM    102  O   UNL     1      -7.370   1.601 -11.873  1.00  0.00    -0.237 OA
ATOM    103  O   UNL     1      -9.021   0.619 -10.332  1.00  0.00    -0.237 OA
ATOM    104  O   UNL     1      -8.367   2.968 -10.078  1.00  0.00    -0.744 OA
ENDBRANCH  98 101
ENDBRANCH  71  94
ENDBRANCH  45  46
ENDBRANCH  37  40
ENDBRANCH  35  36
ENDBRANCH  34  35
ENDBRANCH  33  34
ENDBRANCH   1  33
TORSDOF 22
