REMARK SMILES CC(C)CC1(CNc2ccnc(C(=O)NCCCCCCNC(=O)c3ccc(-c4c5nc(c(-c6cccc(S(=O)(=O)[O-])c6F)c6ccc([nH]6)c(-c6cccc(S(=O)(=O)[O-])c6F)c6nc(c(-c7cccc(S(=O)(=O)[O-])c7F)c7ccc4[nH]7)C=C6)C=C5)cc3)c2)CCCC1
REMARK SMILES IDX 17 1 16 2 15 3 13 4 14 5 12 7 8 8 9 9 88 10 10 11 11 12 7 13
REMARK SMILES IDX 6 15 5 16 89 17 92 18 90 19 91 20 4 21 2 22 1 23 3 24 18 25
REMARK SMILES IDX 19 26 20 27 21 28 22 29 23 30 24 32 25 33 26 34 87 35 27 36
REMARK SMILES IDX 86 37 28 38 29 39 30 40 80 41 31 42 85 43 79 44 81 45 32 46
REMARK SMILES IDX 84 47 78 48 77 49 33 51 65 52 45 53 64 54 46 55 49 56 63 57
REMARK SMILES IDX 82 58 47 59 48 60 62 62 83 63 50 64 34 65 35 66 43 67 36 68
REMARK SMILES IDX 38 69 44 70 37 71 39 72 40 73 41 74 42 75 66 76 67 77 75 78
REMARK SMILES IDX 68 79 70 80 76 81 69 82 71 83 72 84 73 85 74 86 51 87 52 88
REMARK SMILES IDX 60 89 53 90 55 91 61 92 54 93 56 94 57 95 58 96 59 97
REMARK H PARENT 15 6 7 14 22 31 81 50 49 61
REMARK Flexibility Score: inf
ROOT
ATOM      1  C   UNL     1       2.516  -1.206  -3.322  1.00  0.00     0.021 C 
ENDROOT
BRANCH   1   2
ATOM      2  C   UNL     1       3.377  -1.311  -2.058  1.00  0.00     0.116 C 
BRANCH   2   3
ATOM      3  N   UNL     1       4.450  -0.340  -2.003  1.00  0.00    -0.351 N 
ATOM      4  C   UNL     1       4.803   0.689  -1.154  1.00  0.00     0.269 C 
ATOM      5  O   UNL     1       5.885   1.224  -1.431  1.00  0.00    -0.268 OA
ATOM      6  H   UNL     1       5.081  -0.438  -2.753  1.00  0.00     0.163 HD
BRANCH   4   7
ATOM      7  C   UNL     1       3.987   1.251  -0.000  1.00  0.00     0.130 A 
ATOM      8  C   UNL     1       2.134   1.348   1.569  1.00  0.00     0.038 A 
ATOM      9  C   UNL     1       2.508   2.654   1.863  1.00  0.00     0.046 A 
ATOM     10  C   UNL     1       2.958   0.614   0.688  1.00  0.00     0.060 A 
ATOM     11  C   UNL     1       3.617   3.187   1.235  1.00  0.00     0.114 A 
ATOM     12  N   UNL     1       4.333   2.534   0.301  1.00  0.00    -0.251 NA
BRANCH   8  13
ATOM     13  N   UNL     1       0.905   0.818   1.964  1.00  0.00    -0.384 N 
ATOM     14  H   UNL     1       0.848  -0.150   2.135  1.00  0.00     0.160 HD
BRANCH  13  15
ATOM     15  C   UNL     1      -0.312   1.629   2.139  1.00  0.00     0.119 C 
BRANCH  15  16
ATOM     16  C   UNL     1      -1.535   1.203   1.250  1.00  0.00    -0.012 C 
ATOM     17  C   UNL     1      -2.776   2.055   1.644  1.00  0.00     0.009 C 
ATOM     18  C   UNL     1      -2.053  -0.211   1.588  1.00  0.00     0.009 C 
ATOM     19  C   UNL     1      -3.375   1.396   2.873  1.00  0.00     0.001 C 
ATOM     20  C   UNL     1      -3.042  -0.081   2.745  1.00  0.00     0.001 C 
BRANCH  16  21
ATOM     21  C   UNL     1      -1.332   1.456  -0.284  1.00  0.00     0.012 C 
BRANCH  21  22
ATOM     22  C   UNL     1      -0.119   0.840  -0.982  1.00  0.00    -0.017 C 
ATOM     23  C   UNL     1      -0.163  -0.683  -1.035  1.00  0.00     0.007 C 
ATOM     24  C   UNL     1       0.115   1.438  -2.372  1.00  0.00     0.007 C 
ENDBRANCH  21  22
ENDBRANCH  16  21
ENDBRANCH  15  16
ENDBRANCH  13  15
ENDBRANCH   8  13
ENDBRANCH   4   7
ENDBRANCH   2   3
ENDBRANCH   1   2
BRANCH   1  25
ATOM     25  C   UNL     1       2.847  -2.196  -4.442  1.00  0.00     0.002 C 
BRANCH  25  26
ATOM     26  C   UNL     1       2.791  -3.683  -4.066  1.00  0.00     0.002 C 
BRANCH  26  27
ATOM     27  C   UNL     1       1.483  -4.182  -3.440  1.00  0.00     0.021 C 
BRANCH  27  28
ATOM     28  C   UNL     1       0.237  -4.050  -4.315  1.00  0.00     0.116 C 
BRANCH  28  29
ATOM     29  N   UNL     1       0.369  -4.763  -5.578  1.00  0.00    -0.352 N 
ATOM     30  C   UNL     1      -0.368  -5.796  -6.095  1.00  0.00     0.251 C 
ATOM     31  H   UNL     1       1.107  -4.454  -6.152  1.00  0.00     0.163 HD
ATOM     32  O   UNL     1       0.049  -6.394  -7.093  1.00  0.00    -0.269 OA
BRANCH  30  33
ATOM     33  C   UNL     1      -1.648  -6.209  -5.479  1.00  0.00     0.039 A 
ATOM     34  C   UNL     1      -1.942  -7.572  -5.376  1.00  0.00     0.014 A 
ATOM     35  C   UNL     1      -2.582  -5.263  -5.049  1.00  0.00     0.014 A 
ATOM     36  C   UNL     1      -3.144  -7.986  -4.794  1.00  0.00     0.010 A 
ATOM     37  C   UNL     1      -3.749  -5.677  -4.407  1.00  0.00     0.010 A 
ATOM     38  C   UNL     1      -4.047  -7.042  -4.278  1.00  0.00    -0.014 A 
BRANCH  38  39
ATOM     39  C   UNL     1      -5.301  -7.465  -3.597  1.00  0.00     0.031 A 
ATOM     40  C   UNL     1      -6.643  -7.086  -4.167  1.00  0.00     0.074 A 
ATOM     41  C   UNL     1      -5.231  -8.128  -2.425  1.00  0.00     0.049 A 
ATOM     42  N   UNL     1      -7.838  -7.309  -3.682  1.00  0.00    -0.248 NA
ATOM     43  C   UNL     1      -6.645  -6.338  -5.436  1.00  0.00     0.031 C 
ATOM     44  C   UNL     1      -3.993  -8.497  -1.734  1.00  0.00     0.029 A 
ATOM     45  N   UNL     1      -6.222  -8.587  -1.593  1.00  0.00    -0.354 N 
ATOM     46  C   UNL     1      -8.728  -6.710  -4.566  1.00  0.00     0.074 A 
ATOM     47  C   UNL     1      -7.935  -6.080  -5.599  1.00  0.00     0.031 C 
ATOM     48  C   UNL     1      -4.298  -9.128  -0.588  1.00  0.00     0.029 A 
ATOM     49  C   UNL     1      -5.749  -9.179  -0.444  1.00  0.00     0.049 A 
ATOM     50  H   UNL     1      -7.181  -8.501  -1.799  1.00  0.00     0.167 HD
ATOM     51  C   UNL     1     -10.082  -6.709  -4.540  1.00  0.00     0.034 A 
ATOM     52  C   UNL     1      -6.409  -9.696   0.612  1.00  0.00     0.034 A 
ATOM     53  C   UNL     1     -10.870  -7.367  -3.532  1.00  0.00     0.049 A 
ATOM     54  C   UNL     1      -7.915  -9.696   0.604  1.00  0.00     0.074 A 
ATOM     55  C   UNL     1     -12.248  -7.478  -3.454  1.00  0.00     0.029 A 
ATOM     56  N   UNL     1     -10.354  -8.025  -2.427  1.00  0.00    -0.354 N 
ATOM     57  N   UNL     1      -8.736  -9.246  -0.313  1.00  0.00    -0.248 NA
ATOM     58  C   UNL     1      -8.585 -10.310   1.759  1.00  0.00     0.031 C 
ATOM     59  C   UNL     1     -12.565  -8.183  -2.289  1.00  0.00     0.029 A 
ATOM     60  C   UNL     1     -11.384  -8.541  -1.660  1.00  0.00     0.049 A 
ATOM     61  H   UNL     1      -9.396  -8.113  -2.219  1.00  0.00     0.167 HD
ATOM     62  C   UNL     1     -10.015  -9.564   0.132  1.00  0.00     0.074 A 
ATOM     63  C   UNL     1      -9.858 -10.262   1.391  1.00  0.00     0.031 C 
ATOM     64  C   UNL     1     -11.212  -9.290  -0.442  1.00  0.00     0.034 A 
BRANCH  51  65
ATOM     65  C   UNL     1     -10.809  -6.024  -5.669  1.00  0.00     0.023 A 
ATOM     66  C   UNL     1     -10.807  -6.610  -6.951  1.00  0.00     0.012 A 
ATOM     67  C   UNL     1     -11.558  -4.851  -5.447  1.00  0.00     0.148 A 
ATOM     68  C   UNL     1     -11.512  -6.025  -8.002  1.00  0.00     0.002 A 
ATOM     69  C   UNL     1     -12.295  -4.299  -6.489  1.00  0.00     0.091 A 
ATOM     70  F   UNL     1     -11.536  -4.300  -4.226  1.00  0.00    -0.205 F 
ATOM     71  C   UNL     1     -12.264  -4.878  -7.768  1.00  0.00     0.022 A 
BRANCH  69  72
ATOM     72  S   UNL     1     -13.361  -2.868  -6.275  1.00  0.00     0.127 S 
ATOM     73  O   UNL     1     -12.671  -1.864  -7.085  1.00  0.00    -0.237 OA
ATOM     74  O   UNL     1     -14.626  -3.342  -6.839  1.00  0.00    -0.237 OA
ATOM     75  O   UNL     1     -13.392  -2.597  -4.846  1.00  0.00    -0.744 OA
ENDBRANCH  69  72
ENDBRANCH  51  65
BRANCH  52  76
ATOM     76  C   UNL     1      -5.658 -10.307   1.746  1.00  0.00     0.023 A 
ATOM     77  C   UNL     1      -5.742 -11.697   1.964  1.00  0.00     0.012 A 
ATOM     78  C   UNL     1      -4.872  -9.525   2.614  1.00  0.00     0.148 A 
ATOM     79  C   UNL     1      -5.097 -12.289   3.050  1.00  0.00     0.002 A 
ATOM     80  C   UNL     1      -4.184 -10.129   3.660  1.00  0.00     0.091 A 
ATOM     81  F   UNL     1      -4.813  -8.203   2.400  1.00  0.00    -0.205 F 
ATOM     82  C   UNL     1      -4.312 -11.507   3.893  1.00  0.00     0.022 A 
BRANCH  80  83
ATOM     83  S   UNL     1      -3.050  -9.217   4.712  1.00  0.00     0.127 S 
ATOM     84  O   UNL     1      -3.807  -9.125   5.959  1.00  0.00    -0.237 OA
ATOM     85  O   UNL     1      -1.893 -10.113   4.759  1.00  0.00    -0.237 OA
ATOM     86  O   UNL     1      -2.804  -7.959   4.024  1.00  0.00    -0.744 OA
ENDBRANCH  80  83
ENDBRANCH  52  76
BRANCH  64  87
ATOM     87  C   UNL     1     -12.452  -9.792   0.251  1.00  0.00     0.023 A 
ATOM     88  C   UNL     1     -12.881  -9.194   1.452  1.00  0.00     0.012 A 
ATOM     89  C   UNL     1     -13.229 -10.815  -0.329  1.00  0.00     0.148 A 
ATOM     90  C   UNL     1     -14.043  -9.632   2.085  1.00  0.00     0.002 A 
ATOM     91  C   UNL     1     -14.413 -11.210   0.280  1.00  0.00     0.091 A 
ATOM     92  F   UNL     1     -12.794 -11.384  -1.463  1.00  0.00    -0.205 F 
ATOM     93  C   UNL     1     -14.815 -10.630   1.494  1.00  0.00     0.022 A 
BRANCH  91  94
ATOM     94  S   UNL     1     -15.521 -12.415  -0.459  1.00  0.00     0.127 S 
ATOM     95  O   UNL     1     -15.338 -13.567   0.423  1.00  0.00    -0.237 OA
ATOM     96  O   UNL     1     -16.821 -11.755  -0.339  1.00  0.00    -0.237 OA
ATOM     97  O   UNL     1     -15.060 -12.598  -1.829  1.00  0.00    -0.744 OA
ENDBRANCH  91  94
ENDBRANCH  64  87
ENDBRANCH  38  39
ENDBRANCH  30  33
ENDBRANCH  28  29
ENDBRANCH  27  28
ENDBRANCH  26  27
ENDBRANCH  25  26
ENDBRANCH   1  25
TORSDOF 21
