REMARK SMILES COc1ccc(-c2nc(NCC(=O)NCCCCCCNC(=O)c3ccc(-c4c5nc(c(-c6cccc(S(=O)(=O)[O-])c6F)c6ccc([nH]6)c(-c6cccc(S(=O)(=O)[O-])c6F)c6nc(c(-c7cccc(S(=O)(=O)[O-])c7F)c7ccc4[nH]7)C=C6)C=C5)cc3)sc2-c2ccc(OC)cc2)cc1
REMARK SMILES IDX 17 1 16 2 15 3 14 4 12 5 13 6 11 8 10 9 9 11 7 12 8 13 88 14
REMARK SMILES IDX 87 15 6 16 3 17 4 18 98 19 5 20 97 21 2 22 1 23 89 24 90 25
REMARK SMILES IDX 96 26 91 27 95 28 92 29 93 30 94 31 18 32 19 33 20 34 21 35
REMARK SMILES IDX 22 36 23 38 24 39 25 40 86 41 26 42 85 43 27 44 28 45 29 46
REMARK SMILES IDX 79 47 30 48 84 49 78 50 80 51 31 52 83 53 77 54 76 55 32 57
REMARK SMILES IDX 64 58 44 59 63 60 45 61 48 62 62 63 81 64 46 65 47 66 61 68
REMARK SMILES IDX 82 69 49 70 33 71 34 72 42 73 35 74 37 75 43 76 36 77 38 78
REMARK SMILES IDX 39 79 40 80 41 81 65 82 66 83 74 84 67 85 69 86 75 87 68 88
REMARK SMILES IDX 70 89 71 90 72 91 73 92 50 93 51 94 59 95 52 96 54 97 60 98
REMARK SMILES IDX 53 99 55 100 56 101 57 102 58 103
REMARK H PARENT 14 7 10 10 21 37 80 56 48 67
REMARK Flexibility Score: inf
ROOT
ATOM      1  C   UNL     1       7.383  -2.971   7.953  1.00  0.00     0.002 C 
ENDROOT
BRANCH   1   2
ATOM      2  C   UNL     1       6.062  -2.192   8.007  1.00  0.00     0.021 C 
BRANCH   2   3
ATOM      3  C   UNL     1       5.339  -2.332   9.345  1.00  0.00     0.116 C 
BRANCH   3   4
ATOM      4  N   UNL     1       6.003  -1.557  10.375  1.00  0.00    -0.355 N 
ATOM      5  C   UNL     1       5.599  -0.386  10.952  1.00  0.00     0.239 C 
ATOM      6  O   UNL     1       6.369   0.175  11.737  1.00  0.00    -0.273 OA
ATOM      7  H   UNL     1       6.856  -1.923  10.702  1.00  0.00     0.163 HD
BRANCH   5   8
ATOM      8  C   UNL     1       4.195   0.165  10.676  1.00  0.00     0.215 C 
BRANCH   8   9
ATOM      9  N   UNL     1       4.028   0.586   9.294  1.00  0.00    -0.352 N 
ATOM     10  H   UNL     1       4.690   1.219   8.931  1.00  0.00     0.163 HD
BRANCH   9  11
ATOM     11  C   UNL     1       3.039   0.180   8.467  1.00  0.00     0.184 A 
ATOM     12  C   UNL     1       1.973  -0.098   6.542  1.00  0.00     0.091 A 
ATOM     13  N   UNL     1       3.023   0.527   7.200  1.00  0.00    -0.220 NA
ATOM     14  C   UNL     1       1.245  -0.998   7.306  1.00  0.00     0.064 A 
ATOM     15  S   UNL     1       1.735  -0.854   8.936  1.00  0.00    -0.096 S 
BRANCH  12  16
ATOM     16  C   UNL     1       1.671   0.174   5.144  1.00  0.00     0.002 A 
ATOM     17  C   UNL     1       1.003   0.561   2.444  1.00  0.00     0.118 A 
ATOM     18  C   UNL     1       0.054   0.785   3.441  1.00  0.00     0.047 A 
ATOM     19  C   UNL     1       2.297   0.172   2.798  1.00  0.00     0.047 A 
ATOM     20  C   UNL     1       0.383   0.590   4.781  1.00  0.00     0.014 A 
ATOM     21  C   UNL     1       2.634  -0.014   4.147  1.00  0.00     0.014 A 
BRANCH  17  22
ATOM     22  O   UNL     1       0.574   0.811   1.171  1.00  0.00    -0.497 OA
ATOM     23  C   UNL     1       1.135  -0.021   0.159  1.00  0.00     0.278 C 
ENDBRANCH  17  22
ENDBRANCH  12  16
BRANCH  14  24
ATOM     24  C   UNL     1       0.209  -1.957   6.915  1.00  0.00    -0.006 A 
ATOM     25  C   UNL     1      -1.048  -1.970   7.527  1.00  0.00     0.013 A 
ATOM     26  C   UNL     1       0.458  -2.857   5.867  1.00  0.00     0.013 A 
ATOM     27  C   UNL     1      -2.042  -2.838   7.069  1.00  0.00     0.047 A 
ATOM     28  C   UNL     1      -0.540  -3.723   5.410  1.00  0.00     0.047 A 
ATOM     29  C   UNL     1      -1.801  -3.704   5.999  1.00  0.00     0.118 A 
BRANCH  29  30
ATOM     30  O   UNL     1      -2.876  -4.457   5.621  1.00  0.00    -0.497 OA
ATOM     31  C   UNL     1      -2.673  -5.372   4.545  1.00  0.00     0.278 C 
ENDBRANCH  29  30
ENDBRANCH  14  24
ENDBRANCH   9  11
ENDBRANCH   8   9
ENDBRANCH   5   8
ENDBRANCH   3   4
ENDBRANCH   2   3
ENDBRANCH   1   2
BRANCH   1  32
ATOM     32  C   UNL     1       7.245  -4.481   8.182  1.00  0.00     0.002 C 
BRANCH  32  33
ATOM     33  C   UNL     1       6.274  -5.190   7.235  1.00  0.00     0.021 C 
BRANCH  33  34
ATOM     34  C   UNL     1       6.648  -5.083   5.760  1.00  0.00     0.116 C 
BRANCH  34  35
ATOM     35  N   UNL     1       7.927  -5.721   5.479  1.00  0.00    -0.352 N 
ATOM     36  C   UNL     1       8.222  -6.702   4.569  1.00  0.00     0.251 C 
ATOM     37  H   UNL     1       8.686  -5.402   6.019  1.00  0.00     0.163 HD
ATOM     38  O   UNL     1       9.309  -7.278   4.614  1.00  0.00    -0.269 OA
BRANCH  36  39
ATOM     39  C   UNL     1       7.227  -7.074   3.543  1.00  0.00     0.039 A 
ATOM     40  C   UNL     1       6.985  -8.426   3.288  1.00  0.00     0.014 A 
ATOM     41  C   UNL     1       6.532  -6.088   2.837  1.00  0.00     0.014 A 
ATOM     42  C   UNL     1       6.002  -8.789   2.364  1.00  0.00     0.010 A 
ATOM     43  C   UNL     1       5.502  -6.452   1.975  1.00  0.00     0.010 A 
ATOM     44  C   UNL     1       5.229  -7.805   1.724  1.00  0.00    -0.014 A 
BRANCH  44  45
ATOM     45  C   UNL     1       4.126  -8.171   0.799  1.00  0.00     0.031 A 
ATOM     46  C   UNL     1       4.177  -7.749  -0.645  1.00  0.00     0.074 A 
ATOM     47  C   UNL     1       3.036  -8.803   1.279  1.00  0.00     0.049 A 
ATOM     48  N   UNL     1       3.278  -7.910  -1.581  1.00  0.00    -0.248 NA
ATOM     49  C   UNL     1       5.382  -7.030  -1.092  1.00  0.00     0.031 C 
ATOM     50  C   UNL     1       2.832  -9.198   2.675  1.00  0.00     0.029 A 
ATOM     51  N   UNL     1       1.879  -9.197   0.653  1.00  0.00    -0.354 N 
ATOM     52  C   UNL     1       3.787  -7.280  -2.710  1.00  0.00     0.074 A 
ATOM     53  C   UNL     1       5.063  -6.712  -2.339  1.00  0.00     0.031 C 
ATOM     54  C   UNL     1       1.626  -9.775   2.799  1.00  0.00     0.029 A 
ATOM     55  C   UNL     1       0.955  -9.759   1.503  1.00  0.00     0.049 A 
ATOM     56  H   UNL     1       1.726  -9.088  -0.313  1.00  0.00     0.167 HD
ATOM     57  C   UNL     1       3.250  -7.201  -3.950  1.00  0.00     0.034 A 
ATOM     58  C   UNL     1      -0.300 -10.195   1.271  1.00  0.00     0.034 A 
ATOM     59  C   UNL     1       2.002  -7.806  -4.329  1.00  0.00     0.049 A 
ATOM     60  C   UNL     1      -0.853 -10.125  -0.126  1.00  0.00     0.074 A 
ATOM     61  C   UNL     1       1.425  -7.865  -5.586  1.00  0.00     0.029 A 
ATOM     62  N   UNL     1       1.134  -8.444  -3.459  1.00  0.00    -0.354 N 
ATOM     63  N   UNL     1      -0.287  -9.666  -1.215  1.00  0.00    -0.248 NA
ATOM     64  C   UNL     1      -2.206 -10.662  -0.335  1.00  0.00     0.031 C 
ATOM     65  C   UNL     1       0.188  -8.504  -5.468  1.00  0.00     0.029 A 
ATOM     66  C   UNL     1       0.016  -8.883  -4.147  1.00  0.00     0.049 A 
ATOM     67  H   UNL     1       1.288  -8.568  -2.495  1.00  0.00     0.167 HD
ATOM     68  C   UNL     1      -1.194  -9.898  -2.242  1.00  0.00     0.074 A 
ATOM     69  C   UNL     1      -2.340 -10.555  -1.649  1.00  0.00     0.031 C 
ATOM     70  C   UNL     1      -1.093  -9.585  -3.557  1.00  0.00     0.034 A 
BRANCH  57  71
ATOM     71  C   UNL     1       4.020  -6.462  -5.013  1.00  0.00     0.023 A 
ATOM     72  C   UNL     1       5.190  -7.031  -5.554  1.00  0.00     0.012 A 
ATOM     73  C   UNL     1       3.529  -5.253  -5.542  1.00  0.00     0.148 A 
ATOM     74  C   UNL     1       5.872  -6.397  -6.592  1.00  0.00     0.002 A 
ATOM     75  C   UNL     1       4.186  -4.651  -6.607  1.00  0.00     0.091 A 
ATOM     76  F   UNL     1       2.425  -4.720  -4.998  1.00  0.00    -0.205 F 
ATOM     77  C   UNL     1       5.363  -5.216  -7.127  1.00  0.00     0.022 A 
BRANCH  75  78
ATOM     78  S   UNL     1       3.567  -3.175  -7.421  1.00  0.00     0.127 S 
ATOM     79  O   UNL     1       4.603  -2.198  -7.085  1.00  0.00    -0.237 OA
ATOM     80  O   UNL     1       3.546  -3.586  -8.825  1.00  0.00    -0.237 OA
ATOM     81  O   UNL     1       2.258  -2.913  -6.840  1.00  0.00    -0.744 OA
ENDBRANCH  75  78
ENDBRANCH  57  71
BRANCH  58  82
ATOM     82  C   UNL     1      -1.115 -10.767   2.380  1.00  0.00     0.023 A 
ATOM     83  C   UNL     1      -1.445 -12.136   2.373  1.00  0.00     0.012 A 
ATOM     84  C   UNL     1      -1.572  -9.959   3.438  1.00  0.00     0.148 A 
ATOM     85  C   UNL     1      -2.252 -12.680   3.373  1.00  0.00     0.002 A 
ATOM     86  C   UNL     1      -2.321 -10.521   4.465  1.00  0.00     0.091 A 
ATOM     87  F   UNL     1      -1.270  -8.652   3.419  1.00  0.00    -0.205 F 
ATOM     88  C   UNL     1      -2.681 -11.875   4.425  1.00  0.00     0.022 A 
BRANCH  86  89
ATOM     89  S   UNL     1      -2.785  -9.578   5.920  1.00  0.00     0.127 S 
ATOM     90  O   UNL     1      -4.188  -9.281   5.646  1.00  0.00    -0.237 OA
ATOM     91  O   UNL     1      -2.552 -10.540   6.997  1.00  0.00    -0.237 OA
ATOM     92  O   UNL     1      -1.880  -8.437   5.934  1.00  0.00    -0.744 OA
ENDBRANCH  86  89
ENDBRANCH  58  82
BRANCH  70  93
ATOM     93  C   UNL     1      -2.224  -9.991  -4.465  1.00  0.00     0.023 A 
ATOM     94  C   UNL     1      -3.462  -9.324  -4.397  1.00  0.00     0.012 A 
ATOM     95  C   UNL     1      -2.027 -10.986  -5.443  1.00  0.00     0.148 A 
ATOM     96  C   UNL     1      -4.498  -9.664  -5.266  1.00  0.00     0.002 A 
ATOM     97  C   UNL     1      -3.044 -11.282  -6.341  1.00  0.00     0.091 A 
ATOM     98  F   UNL     1      -0.846 -11.621  -5.480  1.00  0.00    -0.205 F 
ATOM     99  C   UNL     1      -4.285 -10.632  -6.245  1.00  0.00     0.022 A 
BRANCH  97 100
ATOM    100  S   UNL     1      -2.828 -12.440  -7.696  1.00  0.00     0.127 S 
ATOM    101  O   UNL     1      -3.681 -13.550  -7.278  1.00  0.00    -0.237 OA
ATOM    102  O   UNL     1      -3.334 -11.677  -8.837  1.00  0.00    -0.237 OA
ATOM    103  O   UNL     1      -1.402 -12.736  -7.750  1.00  0.00    -0.744 OA
ENDBRANCH  97 100
ENDBRANCH  70  93
ENDBRANCH  44  45
ENDBRANCH  36  39
ENDBRANCH  34  35
ENDBRANCH  33  34
ENDBRANCH  32  33
ENDBRANCH   1  32
TORSDOF 22
