REMARK SMILES C/C(=C\C(=O)NCCCCCCNC(=O)c1ccc(-c2c3nc(c(-c4cccc(S(=O)(=O)[O-])c4F)c4ccc([nH]4)c(-c4cccc(S(=O)(=O)[O-])c4F)c4nc(c(-c5cccc(S(=O)(=O)[O-])c5F)c5ccc2[nH]5)C=C4)C=C3)cc1)CSc1ccc(N)c(C)c1
REMARK SMILES IDX 9 1 8 2 7 3 6 4 4 5 5 6 3 8 1 9 2 10 79 11 80 12 81 13 82 14
REMARK SMILES IDX 88 15 83 16 86 17 84 18 87 19 85 20 10 23 11 24 12 25 13 26
REMARK SMILES IDX 14 27 15 29 16 30 17 31 78 32 18 33 77 34 19 35 20 36 21 37
REMARK SMILES IDX 71 38 22 39 76 40 70 41 72 42 23 43 75 44 69 45 68 46 24 48
REMARK SMILES IDX 56 49 36 50 55 51 37 52 40 53 54 54 73 55 38 56 39 57 53 59
REMARK SMILES IDX 74 60 41 61 25 62 26 63 34 64 27 65 29 66 35 67 28 68 30 69
REMARK SMILES IDX 31 70 32 71 33 72 57 73 58 74 66 75 59 76 61 77 67 78 60 79
REMARK SMILES IDX 62 80 63 81 64 82 65 83 42 84 43 85 51 86 44 87 46 88 52 89
REMARK SMILES IDX 45 90 47 91 48 92 49 93 50 94
REMARK H PARENT 6 7 85 21 85 22 13 28 72 47 40 58
REMARK Flexibility Score: inf
ROOT
ATOM      1  C   UNL     1      -0.455  -0.966  -3.876  1.00  0.00     0.002 C 
ENDROOT
BRANCH   1   2
ATOM      2  C   UNL     1      -0.273  -0.700  -2.376  1.00  0.00     0.021 C 
BRANCH   2   3
ATOM      3  C   UNL     1       0.499   0.586  -2.084  1.00  0.00     0.116 C 
BRANCH   3   4
ATOM      4  N   UNL     1      -0.356   1.666  -1.663  1.00  0.00    -0.353 N 
ATOM      5  C   UNL     1      -0.678   2.213  -0.478  1.00  0.00     0.243 C 
ATOM      6  O   UNL     1      -1.425   3.200  -0.521  1.00  0.00    -0.270 OA
ATOM      7  H   UNL     1      -0.811   2.105  -2.418  1.00  0.00     0.163 HD
BRANCH   5   8
ATOM      8  C   UNL     1      -0.278   1.747   0.880  1.00  0.00     0.071 C 
ATOM      9  C   UNL     1       1.621   0.027   0.949  1.00  0.00     0.040 C 
ATOM     10  C   UNL     1       0.563   0.915   1.531  1.00  0.00    -0.058 C 
BRANCH  10  11
ATOM     11  C   UNL     1       0.541   0.910   3.053  1.00  0.00     0.105 C 
BRANCH  11  12
ATOM     12  S   UNL     1      -0.027  -0.682   3.736  1.00  0.00    -0.122 SA
BRANCH  12  13
ATOM     13  C   UNL     1      -1.762  -0.751   3.321  1.00  0.00     0.008 A 
ATOM     14  C   UNL     1      -2.593   0.362   3.225  1.00  0.00     0.017 A 
ATOM     15  C   UNL     1      -2.334  -2.021   3.174  1.00  0.00     0.020 A 
ATOM     16  C   UNL     1      -3.958   0.208   2.957  1.00  0.00     0.027 A 
ATOM     17  C   UNL     1      -3.709  -2.188   2.918  1.00  0.00    -0.027 A 
ATOM     18  C   UNL     1      -4.529  -1.057   2.784  1.00  0.00     0.034 A 
ATOM     19  C   UNL     1      -4.265  -3.584   2.835  1.00  0.00     0.046 C 
BRANCH  18  20
ATOM     20  N   UNL     1      -5.906  -1.160   2.633  1.00  0.00    -0.399 N 
ATOM     21  H   UNL     1      -6.453  -0.347   2.542  1.00  0.00     0.156 HD
ATOM     22  H   UNL     1      -6.335  -2.046   2.618  1.00  0.00     0.156 HD
ENDBRANCH  18  20
ENDBRANCH  12  13
ENDBRANCH  11  12
ENDBRANCH  10  11
ENDBRANCH   5   8
ENDBRANCH   3   4
ENDBRANCH   2   3
ENDBRANCH   1   2
BRANCH   1  23
ATOM     23  C   UNL     1       0.847  -1.066  -4.686  1.00  0.00     0.002 C 
BRANCH  23  24
ATOM     24  C   UNL     1       1.848  -2.111  -4.189  1.00  0.00     0.021 C 
BRANCH  24  25
ATOM     25  C   UNL     1       1.328  -3.544  -4.220  1.00  0.00     0.116 C 
BRANCH  25  26
ATOM     26  N   UNL     1       0.941  -3.944  -5.566  1.00  0.00    -0.352 N 
ATOM     27  C   UNL     1       1.437  -4.950  -6.355  1.00  0.00     0.251 C 
ATOM     28  H   UNL     1       0.216  -3.414  -5.968  1.00  0.00     0.163 HD
ATOM     29  O   UNL     1       1.178  -4.973  -7.554  1.00  0.00    -0.269 OA
BRANCH  27  30
ATOM     30  C   UNL     1       2.278  -6.007  -5.755  1.00  0.00     0.039 A 
ATOM     31  C   UNL     1       3.413  -6.447  -6.441  1.00  0.00     0.014 A 
ATOM     32  C   UNL     1       1.926  -6.582  -4.532  1.00  0.00     0.014 A 
ATOM     33  C   UNL     1       4.220  -7.436  -5.875  1.00  0.00     0.010 A 
ATOM     34  C   UNL     1       2.771  -7.512  -3.936  1.00  0.00     0.010 A 
ATOM     35  C   UNL     1       3.917  -7.959  -4.607  1.00  0.00    -0.014 A 
BRANCH  35  36
ATOM     36  C   UNL     1       4.785  -8.977  -3.964  1.00  0.00     0.031 A 
ATOM     37  C   UNL     1       4.244 -10.348  -3.662  1.00  0.00     0.074 A 
ATOM     38  C   UNL     1       6.027  -8.634  -3.569  1.00  0.00     0.049 A 
ATOM     39  N   UNL     1       4.825 -11.347  -3.049  1.00  0.00    -0.248 NA
ATOM     40  C   UNL     1       2.857 -10.625  -4.075  1.00  0.00     0.031 C 
ATOM     41  C   UNL     1       6.631  -7.310  -3.733  1.00  0.00     0.029 A 
ATOM     42  N   UNL     1       6.993  -9.362  -2.923  1.00  0.00    -0.354 N 
ATOM     43  C   UNL     1       3.868 -12.352  -2.970  1.00  0.00     0.074 A 
ATOM     44  C   UNL     1       2.657 -11.832  -3.565  1.00  0.00     0.031 C 
ATOM     45  C   UNL     1       7.864  -7.321  -3.203  1.00  0.00     0.029 A 
ATOM     46  C   UNL     1       8.129  -8.640  -2.638  1.00  0.00     0.049 A 
ATOM     47  H   UNL     1       6.885 -10.312  -2.685  1.00  0.00     0.167 HD
ATOM     48  C   UNL     1       3.995 -13.605  -2.473  1.00  0.00     0.034 A 
ATOM     49  C   UNL     1       9.253  -8.999  -1.988  1.00  0.00     0.034 A 
ATOM     50  C   UNL     1       5.216 -14.131  -1.925  1.00  0.00     0.049 A 
ATOM     51  C   UNL     1       9.386 -10.413  -1.490  1.00  0.00     0.074 A 
ATOM     52  C   UNL     1       5.477 -15.415  -1.481  1.00  0.00     0.029 A 
ATOM     53  N   UNL     1       6.378 -13.398  -1.739  1.00  0.00    -0.354 N 
ATOM     54  N   UNL     1       8.526 -11.400  -1.571  1.00  0.00    -0.248 NA
ATOM     55  C   UNL     1      10.656 -10.774  -0.846  1.00  0.00     0.031 C 
ATOM     56  C   UNL     1       6.792 -15.452  -1.005  1.00  0.00     0.029 A 
ATOM     57  C   UNL     1       7.358 -14.199  -1.179  1.00  0.00     0.049 A 
ATOM     58  H   UNL     1       6.490 -12.448  -1.971  1.00  0.00     0.167 HD
ATOM     59  C   UNL     1       9.164 -12.507  -1.023  1.00  0.00     0.074 A 
ATOM     60  C   UNL     1      10.490 -12.073  -0.632  1.00  0.00     0.031 C 
ATOM     61  C   UNL     1       8.691 -13.765  -0.846  1.00  0.00     0.034 A 
BRANCH  48  62
ATOM     62  C   UNL     1       2.796 -14.515  -2.551  1.00  0.00     0.023 A 
ATOM     63  C   UNL     1       2.378 -15.010  -3.804  1.00  0.00     0.012 A 
ATOM     64  C   UNL     1       2.119 -14.927  -1.386  1.00  0.00     0.148 A 
ATOM     65  C   UNL     1       1.285 -15.869  -3.901  1.00  0.00     0.002 A 
ATOM     66  C   UNL     1       1.058 -15.821  -1.487  1.00  0.00     0.091 A 
ATOM     67  F   UNL     1       2.516 -14.431  -0.206  1.00  0.00    -0.205 F 
ATOM     68  C   UNL     1       0.632 -16.282  -2.743  1.00  0.00     0.022 A 
BRANCH  66  69
ATOM     69  S   UNL     1       0.203 -16.476  -0.050  1.00  0.00     0.127 S 
ATOM     70  O   UNL     1      -1.095 -15.809  -0.149  1.00  0.00    -0.237 OA
ATOM     71  O   UNL     1       0.173 -17.911  -0.337  1.00  0.00    -0.237 OA
ATOM     72  O   UNL     1       1.010 -16.104   1.103  1.00  0.00    -0.744 OA
ENDBRANCH  66  69
ENDBRANCH  48  62
BRANCH  49  73
ATOM     73  C   UNL     1      10.369  -8.023  -1.838  1.00  0.00     0.023 A 
ATOM     74  C   UNL     1      11.557  -8.215  -2.569  1.00  0.00     0.012 A 
ATOM     75  C   UNL     1      10.249  -6.894  -1.006  1.00  0.00     0.148 A 
ATOM     76  C   UNL     1      12.619  -7.318  -2.449  1.00  0.00     0.002 A 
ATOM     77  C   UNL     1      11.290  -5.974  -0.933  1.00  0.00     0.091 A 
ATOM     78  F   UNL     1       9.114  -6.734  -0.311  1.00  0.00    -0.205 F 
ATOM     79  C   UNL     1      12.482  -6.193  -1.640  1.00  0.00     0.022 A 
BRANCH  77  80
ATOM     80  S   UNL     1      11.149  -4.431  -0.024  1.00  0.00     0.127 S 
ATOM     81  O   UNL     1      12.040  -4.669   1.109  1.00  0.00    -0.237 OA
ATOM     82  O   UNL     1      11.639  -3.458  -1.001  1.00  0.00    -0.237 OA
ATOM     83  O   UNL     1       9.735  -4.294   0.299  1.00  0.00    -0.744 OA
ENDBRANCH  77  80
ENDBRANCH  49  73
BRANCH  61  84
ATOM     84  C   UNL     1       9.620 -14.781  -0.236  1.00  0.00     0.023 A 
ATOM     85  C   UNL     1       9.934 -14.710   1.136  1.00  0.00     0.012 A 
ATOM     86  C   UNL     1      10.118 -15.850  -1.006  1.00  0.00     0.148 A 
ATOM     87  C   UNL     1      10.757 -15.670   1.724  1.00  0.00     0.002 A 
ATOM     88  C   UNL     1      10.896 -16.830  -0.402  1.00  0.00     0.091 A 
ATOM     89  F   UNL     1       9.823 -15.889  -2.314  1.00  0.00    -0.205 F 
ATOM     90  C   UNL     1      11.227 -16.735   0.959  1.00  0.00     0.022 A 
BRANCH  88  91
ATOM     91  S   UNL     1      11.462 -18.288  -1.286  1.00  0.00     0.127 S 
ATOM     92  O   UNL     1      12.890 -18.011  -1.433  1.00  0.00    -0.237 OA
ATOM     93  O   UNL     1      11.143 -19.364  -0.345  1.00  0.00    -0.237 OA
ATOM     94  O   UNL     1      10.701 -18.327  -2.527  1.00  0.00    -0.744 OA
ENDBRANCH  88  91
ENDBRANCH  61  84
ENDBRANCH  35  36
ENDBRANCH  27  30
ENDBRANCH  25  26
ENDBRANCH  24  25
ENDBRANCH  23  24
ENDBRANCH   1  23
TORSDOF 20
