REMARK SMILES Cc1c(Cl)cccc1S(=O)(=O)N[C@H]1C=C[C@@H](C(=O)NCCCCCCNC(=O)c2ccc(-c3c4nc(c(-c5cccc(S(=O)(=O)[O-])c5F)c5ccc([nH]5)c(-c5cccc(S(=O)(=O)[O-])c5F)c5nc(c(-c6cccc(S(=O)(=O)[O-])c6F)c6ccc3[nH]6)C=C5)C=C4)cc2)C1
REMARK SMILES IDX 22 1 21 2 20 3 19 4 17 5 18 6 16 8 13 9 14 10 92 11 15 12
REMARK SMILES IDX 12 13 9 15 10 16 11 17 8 18 1 19 2 20 3 21 4 22 5 23 7 24
REMARK SMILES IDX 6 25 23 26 24 27 25 28 26 29 27 30 28 32 29 33 30 34 91 35
REMARK SMILES IDX 31 36 90 37 32 38 33 39 34 40 84 41 35 42 89 43 83 44 85 45
REMARK SMILES IDX 36 46 88 47 82 48 81 49 37 51 69 52 49 53 68 54 50 55 53 56
REMARK SMILES IDX 67 57 86 58 51 59 52 60 66 62 87 63 54 64 38 65 39 66 47 67
REMARK SMILES IDX 40 68 42 69 48 70 41 71 43 72 44 73 45 74 46 75 70 76 71 77
REMARK SMILES IDX 79 78 72 79 74 80 80 81 73 82 75 83 76 84 77 85 78 86 55 87
REMARK SMILES IDX 56 88 64 89 57 90 59 91 65 92 58 93 60 94 61 95 62 96 63 97
REMARK H PARENT 19 7 12 14 26 31 85 50 53 61
REMARK Flexibility Score: inf
ROOT
ATOM      1  C   UNL     1       2.416   2.314   3.480  1.00  0.00     0.002 C 
ENDROOT
BRANCH   1   2
ATOM      2  C   UNL     1       1.471   3.090   2.556  1.00  0.00     0.021 C 
BRANCH   2   3
ATOM      3  C   UNL     1       2.145   3.854   1.410  1.00  0.00     0.116 C 
BRANCH   3   4
ATOM      4  N   UNL     1       2.841   2.990   0.465  1.00  0.00    -0.356 N 
ATOM      5  C   UNL     1       2.845   2.888  -0.890  1.00  0.00     0.226 C 
ATOM      6  O   UNL     1       3.582   2.007  -1.357  1.00  0.00    -0.274 OA
ATOM      7  H   UNL     1       3.437   2.341   0.903  1.00  0.00     0.163 HD
BRANCH   5   8
ATOM      8  C   UNL     1       1.986   3.715  -1.864  1.00  0.00     0.103 C 
ATOM      9  C   UNL     1      -0.469   3.833  -1.658  1.00  0.00     0.093 C 
ATOM     10  C   UNL     1       0.204   5.137  -1.339  1.00  0.00    -0.011 C 
ATOM     11  C   UNL     1       0.670   3.038  -2.299  1.00  0.00     0.042 C 
ATOM     12  C   UNL     1       1.536   5.074  -1.450  1.00  0.00    -0.016 C 
BRANCH   9  13
ATOM     13  N   UNL     1      -0.910   3.222  -0.397  1.00  0.00    -0.204 NA
ATOM     14  H   UNL     1      -0.128   2.674  -0.039  1.00  0.00     0.142 HD
BRANCH  13  15
ATOM     15  S   UNL     1      -2.255   2.212  -0.416  1.00  0.00     0.241 S 
ATOM     16  O   UNL     1      -2.881   2.329  -1.716  1.00  0.00    -0.207 OA
ATOM     17  O   UNL     1      -2.967   2.558   0.796  1.00  0.00    -0.207 OA
BRANCH  15  18
ATOM     18  C   UNL     1      -1.819   0.481  -0.224  1.00  0.00     0.086 A 
ATOM     19  C   UNL     1       0.722   0.646   0.175  1.00  0.00     0.047 C 
ATOM     20  C   UNL     1      -0.554  -0.098  -0.007  1.00  0.00    -0.012 A 
ATOM     21  C   UNL     1      -0.472  -1.512   0.057  1.00  0.00     0.045 A 
ATOM     22  Cl  UNL     1       1.046  -2.333   0.265  1.00  0.00    -0.084 Cl
ATOM     23  C   UNL     1      -1.601  -2.322  -0.043  1.00  0.00     0.021 A 
ATOM     24  C   UNL     1      -2.953  -0.359  -0.310  1.00  0.00     0.022 A 
ATOM     25  C   UNL     1      -2.848  -1.745  -0.214  1.00  0.00     0.003 A 
ENDBRANCH  15  18
ENDBRANCH  13  15
ENDBRANCH   9  13
ENDBRANCH   5   8
ENDBRANCH   3   4
ENDBRANCH   2   3
ENDBRANCH   1   2
BRANCH   1  26
ATOM     26  C   UNL     1       3.161   3.177   4.501  1.00  0.00     0.002 C 
BRANCH  26  27
ATOM     27  C   UNL     1       2.275   4.082   5.364  1.00  0.00     0.021 C 
BRANCH  27  28
ATOM     28  C   UNL     1       1.113   3.378   6.063  1.00  0.00     0.116 C 
BRANCH  28  29
ATOM     29  N   UNL     1       1.573   2.497   7.125  1.00  0.00    -0.352 N 
ATOM     30  C   UNL     1       1.264   2.544   8.463  1.00  0.00     0.251 C 
ATOM     31  H   UNL     1       2.183   1.776   6.850  1.00  0.00     0.163 HD
ATOM     32  O   UNL     1       1.902   1.875   9.270  1.00  0.00    -0.269 OA
BRANCH  30  33
ATOM     33  C   UNL     1       0.166   3.420   8.926  1.00  0.00     0.039 A 
ATOM     34  C   UNL     1       0.392   4.288   9.996  1.00  0.00     0.014 A 
ATOM     35  C   UNL     1      -1.082   3.387   8.295  1.00  0.00     0.014 A 
ATOM     36  C   UNL     1      -0.621   5.160  10.404  1.00  0.00     0.010 A 
ATOM     37  C   UNL     1      -2.068   4.300   8.662  1.00  0.00     0.010 A 
ATOM     38  C   UNL     1      -1.851   5.191   9.725  1.00  0.00    -0.014 A 
BRANCH  38  39
ATOM     39  C   UNL     1      -2.911   6.162  10.106  1.00  0.00     0.031 A 
ATOM     40  C   UNL     1      -4.233   5.681  10.639  1.00  0.00     0.074 A 
ATOM     41  C   UNL     1      -2.712   7.478   9.893  1.00  0.00     0.049 A 
ATOM     42  N   UNL     1      -5.277   6.380  11.005  1.00  0.00    -0.248 NA
ATOM     43  C   UNL     1      -4.418   4.225  10.754  1.00  0.00     0.031 C 
ATOM     44  C   UNL     1      -1.512   8.064   9.293  1.00  0.00     0.029 A 
ATOM     45  N   UNL     1      -3.527   8.558  10.129  1.00  0.00    -0.354 N 
ATOM     46  C   UNL     1      -6.252   5.454  11.356  1.00  0.00     0.074 A 
ATOM     47  C   UNL     1      -5.686   4.142  11.132  1.00  0.00     0.031 C 
ATOM     48  C   UNL     1      -1.669   9.395   9.206  1.00  0.00     0.029 A 
ATOM     49  C   UNL     1      -2.987   9.755   9.722  1.00  0.00     0.049 A 
ATOM     50  H   UNL     1      -4.413   8.482  10.550  1.00  0.00     0.167 HD
ATOM     51  C   UNL     1      -7.496   5.674  11.846  1.00  0.00     0.034 A 
ATOM     52  C   UNL     1      -3.495  11.003   9.754  1.00  0.00     0.034 A 
ATOM     53  C   UNL     1      -8.039   6.980  12.109  1.00  0.00     0.049 A 
ATOM     54  C   UNL     1      -4.854  11.226  10.360  1.00  0.00     0.074 A 
ATOM     55  C   UNL     1      -9.242   7.305  12.711  1.00  0.00     0.029 A 
ATOM     56  N   UNL     1      -7.425   8.176  11.775  1.00  0.00    -0.354 N 
ATOM     57  N   UNL     1      -5.685  10.347  10.865  1.00  0.00    -0.248 NA
ATOM     58  C   UNL     1      -5.328  12.615  10.439  1.00  0.00     0.031 C 
ATOM     59  C   UNL     1      -9.367   8.699  12.714  1.00  0.00     0.029 A 
ATOM     60  C   UNL     1      -8.229   9.242  12.140  1.00  0.00     0.049 A 
ATOM     61  H   UNL     1      -6.545   8.256  11.340  1.00  0.00     0.167 HD
ATOM     62  C   UNL     1      -6.766  11.077  11.346  1.00  0.00     0.074 A 
ATOM     63  C   UNL     1      -6.471  12.473  11.096  1.00  0.00     0.031 C 
ATOM     64  C   UNL     1      -7.908  10.630  11.927  1.00  0.00     0.034 A 
BRANCH  51  65
ATOM     65  C   UNL     1      -8.340   4.471  12.180  1.00  0.00     0.023 A 
ATOM     66  C   UNL     1      -8.005   3.673  13.293  1.00  0.00     0.012 A 
ATOM     67  C   UNL     1      -9.495   4.164  11.434  1.00  0.00     0.148 A 
ATOM     68  C   UNL     1      -8.783   2.567  13.636  1.00  0.00     0.002 A 
ATOM     69  C   UNL     1     -10.290   3.087  11.809  1.00  0.00     0.091 A 
ATOM     70  F   UNL     1      -9.787   4.921  10.367  1.00  0.00    -0.205 F 
ATOM     71  C   UNL     1      -9.929   2.281  12.901  1.00  0.00     0.022 A 
BRANCH  69  72
ATOM     72  S   UNL     1     -11.831   2.686  10.976  1.00  0.00     0.127 S 
ATOM     73  O   UNL     1     -11.465   1.470  10.250  1.00  0.00    -0.237 OA
ATOM     74  O   UNL     1     -12.743   2.473  12.100  1.00  0.00    -0.237 OA
ATOM     75  O   UNL     1     -12.150   3.839  10.146  1.00  0.00    -0.744 OA
ENDBRANCH  69  72
ENDBRANCH  51  65
BRANCH  52  76
ATOM     76  C   UNL     1      -2.680  12.146   9.252  1.00  0.00     0.023 A 
ATOM     77  C   UNL     1      -2.149  13.075  10.168  1.00  0.00     0.012 A 
ATOM     78  C   UNL     1      -2.392  12.291   7.881  1.00  0.00     0.148 A 
ATOM     79  C   UNL     1      -1.371  14.145   9.724  1.00  0.00     0.002 A 
ATOM     80  C   UNL     1      -1.568  13.325   7.452  1.00  0.00     0.091 A 
ATOM     81  F   UNL     1      -2.916  11.402   7.025  1.00  0.00    -0.205 F 
ATOM     82  C   UNL     1      -1.071  14.263   8.370  1.00  0.00     0.022 A 
BRANCH  80  83
ATOM     83  S   UNL     1      -1.016  13.471   5.749  1.00  0.00     0.127 S 
ATOM     84  O   UNL     1      -1.754  14.646   5.294  1.00  0.00    -0.237 OA
ATOM     85  O   UNL     1       0.424  13.673   5.915  1.00  0.00    -0.237 OA
ATOM     86  O   UNL     1      -1.373  12.212   5.110  1.00  0.00    -0.744 OA
ENDBRANCH  80  83
ENDBRANCH  52  76
BRANCH  64  87
ATOM     87  C   UNL     1      -8.922  11.659  12.355  1.00  0.00     0.023 A 
ATOM     88  C   UNL     1      -9.676  12.344  11.382  1.00  0.00     0.012 A 
ATOM     89  C   UNL     1      -9.178  11.896  13.720  1.00  0.00     0.148 A 
ATOM     90  C   UNL     1     -10.644  13.275  11.759  1.00  0.00     0.002 A 
ATOM     91  C   UNL     1     -10.178  12.788  14.089  1.00  0.00     0.091 A 
ATOM     92  F   UNL     1      -8.438  11.248  14.632  1.00  0.00    -0.205 F 
ATOM     93  C   UNL     1     -10.903  13.488  13.111  1.00  0.00     0.022 A 
BRANCH  91  94
ATOM     94  S   UNL     1     -10.645  13.053  15.804  1.00  0.00     0.127 S 
ATOM     95  O   UNL     1     -10.079  14.375  16.066  1.00  0.00    -0.237 OA
ATOM     96  O   UNL     1     -12.106  13.016  15.739  1.00  0.00    -0.237 OA
ATOM     97  O   UNL     1     -10.048  11.956  16.555  1.00  0.00    -0.744 OA
ENDBRANCH  91  94
ENDBRANCH  64  87
ENDBRANCH  38  39
ENDBRANCH  30  33
ENDBRANCH  28  29
ENDBRANCH  27  28
ENDBRANCH  26  27
ENDBRANCH   1  26
TORSDOF 19
