REMARK SMILES Cn1cc(SCC[C@@H]2CCC[C@@]2([NH3+])C(=O)NCCCCCCNC(=O)c2ccc(-c3c4nc(c(-c5cccc(S(=O)(=O)[O-])c5F)c5ccc([nH]5)c(-c5cccc(S(=O)(=O)[O-])c5F)c5nc(c(-c6cccc(S(=O)(=O)[O-])c6F)c6ccc3[nH]6)C=C5)C=C4)cc2)cn1
REMARK SMILES IDX 19 1 18 2 17 3 16 4 14 5 15 6 12 8 8 9 9 10 10 11 11 12 7 13
REMARK SMILES IDX 6 14 5 15 4 16 1 17 2 18 3 19 90 20 89 21 13 22 20 26 21 27
REMARK SMILES IDX 22 28 23 29 24 30 25 32 26 33 27 34 88 35 28 36 87 37 29 38
REMARK SMILES IDX 30 39 31 40 81 41 32 42 86 43 80 44 82 45 33 46 85 47 79 48
REMARK SMILES IDX 78 49 34 51 66 52 46 53 65 54 47 55 50 56 64 57 83 58 48 59
REMARK SMILES IDX 49 60 63 62 84 63 51 64 35 65 36 66 44 67 37 68 39 69 45 70
REMARK SMILES IDX 38 71 40 72 41 73 42 74 43 75 67 76 68 77 76 78 69 79 71 80
REMARK SMILES IDX 77 81 70 82 72 83 73 84 74 85 75 86 52 87 53 88 61 89 54 90
REMARK SMILES IDX 56 91 62 92 55 93 57 94 58 95 59 96 60 97
REMARK H PARENT 16 7 13 23 13 24 13 25 23 31 82 50 50 61
REMARK Flexibility Score: inf
ROOT
ATOM      1  C   UNL     1      -0.879  -8.128  -0.126  1.00  0.00     0.002 C 
ENDROOT
BRANCH   1   2
ATOM      2  C   UNL     1       0.218  -7.130   0.265  1.00  0.00     0.021 C 
BRANCH   2   3
ATOM      3  C   UNL     1      -0.240  -5.673   0.300  1.00  0.00     0.116 C 
BRANCH   3   4
ATOM      4  N   UNL     1      -1.192  -5.448   1.357  1.00  0.00    -0.351 N 
ATOM      5  C   UNL     1      -1.205  -4.644   2.438  1.00  0.00     0.281 C 
ATOM      6  O   UNL     1      -2.128  -4.890   3.236  1.00  0.00    -0.268 OA
ATOM      7  H   UNL     1      -2.004  -5.997   1.271  1.00  0.00     0.163 HD
BRANCH   5   8
ATOM      8  C   UNL     1      -0.198  -3.488   2.775  1.00  0.00     0.176 C 
ATOM      9  C   UNL     1       0.666  -2.733   1.726  1.00  0.00     0.061 C 
ATOM     10  C   UNL     1       0.871  -1.353   2.397  1.00  0.00     0.011 C 
ATOM     11  C   UNL     1      -0.431  -1.018   3.087  1.00  0.00     0.008 C 
ATOM     12  C   UNL     1      -1.174  -2.334   3.190  1.00  0.00     0.079 C 
BRANCH   9  13
ATOM     13  C   UNL     1       2.058  -3.289   1.334  1.00  0.00     0.022 C 
BRANCH  13  14
ATOM     14  C   UNL     1       2.411  -3.133  -0.165  1.00  0.00     0.075 C 
BRANCH  14  15
ATOM     15  S   UNL     1       2.941  -1.484  -0.727  1.00  0.00    -0.123 SA
BRANCH  15  16
ATOM     16  C   UNL     1       1.470  -0.568  -0.862  1.00  0.00     0.045 A 
ATOM     17  C   UNL     1      -2.037   0.076  -0.649  1.00  0.00     0.173 C 
ATOM     18  N   UNL     1      -0.608   0.094  -0.848  1.00  0.00    -0.275 N 
ATOM     19  C   UNL     1       0.188  -0.982  -1.127  1.00  0.00     0.123 A 
ATOM     20  N   UNL     1       0.082   1.223  -0.598  1.00  0.00    -0.181 NA
ATOM     21  C   UNL     1       1.357   0.818  -0.631  1.00  0.00     0.150 A 
ENDBRANCH  15  16
ENDBRANCH  14  15
ENDBRANCH  13  14
ENDBRANCH   9  13
BRANCH   8  22
ATOM     22  N   UNL     1       0.614  -3.923   3.932  1.00  0.00    -0.345 N 
ATOM     23  H   UNL     1       1.280  -3.190   4.175  1.00  0.00     0.345 HD
ATOM     24  H   UNL     1       1.120  -4.776   3.692  1.00  0.00     0.345 HD
ATOM     25  H   UNL     1       0.002  -4.104   4.728  1.00  0.00     0.345 HD
ENDBRANCH   8  22
ENDBRANCH   5   8
ENDBRANCH   3   4
ENDBRANCH   2   3
ENDBRANCH   1   2
BRANCH   1  26
ATOM     26  C   UNL     1      -1.524  -7.875  -1.493  1.00  0.00     0.002 C 
BRANCH  26  27
ATOM     27  C   UNL     1      -0.548  -7.852  -2.671  1.00  0.00     0.021 C 
BRANCH  27  28
ATOM     28  C   UNL     1       0.247  -9.140  -2.858  1.00  0.00     0.116 C 
BRANCH  28  29
ATOM     29  N   UNL     1      -0.614 -10.277  -3.155  1.00  0.00    -0.352 N 
ATOM     30  C   UNL     1      -0.539 -11.166  -4.198  1.00  0.00     0.251 C 
ATOM     31  H   UNL     1      -1.351 -10.428  -2.520  1.00  0.00     0.163 HD
ATOM     32  O   UNL     1      -1.464 -11.947  -4.412  1.00  0.00    -0.269 OA
BRANCH  30  33
ATOM     33  C   UNL     1       0.652 -11.165  -5.071  1.00  0.00     0.039 A 
ATOM     34  C   UNL     1       0.482 -11.195  -6.457  1.00  0.00     0.014 A 
ATOM     35  C   UNL     1       1.934 -11.117  -4.518  1.00  0.00     0.014 A 
ATOM     36  C   UNL     1       1.600 -11.113  -7.291  1.00  0.00     0.010 A 
ATOM     37  C   UNL     1       3.038 -10.959  -5.348  1.00  0.00     0.010 A 
ATOM     38  C   UNL     1       2.884 -10.959  -6.744  1.00  0.00    -0.014 A 
BRANCH  38  39
ATOM     39  C   UNL     1       4.083 -10.784  -7.602  1.00  0.00     0.031 A 
ATOM     40  C   UNL     1       5.199 -11.792  -7.548  1.00  0.00     0.074 A 
ATOM     41  C   UNL     1       4.216  -9.667  -8.345  1.00  0.00     0.049 A 
ATOM     42  N   UNL     1       6.370 -11.757  -8.128  1.00  0.00    -0.248 NA
ATOM     43  C   UNL     1       4.983 -12.982  -6.708  1.00  0.00     0.031 C 
ATOM     44  C   UNL     1       3.232  -8.585  -8.430  1.00  0.00     0.029 A 
ATOM     45  N   UNL     1       5.249  -9.238  -9.142  1.00  0.00    -0.354 N 
ATOM     46  C   UNL     1       7.045 -12.890  -7.692  1.00  0.00     0.074 A 
ATOM     47  C   UNL     1       6.162 -13.581  -6.777  1.00  0.00     0.031 C 
ATOM     48  C   UNL     1       3.712  -7.616  -9.226  1.00  0.00     0.029 A 
ATOM     49  C   UNL     1       5.051  -7.985  -9.674  1.00  0.00     0.049 A 
ATOM     50  H   UNL     1       6.055  -9.776  -9.316  1.00  0.00     0.167 HD
ATOM     51  C   UNL     1       8.278 -13.329  -8.037  1.00  0.00     0.034 A 
ATOM     52  C   UNL     1       5.864  -7.208 -10.418  1.00  0.00     0.034 A 
ATOM     53  C   UNL     1       9.135 -12.658  -8.976  1.00  0.00     0.049 A 
ATOM     54  C   UNL     1       7.221  -7.729 -10.805  1.00  0.00     0.074 A 
ATOM     55  C   UNL     1      10.364 -13.069  -9.461  1.00  0.00     0.029 A 
ATOM     56  N   UNL     1       8.863 -11.432  -9.562  1.00  0.00    -0.354 N 
ATOM     57  N   UNL     1       7.782  -8.874 -10.500  1.00  0.00    -0.248 NA
ATOM     58  C   UNL     1       8.047  -6.868 -11.665  1.00  0.00     0.031 C 
ATOM     59  C   UNL     1      10.853 -12.072 -10.310  1.00  0.00     0.029 A 
ATOM     60  C   UNL     1       9.907 -11.063 -10.391  1.00  0.00     0.049 A 
ATOM     61  H   UNL     1       8.047 -10.902  -9.410  1.00  0.00     0.167 HD
ATOM     62  C   UNL     1       9.003  -8.890 -11.165  1.00  0.00     0.074 A 
ATOM     63  C   UNL     1       9.097  -7.645 -11.897  1.00  0.00     0.031 C 
ATOM     64  C   UNL     1       9.962  -9.848 -11.162  1.00  0.00     0.034 A 
BRANCH  51  65
ATOM     65  C   UNL     1       8.767 -14.615  -7.424  1.00  0.00     0.023 A 
ATOM     66  C   UNL     1       8.185 -15.840  -7.808  1.00  0.00     0.012 A 
ATOM     67  C   UNL     1       9.850 -14.617  -6.523  1.00  0.00     0.148 A 
ATOM     68  C   UNL     1       8.648 -17.044  -7.278  1.00  0.00     0.002 A 
ATOM     69  C   UNL     1      10.339 -15.823  -6.037  1.00  0.00     0.091 A 
ATOM     70  F   UNL     1      10.379 -13.441  -6.156  1.00  0.00    -0.205 F 
ATOM     71  C   UNL     1       9.732 -17.036  -6.403  1.00  0.00     0.022 A 
BRANCH  69  72
ATOM     72  S   UNL     1      11.782 -15.927  -4.973  1.00  0.00     0.127 S 
ATOM     73  O   UNL     1      11.185 -16.360  -3.710  1.00  0.00    -0.237 OA
ATOM     74  O   UNL     1      12.587 -16.946  -5.647  1.00  0.00    -0.237 OA
ATOM     75  O   UNL     1      12.370 -14.595  -4.960  1.00  0.00    -0.744 OA
ENDBRANCH  69  72
ENDBRANCH  51  65
BRANCH  52  76
ATOM     76  C   UNL     1       5.400  -5.869 -10.880  1.00  0.00     0.023 A 
ATOM     77  C   UNL     1       5.141  -5.656 -12.247  1.00  0.00     0.012 A 
ATOM     78  C   UNL     1       5.197  -4.813  -9.970  1.00  0.00     0.148 A 
ATOM     79  C   UNL     1       4.723  -4.406 -12.706  1.00  0.00     0.002 A 
ATOM     80  C   UNL     1       4.725  -3.588 -10.425  1.00  0.00     0.091 A 
ATOM     81  F   UNL     1       5.457  -5.033  -8.674  1.00  0.00    -0.205 F 
ATOM     82  C   UNL     1       4.506  -3.376 -11.795  1.00  0.00     0.022 A 
BRANCH  80  83
ATOM     83  S   UNL     1       4.289  -2.249  -9.310  1.00  0.00     0.127 S 
ATOM     84  O   UNL     1       5.331  -1.268  -9.601  1.00  0.00    -0.237 OA
ATOM     85  O   UNL     1       2.951  -1.889  -9.782  1.00  0.00    -0.237 OA
ATOM     86  O   UNL     1       4.318  -2.826  -7.973  1.00  0.00    -0.744 OA
ENDBRANCH  80  83
ENDBRANCH  52  76
BRANCH  64  87
ATOM     87  C   UNL     1      11.179  -9.633 -12.023  1.00  0.00     0.023 A 
ATOM     88  C   UNL     1      12.157  -8.692 -11.646  1.00  0.00     0.012 A 
ATOM     89  C   UNL     1      11.398 -10.447 -13.152  1.00  0.00     0.148 A 
ATOM     90  C   UNL     1      13.324  -8.549 -12.395  1.00  0.00     0.002 A 
ATOM     91  C   UNL     1      12.586 -10.336 -13.862  1.00  0.00     0.091 A 
ATOM     92  F   UNL     1      10.446 -11.324 -13.501  1.00  0.00    -0.205 F 
ATOM     93  C   UNL     1      13.546  -9.379 -13.492  1.00  0.00     0.022 A 
BRANCH  91  94
ATOM     94  S   UNL     1      13.004 -11.430 -15.224  1.00  0.00     0.127 S 
ATOM     95  O   UNL     1      12.977 -10.513 -16.362  1.00  0.00    -0.237 OA
ATOM     96  O   UNL     1      14.338 -11.896 -14.846  1.00  0.00    -0.237 OA
ATOM     97  O   UNL     1      11.981 -12.467 -15.238  1.00  0.00    -0.744 OA
ENDBRANCH  91  94
ENDBRANCH  64  87
ENDBRANCH  38  39
ENDBRANCH  30  33
ENDBRANCH  28  29
ENDBRANCH  27  28
ENDBRANCH  26  27
ENDBRANCH   1  26
TORSDOF 21
