REMARK SMILES C[C@H](C(=O)NCCCCCCNC(=O)c1ccc(-c2c3nc(c(-c4cccc(S(=O)(=O)[O-])c4F)c4ccc([nH]4)c(-c4cccc(S(=O)(=O)[O-])c4F)c4nc(c(-c5cccc(S(=O)(=O)[O-])c5F)c5ccc2[nH]5)C=C4)C=C3)cc1)[C@H](C)[NH+]1CCN(c2ccccc2Cl)CC1
REMARK SMILES IDX 8 1 7 2 6 3 5 4 3 5 4 6 2 8 1 9 78 10 79 11 80 12 81 13
REMARK SMILES IDX 92 14 82 16 91 17 83 18 84 19 85 20 89 21 86 22 88 23 90 24
REMARK SMILES IDX 87 25 9 26 10 27 11 28 12 29 13 30 14 32 15 33 16 34 77 35
REMARK SMILES IDX 17 36 76 37 18 38 19 39 20 40 70 41 21 42 75 43 69 44 71 45
REMARK SMILES IDX 22 46 74 47 68 48 67 49 23 51 55 52 35 53 54 54 36 55 39 56
REMARK SMILES IDX 53 57 72 58 37 59 38 60 52 62 73 63 40 64 24 65 25 66 33 67
REMARK SMILES IDX 26 68 28 69 34 70 27 71 29 72 30 73 31 74 32 75 56 76 57 77
REMARK SMILES IDX 65 78 58 79 60 80 66 81 59 82 61 83 62 84 63 85 64 86 41 87
REMARK SMILES IDX 42 88 50 89 43 90 45 91 51 92 44 93 46 94 47 95 48 96 49 97
REMARK H PARENT 5 7 80 15 12 31 71 50 39 61
REMARK Flexibility Score: inf
ROOT
ATOM      1  C   UNL     1      -1.971  -3.020  -5.556  1.00  0.00     0.002 C 
ENDROOT
BRANCH   1   2
ATOM      2  C   UNL     1      -2.127  -1.632  -4.923  1.00  0.00     0.021 C 
BRANCH   2   3
ATOM      3  C   UNL     1      -2.371  -1.631  -3.418  1.00  0.00     0.116 C 
BRANCH   3   4
ATOM      4  N   UNL     1      -1.204  -2.100  -2.706  1.00  0.00    -0.356 N 
ATOM      5  C   UNL     1      -0.685  -1.788  -1.496  1.00  0.00     0.228 C 
ATOM      6  O   UNL     1       0.462  -2.208  -1.313  1.00  0.00    -0.275 OA
ATOM      7  H   UNL     1      -0.686  -2.779  -3.196  1.00  0.00     0.163 HD
BRANCH   5   8
ATOM      8  C   UNL     1      -1.386  -0.894  -0.467  1.00  0.00     0.133 C 
ATOM      9  C   UNL     1      -2.909  -0.749  -0.554  1.00  0.00     0.024 C 
BRANCH   8  10
ATOM     10  C   UNL     1      -0.918  -1.199   1.011  1.00  0.00     0.193 C 
ATOM     11  C   UNL     1       0.554  -0.765   1.212  1.00  0.00     0.076 C 
BRANCH  10  12
ATOM     12  N   UNL     1      -1.282  -2.438   1.739  1.00  0.00    -0.329 N 
ATOM     13  C   UNL     1      -2.476  -3.198   1.336  1.00  0.00     0.284 C 
ATOM     14  C   UNL     1      -0.217  -3.401   2.088  1.00  0.00     0.284 C 
ATOM     15  H   UNL     1      -1.527  -1.911   2.577  1.00  0.00     0.348 HD
ATOM     16  C   UNL     1      -2.260  -4.240   0.213  1.00  0.00     0.178 C 
ATOM     17  C   UNL     1       0.124  -4.441   0.999  1.00  0.00     0.178 C 
ATOM     18  N   UNL     1      -1.099  -5.077   0.508  1.00  0.00    -0.359 N 
BRANCH  18  19
ATOM     19  C   UNL     1      -1.049  -6.353  -0.021  1.00  0.00     0.056 A 
ATOM     20  C   UNL     1      -0.921  -6.553  -1.403  1.00  0.00     0.027 A 
ATOM     21  C   UNL     1      -1.193  -7.487   0.802  1.00  0.00     0.064 A 
ATOM     22  C   UNL     1      -0.969  -7.839  -1.951  1.00  0.00     0.002 A 
ATOM     23  C   UNL     1      -1.249  -8.771   0.256  1.00  0.00     0.023 A 
ATOM     24  Cl  UNL     1      -1.359  -7.333   2.521  1.00  0.00    -0.082 Cl
ATOM     25  C   UNL     1      -1.145  -8.945  -1.123  1.00  0.00     0.002 A 
ENDBRANCH  18  19
ENDBRANCH  10  12
ENDBRANCH   8  10
ENDBRANCH   5   8
ENDBRANCH   3   4
ENDBRANCH   2   3
ENDBRANCH   1   2
BRANCH   1  26
ATOM     26  C   UNL     1      -3.178  -3.950  -5.418  1.00  0.00     0.002 C 
BRANCH  26  27
ATOM     27  C   UNL     1      -4.516  -3.361  -5.867  1.00  0.00     0.021 C 
BRANCH  27  28
ATOM     28  C   UNL     1      -4.516  -2.730  -7.255  1.00  0.00     0.116 C 
BRANCH  28  29
ATOM     29  N   UNL     1      -4.162  -3.672  -8.303  1.00  0.00    -0.352 N 
ATOM     30  C   UNL     1      -4.766  -3.861  -9.522  1.00  0.00     0.251 C 
ATOM     31  H   UNL     1      -3.388  -4.250  -8.116  1.00  0.00     0.163 HD
ATOM     32  O   UNL     1      -4.424  -4.795 -10.243  1.00  0.00    -0.269 OA
BRANCH  30  33
ATOM     33  C   UNL     1      -5.850  -2.949  -9.944  1.00  0.00     0.039 A 
ATOM     34  C   UNL     1      -7.038  -3.496 -10.432  1.00  0.00     0.014 A 
ATOM     35  C   UNL     1      -5.705  -1.563  -9.828  1.00  0.00     0.014 A 
ATOM     36  C   UNL     1      -8.104  -2.653 -10.754  1.00  0.00     0.010 A 
ATOM     37  C   UNL     1      -6.794  -0.732 -10.075  1.00  0.00     0.010 A 
ATOM     38  C   UNL     1      -8.002  -1.267 -10.547  1.00  0.00    -0.014 A 
BRANCH  38  39
ATOM     39  C   UNL     1      -9.152  -0.365 -10.813  1.00  0.00     0.031 A 
ATOM     40  C   UNL     1      -9.048   0.707 -11.864  1.00  0.00     0.074 A 
ATOM     41  C   UNL     1     -10.265  -0.464 -10.058  1.00  0.00     0.049 A 
ATOM     42  N   UNL     1      -9.928   1.612 -12.207  1.00  0.00    -0.248 NA
ATOM     43  C   UNL     1      -7.782   0.789 -12.611  1.00  0.00     0.031 C 
ATOM     44  C   UNL     1     -10.461  -1.414  -8.960  1.00  0.00     0.029 A 
ATOM     45  N   UNL     1     -11.433   0.257 -10.084  1.00  0.00    -0.354 N 
ATOM     46  C   UNL     1      -9.314   2.387 -13.184  1.00  0.00     0.074 A 
ATOM     47  C   UNL     1      -7.973   1.872 -13.351  1.00  0.00     0.031 C 
ATOM     48  C   UNL     1     -11.679  -1.225  -8.427  1.00  0.00     0.029 A 
ATOM     49  C   UNL     1     -12.336  -0.121  -9.117  1.00  0.00     0.049 A 
ATOM     50  H   UNL     1     -11.607   0.977 -10.732  1.00  0.00     0.167 HD
ATOM     51  C   UNL     1      -9.828   3.416 -13.899  1.00  0.00     0.034 A 
ATOM     52  C   UNL     1     -13.554   0.372  -8.816  1.00  0.00     0.034 A 
ATOM     53  C   UNL     1     -11.172   3.905 -13.754  1.00  0.00     0.049 A 
ATOM     54  C   UNL     1     -14.108   1.504  -9.639  1.00  0.00     0.074 A 
ATOM     55  C   UNL     1     -11.812   4.891 -14.483  1.00  0.00     0.029 A 
ATOM     56  N   UNL     1     -12.081   3.453 -12.810  1.00  0.00    -0.354 N 
ATOM     57  N   UNL     1     -13.566   2.127 -10.657  1.00  0.00    -0.248 NA
ATOM     58  C   UNL     1     -15.457   1.976  -9.295  1.00  0.00     0.031 C 
ATOM     59  C   UNL     1     -13.098   5.057 -13.959  1.00  0.00     0.029 A 
ATOM     60  C   UNL     1     -13.273   4.147 -12.929  1.00  0.00     0.049 A 
ATOM     61  H   UNL     1     -11.905   2.742 -12.152  1.00  0.00     0.167 HD
ATOM     62  C   UNL     1     -14.521   3.036 -11.099  1.00  0.00     0.074 A 
ATOM     63  C   UNL     1     -15.682   2.868 -10.250  1.00  0.00     0.031 C 
ATOM     64  C   UNL     1     -14.439   3.936 -12.110  1.00  0.00     0.034 A 
BRANCH  51  65
ATOM     65  C   UNL     1      -8.945   4.056 -14.940  1.00  0.00     0.023 A 
ATOM     66  C   UNL     1      -8.618   3.341 -16.111  1.00  0.00     0.012 A 
ATOM     67  C   UNL     1      -8.489   5.380 -14.791  1.00  0.00     0.148 A 
ATOM     68  C   UNL     1      -7.821   3.919 -17.099  1.00  0.00     0.002 A 
ATOM     69  C   UNL     1      -7.736   5.967 -15.801  1.00  0.00     0.091 A 
ATOM     70  F   UNL     1      -8.794   6.038 -13.663  1.00  0.00    -0.205 F 
ATOM     71  C   UNL     1      -7.390   5.234 -16.949  1.00  0.00     0.022 A 
BRANCH  69  72
ATOM     72  S   UNL     1      -7.200   7.680 -15.742  1.00  0.00     0.127 S 
ATOM     73  O   UNL     1      -5.754   7.531 -15.585  1.00  0.00    -0.237 OA
ATOM     74  O   UNL     1      -7.623   8.178 -17.052  1.00  0.00    -0.237 OA
ATOM     75  O   UNL     1      -7.892   8.280 -14.610  1.00  0.00    -0.744 OA
ENDBRANCH  69  72
ENDBRANCH  51  65
BRANCH  52  76
ATOM     76  C   UNL     1     -14.359  -0.242  -7.721  1.00  0.00     0.023 A 
ATOM     77  C   UNL     1     -15.524  -0.966  -8.041  1.00  0.00     0.012 A 
ATOM     78  C   UNL     1     -13.969  -0.128  -6.373  1.00  0.00     0.148 A 
ATOM     79  C   UNL     1     -16.306  -1.535  -7.035  1.00  0.00     0.002 A 
ATOM     80  C   UNL     1     -14.722  -0.745  -5.381  1.00  0.00     0.091 A 
ATOM     81  F   UNL     1     -12.862   0.573  -6.089  1.00  0.00    -0.205 F 
ATOM     82  C   UNL     1     -15.901  -1.433  -5.708  1.00  0.00     0.022 A 
BRANCH  80  83
ATOM     83  S   UNL     1     -14.208  -0.777  -3.660  1.00  0.00     0.127 S 
ATOM     84  O   UNL     1     -15.215   0.073  -3.031  1.00  0.00    -0.237 OA
ATOM     85  O   UNL     1     -14.314  -2.201  -3.341  1.00  0.00    -0.237 OA
ATOM     86  O   UNL     1     -12.846  -0.259  -3.646  1.00  0.00    -0.744 OA
ENDBRANCH  80  83
ENDBRANCH  52  76
BRANCH  64  87
ATOM     87  C   UNL     1     -15.652   4.784 -12.392  1.00  0.00     0.023 A 
ATOM     88  C   UNL     1     -16.022   5.807 -11.498  1.00  0.00     0.012 A 
ATOM     89  C   UNL     1     -16.382   4.611 -13.585  1.00  0.00     0.148 A 
ATOM     90  C   UNL     1     -17.120   6.622 -11.769  1.00  0.00     0.002 A 
ATOM     91  C   UNL     1     -17.442   5.461 -13.874  1.00  0.00     0.091 A 
ATOM     92  F   UNL     1     -16.024   3.621 -14.416  1.00  0.00    -0.205 F 
ATOM     93  C   UNL     1     -17.822   6.458 -12.961  1.00  0.00     0.022 A 
BRANCH  91  94
ATOM     94  S   UNL     1     -18.339   5.390 -15.429  1.00  0.00     0.127 S 
ATOM     95  O   UNL     1     -19.635   4.867 -15.000  1.00  0.00    -0.237 OA
ATOM     96  O   UNL     1     -18.354   6.794 -15.841  1.00  0.00    -0.237 OA
ATOM     97  O   UNL     1     -17.569   4.512 -16.299  1.00  0.00    -0.744 OA
ENDBRANCH  91  94
ENDBRANCH  64  87
ENDBRANCH  38  39
ENDBRANCH  30  33
ENDBRANCH  28  29
ENDBRANCH  27  28
ENDBRANCH  26  27
ENDBRANCH   1  26
TORSDOF 19
