REMARK SMILES [NH3+]C[C@H]1CC[C@@H](C(=O)N[C@H](C(=O)NCCCCCCNC(=O)c2ccc(-c3c4nc(c(-c5cccc(S(=O)(=O)[O-])c5F)c5ccc([nH]5)c(-c5cccc(S(=O)(=O)[O-])c5F)c5nc(c(-c6cccc(S(=O)(=O)[O-])c6F)c6ccc3[nH]6)C=C5)C=C4)cc2)C2CCCCC2)O1
REMARK SMILES IDX 16 1 15 2 14 3 13 4 11 5 12 6 10 8 9 9 7 10 8 11 6 13 3 14
REMARK SMILES IDX 4 15 92 16 5 17 2 18 1 19 86 23 87 24 91 25 88 26 90 27
REMARK SMILES IDX 89 28 17 29 18 30 19 31 20 32 21 33 22 35 23 36 24 37 85 38
REMARK SMILES IDX 25 39 84 40 26 41 27 42 28 43 78 44 29 45 83 46 77 47 79 48
REMARK SMILES IDX 30 49 82 50 76 51 75 52 31 54 63 55 43 56 62 57 44 58 47 59
REMARK SMILES IDX 61 60 80 61 45 62 46 63 60 65 81 66 48 67 32 68 33 69 41 70
REMARK SMILES IDX 34 71 36 72 42 73 35 74 37 75 38 76 39 77 40 78 64 79 65 80
REMARK SMILES IDX 73 81 66 82 68 83 74 84 67 85 69 86 70 87 71 88 72 89 49 90
REMARK SMILES IDX 50 91 58 92 51 93 53 94 59 95 52 96 54 97 55 98 56 99 57 100
REMARK H PARENT 13 7 9 12 1 20 1 21 1 22 20 34 79 53 47 64
REMARK Flexibility Score: inf
ROOT
ATOM      1  C   UNL     1       5.259   1.747  -3.156  1.00  0.00     0.002 C 
ENDROOT
BRANCH   1   2
ATOM      2  C   UNL     1       6.065   1.931  -1.871  1.00  0.00     0.021 C 
BRANCH   2   3
ATOM      3  C   UNL     1       5.573   1.071  -0.704  1.00  0.00     0.116 C 
BRANCH   3   4
ATOM      4  N   UNL     1       6.095  -0.281  -0.835  1.00  0.00    -0.354 N 
ATOM      5  C   UNL     1       7.060  -0.922  -0.105  1.00  0.00     0.242 C 
ATOM      6  O   UNL     1       7.545  -1.957  -0.565  1.00  0.00    -0.273 OA
ATOM      7  H   UNL     1       5.693  -0.816  -1.558  1.00  0.00     0.163 HD
BRANCH   5   8
ATOM      8  C   UNL     1       7.465  -0.356   1.280  1.00  0.00     0.174 C 
BRANCH   8   9
ATOM      9  N   UNL     1       7.645  -1.472   2.230  1.00  0.00    -0.342 N 
ATOM     10  C   UNL     1       6.739  -2.372   2.719  1.00  0.00     0.249 C 
ATOM     11  O   UNL     1       7.096  -3.091   3.658  1.00  0.00    -0.272 OA
ATOM     12  H   UNL     1       8.564  -1.587   2.564  1.00  0.00     0.164 HD
BRANCH  10  13
ATOM     13  C   UNL     1       5.345  -2.511   2.084  1.00  0.00     0.207 C 
ATOM     14  C   UNL     1       3.876  -4.332   1.847  1.00  0.00     0.174 C 
ATOM     15  C   UNL     1       3.119  -3.174   2.475  1.00  0.00     0.041 C 
ATOM     16  O   UNL     1       5.177  -3.819   1.502  1.00  0.00    -0.359 OA
ATOM     17  C   UNL     1       4.225  -2.357   3.100  1.00  0.00     0.045 C 
BRANCH  14  18
ATOM     18  C   UNL     1       4.014  -5.535   2.803  1.00  0.00     0.291 C 
BRANCH  18  19
ATOM     19  N   UNL     1       4.832  -6.612   2.231  1.00  0.00    -0.355 N 
ATOM     20  H   UNL     1       4.895  -7.382   2.896  1.00  0.00     0.344 HD
ATOM     21  H   UNL     1       5.768  -6.258   2.030  1.00  0.00     0.344 HD
ATOM     22  H   UNL     1       4.402  -6.943   1.367  1.00  0.00     0.344 HD
ENDBRANCH  18  19
ENDBRANCH  14  18
ENDBRANCH  10  13
ENDBRANCH   8   9
BRANCH   8  23
ATOM     23  C   UNL     1       8.775   0.499   1.209  1.00  0.00     0.021 C 
ATOM     24  C   UNL     1       8.910   1.330  -0.077  1.00  0.00     0.006 C 
ATOM     25  C   UNL     1       8.875   1.432   2.437  1.00  0.00     0.006 C 
ATOM     26  C   UNL     1      10.147   2.218  -0.109  1.00  0.00     0.000 C 
ATOM     27  C   UNL     1      10.085   2.369   2.386  1.00  0.00     0.000 C 
ATOM     28  C   UNL     1      10.149   3.159   1.085  1.00  0.00     0.000 C 
ENDBRANCH   8  23
ENDBRANCH   5   8
ENDBRANCH   3   4
ENDBRANCH   2   3
ENDBRANCH   1   2
BRANCH   1  29
ATOM     29  C   UNL     1       3.866   2.377  -3.123  1.00  0.00     0.002 C 
BRANCH  29  30
ATOM     30  C   UNL     1       3.830   3.870  -2.778  1.00  0.00     0.021 C 
BRANCH  30  31
ATOM     31  C   UNL     1       4.772   4.751  -3.596  1.00  0.00     0.116 C 
BRANCH  31  32
ATOM     32  N   UNL     1       4.510   4.651  -5.021  1.00  0.00    -0.352 N 
ATOM     33  C   UNL     1       4.229   5.641  -5.924  1.00  0.00     0.251 C 
ATOM     34  H   UNL     1       4.539   3.739  -5.392  1.00  0.00     0.163 HD
ATOM     35  O   UNL     1       3.831   5.341  -7.051  1.00  0.00    -0.269 OA
BRANCH  33  36
ATOM     36  C   UNL     1       4.394   7.062  -5.553  1.00  0.00     0.039 A 
ATOM     37  C   UNL     1       3.415   7.977  -5.946  1.00  0.00     0.014 A 
ATOM     38  C   UNL     1       5.529   7.501  -4.862  1.00  0.00     0.014 A 
ATOM     39  C   UNL     1       3.563   9.329  -5.628  1.00  0.00     0.010 A 
ATOM     40  C   UNL     1       5.640   8.838  -4.486  1.00  0.00     0.010 A 
ATOM     41  C   UNL     1       4.672   9.770  -4.888  1.00  0.00    -0.014 A 
BRANCH  41  42
ATOM     42  C   UNL     1       4.846  11.210  -4.569  1.00  0.00     0.031 A 
ATOM     43  C   UNL     1       5.995  11.983  -5.160  1.00  0.00     0.074 A 
ATOM     44  C   UNL     1       3.990  11.815  -3.722  1.00  0.00     0.049 A 
ATOM     45  N   UNL     1       6.297  13.248  -5.019  1.00  0.00    -0.248 NA
ATOM     46  C   UNL     1       6.944  11.234  -6.002  1.00  0.00     0.031 C 
ATOM     47  C   UNL     1       2.884  11.156  -3.023  1.00  0.00     0.029 A 
ATOM     48  N   UNL     1       3.924  13.117  -3.295  1.00  0.00    -0.354 N 
ATOM     49  C   UNL     1       7.475  13.440  -5.731  1.00  0.00     0.074 A 
ATOM     50  C   UNL     1       7.862  12.153  -6.264  1.00  0.00     0.031 C 
ATOM     51  C   UNL     1       2.239  12.062  -2.269  1.00  0.00     0.029 A 
ATOM     52  C   UNL     1       2.892  13.359  -2.418  1.00  0.00     0.049 A 
ATOM     53  H   UNL     1       4.555  13.812  -3.589  1.00  0.00     0.167 HD
ATOM     54  C   UNL     1       8.154  14.590  -5.959  1.00  0.00     0.034 A 
ATOM     55  C   UNL     1       2.510  14.502  -1.815  1.00  0.00     0.034 A 
ATOM     56  C   UNL     1       7.741  15.877  -5.470  1.00  0.00     0.049 A 
ATOM     57  C   UNL     1       3.253  15.774  -2.124  1.00  0.00     0.074 A 
ATOM     58  C   UNL     1       8.318  17.113  -5.703  1.00  0.00     0.029 A 
ATOM     59  N   UNL     1       6.645  16.096  -4.651  1.00  0.00    -0.354 N 
ATOM     60  N   UNL     1       4.271  15.962  -2.929  1.00  0.00    -0.248 NA
ATOM     61  C   UNL     1       2.769  17.000  -1.473  1.00  0.00     0.031 C 
ATOM     62  C   UNL     1       7.573  18.079  -5.017  1.00  0.00     0.029 A 
ATOM     63  C   UNL     1       6.526  17.446  -4.369  1.00  0.00     0.049 A 
ATOM     64  H   UNL     1       6.039  15.394  -4.319  1.00  0.00     0.167 HD
ATOM     65  C   UNL     1       4.525  17.329  -2.910  1.00  0.00     0.074 A 
ATOM     66  C   UNL     1       3.536  17.924  -2.034  1.00  0.00     0.031 C 
ATOM     67  C   UNL     1       5.500  18.028  -3.542  1.00  0.00     0.034 A 
BRANCH  54  68
ATOM     68  C   UNL     1       9.374  14.516  -6.840  1.00  0.00     0.023 A 
ATOM     69  C   UNL     1       9.211  14.302  -8.225  1.00  0.00     0.012 A 
ATOM     70  C   UNL     1      10.669  14.708  -6.320  1.00  0.00     0.148 A 
ATOM     71  C   UNL     1      10.316  14.245  -9.072  1.00  0.00     0.002 A 
ATOM     72  C   UNL     1      11.764  14.691  -7.178  1.00  0.00     0.091 A 
ATOM     73  F   UNL     1      10.807  14.889  -4.999  1.00  0.00    -0.205 F 
ATOM     74  C   UNL     1      11.590  14.449  -8.551  1.00  0.00     0.022 A 
BRANCH  72  75
ATOM     75  S   UNL     1      13.439  15.015  -6.616  1.00  0.00     0.127 S 
ATOM     76  O   UNL     1      14.048  13.688  -6.726  1.00  0.00    -0.237 OA
ATOM     77  O   UNL     1      13.913  15.984  -7.608  1.00  0.00    -0.237 OA
ATOM     78  O   UNL     1      13.318  15.537  -5.267  1.00  0.00    -0.744 OA
ENDBRANCH  72  75
ENDBRANCH  54  68
BRANCH  55  79
ATOM     79  C   UNL     1       1.309  14.516  -0.931  1.00  0.00     0.023 A 
ATOM     80  C   UNL     1       0.144  15.179  -1.365  1.00  0.00     0.012 A 
ATOM     81  C   UNL     1       1.306  13.873   0.321  1.00  0.00     0.148 A 
ATOM     82  C   UNL     1      -0.989  15.233  -0.552  1.00  0.00     0.002 A 
ATOM     83  C   UNL     1       0.156  13.885   1.103  1.00  0.00     0.091 A 
ATOM     84  F   UNL     1       2.429  13.261   0.725  1.00  0.00    -0.205 F 
ATOM     85  C   UNL     1      -0.987  14.579   0.676  1.00  0.00     0.022 A 
BRANCH  83  86
ATOM     86  S   UNL     1       0.035  12.956   2.636  1.00  0.00     0.127 S 
ATOM     87  O   UNL     1       0.165  14.012   3.637  1.00  0.00    -0.237 OA
ATOM     88  O   UNL     1      -1.300  12.365   2.532  1.00  0.00    -0.237 OA
ATOM     89  O   UNL     1       1.120  11.986   2.587  1.00  0.00    -0.744 OA
ENDBRANCH  83  86
ENDBRANCH  55  79
BRANCH  67  90
ATOM     90  C   UNL     1       5.534  19.518  -3.331  1.00  0.00     0.023 A 
ATOM     91  C   UNL     1       5.958  20.038  -2.092  1.00  0.00     0.012 A 
ATOM     92  C   UNL     1       5.204  20.404  -4.376  1.00  0.00     0.148 A 
ATOM     93  C   UNL     1       6.020  21.415  -1.884  1.00  0.00     0.002 A 
ATOM     94  C   UNL     1       5.313  21.775  -4.177  1.00  0.00     0.091 A 
ATOM     95  F   UNL     1       4.782  19.892  -5.542  1.00  0.00    -0.205 F 
ATOM     96  C   UNL     1       5.708  22.282  -2.929  1.00  0.00     0.022 A 
BRANCH  94  97
ATOM     97  S   UNL     1       5.022  22.960  -5.495  1.00  0.00     0.127 S 
ATOM     98  O   UNL     1       3.696  23.470  -5.151  1.00  0.00    -0.237 OA
ATOM     99  O   UNL     1       6.112  23.917  -5.303  1.00  0.00    -0.237 OA
ATOM    100  O   UNL     1       5.101  22.200  -6.736  1.00  0.00    -0.744 OA
ENDBRANCH  94  97
ENDBRANCH  67  90
ENDBRANCH  41  42
ENDBRANCH  33  36
ENDBRANCH  31  32
ENDBRANCH  30  31
ENDBRANCH  29  30
ENDBRANCH   1  29
TORSDOF 21
