REMARK SMILES COc1ccc([C@H](NC(=O)[C@H]2CC(C)=C(C)C[C@@H]2C(=O)NCCCCCCNC(=O)c2ccc(-c3c4nc(c(-c5cccc(S(=O)(=O)[O-])c5F)c5ccc([nH]5)c(-c5cccc(S(=O)(=O)[O-])c5F)c5nc(c(-c6cccc(S(=O)(=O)[O-])c6F)c6ccc3[nH]6)C=C5)C=C4)cc2)c2ccccc2)cc1
REMARK SMILES IDX 24 1 23 2 22 3 21 4 19 5 20 6 18 8 11 9 12 10 13 11 17 12
REMARK SMILES IDX 14 13 15 14 16 15 9 16 8 17 10 19 7 20 6 21 3 22 4 23 101 24
REMARK SMILES IDX 5 25 100 26 2 27 1 28 94 29 95 30 99 31 96 32 98 33 97 34
REMARK SMILES IDX 25 35 26 36 27 37 28 38 29 39 30 41 31 42 32 43 93 44 33 45
REMARK SMILES IDX 92 46 34 47 35 48 36 49 86 50 37 51 91 52 85 53 87 54 38 55
REMARK SMILES IDX 90 56 84 57 83 58 39 60 71 61 51 62 70 63 52 64 55 65 69 66
REMARK SMILES IDX 88 67 53 68 54 69 68 71 89 72 56 73 40 74 41 75 49 76 42 77
REMARK SMILES IDX 44 78 50 79 43 80 45 81 46 82 47 83 48 84 72 85 73 86 81 87
REMARK SMILES IDX 74 88 76 89 82 90 75 91 77 92 78 93 79 94 80 95 57 96 58 97
REMARK SMILES IDX 66 98 59 99 61 100 67 101 60 102 62 103 63 104 64 105 65 106
REMARK H PARENT 21 7 8 18 28 40 87 59 55 70
REMARK Flexibility Score: inf
ROOT
ATOM      1  C   UNL     1       5.421  -1.251  -3.123  1.00  0.00     0.002 C 
ENDROOT
BRANCH   1   2
ATOM      2  C   UNL     1       4.046  -0.579  -3.181  1.00  0.00     0.021 C 
BRANCH   2   3
ATOM      3  C   UNL     1       3.648   0.130  -1.892  1.00  0.00     0.116 C 
BRANCH   3   4
ATOM      4  N   UNL     1       4.530   1.250  -1.621  1.00  0.00    -0.356 N 
ATOM      5  C   UNL     1       4.229   2.556  -1.385  1.00  0.00     0.224 C 
ATOM      6  O   UNL     1       5.158   3.352  -1.243  1.00  0.00    -0.275 OA
ATOM      7  H   UNL     1       5.490   1.033  -1.605  1.00  0.00     0.163 HD
BRANCH   5   8
ATOM      8  C   UNL     1       2.769   2.988  -1.366  1.00  0.00     0.095 C 
ATOM      9  C   UNL     1       2.404   3.466  -2.797  1.00  0.00     0.095 C 
ATOM     10  C   UNL     1       1.887   4.907  -2.881  1.00  0.00     0.045 C 
ATOM     11  C   UNL     1       1.709   5.745  -1.646  1.00  0.00    -0.074 C 
ATOM     12  C   UNL     1       2.556   3.932  -0.169  1.00  0.00     0.045 C 
ATOM     13  C   UNL     1       1.186   7.131  -1.937  1.00  0.00     0.039 C 
ATOM     14  C   UNL     1       2.014   5.305  -0.415  1.00  0.00    -0.074 C 
ATOM     15  C   UNL     1       1.848   6.145   0.826  1.00  0.00     0.039 C 
BRANCH   9  16
ATOM     16  C   UNL     1       1.379   2.517  -3.438  1.00  0.00     0.224 C 
ATOM     17  N   UNL     1       1.317   2.277  -4.777  1.00  0.00    -0.345 N 
ATOM     18  H   UNL     1       0.672   1.571  -5.009  1.00  0.00     0.164 HD
ATOM     19  O   UNL     1       0.541   1.927  -2.748  1.00  0.00    -0.275 OA
BRANCH  17  20
ATOM     20  C   UNL     1       1.999   2.837  -5.954  1.00  0.00     0.143 C 
BRANCH  20  21
ATOM     21  C   UNL     1       1.956   1.905  -7.189  1.00  0.00    -0.021 A 
ATOM     22  C   UNL     1       1.462   0.496  -9.596  1.00  0.00     0.118 A 
ATOM     23  C   UNL     1       2.153   1.702  -9.624  1.00  0.00     0.047 A 
ATOM     24  C   UNL     1       1.129  -0.073  -8.369  1.00  0.00     0.047 A 
ATOM     25  C   UNL     1       2.403   2.397  -8.435  1.00  0.00     0.010 A 
ATOM     26  C   UNL     1       1.384   0.620  -7.175  1.00  0.00     0.010 A 
BRANCH  22  27
ATOM     27  O   UNL     1       1.185  -0.075 -10.808  1.00  0.00    -0.497 OA
ATOM     28  C   UNL     1      -0.139  -0.606 -10.905  1.00  0.00     0.278 C 
ENDBRANCH  22  27
ENDBRANCH  20  21
BRANCH  20  29
ATOM     29  C   UNL     1       1.317   4.169  -6.289  1.00  0.00    -0.021 A 
ATOM     30  C   UNL     1       0.022   4.196  -6.841  1.00  0.00     0.006 A 
ATOM     31  C   UNL     1       1.947   5.388  -6.013  1.00  0.00     0.006 A 
ATOM     32  C   UNL     1      -0.642   5.403  -7.050  1.00  0.00     0.000 A 
ATOM     33  C   UNL     1       1.256   6.593  -6.160  1.00  0.00     0.000 A 
ATOM     34  C   UNL     1      -0.039   6.599  -6.674  1.00  0.00     0.000 A 
ENDBRANCH  20  29
ENDBRANCH  17  20
ENDBRANCH   9  16
ENDBRANCH   5   8
ENDBRANCH   3   4
ENDBRANCH   2   3
ENDBRANCH   1   2
BRANCH   1  35
ATOM     35  C   UNL     1       5.618  -2.217  -1.950  1.00  0.00     0.002 C 
BRANCH  35  36
ATOM     36  C   UNL     1       4.554  -3.311  -1.828  1.00  0.00     0.021 C 
BRANCH  36  37
ATOM     37  C   UNL     1       4.403  -4.184  -3.067  1.00  0.00     0.116 C 
BRANCH  37  38
ATOM     38  N   UNL     1       5.631  -4.897  -3.381  1.00  0.00    -0.352 N 
ATOM     39  C   UNL     1       5.821  -6.236  -3.590  1.00  0.00     0.251 C 
ATOM     40  H   UNL     1       6.438  -4.338  -3.454  1.00  0.00     0.163 HD
ATOM     41  O   UNL     1       6.966  -6.693  -3.638  1.00  0.00    -0.269 OA
BRANCH  39  42
ATOM     42  C   UNL     1       4.658  -7.133  -3.748  1.00  0.00     0.039 A 
ATOM     43  C   UNL     1       4.665  -8.372  -3.104  1.00  0.00     0.014 A 
ATOM     44  C   UNL     1       3.571  -6.759  -4.544  1.00  0.00     0.014 A 
ATOM     45  C   UNL     1       3.566  -9.223  -3.232  1.00  0.00     0.010 A 
ATOM     46  C   UNL     1       2.445  -7.574  -4.605  1.00  0.00     0.010 A 
ATOM     47  C   UNL     1       2.439  -8.824  -3.969  1.00  0.00    -0.014 A 
BRANCH  47  48
ATOM     48  C   UNL     1       1.258  -9.712  -4.108  1.00  0.00     0.031 A 
ATOM     49  C   UNL     1       0.856 -10.228  -5.464  1.00  0.00     0.074 A 
ATOM     50  C   UNL     1       0.507 -10.000  -3.026  1.00  0.00     0.049 A 
ATOM     51  N   UNL     1      -0.159 -10.986  -5.791  1.00  0.00    -0.248 NA
ATOM     52  C   UNL     1       1.685  -9.814  -6.608  1.00  0.00     0.031 C 
ATOM     53  C   UNL     1       0.748  -9.498  -1.672  1.00  0.00     0.029 A 
ATOM     54  N   UNL     1      -0.623 -10.768  -2.900  1.00  0.00    -0.354 N 
ATOM     55  C   UNL     1      -0.110 -11.110  -7.174  1.00  0.00     0.074 A 
ATOM     56  C   UNL     1       1.008 -10.315  -7.631  1.00  0.00     0.031 C 
ATOM     57  C   UNL     1      -0.198  -9.980  -0.850  1.00  0.00     0.029 A 
ATOM     58  C   UNL     1      -1.127 -10.801  -1.621  1.00  0.00     0.049 A 
ATOM     59  H   UNL     1      -1.034 -11.249  -3.654  1.00  0.00     0.167 HD
ATOM     60  C   UNL     1      -0.902 -11.845  -7.990  1.00  0.00     0.034 A 
ATOM     61  C   UNL     1      -2.214 -11.424  -1.126  1.00  0.00     0.034 A 
ATOM     62  C   UNL     1      -1.986 -12.670  -7.528  1.00  0.00     0.049 A 
ATOM     63  C   UNL     1      -3.053 -12.270  -2.045  1.00  0.00     0.074 A 
ATOM     64  C   UNL     1      -2.795 -13.519  -8.261  1.00  0.00     0.029 A 
ATOM     65  N   UNL     1      -2.415 -12.745  -6.211  1.00  0.00    -0.354 N 
ATOM     66  N   UNL     1      -2.898 -12.499  -3.327  1.00  0.00    -0.248 NA
ATOM     67  C   UNL     1      -4.192 -12.976  -1.442  1.00  0.00     0.031 C 
ATOM     68  C   UNL     1      -3.730 -14.090  -7.391  1.00  0.00     0.029 A 
ATOM     69  C   UNL     1      -3.482 -13.620  -6.111  1.00  0.00     0.049 A 
ATOM     70  H   UNL     1      -2.019 -12.249  -5.459  1.00  0.00     0.167 HD
ATOM     71  C   UNL     1      -3.893 -13.406  -3.675  1.00  0.00     0.074 A 
ATOM     72  C   UNL     1      -4.633 -13.697  -2.464  1.00  0.00     0.031 C 
ATOM     73  C   UNL     1      -4.175 -13.941  -4.889  1.00  0.00     0.034 A 
BRANCH  60  74
ATOM     74  C   UNL     1      -0.591 -11.829  -9.465  1.00  0.00     0.023 A 
ATOM     75  C   UNL     1       0.579 -12.460  -9.938  1.00  0.00     0.012 A 
ATOM     76  C   UNL     1      -1.470 -11.228 -10.387  1.00  0.00     0.148 A 
ATOM     77  C   UNL     1       0.891 -12.455 -11.296  1.00  0.00     0.002 A 
ATOM     78  C   UNL     1      -1.176 -11.269 -11.746  1.00  0.00     0.091 A 
ATOM     79  F   UNL     1      -2.566 -10.613  -9.921  1.00  0.00    -0.205 F 
ATOM     80  C   UNL     1       0.010 -11.870 -12.200  1.00  0.00     0.022 A 
BRANCH  78  81
ATOM     81  S   UNL     1      -2.286 -10.614 -12.996  1.00  0.00     0.127 S 
ATOM     82  O   UNL     1      -1.567  -9.418 -13.432  1.00  0.00    -0.237 OA
ATOM     83  O   UNL     1      -2.318 -11.697 -13.979  1.00  0.00    -0.237 OA
ATOM     84  O   UNL     1      -3.553 -10.371 -12.320  1.00  0.00    -0.744 OA
ENDBRANCH  78  81
ENDBRANCH  60  74
BRANCH  61  85
ATOM     85  C   UNL     1      -2.525 -11.333   0.329  1.00  0.00     0.023 A 
ATOM     86  C   UNL     1      -2.354 -12.470   1.143  1.00  0.00     0.012 A 
ATOM     87  C   UNL     1      -2.956 -10.127   0.914  1.00  0.00     0.148 A 
ATOM     88  C   UNL     1      -2.638 -12.416   2.508  1.00  0.00     0.002 A 
ATOM     89  C   UNL     1      -3.185 -10.066   2.283  1.00  0.00     0.091 A 
ATOM     90  F   UNL     1      -3.119  -9.059   0.120  1.00  0.00    -0.205 F 
ATOM     91  C   UNL     1      -3.044 -11.214   3.079  1.00  0.00     0.022 A 
BRANCH  89  92
ATOM     92  S   UNL     1      -3.586  -8.532   3.128  1.00  0.00     0.127 S 
ATOM     93  O   UNL     1      -4.971  -8.766   3.529  1.00  0.00    -0.237 OA
ATOM     94  O   UNL     1      -2.617  -8.532   4.225  1.00  0.00    -0.237 OA
ATOM     95  O   UNL     1      -3.382  -7.477   2.145  1.00  0.00    -0.744 OA
ENDBRANCH  89  92
ENDBRANCH  61  85
BRANCH  73  96
ATOM     96  C   UNL     1      -5.306 -14.934  -4.970  1.00  0.00     0.023 A 
ATOM     97  C   UNL     1      -6.639 -14.495  -4.848  1.00  0.00     0.012 A 
ATOM     98  C   UNL     1      -5.047 -16.293  -5.239  1.00  0.00     0.148 A 
ATOM     99  C   UNL     1      -7.695 -15.399  -4.958  1.00  0.00     0.002 A 
ATOM    100  C   UNL     1      -6.106 -17.178  -5.399  1.00  0.00     0.091 A 
ATOM    101  F   UNL     1      -3.771 -16.695  -5.333  1.00  0.00    -0.205 F 
ATOM    102  C   UNL     1      -7.430 -16.736  -5.246  1.00  0.00     0.022 A 
BRANCH 100 103
ATOM    103  S   UNL     1      -5.862 -18.894  -5.870  1.00  0.00     0.127 S 
ATOM    104  O   UNL     1      -6.157 -19.591  -4.620  1.00  0.00    -0.237 OA
ATOM    105  O   UNL     1      -6.865 -19.074  -6.920  1.00  0.00    -0.237 OA
ATOM    106  O   UNL     1      -4.483 -18.991  -6.331  1.00  0.00    -0.744 OA
ENDBRANCH 100 103
ENDBRANCH  73  96
ENDBRANCH  47  48
ENDBRANCH  39  42
ENDBRANCH  37  38
ENDBRANCH  36  37
ENDBRANCH  35  36
ENDBRANCH   1  35
TORSDOF 21
