REMARK SMILES CCC(=O)N1CCC[C@](C[C@H]2CC(c3ccc(C)cc3)=NO2)(C(=O)NCCCCCCNC(=O)c2ccc(-c3c4nc(c(-c5cccc(S(=O)(=O)[O-])c5F)c5ccc([nH]5)c(-c5cccc(S(=O)(=O)[O-])c5F)c5nc(c(-c6cccc(S(=O)(=O)[O-])c6F)c6ccc3[nH]6)C=C5)C=C4)cc2)C1
REMARK SMILES IDX 28 1 27 2 26 3 25 4 23 5 24 6 9 8 5 9 6 10 98 11 7 12 8 13
REMARK SMILES IDX 3 14 4 15 2 16 1 17 10 18 11 19 12 20 22 21 13 22 21 23
REMARK SMILES IDX 14 24 15 25 20 26 16 27 19 28 17 29 18 30 29 31 30 32 31 33
REMARK SMILES IDX 32 34 33 35 34 37 35 38 36 39 97 40 37 41 96 42 38 43 39 44
REMARK SMILES IDX 40 45 90 46 41 47 95 48 89 49 91 50 42 51 94 52 88 53 87 54
REMARK SMILES IDX 43 56 75 57 55 58 74 59 56 60 59 61 73 62 92 63 57 64 58 65
REMARK SMILES IDX 72 67 93 68 60 69 44 70 45 71 53 72 46 73 48 74 54 75 47 76
REMARK SMILES IDX 49 77 50 78 51 79 52 80 76 81 77 82 85 83 78 84 80 85 86 86
REMARK SMILES IDX 79 87 81 88 82 89 83 90 84 91 61 92 62 93 70 94 63 95 65 96
REMARK SMILES IDX 71 97 64 98 66 99 67 100 68 101 69 102
REMARK H PARENT 25 7 32 36 91 55 59 66
REMARK Flexibility Score: inf
ROOT
ATOM      1  C   UNL     1       0.976  -0.560   4.724  1.00  0.00     0.002 C 
ENDROOT
BRANCH   1   2
ATOM      2  C   UNL     1       1.657  -0.115   3.433  1.00  0.00     0.021 C 
BRANCH   2   3
ATOM      3  C   UNL     1       2.883  -0.907   3.017  1.00  0.00     0.116 C 
BRANCH   3   4
ATOM      4  N   UNL     1       2.619  -2.314   2.790  1.00  0.00    -0.356 N 
ATOM      5  C   UNL     1       3.227  -3.219   1.975  1.00  0.00     0.228 C 
ATOM      6  O   UNL     1       3.036  -4.406   2.261  1.00  0.00    -0.274 OA
ATOM      7  H   UNL     1       1.871  -2.678   3.317  1.00  0.00     0.163 HD
BRANCH   5   8
ATOM      8  C   UNL     1       4.160  -2.801   0.803  1.00  0.00     0.070 C 
ATOM      9  N   UNL     1       2.372  -2.684  -0.985  1.00  0.00    -0.342 N 
ATOM     10  C   UNL     1       2.886  -3.850  -1.681  1.00  0.00     0.119 C 
ATOM     11  C   UNL     1       3.353  -1.917  -0.203  1.00  0.00     0.136 C 
ATOM     12  C   UNL     1       3.542  -4.815  -0.718  1.00  0.00     0.023 C 
ATOM     13  C   UNL     1       4.627  -4.099   0.082  1.00  0.00     0.021 C 
BRANCH   9  14
ATOM     14  C   UNL     1       1.028  -2.388  -1.155  1.00  0.00     0.222 C 
ATOM     15  O   UNL     1       0.196  -3.287  -1.312  1.00  0.00    -0.275 OA
BRANCH  14  16
ATOM     16  C   UNL     1       0.616  -0.943  -1.397  1.00  0.00     0.097 C 
ATOM     17  C   UNL     1       0.555  -0.014  -0.209  1.00  0.00     0.014 C 
ENDBRANCH  14  16
ENDBRANCH   9  14
BRANCH   8  18
ATOM     18  C   UNL     1       5.429  -2.154   1.471  1.00  0.00     0.067 C 
BRANCH  18  19
ATOM     19  C   UNL     1       6.549  -1.458   0.684  1.00  0.00     0.211 C 
ATOM     20  C   UNL     1       7.488  -2.340  -0.102  1.00  0.00     0.108 C 
ATOM     21  O   UNL     1       6.045  -0.473  -0.218  1.00  0.00    -0.392 OA
ATOM     22  C   UNL     1       7.100  -1.918  -1.468  1.00  0.00     0.091 C 
ATOM     23  N   UNL     1       6.354  -0.867  -1.542  1.00  0.00    -0.090 NA
BRANCH  22  24
ATOM     24  C   UNL     1       7.628  -2.619  -2.640  1.00  0.00    -0.001 A 
ATOM     25  C   UNL     1       7.362  -3.974  -2.835  1.00  0.00     0.010 A 
ATOM     26  C   UNL     1       8.425  -1.911  -3.538  1.00  0.00     0.010 A 
ATOM     27  C   UNL     1       7.910  -4.633  -3.934  1.00  0.00     0.004 A 
ATOM     28  C   UNL     1       8.991  -2.580  -4.623  1.00  0.00     0.004 A 
ATOM     29  C   UNL     1       8.739  -3.944  -4.827  1.00  0.00    -0.051 A 
ATOM     30  C   UNL     1       9.377  -4.657  -5.981  1.00  0.00     0.044 C 
ENDBRANCH  22  24
ENDBRANCH  18  19
ENDBRANCH   8  18
ENDBRANCH   5   8
ENDBRANCH   3   4
ENDBRANCH   2   3
ENDBRANCH   1   2
BRANCH   1  31
ATOM     31  C   UNL     1       1.862  -0.803   5.953  1.00  0.00     0.002 C 
BRANCH  31  32
ATOM     32  C   UNL     1       2.942   0.230   6.314  1.00  0.00     0.021 C 
BRANCH  32  33
ATOM     33  C   UNL     1       2.461   1.657   6.467  1.00  0.00     0.116 C 
BRANCH  33  34
ATOM     34  N   UNL     1       1.510   1.784   7.560  1.00  0.00    -0.352 N 
ATOM     35  C   UNL     1       0.846   2.909   7.986  1.00  0.00     0.251 C 
ATOM     36  H   UNL     1       1.317   0.957   8.058  1.00  0.00     0.163 HD
ATOM     37  O   UNL     1       0.665   3.043   9.203  1.00  0.00    -0.269 OA
BRANCH  35  38
ATOM     38  C   UNL     1       0.272   3.855   7.012  1.00  0.00     0.039 A 
ATOM     39  C   UNL     1      -0.416   5.002   7.428  1.00  0.00     0.014 A 
ATOM     40  C   UNL     1       0.203   3.466   5.678  1.00  0.00     0.014 A 
ATOM     41  C   UNL     1      -1.316   5.598   6.548  1.00  0.00     0.010 A 
ATOM     42  C   UNL     1      -0.433   4.220   4.753  1.00  0.00     0.010 A 
ATOM     43  C   UNL     1      -1.367   5.113   5.249  1.00  0.00    -0.014 A 
BRANCH  43  44
ATOM     44  C   UNL     1      -2.429   5.301   4.290  1.00  0.00     0.031 A 
ATOM     45  C   UNL     1      -2.423   6.517   3.492  1.00  0.00     0.074 A 
ATOM     46  C   UNL     1      -3.089   4.168   3.948  1.00  0.00     0.049 A 
ATOM     47  N   UNL     1      -3.401   6.886   2.755  1.00  0.00    -0.248 NA
ATOM     48  C   UNL     1      -1.282   7.424   3.470  1.00  0.00     0.031 C 
ATOM     49  C   UNL     1      -3.703   3.796   2.681  1.00  0.00     0.029 A 
ATOM     50  N   UNL     1      -3.307   3.041   4.727  1.00  0.00    -0.354 N 
ATOM     51  C   UNL     1      -2.915   7.875   1.931  1.00  0.00     0.074 A 
ATOM     52  C   UNL     1      -1.647   8.265   2.500  1.00  0.00     0.031 C 
ATOM     53  C   UNL     1      -4.425   2.670   2.855  1.00  0.00     0.029 A 
ATOM     54  C   UNL     1      -4.447   2.382   4.282  1.00  0.00     0.049 A 
ATOM     55  H   UNL     1      -2.741   2.753   5.479  1.00  0.00     0.167 HD
ATOM     56  C   UNL     1      -3.551   8.092   0.749  1.00  0.00     0.034 A 
ATOM     57  C   UNL     1      -5.569   2.413   5.072  1.00  0.00     0.034 A 
ATOM     58  C   UNL     1      -4.675   7.147   0.606  1.00  0.00     0.049 A 
ATOM     59  C   UNL     1      -6.657   3.301   4.484  1.00  0.00     0.074 A 
ATOM     60  C   UNL     1      -4.785   5.920  -0.032  1.00  0.00     0.029 A 
ATOM     61  N   UNL     1      -5.748   7.220   1.489  1.00  0.00    -0.354 N 
ATOM     62  N   UNL     1      -6.479   4.122   3.484  1.00  0.00    -0.248 NA
ATOM     63  C   UNL     1      -8.037   3.309   4.955  1.00  0.00     0.031 C 
ATOM     64  C   UNL     1      -5.895   5.228   0.530  1.00  0.00     0.029 A 
ATOM     65  C   UNL     1      -6.477   6.037   1.491  1.00  0.00     0.049 A 
ATOM     66  H   UNL     1      -5.962   8.007   2.041  1.00  0.00     0.167 HD
ATOM     67  C   UNL     1      -7.619   4.838   3.243  1.00  0.00     0.074 A 
ATOM     68  C   UNL     1      -8.588   4.229   4.142  1.00  0.00     0.031 C 
ATOM     69  C   UNL     1      -7.646   5.891   2.361  1.00  0.00     0.034 A 
BRANCH  56  70
ATOM     70  C   UNL     1      -2.966   8.881  -0.406  1.00  0.00     0.023 A 
ATOM     71  C   UNL     1      -3.433   8.559  -1.700  1.00  0.00     0.012 A 
ATOM     72  C   UNL     1      -1.982   9.896  -0.335  1.00  0.00     0.148 A 
ATOM     73  C   UNL     1      -2.905   9.137  -2.857  1.00  0.00     0.002 A 
ATOM     74  C   UNL     1      -1.409  10.433  -1.494  1.00  0.00     0.091 A 
ATOM     75  F   UNL     1      -1.644  10.414   0.850  1.00  0.00    -0.205 F 
ATOM     76  C   UNL     1      -1.871  10.054  -2.757  1.00  0.00     0.022 A 
BRANCH  74  77
ATOM     77  S   UNL     1      -0.020  11.581  -1.458  1.00  0.00     0.127 S 
ATOM     78  O   UNL     1       0.910  10.971  -2.411  1.00  0.00    -0.237 OA
ATOM     79  O   UNL     1      -0.628  12.827  -1.919  1.00  0.00    -0.237 OA
ATOM     80  O   UNL     1       0.465  11.588  -0.083  1.00  0.00    -0.744 OA
ENDBRANCH  74  77
ENDBRANCH  56  70
BRANCH  57  81
ATOM     81  C   UNL     1      -5.213   2.317   6.535  1.00  0.00     0.023 A 
ATOM     82  C   UNL     1      -4.490   1.162   6.932  1.00  0.00     0.012 A 
ATOM     83  C   UNL     1      -5.127   3.468   7.339  1.00  0.00     0.148 A 
ATOM     84  C   UNL     1      -3.536   1.230   7.951  1.00  0.00     0.002 A 
ATOM     85  C   UNL     1      -4.187   3.520   8.371  1.00  0.00     0.091 A 
ATOM     86  F   UNL     1      -5.911   4.516   7.053  1.00  0.00    -0.205 F 
ATOM     87  C   UNL     1      -3.347   2.426   8.635  1.00  0.00     0.022 A 
BRANCH  85  88
ATOM     88  S   UNL     1      -3.963   5.027   9.327  1.00  0.00     0.127 S 
ATOM     89  O   UNL     1      -4.990   4.879  10.355  1.00  0.00    -0.237 OA
ATOM     90  O   UNL     1      -2.592   4.912   9.824  1.00  0.00    -0.237 OA
ATOM     91  O   UNL     1      -4.157   6.105   8.369  1.00  0.00    -0.744 OA
ENDBRANCH  85  88
ENDBRANCH  57  81
BRANCH  69  92
ATOM     92  C   UNL     1      -8.782   6.895   2.222  1.00  0.00     0.023 A 
ATOM     93  C   UNL     1      -9.792   7.033   3.191  1.00  0.00     0.012 A 
ATOM     94  C   UNL     1      -8.800   7.842   1.161  1.00  0.00     0.148 A 
ATOM     95  C   UNL     1     -10.806   7.991   3.080  1.00  0.00     0.002 A 
ATOM     96  C   UNL     1      -9.725   8.881   1.133  1.00  0.00     0.091 A 
ATOM     97  F   UNL     1      -7.938   7.731   0.141  1.00  0.00    -0.205 F 
ATOM     98  C   UNL     1     -10.758   8.933   2.066  1.00  0.00     0.022 A 
BRANCH  96  99
ATOM     99  S   UNL     1      -9.537  10.273   0.009  1.00  0.00     0.127 S 
ATOM    100  O   UNL     1     -10.483   9.934  -1.051  1.00  0.00    -0.237 OA
ATOM    101  O   UNL     1      -9.941  11.403   0.849  1.00  0.00    -0.237 OA
ATOM    102  O   UNL     1      -8.130  10.282  -0.365  1.00  0.00    -0.744 OA
ENDBRANCH  96  99
ENDBRANCH  69  92
ENDBRANCH  43  44
ENDBRANCH  35  38
ENDBRANCH  33  34
ENDBRANCH  32  33
ENDBRANCH  31  32
ENDBRANCH   1  31
TORSDOF 21
