REMARK SMILES O=C(NCCCCCCNC(=O)c1csc(-c2cnc3ccccc3c2)c1)c1ccc(-c2c3nc(c(-c4cccc(S(=O)(=O)[O-])c4F)c4ccc([nH]4)c(-c4cccc(S(=O)(=O)[O-])c4F)c4nc(c(-c5cccc(S(=O)(=O)[O-])c5F)c5ccc2[nH]5)C=C4)C=C3)cc1
REMARK SMILES IDX 5 1 4 2 3 3 1 4 2 5 28 7 29 8 90 9 30 10 89 11 31 12 32 13
REMARK SMILES IDX 33 14 83 15 34 16 88 17 82 18 84 19 35 20 87 21 81 22 80 23
REMARK SMILES IDX 36 25 68 26 48 27 67 28 49 29 52 30 66 31 85 32 50 33 51 34
REMARK SMILES IDX 65 36 86 37 53 38 37 39 38 40 46 41 39 42 41 43 47 44 40 45
REMARK SMILES IDX 42 46 43 47 44 48 45 49 69 50 70 51 78 52 71 53 73 54 79 55
REMARK SMILES IDX 72 56 74 57 75 58 76 59 77 60 54 61 55 62 63 63 56 64 58 65
REMARK SMILES IDX 64 66 57 67 59 68 60 69 61 70 62 71 6 72 7 73 8 74 9 75
REMARK SMILES IDX 10 76 11 77 12 79 13 80 14 81 27 82 15 83 16 84 17 85 18 86
REMARK SMILES IDX 26 87 19 88 25 89 20 90 24 91 21 92 23 93 22 94
REMARK H PARENT 3 6 84 24 52 35 10 78
REMARK Flexibility Score: inf
ROOT
ATOM      1  C   UNL     1       4.547  -2.605   1.040  1.00  0.00     0.021 C 
ENDROOT
BRANCH   1   2
ATOM      2  C   UNL     1       4.343  -1.425   0.096  1.00  0.00     0.116 C 
BRANCH   2   3
ATOM      3  N   UNL     1       2.943  -1.173  -0.191  1.00  0.00    -0.352 N 
ATOM      4  O   UNL     1       1.022  -0.003  -0.259  1.00  0.00    -0.269 OA
ATOM      5  C   UNL     1       2.241   0.008  -0.122  1.00  0.00     0.251 C 
ATOM      6  H   UNL     1       2.421  -1.958  -0.474  1.00  0.00     0.163 HD
BRANCH   5   7
ATOM      7  C   UNL     1       2.951   1.280   0.146  1.00  0.00     0.039 A 
ATOM      8  C   UNL     1       4.139   1.600  -0.519  1.00  0.00     0.014 A 
ATOM      9  C   UNL     1       2.405   2.177   1.069  1.00  0.00     0.014 A 
ATOM     10  C   UNL     1       4.841   2.752  -0.171  1.00  0.00     0.010 A 
ATOM     11  C   UNL     1       3.078   3.366   1.369  1.00  0.00     0.010 A 
ATOM     12  C   UNL     1       4.317   3.648   0.774  1.00  0.00    -0.014 A 
BRANCH  12  13
ATOM     13  C   UNL     1       5.049   4.904   1.080  1.00  0.00     0.031 A 
ATOM     14  C   UNL     1       5.651   5.146   2.436  1.00  0.00     0.074 A 
ATOM     15  C   UNL     1       5.168   5.836   0.115  1.00  0.00     0.049 A 
ATOM     16  N   UNL     1       6.365   6.163   2.847  1.00  0.00    -0.248 NA
ATOM     17  C   UNL     1       5.419   4.122   3.467  1.00  0.00     0.031 C 
ATOM     18  C   UNL     1       4.582   5.737  -1.223  1.00  0.00     0.029 A 
ATOM     19  N   UNL     1       5.817   7.045   0.107  1.00  0.00    -0.354 N 
ATOM     20  C   UNL     1       6.639   5.923   4.188  1.00  0.00     0.074 A 
ATOM     21  C   UNL     1       6.007   4.665   4.526  1.00  0.00     0.031 C 
ATOM     22  C   UNL     1       4.922   6.824  -1.932  1.00  0.00     0.029 A 
ATOM     23  C   UNL     1       5.719   7.711  -1.091  1.00  0.00     0.049 A 
ATOM     24  H   UNL     1       6.305   7.400   0.884  1.00  0.00     0.167 HD
ATOM     25  C   UNL     1       7.369   6.669   5.051  1.00  0.00     0.034 A 
ATOM     26  C   UNL     1       6.217   8.902  -1.475  1.00  0.00     0.034 A 
ATOM     27  C   UNL     1       8.036   7.895   4.700  1.00  0.00     0.049 A 
ATOM     28  C   UNL     1       7.054   9.690  -0.509  1.00  0.00     0.074 A 
ATOM     29  C   UNL     1       8.861   8.682   5.486  1.00  0.00     0.029 A 
ATOM     30  N   UNL     1       7.951   8.517   3.464  1.00  0.00    -0.354 N 
ATOM     31  N   UNL     1       7.423   9.374   0.708  1.00  0.00    -0.248 NA
ATOM     32  C   UNL     1       7.567  10.985  -0.977  1.00  0.00     0.031 C 
ATOM     33  C   UNL     1       9.271   9.783   4.724  1.00  0.00     0.029 A 
ATOM     34  C   UNL     1       8.703   9.681   3.465  1.00  0.00     0.049 A 
ATOM     35  H   UNL     1       7.433   8.181   2.698  1.00  0.00     0.167 HD
ATOM     36  C   UNL     1       8.225  10.419   1.147  1.00  0.00     0.074 A 
ATOM     37  C   UNL     1       8.310  11.367   0.053  1.00  0.00     0.031 C 
ATOM     38  C   UNL     1       8.818  10.590   2.354  1.00  0.00     0.034 A 
BRANCH  25  39
ATOM     39  C   UNL     1       7.539   6.147   6.453  1.00  0.00     0.023 A 
ATOM     40  C   UNL     1       8.450   5.097   6.689  1.00  0.00     0.012 A 
ATOM     41  C   UNL     1       6.852   6.723   7.538  1.00  0.00     0.148 A 
ATOM     42  C   UNL     1       8.656   4.613   7.981  1.00  0.00     0.002 A 
ATOM     43  C   UNL     1       7.086   6.255   8.828  1.00  0.00     0.091 A 
ATOM     44  F   UNL     1       5.968   7.701   7.294  1.00  0.00    -0.205 F 
ATOM     45  C   UNL     1       7.983   5.198   9.050  1.00  0.00     0.022 A 
BRANCH  43  46
ATOM     46  S   UNL     1       6.302   7.002  10.262  1.00  0.00     0.127 S 
ATOM     47  O   UNL     1       5.146   6.129  10.456  1.00  0.00    -0.237 OA
ATOM     48  O   UNL     1       7.336   6.879  11.291  1.00  0.00    -0.237 OA
ATOM     49  O   UNL     1       6.008   8.373   9.871  1.00  0.00    -0.744 OA
ENDBRANCH  43  46
ENDBRANCH  25  39
BRANCH  26  50
ATOM     50  C   UNL     1       6.000   9.366  -2.873  1.00  0.00     0.023 A 
ATOM     51  C   UNL     1       7.079   9.349  -3.777  1.00  0.00     0.012 A 
ATOM     52  C   UNL     1       4.723   9.740  -3.333  1.00  0.00     0.148 A 
ATOM     53  C   UNL     1       6.892   9.705  -5.112  1.00  0.00     0.002 A 
ATOM     54  C   UNL     1       4.532  10.041  -4.676  1.00  0.00     0.091 A 
ATOM     55  F   UNL     1       3.713   9.770  -2.451  1.00  0.00    -0.205 F 
ATOM     56  C   UNL     1       5.618  10.036  -5.566  1.00  0.00     0.022 A 
BRANCH  54  57
ATOM     57  S   UNL     1       2.898  10.332  -5.365  1.00  0.00     0.127 S 
ATOM     58  O   UNL     1       2.893  11.784  -5.519  1.00  0.00    -0.237 OA
ATOM     59  O   UNL     1       2.955   9.579  -6.619  1.00  0.00    -0.237 OA
ATOM     60  O   UNL     1       1.965   9.789  -4.388  1.00  0.00    -0.744 OA
ENDBRANCH  54  57
ENDBRANCH  26  50
BRANCH  38  61
ATOM     61  C   UNL     1       9.616  11.848   2.560  1.00  0.00     0.023 A 
ATOM     62  C   UNL     1       8.940  13.063   2.788  1.00  0.00     0.012 A 
ATOM     63  C   UNL     1      11.023  11.821   2.597  1.00  0.00     0.148 A 
ATOM     64  C   UNL     1       9.652  14.237   3.027  1.00  0.00     0.002 A 
ATOM     65  C   UNL     1      11.727  12.989   2.872  1.00  0.00     0.091 A 
ATOM     66  F   UNL     1      11.651  10.661   2.352  1.00  0.00    -0.205 F 
ATOM     67  C   UNL     1      11.044  14.198   3.080  1.00  0.00     0.022 A 
BRANCH  65  68
ATOM     68  S   UNL     1      13.516  12.999   3.037  1.00  0.00     0.127 S 
ATOM     69  O   UNL     1      13.937  13.451   1.713  1.00  0.00    -0.237 OA
ATOM     70  O   UNL     1      13.732  13.971   4.110  1.00  0.00    -0.237 OA
ATOM     71  O   UNL     1      13.882  11.633   3.388  1.00  0.00    -0.744 OA
ENDBRANCH  65  68
ENDBRANCH  38  61
ENDBRANCH  12  13
ENDBRANCH   5   7
ENDBRANCH   2   3
ENDBRANCH   1   2
BRANCH   1  72
ATOM     72  C   UNL     1       4.109  -3.966   0.494  1.00  0.00     0.002 C 
BRANCH  72  73
ATOM     73  C   UNL     1       4.734  -4.382  -0.840  1.00  0.00     0.002 C 
BRANCH  73  74
ATOM     74  C   UNL     1       6.265  -4.325  -0.911  1.00  0.00     0.021 C 
BRANCH  74  75
ATOM     75  C   UNL     1       7.002  -5.092   0.188  1.00  0.00     0.116 C 
BRANCH  75  76
ATOM     76  N   UNL     1       6.694  -6.510   0.152  1.00  0.00    -0.352 N 
ATOM     77  C   UNL     1       7.518  -7.572  -0.107  1.00  0.00     0.252 C 
ATOM     78  H   UNL     1       5.757  -6.742   0.343  1.00  0.00     0.163 HD
ATOM     79  O   UNL     1       7.020  -8.671  -0.347  1.00  0.00    -0.269 OA
BRANCH  77  80
ATOM     80  C   UNL     1       8.960  -7.373  -0.112  1.00  0.00     0.051 A 
ATOM     81  C   UNL     1       9.674  -6.766   0.904  1.00  0.00     0.079 A 
ATOM     82  C   UNL     1       9.846  -7.864  -1.127  1.00  0.00     0.034 A 
ATOM     83  S   UNL     1      11.355  -6.729   0.601  1.00  0.00    -0.143 S 
ATOM     84  C   UNL     1      11.174  -7.581  -0.874  1.00  0.00     0.037 A 
BRANCH  84  85
ATOM     85  C   UNL     1      12.343  -7.911  -1.685  1.00  0.00     0.011 A 
ATOM     86  C   UNL     1      12.402  -7.575  -3.032  1.00  0.00     0.121 A 
ATOM     87  C   UNL     1      13.430  -8.614  -1.163  1.00  0.00     0.021 A 
ATOM     88  N   UNL     1      13.432  -7.883  -3.859  1.00  0.00    -0.256 NA
ATOM     89  C   UNL     1      14.513  -8.953  -1.985  1.00  0.00     0.001 A 
ATOM     90  C   UNL     1      14.469  -8.562  -3.340  1.00  0.00     0.070 A 
ATOM     91  C   UNL     1      15.615  -9.671  -1.490  1.00  0.00     0.010 A 
ATOM     92  C   UNL     1      15.539  -8.903  -4.155  1.00  0.00     0.029 A 
ATOM     93  C   UNL     1      16.674 -10.004  -2.332  1.00  0.00     0.001 A 
ATOM     94  C   UNL     1      16.637  -9.619  -3.667  1.00  0.00     0.002 A 
ENDBRANCH  84  85
ENDBRANCH  77  80
ENDBRANCH  75  76
ENDBRANCH  74  75
ENDBRANCH  73  74
ENDBRANCH  72  73
ENDBRANCH   1  72
TORSDOF 17
