REMARK SMILES CC[C@@H](C)[C@@H]([NH3+])C(=O)N1CCC(CC(=O)NCCCCCCNC(=O)c2ccc(-c3c4nc(c(-c5cccc(S(=O)(=O)[O-])c5F)c5ccc([nH]5)c(-c5cccc(S(=O)(=O)[O-])c5F)c5nc(c(-c6cccc(S(=O)(=O)[O-])c6F)c6ccc3[nH]6)C=C5)C=C4)cc2)CC1
REMARK SMILES IDX 19 1 18 2 17 3 16 4 14 5 15 6 13 8 12 9 7 10 8 11 9 12 10 13
REMARK SMILES IDX 90 14 11 15 89 16 5 17 3 18 4 19 2 20 1 21 6 22 20 26 21 27
REMARK SMILES IDX 22 28 23 29 24 30 25 32 26 33 27 34 88 35 28 36 87 37 29 38
REMARK SMILES IDX 30 39 31 40 81 41 32 42 86 43 80 44 82 45 33 46 85 47 79 48
REMARK SMILES IDX 78 49 34 51 66 52 46 53 65 54 47 55 50 56 64 57 83 58 48 59
REMARK SMILES IDX 49 60 63 62 84 63 51 64 35 65 36 66 44 67 37 68 39 69 45 70
REMARK SMILES IDX 38 71 40 72 41 73 42 74 43 75 67 76 68 77 76 78 69 79 71 80
REMARK SMILES IDX 77 81 70 82 72 83 73 84 74 85 75 86 52 87 53 88 61 89 54 90
REMARK SMILES IDX 56 91 62 92 55 93 57 94 58 95 59 96 60 97
REMARK H PARENT 16 7 6 23 6 24 6 25 23 31 82 50 50 61
REMARK Flexibility Score: inf
ROOT
ATOM      1  C   UNL     1       4.156   9.235  -6.566  1.00  0.00     0.002 C 
ENDROOT
BRANCH   1   2
ATOM      2  C   UNL     1       3.951   7.851  -5.954  1.00  0.00     0.021 C 
BRANCH   2   3
ATOM      3  C   UNL     1       4.171   6.683  -6.922  1.00  0.00     0.116 C 
BRANCH   3   4
ATOM      4  N   UNL     1       5.540   6.198  -6.839  1.00  0.00    -0.356 N 
ATOM      5  C   UNL     1       6.038   5.045  -6.308  1.00  0.00     0.220 C 
ATOM      6  O   UNL     1       7.262   4.905  -6.254  1.00  0.00    -0.275 OA
ATOM      7  H   UNL     1       6.216   6.798  -7.229  1.00  0.00     0.163 HD
BRANCH   5   8
ATOM      8  C   UNL     1       5.110   3.952  -5.806  1.00  0.00     0.103 C 
BRANCH   8   9
ATOM      9  C   UNL     1       4.834   4.006  -4.291  1.00  0.00     0.002 C 
ATOM     10  C   UNL     1       1.403   4.006  -2.187  1.00  0.00     0.281 C 
ATOM     11  O   UNL     1       0.790   4.835  -2.872  1.00  0.00    -0.268 OA
ATOM     12  N   UNL     1       2.792   3.970  -2.208  1.00  0.00    -0.338 N 
ATOM     13  C   UNL     1       3.489   5.209  -2.484  1.00  0.00     0.120 C 
ATOM     14  C   UNL     1       3.609   2.782  -2.404  1.00  0.00     0.120 C 
ATOM     15  C   UNL     1       3.994   5.231  -3.914  1.00  0.00     0.026 C 
ATOM     16  C   UNL     1       4.127   2.714  -3.845  1.00  0.00     0.026 C 
BRANCH  10  17
ATOM     17  C   UNL     1       0.630   3.229  -1.069  1.00  0.00     0.273 C 
BRANCH  17  18
ATOM     18  C   UNL     1       0.845   1.704  -0.986  1.00  0.00     0.054 C 
ATOM     19  C   UNL     1       0.437   1.055  -2.319  1.00  0.00     0.014 C 
BRANCH  18  20
ATOM     20  C   UNL     1       0.092   1.034   0.186  1.00  0.00     0.006 C 
ATOM     21  C   UNL     1       0.527  -0.414   0.396  1.00  0.00     0.004 C 
ENDBRANCH  18  20
ENDBRANCH  17  18
BRANCH  17  22
ATOM     22  N   UNL     1       0.948   3.909   0.214  1.00  0.00    -0.347 N 
ATOM     23  H   UNL     1       1.948   3.836   0.399  1.00  0.00     0.345 HD
ATOM     24  H   UNL     1       0.429   3.465   0.972  1.00  0.00     0.345 HD
ATOM     25  H   UNL     1       0.684   4.892   0.152  1.00  0.00     0.345 HD
ENDBRANCH  17  22
ENDBRANCH  10  17
ENDBRANCH   8   9
ENDBRANCH   5   8
ENDBRANCH   3   4
ENDBRANCH   2   3
ENDBRANCH   1   2
BRANCH   1  26
ATOM     26  C   UNL     1       3.086   9.660  -7.571  1.00  0.00     0.002 C 
BRANCH  26  27
ATOM     27  C   UNL     1       1.641   9.604  -7.063  1.00  0.00     0.021 C 
BRANCH  27  28
ATOM     28  C   UNL     1       1.380  10.343  -5.752  1.00  0.00     0.116 C 
BRANCH  28  29
ATOM     29  N   UNL     1       1.725  11.754  -5.841  1.00  0.00    -0.352 N 
ATOM     30  C   UNL     1       0.920  12.860  -5.734  1.00  0.00     0.251 C 
ATOM     31  H   UNL     1       2.678  11.943  -6.002  1.00  0.00     0.163 HD
ATOM     32  O   UNL     1       1.350  13.964  -6.055  1.00  0.00    -0.269 OA
BRANCH  30  33
ATOM     33  C   UNL     1      -0.466  12.719  -5.240  1.00  0.00     0.039 A 
ATOM     34  C   UNL     1      -1.497  13.377  -5.916  1.00  0.00     0.014 A 
ATOM     35  C   UNL     1      -0.743  11.961  -4.099  1.00  0.00     0.014 A 
ATOM     36  C   UNL     1      -2.815  13.232  -5.476  1.00  0.00     0.010 A 
ATOM     37  C   UNL     1      -2.063  11.764  -3.703  1.00  0.00     0.010 A 
ATOM     38  C   UNL     1      -3.111  12.405  -4.380  1.00  0.00    -0.014 A 
BRANCH  38  39
ATOM     39  C   UNL     1      -4.510  12.194  -3.930  1.00  0.00     0.031 A 
ATOM     40  C   UNL     1      -4.946  12.648  -2.565  1.00  0.00     0.074 A 
ATOM     41  C   UNL     1      -5.361  11.503  -4.713  1.00  0.00     0.049 A 
ATOM     42  N   UNL     1      -6.107  12.504  -1.980  1.00  0.00    -0.248 NA
ATOM     43  C   UNL     1      -3.936  13.324  -1.735  1.00  0.00     0.031 C 
ATOM     44  C   UNL     1      -5.028  10.927  -6.017  1.00  0.00     0.029 A 
ATOM     45  N   UNL     1      -6.668  11.139  -4.512  1.00  0.00    -0.354 N 
ATOM     46  C   UNL     1      -5.958  13.035  -0.704  1.00  0.00     0.074 A 
ATOM     47  C   UNL     1      -4.583  13.471  -0.588  1.00  0.00     0.031 C 
ATOM     48  C   UNL     1      -6.099  10.275  -6.495  1.00  0.00     0.029 A 
ATOM     49  C   UNL     1      -7.187  10.368  -5.525  1.00  0.00     0.049 A 
ATOM     50  H   UNL     1      -7.186  11.403  -3.717  1.00  0.00     0.167 HD
ATOM     51  C   UNL     1      -6.887  13.176   0.272  1.00  0.00     0.034 A 
ATOM     52  C   UNL     1      -8.399   9.795  -5.658  1.00  0.00     0.034 A 
ATOM     53  C   UNL     1      -8.262  12.780   0.136  1.00  0.00     0.049 A 
ATOM     54  C   UNL     1      -9.435  10.020  -4.592  1.00  0.00     0.074 A 
ATOM     55  C   UNL     1      -9.307  12.976   1.021  1.00  0.00     0.029 A 
ATOM     56  N   UNL     1      -8.784  12.097  -0.953  1.00  0.00    -0.354 N 
ATOM     57  N   UNL     1      -9.329  10.685  -3.467  1.00  0.00    -0.248 NA
ATOM     58  C   UNL     1     -10.770   9.453  -4.830  1.00  0.00     0.031 C 
ATOM     59  C   UNL     1     -10.457  12.393   0.475  1.00  0.00     0.029 A 
ATOM     60  C   UNL     1     -10.133  11.853  -0.760  1.00  0.00     0.049 A 
ATOM     61  H   UNL     1      -8.270  11.826  -1.748  1.00  0.00     0.167 HD
ATOM     62  C   UNL     1     -10.586  10.641  -2.876  1.00  0.00     0.074 A 
ATOM     63  C   UNL     1     -11.445   9.902  -3.780  1.00  0.00     0.031 C 
ATOM     64  C   UNL     1     -10.988  11.153  -1.686  1.00  0.00     0.034 A 
BRANCH  51  65
ATOM     65  C   UNL     1      -6.449  13.837   1.554  1.00  0.00     0.023 A 
ATOM     66  C   UNL     1      -6.150  15.216   1.557  1.00  0.00     0.012 A 
ATOM     67  C   UNL     1      -6.356  13.110   2.756  1.00  0.00     0.148 A 
ATOM     68  C   UNL     1      -5.719  15.850   2.722  1.00  0.00     0.002 A 
ATOM     69  C   UNL     1      -5.969  13.759   3.925  1.00  0.00     0.091 A 
ATOM     70  F   UNL     1      -6.620  11.796   2.735  1.00  0.00    -0.205 F 
ATOM     71  C   UNL     1      -5.638  15.124   3.906  1.00  0.00     0.022 A 
BRANCH  69  72
ATOM     72  S   UNL     1      -5.912  12.922   5.513  1.00  0.00     0.127 S 
ATOM     73  O   UNL     1      -4.478  12.689   5.674  1.00  0.00    -0.237 OA
ATOM     74  O   UNL     1      -6.470  13.929   6.418  1.00  0.00    -0.237 OA
ATOM     75  O   UNL     1      -6.734  11.729   5.362  1.00  0.00    -0.744 OA
ENDBRANCH  69  72
ENDBRANCH  51  65
BRANCH  52  76
ATOM     76  C   UNL     1      -8.708   9.021  -6.893  1.00  0.00     0.023 A 
ATOM     77  C   UNL     1      -9.566   9.578  -7.860  1.00  0.00     0.012 A 
ATOM     78  C   UNL     1      -8.098   7.777  -7.147  1.00  0.00     0.148 A 
ATOM     79  C   UNL     1      -9.826   8.902  -9.052  1.00  0.00     0.002 A 
ATOM     80  C   UNL     1      -8.319   7.134  -8.359  1.00  0.00     0.091 A 
ATOM     81  F   UNL     1      -7.290   7.264  -6.209  1.00  0.00    -0.205 F 
ATOM     82  C   UNL     1      -9.194   7.688  -9.307  1.00  0.00     0.022 A 
BRANCH  80  83
ATOM     83  S   UNL     1      -7.447   5.637  -8.835  1.00  0.00     0.127 S 
ATOM     84  O   UNL     1      -8.529   4.657  -8.867  1.00  0.00    -0.237 OA
ATOM     85  O   UNL     1      -6.910   6.007 -10.144  1.00  0.00    -0.237 OA
ATOM     86  O   UNL     1      -6.436   5.424  -7.807  1.00  0.00    -0.744 OA
ENDBRANCH  80  83
ENDBRANCH  52  76
BRANCH  64  87
ATOM     87  C   UNL     1     -12.428  10.951  -1.289  1.00  0.00     0.023 A 
ATOM     88  C   UNL     1     -12.865   9.678  -0.876  1.00  0.00     0.012 A 
ATOM     89  C   UNL     1     -13.325  12.037  -1.251  1.00  0.00     0.148 A 
ATOM     90  C   UNL     1     -14.181   9.481  -0.457  1.00  0.00     0.002 A 
ATOM     91  C   UNL     1     -14.621  11.844  -0.788  1.00  0.00     0.091 A 
ATOM     92  F   UNL     1     -12.896  13.237  -1.668  1.00  0.00    -0.205 F 
ATOM     93  C   UNL     1     -15.054  10.565  -0.401  1.00  0.00     0.022 A 
BRANCH  91  94
ATOM     94  S   UNL     1     -15.784  13.199  -0.593  1.00  0.00     0.127 S 
ATOM     95  O   UNL     1     -16.692  12.977  -1.717  1.00  0.00    -0.237 OA
ATOM     96  O   UNL     1     -16.364  12.927   0.723  1.00  0.00    -0.237 OA
ATOM     97  O   UNL     1     -14.991  14.419  -0.660  1.00  0.00    -0.744 OA
ENDBRANCH  91  94
ENDBRANCH  64  87
ENDBRANCH  38  39
ENDBRANCH  30  33
ENDBRANCH  28  29
ENDBRANCH  27  28
ENDBRANCH  26  27
ENDBRANCH   1  26
TORSDOF 21
