REMARK SMILES COc1ccc2cc([C@@H](O)[C@H](F)C(=O)NCCCCCCNC(=O)c3ccc(-c4c5nc(c(-c6cccc(S(=O)(=O)[O-])c6F)c6ccc([nH]6)c(-c6cccc(S(=O)(=O)[O-])c6F)c6nc(c(-c7cccc(S(=O)(=O)[O-])c7F)c7ccc4[nH]7)C=C6)C=C5)cc3)ccc2c1
REMARK SMILES IDX 18 1 17 2 16 3 15 4 13 5 14 6 11 8 12 9 9 10 8 11 3 12 4 13
REMARK SMILES IDX 91 14 5 15 90 16 6 17 89 18 7 19 88 20 2 21 1 22 10 23 19 25
REMARK SMILES IDX 20 26 21 27 22 28 23 29 24 31 25 32 26 33 87 34 27 35 86 36
REMARK SMILES IDX 28 37 29 38 30 39 80 40 31 41 85 42 79 43 81 44 32 45 84 46
REMARK SMILES IDX 78 47 77 48 33 50 65 51 45 52 64 53 46 54 49 55 63 56 82 57
REMARK SMILES IDX 47 58 48 59 62 61 83 62 50 63 34 64 35 65 43 66 36 67 38 68
REMARK SMILES IDX 44 69 37 70 39 71 40 72 41 73 42 74 66 75 67 76 75 77 68 78
REMARK SMILES IDX 70 79 76 80 69 81 71 82 72 83 73 84 74 85 51 86 52 87 60 88
REMARK SMILES IDX 53 89 55 90 61 91 54 92 56 93 57 94 58 95 59 96
REMARK H PARENT 15 7 10 24 22 30 81 49 49 60
REMARK Flexibility Score: inf
ROOT
ATOM      1  C   UNL     1      -0.484  12.952  -4.331  1.00  0.00     0.002 C 
ENDROOT
BRANCH   1   2
ATOM      2  C   UNL     1      -0.562  11.521  -3.795  1.00  0.00     0.021 C 
BRANCH   2   3
ATOM      3  C   UNL     1       0.231  10.504  -4.605  1.00  0.00     0.116 C 
BRANCH   3   4
ATOM      4  N   UNL     1       1.665  10.741  -4.561  1.00  0.00    -0.353 N 
ATOM      5  C   UNL     1       2.657   9.809  -4.395  1.00  0.00     0.257 C 
ATOM      6  O   UNL     1       3.831  10.154  -4.556  1.00  0.00    -0.272 OA
ATOM      7  H   UNL     1       1.957  11.676  -4.662  1.00  0.00     0.163 HD
BRANCH   5   8
ATOM      8  C   UNL     1       2.295   8.380  -4.010  1.00  0.00     0.288 C 
ATOM      9  F   UNL     1       1.356   8.370  -3.015  1.00  0.00    -0.234 F 
BRANCH   8  10
ATOM     10  C   UNL     1       1.866   7.527  -5.233  1.00  0.00     0.188 C 
BRANCH  10  11
ATOM     11  C   UNL     1       1.131   6.249  -4.878  1.00  0.00    -0.015 A 
ATOM     12  C   UNL     1      -2.126   2.774  -3.106  1.00  0.00     0.119 A 
ATOM     13  C   UNL     1      -2.588   4.004  -2.645  1.00  0.00     0.047 A 
ATOM     14  C   UNL     1      -0.977   2.714  -3.897  1.00  0.00     0.055 A 
ATOM     15  C   UNL     1      -1.910   5.174  -2.991  1.00  0.00     0.012 A 
ATOM     16  C   UNL     1      -0.282   3.881  -4.252  1.00  0.00    -0.015 A 
ATOM     17  C   UNL     1      -0.756   5.124  -3.788  1.00  0.00    -0.018 A 
ATOM     18  C   UNL     1       0.870   3.844  -5.055  1.00  0.00     0.009 A 
ATOM     19  C   UNL     1      -0.055   6.290  -4.123  1.00  0.00     0.015 A 
ATOM     20  C   UNL     1       1.570   5.014  -5.363  1.00  0.00     0.007 A 
BRANCH  12  21
ATOM     21  O   UNL     1      -2.689   1.567  -2.788  1.00  0.00    -0.497 OA
ATOM     22  C   UNL     1      -4.112   1.577  -2.724  1.00  0.00     0.278 C 
ENDBRANCH  12  21
ENDBRANCH  10  11
BRANCH  10  23
ATOM     23  O   UNL     1       1.063   8.230  -6.187  1.00  0.00    -0.385 OA
ATOM     24  H   UNL     1       0.206   8.450  -5.788  1.00  0.00     0.211 HD
ENDBRANCH  10  23
ENDBRANCH   8  10
ENDBRANCH   5   8
ENDBRANCH   3   4
ENDBRANCH   2   3
ENDBRANCH   1   2
BRANCH   1  25
ATOM     25  C   UNL     1      -0.875  13.121  -5.803  1.00  0.00     0.002 C 
BRANCH  25  26
ATOM     26  C   UNL     1      -2.261  12.591  -6.178  1.00  0.00     0.021 C 
BRANCH  26  27
ATOM     27  C   UNL     1      -3.411  13.164  -5.357  1.00  0.00     0.116 C 
BRANCH  27  28
ATOM     28  N   UNL     1      -3.502  14.612  -5.471  1.00  0.00    -0.352 N 
ATOM     29  C   UNL     1      -4.588  15.391  -5.780  1.00  0.00     0.251 C 
ATOM     30  H   UNL     1      -2.666  15.103  -5.301  1.00  0.00     0.163 HD
ATOM     31  O   UNL     1      -4.440  16.591  -6.006  1.00  0.00    -0.269 OA
BRANCH  29  32
ATOM     32  C   UNL     1      -5.932  14.782  -5.860  1.00  0.00     0.039 A 
ATOM     33  C   UNL     1      -6.763  15.113  -6.933  1.00  0.00     0.014 A 
ATOM     34  C   UNL     1      -6.368  13.883  -4.883  1.00  0.00     0.014 A 
ATOM     35  C   UNL     1      -8.011  14.499  -7.055  1.00  0.00     0.010 A 
ATOM     36  C   UNL     1      -7.576  13.213  -5.050  1.00  0.00     0.010 A 
ATOM     37  C   UNL     1      -8.415  13.520  -6.132  1.00  0.00    -0.014 A 
BRANCH  37  38
ATOM     38  C   UNL     1      -9.704  12.800  -6.287  1.00  0.00     0.031 A 
ATOM     39  C   UNL     1     -10.772  12.916  -5.235  1.00  0.00     0.074 A 
ATOM     40  C   UNL     1      -9.881  11.974  -7.337  1.00  0.00     0.049 A 
ATOM     41  N   UNL     1     -11.943  12.336  -5.180  1.00  0.00    -0.248 NA
ATOM     42  C   UNL     1     -10.475  13.776  -4.078  1.00  0.00     0.031 C 
ATOM     43  C   UNL     1      -8.893  11.719  -8.387  1.00  0.00     0.029 A 
ATOM     44  N   UNL     1     -10.947  11.181  -7.683  1.00  0.00    -0.354 N 
ATOM     45  C   UNL     1     -12.506  12.729  -3.972  1.00  0.00     0.074 A 
ATOM     46  C   UNL     1     -11.530  13.564  -3.306  1.00  0.00     0.031 C 
ATOM     47  C   UNL     1      -9.405  10.845  -9.269  1.00  0.00     0.029 A 
ATOM     48  C   UNL     1     -10.739  10.450  -8.829  1.00  0.00     0.049 A 
ATOM     49  H   UNL     1     -11.780  11.140  -7.161  1.00  0.00     0.167 HD
ATOM     50  C   UNL     1     -13.733  12.446  -3.473  1.00  0.00     0.034 A 
ATOM     51  C   UNL     1     -11.533   9.559  -9.454  1.00  0.00     0.034 A 
ATOM     52  C   UNL     1     -14.709  11.635  -4.151  1.00  0.00     0.049 A 
ATOM     53  C   UNL     1     -12.896   9.270  -8.890  1.00  0.00     0.074 A 
ATOM     54  C   UNL     1     -16.011  11.357  -3.773  1.00  0.00     0.029 A 
ATOM     55  N   UNL     1     -14.485  10.954  -5.338  1.00  0.00    -0.354 N 
ATOM     56  N   UNL     1     -13.473   9.772  -7.825  1.00  0.00    -0.248 NA
ATOM     57  C   UNL     1     -13.732   8.316  -9.633  1.00  0.00     0.031 C 
ATOM     58  C   UNL     1     -16.559  10.476  -4.711  1.00  0.00     0.029 A 
ATOM     59  C   UNL     1     -15.615  10.240  -5.698  1.00  0.00     0.049 A 
ATOM     60  H   UNL     1     -13.645  10.976  -5.851  1.00  0.00     0.167 HD
ATOM     61  C   UNL     1     -14.751   9.227  -7.790  1.00  0.00     0.074 A 
ATOM     62  C   UNL     1     -14.868   8.367  -8.950  1.00  0.00     0.031 C 
ATOM     63  C   UNL     1     -15.735   9.416  -6.875  1.00  0.00     0.034 A 
BRANCH  50  64
ATOM     64  C   UNL     1     -14.093  13.046  -2.136  1.00  0.00     0.023 A 
ATOM     65  C   UNL     1     -14.268  14.442  -2.018  1.00  0.00     0.012 A 
ATOM     66  C   UNL     1     -14.277  12.233  -1.002  1.00  0.00     0.148 A 
ATOM     67  C   UNL     1     -14.563  15.022  -0.785  1.00  0.00     0.002 A 
ATOM     68  C   UNL     1     -14.623  12.813   0.214  1.00  0.00     0.091 A 
ATOM     69  F   UNL     1     -14.088  10.911  -1.123  1.00  0.00    -0.205 F 
ATOM     70  C   UNL     1     -14.749  14.207   0.328  1.00  0.00     0.022 A 
BRANCH  68  71
ATOM     71  S   UNL     1     -14.966  11.841   1.685  1.00  0.00     0.127 S 
ATOM     72  O   UNL     1     -13.775  12.100   2.493  1.00  0.00    -0.237 OA
ATOM     73  O   UNL     1     -16.190  12.465   2.188  1.00  0.00    -0.237 OA
ATOM     74  O   UNL     1     -15.129  10.469   1.228  1.00  0.00    -0.744 OA
ENDBRANCH  68  71
ENDBRANCH  50  64
BRANCH  51  75
ATOM     75  C   UNL     1     -11.079   8.935 -10.729  1.00  0.00     0.023 A 
ATOM     76  C   UNL     1     -11.696   9.313 -11.938  1.00  0.00     0.012 A 
ATOM     77  C   UNL     1     -10.016   8.012 -10.758  1.00  0.00     0.148 A 
ATOM     78  C   UNL     1     -11.279   8.765 -13.151  1.00  0.00     0.002 A 
ATOM     79  C   UNL     1      -9.569   7.511 -11.975  1.00  0.00     0.091 A 
ATOM     80  F   UNL     1      -9.447   7.665  -9.596  1.00  0.00    -0.205 F 
ATOM     81  C   UNL     1     -10.210   7.873 -13.171  1.00  0.00     0.022 A 
BRANCH  79  82
ATOM     82  S   UNL     1      -8.122   6.457 -12.116  1.00  0.00     0.127 S 
ATOM     83  O   UNL     1      -8.704   5.213 -12.614  1.00  0.00    -0.237 OA
ATOM     84  O   UNL     1      -7.311   7.192 -13.087  1.00  0.00    -0.237 OA
ATOM     85  O   UNL     1      -7.549   6.388 -10.778  1.00  0.00    -0.744 OA
ENDBRANCH  79  82
ENDBRANCH  51  75
BRANCH  63  86
ATOM     86  C   UNL     1     -17.047   8.710  -7.104  1.00  0.00     0.023 A 
ATOM     87  C   UNL     1     -17.137   7.313  -6.938  1.00  0.00     0.012 A 
ATOM     88  C   UNL     1     -18.209   9.444  -7.416  1.00  0.00     0.148 A 
ATOM     89  C   UNL     1     -18.354   6.655  -7.114  1.00  0.00     0.002 A 
ATOM     90  C   UNL     1     -19.428   8.788  -7.536  1.00  0.00     0.091 A 
ATOM     91  F   UNL     1     -18.101  10.769  -7.587  1.00  0.00    -0.205 F 
ATOM     92  C   UNL     1     -19.500   7.393  -7.400  1.00  0.00     0.022 A 
BRANCH  90  93
ATOM     93  S   UNL     1     -20.973   9.665  -7.804  1.00  0.00     0.127 S 
ATOM     94  O   UNL     1     -21.298   9.284  -9.177  1.00  0.00    -0.237 OA
ATOM     95  O   UNL     1     -21.843   9.077  -6.785  1.00  0.00    -0.237 OA
ATOM     96  O   UNL     1     -20.675  11.077  -7.603  1.00  0.00    -0.744 OA
ENDBRANCH  90  93
ENDBRANCH  63  86
ENDBRANCH  37  38
ENDBRANCH  29  32
ENDBRANCH  27  28
ENDBRANCH  26  27
ENDBRANCH  25  26
ENDBRANCH   1  25
TORSDOF 20
