REMARK SMILES Cc1cc(=O)n2cc(-c3ccccc3)nc2n1[C@H](C)C(=O)NCCCCCCNC(=O)c1ccc(-c2c3nc(c(-c4cccc(S(=O)(=O)[O-])c4F)c4ccc([nH]4)c(-c4cccc(S(=O)(=O)[O-])c4F)c4nc(c(-c5cccc(S(=O)(=O)[O-])c5F)c5ccc2[nH]5)C=C4)C=C3)cc1
REMARK SMILES IDX 26 1 25 2 24 3 23 4 22 5 20 6 21 7 18 9 19 10 17 11 1 12
REMARK SMILES IDX 2 13 3 14 4 15 16 16 5 17 6 18 15 19 7 20 8 21 9 22 10 23
REMARK SMILES IDX 14 24 11 25 13 26 12 27 27 28 28 29 29 30 30 31 31 33 32 34
REMARK SMILES IDX 33 35 94 36 34 37 93 38 35 39 36 40 37 41 87 42 38 43 92 44
REMARK SMILES IDX 86 45 88 46 39 47 91 48 85 49 84 50 40 52 72 53 52 54 71 55
REMARK SMILES IDX 53 56 56 57 70 58 89 59 54 60 55 61 69 63 90 64 57 65 41 66
REMARK SMILES IDX 42 67 50 68 43 69 45 70 51 71 44 72 46 73 47 74 48 75 49 76
REMARK SMILES IDX 73 77 74 78 82 79 75 80 77 81 83 82 76 83 78 84 79 85 80 86
REMARK SMILES IDX 81 87 58 88 59 89 67 90 60 91 62 92 68 93 61 94 63 95 64 96
REMARK SMILES IDX 65 97 66 98
REMARK H PARENT 22 8 29 32 88 51 56 62
REMARK Flexibility Score: inf
ROOT
ATOM      1  C   UNL     1      -3.582  -4.072   5.810  1.00  0.00     0.002 C 
ENDROOT
BRANCH   1   2
ATOM      2  C   UNL     1      -3.858  -2.804   4.988  1.00  0.00     0.002 C 
BRANCH   2   3
ATOM      3  C   UNL     1      -2.646  -1.947   4.643  1.00  0.00     0.021 C 
BRANCH   3   4
ATOM      4  C   UNL     1      -1.472  -2.705   4.050  1.00  0.00     0.116 C 
BRANCH   4   5
ATOM      5  N   UNL     1      -1.687  -3.138   2.692  1.00  0.00    -0.354 N 
ATOM      6  C   UNL     1      -0.854  -2.992   1.622  1.00  0.00     0.242 C 
ATOM      7  O   UNL     1      -1.212  -3.524   0.561  1.00  0.00    -0.273 OA
ATOM      8  H   UNL     1      -2.541  -3.595   2.515  1.00  0.00     0.163 HD
BRANCH   6   9
ATOM      9  C   UNL     1       0.494  -2.228   1.705  1.00  0.00     0.176 C 
ATOM     10  C   UNL     1       0.329  -0.740   2.009  1.00  0.00     0.042 C 
BRANCH   9  11
ATOM     11  N   UNL     1       1.540  -3.031   2.442  1.00  0.00    -0.303 N 
ATOM     12  C   UNL     1       1.853  -4.568   0.431  1.00  0.00     0.065 C 
ATOM     13  C   UNL     1       2.109  -4.200   1.875  1.00  0.00     0.024 A 
ATOM     14  C   UNL     1       2.891  -5.034   2.586  1.00  0.00     0.093 A 
ATOM     15  C   UNL     1       3.158  -4.783   4.015  1.00  0.00     0.259 A 
ATOM     16  C   UNL     1       1.850  -2.717   3.748  1.00  0.00     0.218 A 
ATOM     17  O   UNL     1       3.789  -5.533   4.734  1.00  0.00    -0.269 OA
ATOM     18  N   UNL     1       2.606  -3.604   4.500  1.00  0.00    -0.251 N 
ATOM     19  N   UNL     1       1.503  -1.691   4.492  1.00  0.00    -0.212 NA
ATOM     20  C   UNL     1       2.652  -3.127   5.793  1.00  0.00     0.127 A 
ATOM     21  C   UNL     1       1.962  -1.942   5.758  1.00  0.00     0.091 A 
BRANCH  21  22
ATOM     22  C   UNL     1       1.674  -1.098   6.895  1.00  0.00     0.002 A 
ATOM     23  C   UNL     1       2.683  -0.351   7.509  1.00  0.00     0.010 A 
ATOM     24  C   UNL     1       0.359  -0.992   7.364  1.00  0.00     0.010 A 
ATOM     25  C   UNL     1       2.373   0.506   8.567  1.00  0.00     0.001 A 
ATOM     26  C   UNL     1       0.052  -0.144   8.429  1.00  0.00     0.001 A 
ATOM     27  C   UNL     1       1.060   0.611   9.025  1.00  0.00     0.000 A 
ENDBRANCH  21  22
ENDBRANCH   9  11
ENDBRANCH   6   9
ENDBRANCH   4   5
ENDBRANCH   3   4
ENDBRANCH   2   3
ENDBRANCH   1   2
BRANCH   1  28
ATOM     28  C   UNL     1      -2.755  -3.910   7.094  1.00  0.00     0.021 C 
BRANCH  28  29
ATOM     29  C   UNL     1      -3.358  -2.945   8.100  1.00  0.00     0.116 C 
BRANCH  29  30
ATOM     30  N   UNL     1      -4.634  -3.424   8.626  1.00  0.00    -0.352 N 
ATOM     31  C   UNL     1      -5.398  -2.872   9.632  1.00  0.00     0.251 C 
ATOM     32  H   UNL     1      -4.993  -4.242   8.210  1.00  0.00     0.163 HD
ATOM     33  O   UNL     1      -6.247  -3.540  10.212  1.00  0.00    -0.269 OA
BRANCH  31  34
ATOM     34  C   UNL     1      -5.188  -1.458   9.984  1.00  0.00     0.039 A 
ATOM     35  C   UNL     1      -5.249  -1.023  11.311  1.00  0.00     0.014 A 
ATOM     36  C   UNL     1      -4.941  -0.559   8.948  1.00  0.00     0.014 A 
ATOM     37  C   UNL     1      -5.012   0.320  11.588  1.00  0.00     0.010 A 
ATOM     38  C   UNL     1      -4.558   0.723   9.232  1.00  0.00     0.010 A 
ATOM     39  C   UNL     1      -4.664   1.183  10.539  1.00  0.00    -0.014 A 
BRANCH  39  40
ATOM     40  C   UNL     1      -4.294   2.567  10.791  1.00  0.00     0.031 A 
ATOM     41  C   UNL     1      -3.115   2.729  11.683  1.00  0.00     0.074 A 
ATOM     42  C   UNL     1      -4.820   3.585  10.074  1.00  0.00     0.049 A 
ATOM     43  N   UNL     1      -3.084   3.267  12.855  1.00  0.00    -0.248 NA
ATOM     44  C   UNL     1      -1.853   2.080  11.300  1.00  0.00     0.031 C 
ATOM     45  C   UNL     1      -5.764   3.511   8.950  1.00  0.00     0.029 A 
ATOM     46  N   UNL     1      -4.491   4.902  10.094  1.00  0.00    -0.354 N 
ATOM     47  C   UNL     1      -1.749   3.235  13.254  1.00  0.00     0.074 A 
ATOM     48  C   UNL     1      -1.087   2.318  12.366  1.00  0.00     0.031 C 
ATOM     49  C   UNL     1      -5.713   4.662   8.243  1.00  0.00     0.029 A 
ATOM     50  C   UNL     1      -4.866   5.604   8.950  1.00  0.00     0.049 A 
ATOM     51  H   UNL     1      -4.026   5.326  10.851  1.00  0.00     0.167 HD
ATOM     52  C   UNL     1      -1.255   4.154  14.130  1.00  0.00     0.034 A 
ATOM     53  C   UNL     1      -4.455   6.846   8.591  1.00  0.00     0.034 A 
ATOM     54  C   UNL     1      -2.323   4.881  14.770  1.00  0.00     0.049 A 
ATOM     55  C   UNL     1      -3.964   7.505   9.825  1.00  0.00     0.074 A 
ATOM     56  C   UNL     1      -3.402   4.524  15.553  1.00  0.00     0.029 A 
ATOM     57  N   UNL     1      -2.609   6.131  14.273  1.00  0.00    -0.354 N 
ATOM     58  N   UNL     1      -4.741   7.805  10.829  1.00  0.00    -0.248 NA
ATOM     59  C   UNL     1      -2.549   7.390  10.137  1.00  0.00     0.031 C 
ATOM     60  C   UNL     1      -4.473   5.340  15.085  1.00  0.00     0.029 A 
ATOM     61  C   UNL     1      -3.968   6.207  14.113  1.00  0.00     0.049 A 
ATOM     62  H   UNL     1      -1.958   6.840  14.069  1.00  0.00     0.167 HD
ATOM     63  C   UNL     1      -4.005   7.441  11.948  1.00  0.00     0.074 A 
ATOM     64  C   UNL     1      -2.629   7.295  11.468  1.00  0.00     0.031 C 
ATOM     65  C   UNL     1      -4.617   6.990  13.083  1.00  0.00     0.034 A 
BRANCH  52  66
ATOM     66  C   UNL     1       0.167   4.664  14.172  1.00  0.00     0.023 A 
ATOM     67  C   UNL     1       0.510   5.514  15.249  1.00  0.00     0.012 A 
ATOM     68  C   UNL     1       1.087   4.585  13.103  1.00  0.00     0.148 A 
ATOM     69  C   UNL     1       1.672   6.292  15.234  1.00  0.00     0.002 A 
ATOM     70  C   UNL     1       2.280   5.301  13.127  1.00  0.00     0.091 A 
ATOM     71  F   UNL     1       0.769   3.918  11.991  1.00  0.00    -0.205 F 
ATOM     72  C   UNL     1       2.561   6.182  14.174  1.00  0.00     0.022 A 
BRANCH  70  73
ATOM     73  S   UNL     1       3.494   5.160  11.809  1.00  0.00     0.127 S 
ATOM     74  O   UNL     1       3.359   6.454  11.146  1.00  0.00    -0.237 OA
ATOM     75  O   UNL     1       4.733   4.976  12.564  1.00  0.00    -0.237 OA
ATOM     76  O   UNL     1       3.093   3.995  11.028  1.00  0.00    -0.744 OA
ENDBRANCH  70  73
ENDBRANCH  52  66
BRANCH  53  77
ATOM     77  C   UNL     1      -4.196   7.413   7.244  1.00  0.00     0.023 A 
ATOM     78  C   UNL     1      -4.090   8.811   7.082  1.00  0.00     0.012 A 
ATOM     79  C   UNL     1      -3.757   6.590   6.183  1.00  0.00     0.148 A 
ATOM     80  C   UNL     1      -3.528   9.366   5.924  1.00  0.00     0.002 A 
ATOM     81  C   UNL     1      -3.196   7.146   5.035  1.00  0.00     0.091 A 
ATOM     82  F   UNL     1      -3.802   5.260   6.337  1.00  0.00    -0.205 F 
ATOM     83  C   UNL     1      -3.070   8.534   4.907  1.00  0.00     0.022 A 
BRANCH  81  84
ATOM     84  S   UNL     1      -2.531   6.132   3.706  1.00  0.00     0.127 S 
ATOM     85  O   UNL     1      -3.151   6.735   2.526  1.00  0.00    -0.237 OA
ATOM     86  O   UNL     1      -1.097   6.371   3.835  1.00  0.00    -0.237 OA
ATOM     87  O   UNL     1      -2.972   4.771   3.985  1.00  0.00    -0.744 OA
ENDBRANCH  81  84
ENDBRANCH  53  77
BRANCH  65  88
ATOM     88  C   UNL     1      -6.125   7.068  13.171  1.00  0.00     0.023 A 
ATOM     89  C   UNL     1      -6.973   6.354  12.297  1.00  0.00     0.012 A 
ATOM     90  C   UNL     1      -6.689   7.688  14.298  1.00  0.00     0.148 A 
ATOM     91  C   UNL     1      -8.348   6.268  12.536  1.00  0.00     0.002 A 
ATOM     92  C   UNL     1      -8.046   7.555  14.563  1.00  0.00     0.091 A 
ATOM     93  F   UNL     1      -5.873   8.363  15.123  1.00  0.00    -0.205 F 
ATOM     94  C   UNL     1      -8.882   6.854  13.680  1.00  0.00     0.022 A 
BRANCH  92  95
ATOM     95  S   UNL     1      -8.764   8.154  16.094  1.00  0.00     0.127 S 
ATOM     96  O   UNL     1      -9.520   9.319  15.640  1.00  0.00    -0.237 OA
ATOM     97  O   UNL     1      -9.586   7.020  16.520  1.00  0.00    -0.237 OA
ATOM     98  O   UNL     1      -7.642   8.440  16.979  1.00  0.00    -0.744 OA
ENDBRANCH  92  95
ENDBRANCH  65  88
ENDBRANCH  39  40
ENDBRANCH  31  34
ENDBRANCH  29  30
ENDBRANCH  28  29
ENDBRANCH   1  28
TORSDOF 18
