REMARK SMILES Cn1nc(-c2cccs2)cc1C(=O)N1CC[C@@H](c2ccccc2C(=O)NCCCCCCNC(=O)c2ccc(-c3c4nc(c(-c5cccc(S(=O)(=O)[O-])c5F)c5ccc([nH]5)c(-c5cccc(S(=O)(=O)[O-])c5F)c5nc(c(-c6cccc(S(=O)(=O)[O-])c6F)c6ccc3[nH]6)C=C5)C=C4)cc2)C1
REMARK SMILES IDX 29 1 28 2 27 3 26 4 24 5 25 6 23 8 18 9 19 10 20 11 22 12
REMARK SMILES IDX 21 13 17 14 14 15 15 16 99 17 16 18 12 19 13 20 11 21 1 22
REMARK SMILES IDX 2 23 3 24 4 25 10 26 5 27 6 28 9 29 7 30 8 31 30 32 31 33
REMARK SMILES IDX 32 34 33 35 34 36 35 38 36 39 37 40 98 41 38 42 97 43 39 44
REMARK SMILES IDX 40 45 41 46 91 47 42 48 96 49 90 50 92 51 43 52 95 53 89 54
REMARK SMILES IDX 88 55 44 57 76 58 56 59 75 60 57 61 60 62 74 63 93 64 58 65
REMARK SMILES IDX 59 66 73 68 94 69 61 70 45 71 46 72 54 73 47 74 49 75 55 76
REMARK SMILES IDX 48 77 50 78 51 79 52 80 53 81 77 82 78 83 86 84 79 85 81 86
REMARK SMILES IDX 87 87 80 88 82 89 83 90 84 91 85 92 62 93 63 94 71 95 64 96
REMARK SMILES IDX 66 97 72 98 65 99 67 100 68 101 69 102 70 103
REMARK H PARENT 26 7 33 37 92 56 60 67
REMARK Flexibility Score: inf
ROOT
ATOM      1  C   UNL     1      -5.101  -2.044   4.754  1.00  0.00     0.002 C 
ENDROOT
BRANCH   1   2
ATOM      2  C   UNL     1      -4.640  -2.594   3.399  1.00  0.00     0.021 C 
BRANCH   2   3
ATOM      3  C   UNL     1      -4.940  -4.087   3.192  1.00  0.00     0.116 C 
BRANCH   3   4
ATOM      4  N   UNL     1      -6.253  -4.228   2.590  1.00  0.00    -0.352 N 
ATOM      5  C   UNL     1      -6.675  -4.640   1.355  1.00  0.00     0.251 C 
ATOM      6  O   UNL     1      -7.880  -4.550   1.111  1.00  0.00    -0.269 OA
ATOM      7  H   UNL     1      -6.989  -3.975   3.192  1.00  0.00     0.163 HD
BRANCH   5   8
ATOM      8  C   UNL     1      -5.809  -5.300   0.336  1.00  0.00     0.043 A 
ATOM      9  C   UNL     1      -4.702  -4.747  -0.344  1.00  0.00    -0.030 A 
ATOM     10  C   UNL     1      -4.138  -5.487  -1.411  1.00  0.00     0.005 A 
ATOM     11  C   UNL     1      -4.647  -6.724  -1.802  1.00  0.00     0.000 A 
ATOM     12  C   UNL     1      -6.313  -6.551  -0.081  1.00  0.00     0.014 A 
ATOM     13  C   UNL     1      -5.738  -7.259  -1.136  1.00  0.00     0.001 A 
BRANCH   9  14
ATOM     14  C   UNL     1      -4.067  -3.417  -0.009  1.00  0.00     0.041 C 
ATOM     15  N   UNL     1      -1.898  -2.472  -0.123  1.00  0.00    -0.337 N 
ATOM     16  C   UNL     1      -2.523  -2.070  -1.364  1.00  0.00     0.120 C 
ATOM     17  C   UNL     1      -2.610  -3.581   0.458  1.00  0.00     0.128 C 
ATOM     18  C   UNL     1      -4.001  -2.381  -1.157  1.00  0.00     0.032 C 
BRANCH  15  19
ATOM     19  C   UNL     1      -0.599  -2.211   0.272  1.00  0.00     0.272 C 
ATOM     20  O   UNL     1       0.043  -3.075   0.876  1.00  0.00    -0.267 OA
BRANCH  19  21
ATOM     21  C   UNL     1      -0.083  -0.885   0.061  1.00  0.00     0.126 A 
ATOM     22  C   UNL     1      -2.062   0.472   0.871  1.00  0.00     0.174 C 
ATOM     23  N   UNL     1      -0.734   0.292   0.333  1.00  0.00    -0.262 N 
ATOM     24  N   UNL     1       0.034   1.383   0.204  1.00  0.00    -0.172 NA
ATOM     25  C   UNL     1       1.255   0.904  -0.067  1.00  0.00     0.103 A 
ATOM     26  C   UNL     1       1.221  -0.503  -0.215  1.00  0.00     0.065 A 
BRANCH  25  27
ATOM     27  C   UNL     1       2.466   1.790  -0.128  1.00  0.00     0.055 A 
ATOM     28  C   UNL     1       3.733   1.382  -0.496  1.00  0.00     0.022 A 
ATOM     29  S   UNL     1       2.442   3.447   0.310  1.00  0.00    -0.142 S 
ATOM     30  C   UNL     1       4.690   2.438  -0.398  1.00  0.00     0.012 A 
ATOM     31  C   UNL     1       4.125   3.609   0.052  1.00  0.00     0.065 A 
ENDBRANCH  25  27
ENDBRANCH  19  21
ENDBRANCH  15  19
ENDBRANCH   9  14
ENDBRANCH   5   8
ENDBRANCH   3   4
ENDBRANCH   2   3
ENDBRANCH   1   2
BRANCH   1  32
ATOM     32  C   UNL     1      -4.105  -2.253   5.898  1.00  0.00     0.002 C 
BRANCH  32  33
ATOM     33  C   UNL     1      -2.700  -1.671   5.683  1.00  0.00     0.021 C 
BRANCH  33  34
ATOM     34  C   UNL     1      -2.639  -0.201   5.267  1.00  0.00     0.116 C 
BRANCH  34  35
ATOM     35  N   UNL     1      -3.148   0.688   6.298  1.00  0.00    -0.352 N 
ATOM     36  C   UNL     1      -2.545   1.776   6.882  1.00  0.00     0.251 C 
ATOM     37  H   UNL     1      -4.053   0.481   6.624  1.00  0.00     0.163 HD
ATOM     38  O   UNL     1      -3.060   2.300   7.866  1.00  0.00    -0.269 OA
BRANCH  36  39
ATOM     39  C   UNL     1      -1.272   2.308   6.344  1.00  0.00     0.039 A 
ATOM     40  C   UNL     1      -0.236   2.606   7.237  1.00  0.00     0.014 A 
ATOM     41  C   UNL     1      -1.107   2.547   4.976  1.00  0.00     0.014 A 
ATOM     42  C   UNL     1       0.981   3.096   6.753  1.00  0.00     0.010 A 
ATOM     43  C   UNL     1       0.122   2.995   4.490  1.00  0.00     0.010 A 
ATOM     44  C   UNL     1       1.175   3.278   5.375  1.00  0.00    -0.014 A 
BRANCH  44  45
ATOM     45  C   UNL     1       2.474   3.757   4.840  1.00  0.00     0.031 A 
ATOM     46  C   UNL     1       2.592   5.136   4.253  1.00  0.00     0.074 A 
ATOM     47  C   UNL     1       3.529   2.922   4.813  1.00  0.00     0.049 A 
ATOM     48  N   UNL     1       3.637   5.718   3.722  1.00  0.00    -0.248 NA
ATOM     49  C   UNL     1       1.377   5.966   4.254  1.00  0.00     0.031 C 
ATOM     50  C   UNL     1       3.524   1.537   5.287  1.00  0.00     0.029 A 
ATOM     51  N   UNL     1       4.804   3.108   4.341  1.00  0.00    -0.354 N 
ATOM     52  C   UNL     1       3.197   6.962   3.288  1.00  0.00     0.074 A 
ATOM     53  C   UNL     1       1.790   7.052   3.614  1.00  0.00     0.031 C 
ATOM     54  C   UNL     1       4.734   0.996   5.072  1.00  0.00     0.029 A 
ATOM     55  C   UNL     1       5.597   1.990   4.439  1.00  0.00     0.049 A 
ATOM     56  H   UNL     1       5.121   3.962   3.967  1.00  0.00     0.167 HD
ATOM     57  C   UNL     1       3.907   7.952   2.699  1.00  0.00     0.034 A 
ATOM     58  C   UNL     1       6.875   1.789   4.065  1.00  0.00     0.034 A 
ATOM     59  C   UNL     1       5.318   7.889   2.431  1.00  0.00     0.049 A 
ATOM     60  C   UNL     1       7.656   2.925   3.466  1.00  0.00     0.074 A 
ATOM     61  C   UNL     1       6.144   8.881   1.933  1.00  0.00     0.029 A 
ATOM     62  N   UNL     1       6.111   6.773   2.639  1.00  0.00    -0.354 N 
ATOM     63  N   UNL     1       7.270   4.155   3.228  1.00  0.00    -0.248 NA
ATOM     64  C   UNL     1       9.060   2.659   3.118  1.00  0.00     0.031 C 
ATOM     65  C   UNL     1       7.441   8.363   1.839  1.00  0.00     0.029 A 
ATOM     66  C   UNL     1       7.417   7.046   2.270  1.00  0.00     0.049 A 
ATOM     67  H   UNL     1       5.794   5.913   2.998  1.00  0.00     0.167 HD
ATOM     68  C   UNL     1       8.388   4.817   2.736  1.00  0.00     0.074 A 
ATOM     69  C   UNL     1       9.472   3.856   2.720  1.00  0.00     0.031 C 
ATOM     70  C   UNL     1       8.501   6.100   2.318  1.00  0.00     0.034 A 
BRANCH  57  71
ATOM     71  C   UNL     1       3.183   9.228   2.373  1.00  0.00     0.023 A 
ATOM     72  C   UNL     1       2.933  10.154   3.405  1.00  0.00     0.012 A 
ATOM     73  C   UNL     1       2.808   9.542   1.053  1.00  0.00     0.148 A 
ATOM     74  C   UNL     1       2.304  11.367   3.133  1.00  0.00     0.002 A 
ATOM     75  C   UNL     1       2.203  10.766   0.785  1.00  0.00     0.091 A 
ATOM     76  F   UNL     1       3.029   8.637   0.089  1.00  0.00    -0.205 F 
ATOM     77  C   UNL     1       1.948  11.677   1.823  1.00  0.00     0.022 A 
BRANCH  75  78
ATOM     78  S   UNL     1       1.769  11.266  -0.885  1.00  0.00     0.127 S 
ATOM     79  O   UNL     1       0.348  10.927  -0.938  1.00  0.00    -0.237 OA
ATOM     80  O   UNL     1       2.050  12.703  -0.870  1.00  0.00    -0.237 OA
ATOM     81  O   UNL     1       2.641  10.496  -1.762  1.00  0.00    -0.744 OA
ENDBRANCH  75  78
ENDBRANCH  57  71
BRANCH  58  82
ATOM     82  C   UNL     1       7.526   0.481   4.345  1.00  0.00     0.023 A 
ATOM     83  C   UNL     1       8.448   0.392   5.406  1.00  0.00     0.012 A 
ATOM     84  C   UNL     1       7.213  -0.675   3.607  1.00  0.00     0.148 A 
ATOM     85  C   UNL     1       9.060  -0.823   5.717  1.00  0.00     0.002 A 
ATOM     86  C   UNL     1       7.796  -1.892   3.949  1.00  0.00     0.091 A 
ATOM     87  F   UNL     1       6.355  -0.570   2.583  1.00  0.00    -0.205 F 
ATOM     88  C   UNL     1       8.725  -1.967   4.997  1.00  0.00     0.022 A 
BRANCH  86  89
ATOM     89  S   UNL     1       7.310  -3.413   3.126  1.00  0.00     0.127 S 
ATOM     90  O   UNL     1       8.250  -3.467   2.010  1.00  0.00    -0.237 OA
ATOM     91  O   UNL     1       7.528  -4.423   4.163  1.00  0.00    -0.237 OA
ATOM     92  O   UNL     1       5.909  -3.211   2.782  1.00  0.00    -0.744 OA
ENDBRANCH  86  89
ENDBRANCH  58  82
BRANCH  70  93
ATOM     93  C   UNL     1       9.840   6.553   1.808  1.00  0.00     0.023 A 
ATOM     94  C   UNL     1      10.228   6.204   0.500  1.00  0.00     0.012 A 
ATOM     95  C   UNL     1      10.671   7.387   2.579  1.00  0.00     0.148 A 
ATOM     96  C   UNL     1      11.431   6.668  -0.028  1.00  0.00     0.002 A 
ATOM     97  C   UNL     1      11.856   7.871   2.033  1.00  0.00     0.091 A 
ATOM     98  F   UNL     1      10.300   7.689   3.832  1.00  0.00    -0.205 F 
ATOM     99  C   UNL     1      12.240   7.510   0.732  1.00  0.00     0.022 A 
BRANCH  97 100
ATOM    100  S   UNL     1      12.898   9.023   2.937  1.00  0.00     0.127 S 
ATOM    101  O   UNL     1      13.822   8.121   3.622  1.00  0.00    -0.237 OA
ATOM    102  O   UNL     1      13.506   9.818   1.869  1.00  0.00    -0.237 OA
ATOM    103  O   UNL     1      11.986   9.773   3.790  1.00  0.00    -0.744 OA
ENDBRANCH  97 100
ENDBRANCH  70  93
ENDBRANCH  44  45
ENDBRANCH  36  39
ENDBRANCH  34  35
ENDBRANCH  33  34
ENDBRANCH  32  33
ENDBRANCH   1  32
TORSDOF 20
