REMARK SMILES Cc1c(NC(=O)c2cccc(-c3cc4ccccc4oc3=O)c2)cccc1C(=O)NCCCCCCNC(=O)c1ccc(-c2c3nc(c(-c4cccc(S(=O)(=O)[O-])c4F)c4ccc([nH]4)c(-c4cccc(S(=O)(=O)[O-])c4F)c4nc(c(-c5cccc(S(=O)(=O)[O-])c5F)c5ccc2[nH]5)C=C4)C=C3)cc1
REMARK SMILES IDX 33 1 32 2 31 3 30 4 28 5 29 6 27 8 1 9 2 10 3 11 24 12 26 13
REMARK SMILES IDX 25 14 4 15 5 16 6 18 7 19 8 20 23 21 9 22 11 23 10 24 12 25
REMARK SMILES IDX 13 26 21 27 14 28 20 29 22 30 15 31 19 32 16 33 18 34 17 35
REMARK SMILES IDX 34 36 35 37 36 38 37 39 38 40 39 42 40 43 41 44 102 45 42 46
REMARK SMILES IDX 101 47 43 48 44 49 45 50 95 51 46 52 100 53 94 54 96 55
REMARK SMILES IDX 47 56 99 57 93 58 92 59 48 61 80 62 60 63 79 64 61 65 64 66
REMARK SMILES IDX 78 67 97 68 62 69 63 70 77 72 98 73 65 74 49 75 50 76 58 77
REMARK SMILES IDX 51 78 53 79 59 80 52 81 54 82 55 83 56 84 57 85 81 86 82 87
REMARK SMILES IDX 90 88 83 89 85 90 91 91 84 92 86 93 87 94 88 95 89 96 66 97
REMARK SMILES IDX 67 98 75 99 68 100 70 101 76 102 69 103 71 104 72 105 73 106
REMARK SMILES IDX 74 107
REMARK H PARENT 30 7 4 17 37 41 96 60 64 71
REMARK Flexibility Score: inf
ROOT
ATOM      1  C   UNL     1       5.274   2.947  -0.732  1.00  0.00     0.002 C 
ENDROOT
BRANCH   1   2
ATOM      2  C   UNL     1       4.179   1.899  -0.497  1.00  0.00     0.021 C 
BRANCH   2   3
ATOM      3  C   UNL     1       3.361   2.091   0.792  1.00  0.00     0.116 C 
BRANCH   3   4
ATOM      4  N   UNL     1       2.086   2.695   0.486  1.00  0.00    -0.352 N 
ATOM      5  C   UNL     1       0.788   2.293   0.376  1.00  0.00     0.251 C 
ATOM      6  O   UNL     1       0.029   3.203   0.012  1.00  0.00    -0.269 OA
ATOM      7  H   UNL     1       2.179   3.659   0.307  1.00  0.00     0.163 HD
BRANCH   5   8
ATOM      8  C   UNL     1       0.168   0.946   0.666  1.00  0.00     0.044 A 
ATOM      9  C   UNL     1       2.088  -0.684   0.121  1.00  0.00     0.047 C 
ATOM     10  C   UNL     1       0.694  -0.367   0.579  1.00  0.00    -0.015 A 
ATOM     11  C   UNL     1      -0.171  -1.481   0.817  1.00  0.00     0.045 A 
ATOM     12  C   UNL     1      -1.529  -1.298   1.087  1.00  0.00     0.026 A 
ATOM     13  C   UNL     1      -1.221   1.071   0.932  1.00  0.00     0.014 A 
ATOM     14  C   UNL     1      -2.060  -0.023   1.122  1.00  0.00     0.003 A 
BRANCH  11  15
ATOM     15  N   UNL     1       0.360  -2.788   0.787  1.00  0.00    -0.322 N 
ATOM     16  C   UNL     1      -0.204  -3.991   0.417  1.00  0.00     0.255 C 
ATOM     17  H   UNL     1       1.297  -2.853   1.082  1.00  0.00     0.170 HD
ATOM     18  O   UNL     1       0.314  -5.034   0.818  1.00  0.00    -0.269 OA
BRANCH  16  19
ATOM     19  C   UNL     1      -1.335  -4.077  -0.555  1.00  0.00     0.040 A 
ATOM     20  C   UNL     1      -2.082  -5.259  -0.608  1.00  0.00     0.014 A 
ATOM     21  C   UNL     1      -1.579  -3.081  -1.510  1.00  0.00     0.022 A 
ATOM     22  C   UNL     1      -3.087  -5.416  -1.563  1.00  0.00     0.001 A 
ATOM     23  C   UNL     1      -2.592  -3.217  -2.472  1.00  0.00    -0.010 A 
ATOM     24  C   UNL     1      -3.347  -4.397  -2.482  1.00  0.00     0.009 A 
BRANCH  23  25
ATOM     25  C   UNL     1      -2.798  -2.240  -3.579  1.00  0.00     0.068 A 
ATOM     26  C   UNL     1      -2.649  -0.903  -3.440  1.00  0.00     0.028 A 
ATOM     27  C   UNL     1      -2.174  -2.676  -4.872  1.00  0.00     0.344 A 
ATOM     28  C   UNL     1      -1.232  -0.476  -3.497  1.00  0.00     0.018 A 
ATOM     29  O   UNL     1      -0.809  -2.392  -4.941  1.00  0.00    -0.422 OA
ATOM     30  O   UNL     1      -2.793  -3.301  -5.722  1.00  0.00    -0.246 OA
ATOM     31  C   UNL     1      -0.768   0.678  -2.874  1.00  0.00     0.012 A 
ATOM     32  C   UNL     1      -0.327  -1.313  -4.166  1.00  0.00     0.138 A 
ATOM     33  C   UNL     1       0.605   0.940  -2.866  1.00  0.00     0.001 A 
ATOM     34  C   UNL     1       1.042  -1.094  -4.109  1.00  0.00     0.048 A 
ATOM     35  C   UNL     1       1.508   0.038  -3.442  1.00  0.00     0.004 A 
ENDBRANCH  23  25
ENDBRANCH  16  19
ENDBRANCH  11  15
ENDBRANCH   5   8
ENDBRANCH   3   4
ENDBRANCH   2   3
ENDBRANCH   1   2
BRANCH   1  36
ATOM     36  C   UNL     1       6.295   3.114   0.403  1.00  0.00     0.002 C 
BRANCH  36  37
ATOM     37  C   UNL     1       6.776   1.814   1.048  1.00  0.00     0.021 C 
BRANCH  37  38
ATOM     38  C   UNL     1       7.690   1.000   0.147  1.00  0.00     0.116 C 
BRANCH  38  39
ATOM     39  N   UNL     1       9.090   1.284   0.389  1.00  0.00    -0.352 N 
ATOM     40  C   UNL     1      10.230   0.715  -0.158  1.00  0.00     0.251 C 
ATOM     41  H   UNL     1       9.259   1.995   1.048  1.00  0.00     0.163 HD
ATOM     42  O   UNL     1      11.290   0.890   0.396  1.00  0.00    -0.269 OA
BRANCH  40  43
ATOM     43  C   UNL     1      10.141   0.049  -1.486  1.00  0.00     0.039 A 
ATOM     44  C   UNL     1      11.127   0.379  -2.425  1.00  0.00     0.014 A 
ATOM     45  C   UNL     1       9.017  -0.668  -1.879  1.00  0.00     0.014 A 
ATOM     46  C   UNL     1      10.860   0.229  -3.784  1.00  0.00     0.010 A 
ATOM     47  C   UNL     1       8.714  -0.747  -3.219  1.00  0.00     0.010 A 
ATOM     48  C   UNL     1       9.601  -0.225  -4.163  1.00  0.00    -0.014 A 
BRANCH  48  49
ATOM     49  C   UNL     1       9.093  -0.229  -5.523  1.00  0.00     0.031 A 
ATOM     50  C   UNL     1       9.335  -1.406  -6.373  1.00  0.00     0.074 A 
ATOM     51  C   UNL     1       8.251   0.757  -5.903  1.00  0.00     0.049 A 
ATOM     52  N   UNL     1       9.058  -1.461  -7.627  1.00  0.00    -0.248 NA
ATOM     53  C   UNL     1       9.933  -2.627  -5.853  1.00  0.00     0.031 C 
ATOM     54  C   UNL     1       7.356   0.773  -7.054  1.00  0.00     0.029 A 
ATOM     55  N   UNL     1       8.196   2.070  -5.423  1.00  0.00    -0.354 N 
ATOM     56  C   UNL     1       9.205  -2.770  -8.034  1.00  0.00     0.074 A 
ATOM     57  C   UNL     1       9.813  -3.438  -6.908  1.00  0.00     0.031 C 
ATOM     58  C   UNL     1       7.094   2.051  -7.374  1.00  0.00     0.029 A 
ATOM     59  C   UNL     1       7.976   2.871  -6.561  1.00  0.00     0.049 A 
ATOM     60  H   UNL     1       8.291   2.369  -4.490  1.00  0.00     0.167 HD
ATOM     61  C   UNL     1       8.680  -3.134  -9.238  1.00  0.00     0.034 A 
ATOM     62  C   UNL     1       8.916   3.742  -7.045  1.00  0.00     0.034 A 
ATOM     63  C   UNL     1       8.235  -1.945  -9.986  1.00  0.00     0.049 A 
ATOM     64  C   UNL     1       9.359   3.429  -8.475  1.00  0.00     0.074 A 
ATOM     65  C   UNL     1       7.027  -1.292 -10.167  1.00  0.00     0.029 A 
ATOM     66  N   UNL     1       9.207  -1.072 -10.438  1.00  0.00    -0.354 N 
ATOM     67  N   UNL     1       8.907   2.437  -9.195  1.00  0.00    -0.248 NA
ATOM     68  C   UNL     1      10.424   4.163  -9.163  1.00  0.00     0.031 C 
ATOM     69  C   UNL     1       7.307   0.024 -10.656  1.00  0.00     0.029 A 
ATOM     70  C   UNL     1       8.678   0.153 -10.803  1.00  0.00     0.049 A 
ATOM     71  H   UNL     1      10.164  -1.296 -10.494  1.00  0.00     0.167 HD
ATOM     72  C   UNL     1       9.690   2.288 -10.312  1.00  0.00     0.074 A 
ATOM     73  C   UNL     1      10.601   3.419 -10.267  1.00  0.00     0.031 C 
ATOM     74  C   UNL     1       9.600   1.223 -11.166  1.00  0.00     0.034 A 
BRANCH  61  75
ATOM     75  C   UNL     1       8.376  -4.553  -9.691  1.00  0.00     0.023 A 
ATOM     76  C   UNL     1       7.466  -4.701 -10.763  1.00  0.00     0.012 A 
ATOM     77  C   UNL     1       8.846  -5.758  -9.117  1.00  0.00     0.148 A 
ATOM     78  C   UNL     1       6.992  -5.949 -11.186  1.00  0.00     0.002 A 
ATOM     79  C   UNL     1       8.333  -7.002  -9.499  1.00  0.00     0.091 A 
ATOM     80  F   UNL     1       9.847  -5.736  -8.239  1.00  0.00    -0.205 F 
ATOM     81  C   UNL     1       7.403  -7.100 -10.534  1.00  0.00     0.022 A 
BRANCH  79  82
ATOM     82  S   UNL     1       8.773  -8.534  -8.652  1.00  0.00     0.127 S 
ATOM     83  O   UNL     1       7.460  -9.052  -8.261  1.00  0.00    -0.237 OA
ATOM     84  O   UNL     1       9.436  -9.297  -9.707  1.00  0.00    -0.237 OA
ATOM     85  O   UNL     1       9.621  -8.155  -7.528  1.00  0.00    -0.744 OA
ENDBRANCH  79  82
ENDBRANCH  61  75
BRANCH  62  86
ATOM     86  C   UNL     1       9.811   4.291  -5.975  1.00  0.00     0.023 A 
ATOM     87  C   UNL     1       9.184   4.955  -4.890  1.00  0.00     0.012 A 
ATOM     88  C   UNL     1      11.133   3.843  -5.813  1.00  0.00     0.148 A 
ATOM     89  C   UNL     1       9.783   4.987  -3.629  1.00  0.00     0.002 A 
ATOM     90  C   UNL     1      11.738   3.914  -4.560  1.00  0.00     0.091 A 
ATOM     91  F   UNL     1      11.766   3.292  -6.855  1.00  0.00    -0.205 F 
ATOM     92  C   UNL     1      11.043   4.428  -3.455  1.00  0.00     0.022 A 
BRANCH  90  93
ATOM     93  S   UNL     1      13.389   3.255  -4.304  1.00  0.00     0.127 S 
ATOM     94  O   UNL     1      14.217   4.412  -4.629  1.00  0.00    -0.237 OA
ATOM     95  O   UNL     1      13.373   2.889  -2.889  1.00  0.00    -0.237 OA
ATOM     96  O   UNL     1      13.471   2.119  -5.212  1.00  0.00    -0.744 OA
ENDBRANCH  90  93
ENDBRANCH  62  86
BRANCH  74  97
ATOM     97  C   UNL     1      10.413   1.132 -12.440  1.00  0.00     0.023 A 
ATOM     98  C   UNL     1      10.567   2.270 -13.258  1.00  0.00     0.012 A 
ATOM     99  C   UNL     1      10.910  -0.095 -12.943  1.00  0.00     0.148 A 
ATOM    100  C   UNL     1      11.229   2.207 -14.488  1.00  0.00     0.002 A 
ATOM    101  C   UNL     1      11.468  -0.173 -14.215  1.00  0.00     0.091 A 
ATOM    102  F   UNL     1      10.895  -1.187 -12.170  1.00  0.00    -0.205 F 
ATOM    103  C   UNL     1      11.658   0.981 -14.978  1.00  0.00     0.022 A 
BRANCH 101 104
ATOM    104  S   UNL     1      11.834  -1.750 -15.000  1.00  0.00     0.127 S 
ATOM    105  O   UNL     1      11.264  -1.561 -16.336  1.00  0.00    -0.237 OA
ATOM    106  O   UNL     1      13.294  -1.776 -14.959  1.00  0.00    -0.237 OA
ATOM    107  O   UNL     1      11.152  -2.756 -14.198  1.00  0.00    -0.744 OA
ENDBRANCH 101 104
ENDBRANCH  74  97
ENDBRANCH  48  49
ENDBRANCH  40  43
ENDBRANCH  38  39
ENDBRANCH  37  38
ENDBRANCH  36  37
ENDBRANCH   1  36
TORSDOF 19
