REMARK SMILES O=C(NCCCCCCNC(=O)c1cccnc1C(=O)Nc1ccc([N+](=O)[O-])cc1)c1ccc(-c2c3nc(c(-c4cccc(S(=O)(=O)[O-])c4F)c4ccc([nH]4)c(-c4cccc(S(=O)(=O)[O-])c4F)c4nc(c(-c5cccc(S(=O)(=O)[O-])c5F)c5ccc2[nH]5)C=C4)C=C3)cc1
REMARK SMILES IDX 6 1 5 2 4 3 3 4 1 5 2 6 31 8 32 9 93 10 33 11 92 12 34 13
REMARK SMILES IDX 35 14 36 15 86 16 37 17 91 18 85 19 87 20 38 21 90 22 84 23
REMARK SMILES IDX 83 24 39 26 71 27 51 28 70 29 52 30 55 31 69 32 88 33 53 34
REMARK SMILES IDX 54 35 68 37 89 38 56 39 40 40 41 41 49 42 42 43 44 44 50 45
REMARK SMILES IDX 43 46 45 47 46 48 47 49 48 50 72 51 73 52 81 53 74 54 76 55
REMARK SMILES IDX 82 56 75 57 77 58 78 59 79 60 80 61 57 62 58 63 66 64 59 65
REMARK SMILES IDX 61 66 67 67 60 68 62 69 63 70 64 71 65 72 7 73 8 74 9 75
REMARK SMILES IDX 10 76 11 77 12 79 13 80 14 81 18 82 15 83 17 84 16 85 19 86
REMARK SMILES IDX 20 87 21 88 22 90 23 91 30 92 24 93 29 94 25 95 26 96 27 97
REMARK SMILES IDX 28 98
REMARK H PARENT 3 7 87 25 55 36 10 78 21 89
REMARK Flexibility Score: inf
ROOT
ATOM      1  C   UNL     1       4.715  -1.889   2.830  1.00  0.00     0.002 C 
ENDROOT
BRANCH   1   2
ATOM      2  C   UNL     1       4.903  -0.513   2.196  1.00  0.00     0.021 C 
BRANCH   2   3
ATOM      3  C   UNL     1       4.488  -0.439   0.735  1.00  0.00     0.116 C 
BRANCH   3   4
ATOM      4  N   UNL     1       3.066  -0.678   0.536  1.00  0.00    -0.352 N 
ATOM      5  O   UNL     1       1.003  -0.213  -0.264  1.00  0.00    -0.269 OA
ATOM      6  C   UNL     1       2.203   0.008  -0.289  1.00  0.00     0.251 C 
ATOM      7  H   UNL     1       2.675  -1.419   1.054  1.00  0.00     0.163 HD
BRANCH   6   8
ATOM      8  C   UNL     1       2.773   1.042  -1.175  1.00  0.00     0.039 A 
ATOM      9  C   UNL     1       3.872   0.734  -1.984  1.00  0.00     0.014 A 
ATOM     10  C   UNL     1       2.263   2.339  -1.123  1.00  0.00     0.014 A 
ATOM     11  C   UNL     1       4.548   1.754  -2.637  1.00  0.00     0.010 A 
ATOM     12  C   UNL     1       2.894   3.347  -1.850  1.00  0.00     0.010 A 
ATOM     13  C   UNL     1       4.058   3.068  -2.587  1.00  0.00    -0.014 A 
BRANCH  13  14
ATOM     14  C   UNL     1       4.721   4.138  -3.369  1.00  0.00     0.031 A 
ATOM     15  C   UNL     1       5.325   5.331  -2.688  1.00  0.00     0.074 A 
ATOM     16  C   UNL     1       4.709   4.049  -4.712  1.00  0.00     0.049 A 
ATOM     17  N   UNL     1       5.834   6.411  -3.220  1.00  0.00    -0.248 NA
ATOM     18  C   UNL     1       5.353   5.316  -1.216  1.00  0.00     0.031 C 
ATOM     19  C   UNL     1       4.123   2.944  -5.475  1.00  0.00     0.029 A 
ATOM     20  N   UNL     1       5.167   4.912  -5.673  1.00  0.00    -0.354 N 
ATOM     21  C   UNL     1       6.190   7.229  -2.155  1.00  0.00     0.074 A 
ATOM     22  C   UNL     1       5.845   6.517  -0.943  1.00  0.00     0.031 C 
ATOM     23  C   UNL     1       4.241   3.201  -6.784  1.00  0.00     0.029 A 
ATOM     24  C   UNL     1       4.848   4.516  -6.950  1.00  0.00     0.049 A 
ATOM     25  H   UNL     1       5.672   5.732  -5.470  1.00  0.00     0.167 HD
ATOM     26  C   UNL     1       6.755   8.460  -2.190  1.00  0.00     0.034 A 
ATOM     27  C   UNL     1       4.980   5.158  -8.126  1.00  0.00     0.034 A 
ATOM     28  C   UNL     1       7.110   9.144  -3.406  1.00  0.00     0.049 A 
ATOM     29  C   UNL     1       5.610   6.518  -8.140  1.00  0.00     0.074 A 
ATOM     30  C   UNL     1       7.750  10.362  -3.554  1.00  0.00     0.029 A 
ATOM     31  N   UNL     1       6.837   8.679  -4.685  1.00  0.00    -0.354 N 
ATOM     32  N   UNL     1       6.046   7.231  -7.130  1.00  0.00    -0.248 NA
ATOM     33  C   UNL     1       5.794   7.152  -9.451  1.00  0.00     0.031 C 
ATOM     34  C   UNL     1       7.833  10.648  -4.920  1.00  0.00     0.029 A 
ATOM     35  C   UNL     1       7.282   9.590  -5.627  1.00  0.00     0.049 A 
ATOM     36  H   UNL     1       6.393   7.825  -4.891  1.00  0.00     0.167 HD
ATOM     37  C   UNL     1       6.591   8.381  -7.683  1.00  0.00     0.074 A 
ATOM     38  C   UNL     1       6.434   8.267  -9.120  1.00  0.00     0.031 C 
ATOM     39  C   UNL     1       7.165   9.436  -7.056  1.00  0.00     0.034 A 
BRANCH  26  40
ATOM     40  C   UNL     1       7.031   9.144  -0.875  1.00  0.00     0.023 A 
ATOM     41  C   UNL     1       8.054   8.664  -0.032  1.00  0.00     0.012 A 
ATOM     42  C   UNL     1       6.304  10.289  -0.490  1.00  0.00     0.148 A 
ATOM     43  C   UNL     1       8.318   9.281   1.191  1.00  0.00     0.002 A 
ATOM     44  C   UNL     1       6.603  10.926   0.709  1.00  0.00     0.091 A 
ATOM     45  F   UNL     1       5.321  10.723  -1.291  1.00  0.00    -0.205 F 
ATOM     46  C   UNL     1       7.599  10.416   1.557  1.00  0.00     0.022 A 
BRANCH  44  47
ATOM     47  S   UNL     1       5.785  12.441   1.224  1.00  0.00     0.127 S 
ATOM     48  O   UNL     1       4.866  11.946   2.247  1.00  0.00    -0.237 OA
ATOM     49  O   UNL     1       6.900  13.236   1.740  1.00  0.00    -0.237 OA
ATOM     50  O   UNL     1       5.163  12.983   0.025  1.00  0.00    -0.744 OA
ENDBRANCH  44  47
ENDBRANCH  26  40
BRANCH  27  51
ATOM     51  C   UNL     1       4.519   4.485  -9.370  1.00  0.00     0.023 A 
ATOM     52  C   UNL     1       5.468   3.979 -10.276  1.00  0.00     0.012 A 
ATOM     53  C   UNL     1       3.148   4.254  -9.602  1.00  0.00     0.148 A 
ATOM     54  C   UNL     1       5.058   3.262 -11.401  1.00  0.00     0.002 A 
ATOM     55  C   UNL     1       2.751   3.491 -10.692  1.00  0.00     0.091 A 
ATOM     56  F   UNL     1       2.264   4.747  -8.722  1.00  0.00    -0.205 F 
ATOM     57  C   UNL     1       3.704   3.007 -11.602  1.00  0.00     0.022 A 
BRANCH  55  58
ATOM     58  S   UNL     1       1.046   2.986 -10.951  1.00  0.00     0.127 S 
ATOM     59  O   UNL     1       0.710   3.695 -12.183  1.00  0.00    -0.237 OA
ATOM     60  O   UNL     1       1.183   1.536 -11.091  1.00  0.00    -0.237 OA
ATOM     61  O   UNL     1       0.322   3.412  -9.762  1.00  0.00    -0.744 OA
ENDBRANCH  55  58
ENDBRANCH  27  51
BRANCH  39  62
ATOM     62  C   UNL     1       7.727  10.538  -7.912  1.00  0.00     0.023 A 
ATOM     63  C   UNL     1       6.864  11.453  -8.544  1.00  0.00     0.012 A 
ATOM     64  C   UNL     1       9.121  10.725  -7.997  1.00  0.00     0.148 A 
ATOM     65  C   UNL     1       7.382  12.530  -9.263  1.00  0.00     0.002 A 
ATOM     66  C   UNL     1       9.629  11.827  -8.671  1.00  0.00     0.091 A 
ATOM     67  F   UNL     1       9.922   9.827  -7.404  1.00  0.00    -0.205 F 
ATOM     68  C   UNL     1       8.761  12.726  -9.313  1.00  0.00     0.022 A 
BRANCH  66  69
ATOM     69  S   UNL     1      11.382  12.215  -8.700  1.00  0.00     0.127 S 
ATOM     70  O   UNL     1      11.713  11.988 -10.106  1.00  0.00    -0.237 OA
ATOM     71  O   UNL     1      11.393  13.619  -8.290  1.00  0.00    -0.237 OA
ATOM     72  O   UNL     1      12.014  11.302  -7.758  1.00  0.00    -0.744 OA
ENDBRANCH  66  69
ENDBRANCH  39  62
ENDBRANCH  13  14
ENDBRANCH   6   8
ENDBRANCH   3   4
ENDBRANCH   2   3
ENDBRANCH   1   2
BRANCH   1  73
ATOM     73  C   UNL     1       5.602  -2.983   2.234  1.00  0.00     0.002 C 
BRANCH  73  74
ATOM     74  C   UNL     1       7.101  -2.925   2.553  1.00  0.00     0.021 C 
BRANCH  74  75
ATOM     75  C   UNL     1       7.555  -2.270   3.859  1.00  0.00     0.116 C 
BRANCH  75  76
ATOM     76  N   UNL     1       7.152  -2.943   5.090  1.00  0.00    -0.352 N 
ATOM     77  C   UNL     1       7.849  -3.817   5.901  1.00  0.00     0.253 C 
ATOM     78  H   UNL     1       6.237  -2.741   5.391  1.00  0.00     0.163 HD
ATOM     79  O   UNL     1       7.439  -4.120   7.016  1.00  0.00    -0.269 OA
BRANCH  77  80
ATOM     80  C   UNL     1       9.171  -4.272   5.487  1.00  0.00     0.071 A 
ATOM     81  C   UNL     1      10.149  -3.254   5.585  1.00  0.00     0.018 A 
ATOM     82  C   UNL     1       9.553  -5.548   5.087  1.00  0.00     0.141 A 
ATOM     83  C   UNL     1      11.460  -3.486   5.211  1.00  0.00     0.021 A 
ATOM     84  N   UNL     1      10.860  -5.745   4.689  1.00  0.00    -0.250 NA
ATOM     85  C   UNL     1      11.763  -4.743   4.755  1.00  0.00     0.112 A 
BRANCH  82  86
ATOM     86  C   UNL     1       8.840  -6.905   5.115  1.00  0.00     0.275 C 
ATOM     87  O   UNL     1       9.482  -7.902   4.747  1.00  0.00    -0.267 OA
ATOM     88  N   UNL     1       7.640  -7.222   5.709  1.00  0.00    -0.321 N 
ATOM     89  H   UNL     1       7.654  -8.101   6.152  1.00  0.00     0.170 HD
BRANCH  88  90
ATOM     90  C   UNL     1       6.415  -6.580   5.824  1.00  0.00     0.042 A 
ATOM     91  C   UNL     1       5.699  -6.770   7.014  1.00  0.00     0.033 A 
ATOM     92  C   UNL     1       5.892  -5.784   4.811  1.00  0.00     0.033 A 
ATOM     93  C   UNL     1       4.602  -5.960   7.306  1.00  0.00     0.088 A 
ATOM     94  C   UNL     1       4.762  -5.009   5.079  1.00  0.00     0.088 A 
ATOM     95  C   UNL     1       4.195  -5.029   6.354  1.00  0.00     0.269 A 
BRANCH  95  96
ATOM     96  N   UNL     1       3.282  -3.958   6.728  1.00  0.00     0.062 N 
ATOM     97  O   UNL     1       2.353  -4.236   7.497  1.00  0.00    -0.258 OA
ATOM     98  O   UNL     1       3.520  -2.831   6.264  1.00  0.00    -0.258 OA
ENDBRANCH  95  96
ENDBRANCH  88  90
ENDBRANCH  82  86
ENDBRANCH  77  80
ENDBRANCH  75  76
ENDBRANCH  74  75
ENDBRANCH  73  74
ENDBRANCH   1  73
TORSDOF 19
