REMARK SMILES O=C(NCCCCCCNC(=O)[C@@H]1CCCC[C@H]1C(=O)Nc1ccc(NC(=O)c2ccco2)cc1)c1ccc(-c2c3nc(c(-c4cccc(S(=O)(=O)[O-])c4F)c4ccc([nH]4)c(-c4cccc(S(=O)(=O)[O-])c4F)c4nc(c(-c5cccc(S(=O)(=O)[O-])c5F)c5ccc2[nH]5)C=C4)C=C3)cc1
REMARK SMILES IDX 7 1 6 2 5 3 4 4 3 5 1 6 2 7 36 9 37 10 98 11 38 12 97 13
REMARK SMILES IDX 39 14 40 15 41 16 91 17 42 18 96 19 90 20 92 21 43 22 95 23
REMARK SMILES IDX 89 24 88 25 44 27 76 28 56 29 75 30 57 31 60 32 74 33 93 34
REMARK SMILES IDX 58 35 59 36 73 38 94 39 61 40 45 41 46 42 54 43 47 44 49 45
REMARK SMILES IDX 55 46 48 47 50 48 51 49 52 50 53 51 77 52 78 53 86 54 79 55
REMARK SMILES IDX 81 56 87 57 80 58 82 59 83 60 84 61 85 62 62 63 63 64 71 65
REMARK SMILES IDX 64 66 66 67 72 68 65 69 67 70 68 71 69 72 70 73 8 74 9 75
REMARK SMILES IDX 10 76 11 77 12 79 13 80 14 81 18 82 15 83 17 84 16 85 19 86
REMARK SMILES IDX 20 87 21 88 22 90 23 91 35 92 24 93 34 94 25 95 26 96 27 97
REMARK SMILES IDX 28 99 29 100 30 101 33 102 31 103 32 104
REMARK H PARENT 3 8 92 26 60 37 10 78 21 89 26 98
REMARK Flexibility Score: inf
ROOT
ATOM      1  C   UNL     1       4.609  -2.655  -3.414  1.00  0.00     0.002 C 
ENDROOT
BRANCH   1   2
ATOM      2  C   UNL     1       3.852  -3.093  -2.158  1.00  0.00     0.002 C 
BRANCH   2   3
ATOM      3  C   UNL     1       4.341  -2.450  -0.861  1.00  0.00     0.021 C 
BRANCH   3   4
ATOM      4  C   UNL     1       4.318  -0.927  -0.875  1.00  0.00     0.116 C 
BRANCH   4   5
ATOM      5  N   UNL     1       2.962  -0.410  -0.947  1.00  0.00    -0.352 N 
ATOM      6  O   UNL     1       1.074   0.508  -0.127  1.00  0.00    -0.269 OA
ATOM      7  C   UNL     1       2.280   0.356  -0.028  1.00  0.00     0.251 C 
ATOM      8  H   UNL     1       2.463  -0.639  -1.764  1.00  0.00     0.163 HD
BRANCH   7   9
ATOM      9  C   UNL     1       3.034   0.969   1.088  1.00  0.00     0.039 A 
ATOM     10  C   UNL     1       4.250   1.611   0.843  1.00  0.00     0.014 A 
ATOM     11  C   UNL     1       2.531   0.883   2.388  1.00  0.00     0.014 A 
ATOM     12  C   UNL     1       5.035   2.028   1.909  1.00  0.00     0.010 A 
ATOM     13  C   UNL     1       3.281   1.391   3.452  1.00  0.00     0.010 A 
ATOM     14  C   UNL     1       4.556   1.935   3.227  1.00  0.00    -0.014 A 
BRANCH  14  15
ATOM     15  C   UNL     1       5.386   2.471   4.335  1.00  0.00     0.031 A 
ATOM     16  C   UNL     1       5.912   1.579   5.426  1.00  0.00     0.074 A 
ATOM     17  C   UNL     1       5.681   3.786   4.336  1.00  0.00     0.049 A 
ATOM     18  N   UNL     1       6.699   1.884   6.426  1.00  0.00    -0.248 NA
ATOM     19  C   UNL     1       5.496   0.167   5.404  1.00  0.00     0.031 C 
ATOM     20  C   UNL     1       5.188   4.758   3.355  1.00  0.00     0.029 A 
ATOM     21  N   UNL     1       6.468   4.533   5.174  1.00  0.00    -0.354 N 
ATOM     22  C   UNL     1       6.834   0.723   7.178  1.00  0.00     0.074 A 
ATOM     23  C   UNL     1       6.044  -0.296   6.520  1.00  0.00     0.031 C 
ATOM     24  C   UNL     1       5.718   5.960   3.620  1.00  0.00     0.029 A 
ATOM     25  C   UNL     1       6.543   5.859   4.817  1.00  0.00     0.049 A 
ATOM     26  H   UNL     1       6.933   4.157   5.955  1.00  0.00     0.167 HD
ATOM     27  C   UNL     1       7.559   0.522   8.305  1.00  0.00     0.034 A 
ATOM     28  C   UNL     1       7.200   6.885   5.390  1.00  0.00     0.034 A 
ATOM     29  C   UNL     1       8.380   1.528   8.926  1.00  0.00     0.049 A 
ATOM     30  C   UNL     1       8.032   6.619   6.611  1.00  0.00     0.074 A 
ATOM     31  C   UNL     1       9.215   1.402  10.023  1.00  0.00     0.029 A 
ATOM     32  N   UNL     1       8.466   2.849   8.511  1.00  0.00    -0.354 N 
ATOM     33  N   UNL     1       8.256   5.482   7.224  1.00  0.00    -0.248 NA
ATOM     34  C   UNL     1       8.724   7.771   7.203  1.00  0.00     0.031 C 
ATOM     35  C   UNL     1       9.789   2.651  10.284  1.00  0.00     0.029 A 
ATOM     36  C   UNL     1       9.331   3.551   9.335  1.00  0.00     0.049 A 
ATOM     37  H   UNL     1       7.984   3.232   7.743  1.00  0.00     0.167 HD
ATOM     38  C   UNL     1       9.138   5.775   8.256  1.00  0.00     0.074 A 
ATOM     39  C   UNL     1       9.427   7.193   8.168  1.00  0.00     0.031 C 
ATOM     40  C   UNL     1       9.648   4.950   9.203  1.00  0.00     0.034 A 
BRANCH  27  41
ATOM     41  C   UNL     1       7.530  -0.851   8.928  1.00  0.00     0.023 A 
ATOM     42  C   UNL     1       8.222  -1.913   8.312  1.00  0.00     0.012 A 
ATOM     43  C   UNL     1       6.878  -1.073  10.157  1.00  0.00     0.148 A 
ATOM     44  C   UNL     1       8.239  -3.182   8.893  1.00  0.00     0.002 A 
ATOM     45  C   UNL     1       6.934  -2.329  10.751  1.00  0.00     0.091 A 
ATOM     46  F   UNL     1       6.206  -0.057  10.719  1.00  0.00    -0.205 F 
ATOM     47  C   UNL     1       7.606  -3.387  10.116  1.00  0.00     0.022 A 
BRANCH  45  48
ATOM     48  S   UNL     1       6.215  -2.670  12.362  1.00  0.00     0.127 S 
ATOM     49  O   UNL     1       5.027  -3.441  11.998  1.00  0.00    -0.237 OA
ATOM     50  O   UNL     1       7.269  -3.447  13.015  1.00  0.00    -0.237 OA
ATOM     51  O   UNL     1       5.959  -1.370  12.967  1.00  0.00    -0.744 OA
ENDBRANCH  45  48
ENDBRANCH  27  41
BRANCH  28  52
ATOM     52  C   UNL     1       7.145   8.237   4.769  1.00  0.00     0.023 A 
ATOM     53  C   UNL     1       8.299   8.764   4.159  1.00  0.00     0.012 A 
ATOM     54  C   UNL     1       5.949   8.980   4.734  1.00  0.00     0.148 A 
ATOM     55  C   UNL     1       8.270  10.016   3.544  1.00  0.00     0.002 A 
ATOM     56  C   UNL     1       5.911  10.199   4.070  1.00  0.00     0.091 A 
ATOM     57  F   UNL     1       4.865   8.468   5.336  1.00  0.00    -0.205 F 
ATOM     58  C   UNL     1       7.074  10.727   3.488  1.00  0.00     0.022 A 
BRANCH  56  59
ATOM     59  S   UNL     1       4.382  11.109   3.827  1.00  0.00     0.127 S 
ATOM     60  O   UNL     1       4.540  12.215   4.767  1.00  0.00    -0.237 OA
ATOM     61  O   UNL     1       4.471  11.483   2.415  1.00  0.00    -0.237 OA
ATOM     62  O   UNL     1       3.315  10.164   4.128  1.00  0.00    -0.744 OA
ENDBRANCH  56  59
ENDBRANCH  28  52
BRANCH  40  63
ATOM     63  C   UNL     1      10.599   5.552  10.203  1.00  0.00     0.023 A 
ATOM     64  C   UNL     1      10.107   6.405  11.210  1.00  0.00     0.012 A 
ATOM     65  C   UNL     1      11.970   5.230  10.176  1.00  0.00     0.148 A 
ATOM     66  C   UNL     1      10.972   6.958  12.154  1.00  0.00     0.002 A 
ATOM     67  C   UNL     1      12.817   5.746  11.149  1.00  0.00     0.091 A 
ATOM     68  F   UNL     1      12.423   4.436   9.195  1.00  0.00    -0.205 F 
ATOM     69  C   UNL     1      12.323   6.620  12.131  1.00  0.00     0.022 A 
BRANCH  67  70
ATOM     70  S   UNL     1      14.550   5.286  11.245  1.00  0.00     0.127 S 
ATOM     71  O   UNL     1      15.205   6.461  10.674  1.00  0.00    -0.237 OA
ATOM     72  O   UNL     1      14.751   5.116  12.685  1.00  0.00    -0.237 OA
ATOM     73  O   UNL     1      14.677   4.056  10.473  1.00  0.00    -0.744 OA
ENDBRANCH  67  70
ENDBRANCH  40  63
ENDBRANCH  14  15
ENDBRANCH   7   9
ENDBRANCH   4   5
ENDBRANCH   3   4
ENDBRANCH   2   3
ENDBRANCH   1   2
BRANCH   1  74
ATOM     74  C   UNL     1       6.133  -2.732  -3.303  1.00  0.00     0.021 C 
BRANCH  74  75
ATOM     75  C   UNL     1       6.668  -4.135  -3.035  1.00  0.00     0.116 C 
BRANCH  75  76
ATOM     76  N   UNL     1       6.628  -4.932  -4.243  1.00  0.00    -0.356 N 
ATOM     77  C   UNL     1       7.618  -5.311  -5.086  1.00  0.00     0.223 C 
ATOM     78  H   UNL     1       5.731  -5.251  -4.495  1.00  0.00     0.163 HD
ATOM     79  O   UNL     1       7.293  -5.858  -6.144  1.00  0.00    -0.275 OA
BRANCH  77  80
ATOM     80  C   UNL     1       9.091  -5.133  -4.746  1.00  0.00     0.091 C 
ATOM     81  C   UNL     1       9.526  -5.989  -3.550  1.00  0.00     0.014 C 
ATOM     82  C   UNL     1       9.589  -3.685  -4.676  1.00  0.00     0.091 C 
ATOM     83  C   UNL     1      11.043  -5.927  -3.381  1.00  0.00     0.001 C 
ATOM     84  C   UNL     1      11.104  -3.616  -4.418  1.00  0.00     0.014 C 
ATOM     85  C   UNL     1      11.518  -4.485  -3.226  1.00  0.00     0.001 C 
BRANCH  82  86
ATOM     86  C   UNL     1       9.124  -2.724  -5.783  1.00  0.00     0.228 C 
ATOM     87  O   UNL     1       8.409  -1.761  -5.469  1.00  0.00    -0.274 OA
ATOM     88  N   UNL     1       9.537  -2.731  -7.079  1.00  0.00    -0.326 N 
ATOM     89  H   UNL     1       9.123  -2.038  -7.642  1.00  0.00     0.169 HD
BRANCH  88  90
ATOM     90  C   UNL     1      10.444  -3.549  -7.745  1.00  0.00     0.041 A 
ATOM     91  C   UNL     1      11.477  -2.933  -8.439  1.00  0.00     0.028 A 
ATOM     92  C   UNL     1      10.352  -4.930  -7.775  1.00  0.00     0.028 A 
ATOM     93  C   UNL     1      12.529  -3.701  -8.940  1.00  0.00     0.028 A 
ATOM     94  C   UNL     1      11.429  -5.697  -8.224  1.00  0.00     0.028 A 
ATOM     95  C   UNL     1      12.574  -5.077  -8.725  1.00  0.00     0.041 A 
BRANCH  95  96
ATOM     96  N   UNL     1      13.691  -5.900  -8.955  1.00  0.00    -0.319 N 
ATOM     97  C   UNL     1      15.019  -5.625  -9.221  1.00  0.00     0.291 C 
ATOM     98  H   UNL     1      13.486  -6.862  -8.920  1.00  0.00     0.170 HD
ATOM     99  O   UNL     1      15.774  -6.589  -9.373  1.00  0.00    -0.265 OA
BRANCH  97 100
ATOM    100  C   UNL     1      15.481  -4.262  -9.277  1.00  0.00     0.191 A 
ATOM    101  C   UNL     1      15.712  -3.313  -8.297  1.00  0.00     0.056 A 
ATOM    102  O   UNL     1      15.712  -3.713 -10.509  1.00  0.00    -0.459 OA
ATOM    103  C   UNL     1      16.047  -2.111  -8.971  1.00  0.00     0.043 A 
ATOM    104  C   UNL     1      16.043  -2.411 -10.313  1.00  0.00     0.196 A 
ENDBRANCH  97 100
ENDBRANCH  95  96
ENDBRANCH  88  90
ENDBRANCH  82  86
ENDBRANCH  77  80
ENDBRANCH  75  76
ENDBRANCH  74  75
ENDBRANCH   1  74
TORSDOF 20
