REMARK SMILES O=C(Cc1c(C(=O)c2cc3c(cn2)CCCC3)[nH]c2cc(Cl)ccc12)NCCCCCCNC(=O)c1ccc(-c2c3nc(c(-c4cccc(S(=O)(=O)[O-])c4F)c4ccc([nH]4)c(-c4cccc(S(=O)(=O)[O-])c4F)c4nc(c(-c5cccc(S(=O)(=O)[O-])c5F)c5ccc2[nH]5)C=C4)C=C3)cc1
REMARK SMILES IDX 29 1 28 2 27 3 26 4 1 5 2 6 3 8 4 9 5 10 25 11 18 12 19 13
REMARK SMILES IDX 24 14 20 16 23 17 21 18 22 19 6 20 7 21 8 22 9 23 13 24
REMARK SMILES IDX 10 25 12 26 11 27 17 28 14 29 16 30 15 31 30 32 31 33 32 34
REMARK SMILES IDX 33 35 34 36 35 38 36 39 37 40 98 41 38 42 97 43 39 44 40 45
REMARK SMILES IDX 41 46 91 47 42 48 96 49 90 50 92 51 43 52 95 53 89 54 88 55
REMARK SMILES IDX 44 57 76 58 56 59 75 60 57 61 60 62 74 63 93 64 58 65 59 66
REMARK SMILES IDX 73 68 94 69 61 70 45 71 46 72 54 73 47 74 49 75 55 76 48 77
REMARK SMILES IDX 50 78 51 79 52 80 53 81 77 82 78 83 86 84 79 85 81 86 87 87
REMARK SMILES IDX 80 88 82 89 83 90 84 91 85 92 62 93 63 94 71 95 64 96 66 97
REMARK SMILES IDX 72 98 65 99 67 100 68 101 69 102 70 103
REMARK H PARENT 26 7 18 15 33 37 92 56 60 67
REMARK Flexibility Score: inf
ROOT
ATOM      1  C   UNL     1       4.353   2.213   3.009  1.00  0.00     0.002 C 
ENDROOT
BRANCH   1   2
ATOM      2  C   UNL     1       2.860   1.867   2.998  1.00  0.00     0.021 C 
BRANCH   2   3
ATOM      3  C   UNL     1       2.244   1.684   1.615  1.00  0.00     0.116 C 
BRANCH   3   4
ATOM      4  N   UNL     1       2.896   0.651   0.835  1.00  0.00    -0.356 N 
ATOM      5  O   UNL     1       1.066  -0.726   0.702  1.00  0.00    -0.275 OA
ATOM      6  C   UNL     1       2.190  -0.411   0.311  1.00  0.00     0.224 C 
ATOM      7  H   UNL     1       3.866   0.708   0.677  1.00  0.00     0.163 HD
BRANCH   6   8
ATOM      8  C   UNL     1       2.929  -1.277  -0.693  1.00  0.00     0.138 C 
BRANCH   8   9
ATOM      9  C   UNL     1       3.768  -0.612  -1.760  1.00  0.00    -0.002 A 
ATOM     10  C   UNL     1       3.702   0.673  -2.304  1.00  0.00     0.093 A 
ATOM     11  C   UNL     1       4.742  -1.331  -2.543  1.00  0.00     0.004 A 
ATOM     12  N   UNL     1       4.782   0.799  -3.155  1.00  0.00    -0.351 N 
ATOM     13  C   UNL     1       5.328  -0.430  -3.426  1.00  0.00     0.048 A 
ATOM     14  C   UNL     1       5.135  -2.685  -2.609  1.00  0.00     0.012 A 
ATOM     15  H   UNL     1       5.114   1.652  -3.518  1.00  0.00     0.167 HD
ATOM     16  C   UNL     1       6.276  -0.807  -4.386  1.00  0.00     0.047 A 
ATOM     17  C   UNL     1       6.061  -3.090  -3.579  1.00  0.00     0.021 A 
ATOM     18  C   UNL     1       6.614  -2.160  -4.454  1.00  0.00     0.043 A 
ATOM     19  Cl  UNL     1       7.724  -2.690  -5.662  1.00  0.00    -0.084 Cl
BRANCH  10  20
ATOM     20  C   UNL     1       2.695   1.714  -2.137  1.00  0.00     0.227 C 
ATOM     21  O   UNL     1       1.540   1.495  -1.786  1.00  0.00    -0.285 OA
BRANCH  20  22
ATOM     22  C   UNL     1       3.038   3.093  -2.557  1.00  0.00     0.113 A 
ATOM     23  C   UNL     1       2.619   3.519  -3.809  1.00  0.00     0.036 A 
ATOM     24  N   UNL     1       3.791   3.831  -1.705  1.00  0.00    -0.252 NA
ATOM     25  C   UNL     1       2.960   4.808  -4.218  1.00  0.00    -0.041 A 
ATOM     26  C   UNL     1       4.058   5.096  -2.102  1.00  0.00     0.115 A 
ATOM     27  C   UNL     1       3.684   5.627  -3.338  1.00  0.00    -0.026 A 
ATOM     28  C   UNL     1       2.600   5.266  -5.607  1.00  0.00     0.036 C 
ATOM     29  C   UNL     1       3.976   7.069  -3.663  1.00  0.00     0.037 C 
ATOM     30  C   UNL     1       2.624   6.784  -5.763  1.00  0.00     0.005 C 
ATOM     31  C   UNL     1       3.897   7.369  -5.161  1.00  0.00     0.005 C 
ENDBRANCH  20  22
ENDBRANCH  10  20
ENDBRANCH   8   9
ENDBRANCH   6   8
ENDBRANCH   3   4
ENDBRANCH   2   3
ENDBRANCH   1   2
BRANCH   1  32
ATOM     32  C   UNL     1       4.764   3.446   2.199  1.00  0.00     0.002 C 
BRANCH  32  33
ATOM     33  C   UNL     1       4.052   4.752   2.554  1.00  0.00     0.021 C 
BRANCH  33  34
ATOM     34  C   UNL     1       4.113   5.163   4.022  1.00  0.00     0.116 C 
BRANCH  34  35
ATOM     35  N   UNL     1       5.467   5.381   4.507  1.00  0.00    -0.352 N 
ATOM     36  C   UNL     1       5.952   6.385   5.315  1.00  0.00     0.251 C 
ATOM     37  H   UNL     1       6.132   4.716   4.215  1.00  0.00     0.163 HD
ATOM     38  O   UNL     1       7.154   6.459   5.540  1.00  0.00    -0.269 OA
BRANCH  36  39
ATOM     39  C   UNL     1       5.023   7.399   5.870  1.00  0.00     0.039 A 
ATOM     40  C   UNL     1       3.806   7.024   6.443  1.00  0.00     0.014 A 
ATOM     41  C   UNL     1       5.370   8.751   5.789  1.00  0.00     0.014 A 
ATOM     42  C   UNL     1       2.873   8.001   6.783  1.00  0.00     0.010 A 
ATOM     43  C   UNL     1       4.459   9.730   6.198  1.00  0.00     0.010 A 
ATOM     44  C   UNL     1       3.181   9.364   6.648  1.00  0.00    -0.014 A 
BRANCH  44  45
ATOM     45  C   UNL     1       2.152  10.385   6.976  1.00  0.00     0.031 A 
ATOM     46  C   UNL     1       1.571  11.269   5.904  1.00  0.00     0.074 A 
ATOM     47  C   UNL     1       1.704  10.489   8.243  1.00  0.00     0.049 A 
ATOM     48  N   UNL     1       0.635  12.178   6.008  1.00  0.00    -0.248 NA
ATOM     49  C   UNL     1       2.106  11.119   4.540  1.00  0.00     0.031 C 
ATOM     50  C   UNL     1       2.202   9.708   9.377  1.00  0.00     0.029 A 
ATOM     51  N   UNL     1       0.723  11.279   8.787  1.00  0.00    -0.354 N 
ATOM     52  C   UNL     1       0.497  12.733   4.742  1.00  0.00     0.074 A 
ATOM     53  C   UNL     1       1.445  12.063   3.881  1.00  0.00     0.031 C 
ATOM     54  C   UNL     1       1.495  10.025  10.472  1.00  0.00     0.029 A 
ATOM     55  C   UNL     1       0.522  11.059  10.129  1.00  0.00     0.049 A 
ATOM     56  H   UNL     1       0.213  11.941   8.266  1.00  0.00     0.167 HD
ATOM     57  C   UNL     1      -0.360  13.696   4.327  1.00  0.00     0.034 A 
ATOM     58  C   UNL     1      -0.349  11.619  10.990  1.00  0.00     0.034 A 
ATOM     59  C   UNL     1      -1.350  14.319   5.162  1.00  0.00     0.049 A 
ATOM     60  C   UNL     1      -1.308  12.663  10.498  1.00  0.00     0.074 A 
ATOM     61  C   UNL     1      -2.296  15.266   4.809  1.00  0.00     0.029 A 
ATOM     62  N   UNL     1      -1.531  14.055   6.510  1.00  0.00    -0.354 N 
ATOM     63  N   UNL     1      -1.478  13.111   9.278  1.00  0.00    -0.248 NA
ATOM     64  C   UNL     1      -2.205  13.269  11.492  1.00  0.00     0.031 C 
ATOM     65  C   UNL     1      -3.052  15.573   5.944  1.00  0.00     0.029 A 
ATOM     66  C   UNL     1      -2.574  14.818   7.003  1.00  0.00     0.049 A 
ATOM     67  H   UNL     1      -0.997  13.418   7.038  1.00  0.00     0.167 HD
ATOM     68  C   UNL     1      -2.504  14.043   9.355  1.00  0.00     0.074 A 
ATOM     69  C   UNL     1      -2.935  14.082  10.737  1.00  0.00     0.031 C 
ATOM     70  C   UNL     1      -3.025  14.813   8.370  1.00  0.00     0.034 A 
BRANCH  57  71
ATOM     71  C   UNL     1      -0.320  14.102   2.880  1.00  0.00     0.023 A 
ATOM     72  C   UNL     1      -0.997  13.312   1.931  1.00  0.00     0.012 A 
ATOM     73  C   UNL     1       0.287  15.307   2.478  1.00  0.00     0.148 A 
ATOM     74  C   UNL     1      -1.065  13.712   0.597  1.00  0.00     0.002 A 
ATOM     75  C   UNL     1       0.195  15.711   1.151  1.00  0.00     0.091 A 
ATOM     76  F   UNL     1       0.937  16.033   3.399  1.00  0.00    -0.205 F 
ATOM     77  C   UNL     1      -0.478  14.914   0.210  1.00  0.00     0.022 A 
BRANCH  75  78
ATOM     78  S   UNL     1       0.874  17.265   0.556  1.00  0.00     0.127 S 
ATOM     79  O   UNL     1       1.954  16.798  -0.313  1.00  0.00    -0.237 OA
ATOM     80  O   UNL     1      -0.267  17.849  -0.149  1.00  0.00    -0.237 OA
ATOM     81  O   UNL     1       1.302  17.998   1.739  1.00  0.00    -0.744 OA
ENDBRANCH  75  78
ENDBRANCH  57  71
BRANCH  58  82
ATOM     82  C   UNL     1      -0.386  11.139  12.397  1.00  0.00     0.023 A 
ATOM     83  C   UNL     1      -1.437  10.297  12.806  1.00  0.00     0.012 A 
ATOM     84  C   UNL     1       0.654  11.436  13.298  1.00  0.00     0.148 A 
ATOM     85  C   UNL     1      -1.452   9.758  14.092  1.00  0.00     0.002 A 
ATOM     86  C   UNL     1       0.655  10.861  14.563  1.00  0.00     0.091 A 
ATOM     87  F   UNL     1       1.637  12.248  12.885  1.00  0.00    -0.205 F 
ATOM     88  C   UNL     1      -0.402  10.029  14.965  1.00  0.00     0.022 A 
BRANCH  86  89
ATOM     89  S   UNL     1       2.022  11.055  15.712  1.00  0.00     0.127 S 
ATOM     90  O   UNL     1       1.406  11.839  16.779  1.00  0.00    -0.237 OA
ATOM     91  O   UNL     1       2.320   9.665  16.061  1.00  0.00    -0.237 OA
ATOM     92  O   UNL     1       3.075  11.727  14.964  1.00  0.00    -0.744 OA
ENDBRANCH  86  89
ENDBRANCH  58  82
BRANCH  70  93
ATOM     93  C   UNL     1      -4.119  15.777   8.732  1.00  0.00     0.023 A 
ATOM     94  C   UNL     1      -3.775  17.012   9.314  1.00  0.00     0.012 A 
ATOM     95  C   UNL     1      -5.458  15.518   8.386  1.00  0.00     0.148 A 
ATOM     96  C   UNL     1      -4.752  17.977   9.552  1.00  0.00     0.002 A 
ATOM     97  C   UNL     1      -6.423  16.495   8.599  1.00  0.00     0.091 A 
ATOM     98  F   UNL     1      -5.758  14.329   7.842  1.00  0.00    -0.205 F 
ATOM     99  C   UNL     1      -6.072  17.724   9.185  1.00  0.00     0.022 A 
BRANCH  97 100
ATOM    100  S   UNL     1      -8.136  16.293   8.096  1.00  0.00     0.127 S 
ATOM    101  O   UNL     1      -8.818  16.212   9.387  1.00  0.00    -0.237 OA
ATOM    102  O   UNL     1      -8.386  17.526   7.349  1.00  0.00    -0.237 OA
ATOM    103  O   UNL     1      -8.179  15.078   7.293  1.00  0.00    -0.744 OA
ENDBRANCH  97 100
ENDBRANCH  70  93
ENDBRANCH  44  45
ENDBRANCH  36  39
ENDBRANCH  34  35
ENDBRANCH  33  34
ENDBRANCH  32  33
ENDBRANCH   1  32
TORSDOF 19
