REMARK SMILES Cc1cc(C(F)(F)CC(C)(C)CC(=O)NCCCCCCNC(=O)c2ccc(-c3c4nc(c(-c5cccc(S(=O)(=O)[O-])c5F)c5ccc([nH]5)c(-c5cccc(S(=O)(=O)[O-])c5F)c5nc(c(-c6cccc(S(=O)(=O)[O-])c6F)c6ccc3[nH]6)C=C5)C=C4)cc2)sc1Br
REMARK SMILES IDX 18 1 17 2 16 3 15 4 13 5 14 6 12 8 9 9 10 10 11 11 8 12 5 13
REMARK SMILES IDX 6 14 7 15 4 16 1 17 2 18 3 19 89 20 88 21 90 22 19 23 20 24
REMARK SMILES IDX 21 25 22 26 23 27 24 29 25 30 26 31 87 32 27 33 86 34 28 35
REMARK SMILES IDX 29 36 30 37 80 38 31 39 85 40 79 41 81 42 32 43 84 44 78 45
REMARK SMILES IDX 77 46 33 48 65 49 45 50 64 51 46 52 49 53 63 54 82 55 47 56
REMARK SMILES IDX 48 57 62 59 83 60 50 61 34 62 35 63 43 64 36 65 38 66 44 67
REMARK SMILES IDX 37 68 39 69 40 70 41 71 42 72 66 73 67 74 75 75 68 76 70 77
REMARK SMILES IDX 76 78 69 79 71 80 72 81 73 82 74 83 51 84 52 85 60 86 53 87
REMARK SMILES IDX 55 88 61 89 54 90 56 91 57 92 58 93 59 94
REMARK H PARENT 15 7 22 28 81 47 49 58
REMARK Flexibility Score: inf
ROOT
ATOM      1  C   UNL     1       2.161  -9.513  -3.281  1.00  0.00     0.002 C 
ENDROOT
BRANCH   1   2
ATOM      2  C   UNL     1       1.891  -8.030  -3.036  1.00  0.00     0.021 C 
BRANCH   2   3
ATOM      3  C   UNL     1       0.407  -7.666  -3.011  1.00  0.00     0.116 C 
BRANCH   3   4
ATOM      4  N   UNL     1      -0.154  -7.940  -1.708  1.00  0.00    -0.356 N 
ATOM      5  C   UNL     1      -0.597  -7.070  -0.762  1.00  0.00     0.220 C 
ATOM      6  O   UNL     1      -0.959  -7.530   0.322  1.00  0.00    -0.275 OA
ATOM      7  H   UNL     1      -0.226  -8.893  -1.472  1.00  0.00     0.163 HD
BRANCH   5   8
ATOM      8  C   UNL     1      -0.721  -5.591  -1.077  1.00  0.00     0.106 C 
BRANCH   8   9
ATOM      9  C   UNL     1       0.496  -4.648  -0.857  1.00  0.00    -0.021 C 
ATOM     10  C   UNL     1      -0.060  -3.231  -1.123  1.00  0.00     0.012 C 
ATOM     11  C   UNL     1       1.614  -4.818  -1.905  1.00  0.00     0.012 C 
BRANCH   9  12
ATOM     12  C   UNL     1       1.183  -4.873   0.535  1.00  0.00     0.090 C 
BRANCH  12  13
ATOM     13  C   UNL     1       0.514  -4.358   1.816  1.00  0.00     0.282 C 
ATOM     14  F   UNL     1       1.174  -4.890   2.884  1.00  0.00    -0.200 F 
ATOM     15  F   UNL     1      -0.747  -4.874   1.873  1.00  0.00    -0.200 F 
BRANCH  13  16
ATOM     16  C   UNL     1       0.491  -2.860   1.929  1.00  0.00     0.075 A 
ATOM     17  C   UNL     1       1.223   0.434   0.350  1.00  0.00     0.046 C 
ATOM     18  C   UNL     1       0.732  -0.624   1.282  1.00  0.00    -0.025 A 
ATOM     19  C   UNL     1       1.334  -1.926   1.348  1.00  0.00     0.026 A 
ATOM     20  C   UNL     1      -0.355  -0.574   2.127  1.00  0.00     0.073 A 
ATOM     21  S   UNL     1      -0.738  -2.072   2.828  1.00  0.00    -0.127 S 
ATOM     22  Br  UNL     1      -1.403   0.951   2.446  1.00  0.00    -0.039 Br
ENDBRANCH  13  16
ENDBRANCH  12  13
ENDBRANCH   9  12
ENDBRANCH   8   9
ENDBRANCH   5   8
ENDBRANCH   3   4
ENDBRANCH   2   3
ENDBRANCH   1   2
BRANCH   1  23
ATOM     23  C   UNL     1       1.587 -10.066  -4.590  1.00  0.00     0.002 C 
BRANCH  23  24
ATOM     24  C   UNL     1       1.926  -9.263  -5.854  1.00  0.00     0.021 C 
BRANCH  24  25
ATOM     25  C   UNL     1       3.415  -9.230  -6.167  1.00  0.00     0.116 C 
BRANCH  25  26
ATOM     26  N   UNL     1       3.919 -10.562  -6.484  1.00  0.00    -0.352 N 
ATOM     27  C   UNL     1       5.210 -10.939  -6.782  1.00  0.00     0.251 C 
ATOM     28  H   UNL     1       3.250 -11.284  -6.485  1.00  0.00     0.163 HD
ATOM     29  O   UNL     1       5.439 -11.993  -7.348  1.00  0.00    -0.269 OA
BRANCH  27  30
ATOM     30  C   UNL     1       6.309 -10.035  -6.403  1.00  0.00     0.039 A 
ATOM     31  C   UNL     1       7.314  -9.735  -7.324  1.00  0.00     0.014 A 
ATOM     32  C   UNL     1       6.303  -9.468  -5.128  1.00  0.00     0.014 A 
ATOM     33  C   UNL     1       8.278  -8.794  -6.980  1.00  0.00     0.010 A 
ATOM     34  C   UNL     1       7.196  -8.464  -4.827  1.00  0.00     0.010 A 
ATOM     35  C   UNL     1       8.200  -8.142  -5.739  1.00  0.00    -0.014 A 
BRANCH  35  36
ATOM     36  C   UNL     1       9.051  -6.979  -5.482  1.00  0.00     0.031 A 
ATOM     37  C   UNL     1       8.913  -5.910  -6.512  1.00  0.00     0.074 A 
ATOM     38  C   UNL     1       9.711  -6.779  -4.319  1.00  0.00     0.049 A 
ATOM     39  N   UNL     1       9.798  -5.514  -7.367  1.00  0.00    -0.248 NA
ATOM     40  C   UNL     1       7.577  -5.326  -6.731  1.00  0.00     0.031 C 
ATOM     41  C   UNL     1       9.628  -7.615  -3.114  1.00  0.00     0.029 A 
ATOM     42  N   UNL     1      10.463  -5.718  -3.898  1.00  0.00    -0.354 N 
ATOM     43  C   UNL     1       9.213  -4.427  -8.017  1.00  0.00     0.074 A 
ATOM     44  C   UNL     1       7.801  -4.523  -7.774  1.00  0.00     0.031 C 
ATOM     45  C   UNL     1      10.050  -6.908  -2.046  1.00  0.00     0.029 A 
ATOM     46  C   UNL     1      10.605  -5.652  -2.513  1.00  0.00     0.049 A 
ATOM     47  H   UNL     1      10.865  -5.063  -4.514  1.00  0.00     0.167 HD
ATOM     48  C   UNL     1       9.971  -3.355  -8.380  1.00  0.00     0.034 A 
ATOM     49  C   UNL     1      11.115  -4.632  -1.783  1.00  0.00     0.034 A 
ATOM     50  C   UNL     1      11.373  -3.672  -8.301  1.00  0.00     0.049 A 
ATOM     51  C   UNL     1      11.967  -3.823  -2.674  1.00  0.00     0.074 A 
ATOM     52  C   UNL     1      12.295  -4.402  -9.014  1.00  0.00     0.029 A 
ATOM     53  N   UNL     1      11.898  -3.436  -7.060  1.00  0.00    -0.354 N 
ATOM     54  N   UNL     1      13.076  -4.268  -3.197  1.00  0.00    -0.248 NA
ATOM     55  C   UNL     1      11.443  -2.594  -3.257  1.00  0.00     0.031 C 
ATOM     56  C   UNL     1      13.345  -4.713  -8.098  1.00  0.00     0.029 A 
ATOM     57  C   UNL     1      13.053  -4.135  -6.864  1.00  0.00     0.049 A 
ATOM     58  H   UNL     1      11.492  -2.837  -6.392  1.00  0.00     0.167 HD
ATOM     59  C   UNL     1      13.116  -3.659  -4.436  1.00  0.00     0.074 A 
ATOM     60  C   UNL     1      12.225  -2.512  -4.335  1.00  0.00     0.031 C 
ATOM     61  C   UNL     1      13.570  -4.334  -5.528  1.00  0.00     0.034 A 
BRANCH  48  62
ATOM     62  C   UNL     1       9.541  -1.896  -8.289  1.00  0.00     0.023 A 
ATOM     63  C   UNL     1      10.462  -0.930  -8.763  1.00  0.00     0.012 A 
ATOM     64  C   UNL     1       8.475  -1.413  -7.495  1.00  0.00     0.148 A 
ATOM     65  C   UNL     1      10.358   0.424  -8.421  1.00  0.00     0.002 A 
ATOM     66  C   UNL     1       8.334  -0.056  -7.218  1.00  0.00     0.091 A 
ATOM     67  F   UNL     1       7.657  -2.266  -6.877  1.00  0.00    -0.205 F 
ATOM     68  C   UNL     1       9.290   0.864  -7.652  1.00  0.00     0.022 A 
BRANCH  66  69
ATOM     69  S   UNL     1       6.953   0.567  -6.249  1.00  0.00     0.127 S 
ATOM     70  O   UNL     1       7.612   0.927  -4.998  1.00  0.00    -0.237 OA
ATOM     71  O   UNL     1       6.503   1.695  -7.064  1.00  0.00    -0.237 OA
ATOM     72  O   UNL     1       5.997  -0.532  -6.174  1.00  0.00    -0.744 OA
ENDBRANCH  66  69
ENDBRANCH  48  62
BRANCH  49  73
ATOM     73  C   UNL     1      10.830  -4.208  -0.395  1.00  0.00     0.023 A 
ATOM     74  C   UNL     1      11.802  -3.489   0.330  1.00  0.00     0.012 A 
ATOM     75  C   UNL     1       9.514  -4.256   0.112  1.00  0.00     0.148 A 
ATOM     76  C   UNL     1      11.463  -2.800   1.499  1.00  0.00     0.002 A 
ATOM     77  C   UNL     1       9.180  -3.567   1.274  1.00  0.00     0.091 A 
ATOM     78  F   UNL     1       8.578  -4.905  -0.594  1.00  0.00    -0.205 F 
ATOM     79  C   UNL     1      10.151  -2.827   1.964  1.00  0.00     0.022 A 
BRANCH  77  80
ATOM     80  S   UNL     1       7.502  -3.517   1.919  1.00  0.00     0.127 S 
ATOM     81  O   UNL     1       7.702  -3.940   3.305  1.00  0.00    -0.237 OA
ATOM     82  O   UNL     1       7.155  -2.108   1.752  1.00  0.00    -0.237 OA
ATOM     83  O   UNL     1       6.731  -4.450   1.107  1.00  0.00    -0.744 OA
ENDBRANCH  77  80
ENDBRANCH  49  73
BRANCH  61  84
ATOM     84  C   UNL     1      14.529  -5.462  -5.309  1.00  0.00     0.023 A 
ATOM     85  C   UNL     1      14.175  -6.670  -4.678  1.00  0.00     0.012 A 
ATOM     86  C   UNL     1      15.814  -5.323  -5.857  1.00  0.00     0.148 A 
ATOM     87  C   UNL     1      15.100  -7.715  -4.586  1.00  0.00     0.002 A 
ATOM     88  C   UNL     1      16.711  -6.378  -5.806  1.00  0.00     0.091 A 
ATOM     89  F   UNL     1      16.131  -4.155  -6.438  1.00  0.00    -0.205 F 
ATOM     90  C   UNL     1      16.362  -7.574  -5.163  1.00  0.00     0.022 A 
BRANCH  88  91
ATOM     91  S   UNL     1      18.297  -6.285  -6.636  1.00  0.00     0.127 S 
ATOM     92  O   UNL     1      19.216  -6.087  -5.518  1.00  0.00    -0.237 OA
ATOM     93  O   UNL     1      18.390  -7.595  -7.282  1.00  0.00    -0.237 OA
ATOM     94  O   UNL     1      18.195  -5.170  -7.570  1.00  0.00    -0.744 OA
ENDBRANCH  88  91
ENDBRANCH  61  84
ENDBRANCH  35  36
ENDBRANCH  27  30
ENDBRANCH  25  26
ENDBRANCH  24  25
ENDBRANCH  23  24
ENDBRANCH   1  23
TORSDOF 20
