REMARK SMILES COC(=O)C[C@@H](NC(=O)c1ccccc1C(=O)NCCCCCCNC(=O)c1ccc(-c2c3nc(c(-c4cccc(S(=O)(=O)[O-])c4F)c4ccc([nH]4)c(-c4cccc(S(=O)(=O)[O-])c4F)c4nc(c(-c5cccc(S(=O)(=O)[O-])c5F)c5ccc2[nH]5)C=C4)C=C3)cc1)c1cccc(C)c1C
REMARK SMILES IDX 20 1 19 2 18 3 16 4 17 5 15 7 10 8 11 9 12 10 14 11 13 12
REMARK SMILES IDX 8 13 7 14 9 16 6 17 5 18 3 19 4 20 2 21 1 22 91 23 92 24
REMARK SMILES IDX 97 25 93 26 95 27 98 28 94 29 96 30 21 31 22 32 23 33 24 34
REMARK SMILES IDX 25 35 26 36 27 38 28 39 29 40 90 41 30 42 89 43 31 44 32 45
REMARK SMILES IDX 33 46 83 47 34 48 88 49 82 50 84 51 35 52 87 53 81 54 80 55
REMARK SMILES IDX 36 57 68 58 48 59 67 60 49 61 52 62 66 63 85 64 50 65 51 66
REMARK SMILES IDX 65 68 86 69 53 70 37 71 38 72 46 73 39 74 41 75 47 76 40 77
REMARK SMILES IDX 42 78 43 79 44 80 45 81 69 82 70 83 78 84 71 85 73 86 79 87
REMARK SMILES IDX 72 88 74 89 75 90 76 91 77 92 54 93 55 94 63 95 56 96 58 97
REMARK SMILES IDX 64 98 57 99 59 100 60 101 61 102 62 103
REMARK H PARENT 18 6 7 15 25 37 84 56 52 67
REMARK Flexibility Score: inf
ROOT
ATOM      1  C   UNL     1       3.046  -1.495  -4.932  1.00  0.00     0.021 C 
ENDROOT
BRANCH   1   2
ATOM      2  C   UNL     1       3.074  -0.010  -5.395  1.00  0.00     0.116 C 
BRANCH   2   3
ATOM      3  N   UNL     1       2.619   0.155  -6.824  1.00  0.00    -0.352 N 
ATOM      4  C   UNL     1       1.510   0.060  -7.695  1.00  0.00     0.252 C 
ATOM      5  O   UNL     1       1.906  -0.164  -8.856  1.00  0.00    -0.269 OA
ATOM      6  H   UNL     1       3.396   0.441  -7.357  1.00  0.00     0.163 HD
BRANCH   4   7
ATOM      7  C   UNL     1      -0.079   0.435  -7.609  1.00  0.00     0.052 A 
ATOM      8  C   UNL     1      -1.655   0.466  -6.483  1.00  0.00     0.052 A 
ATOM      9  C   UNL     1      -2.909   1.752  -6.782  1.00  0.00     0.014 A 
ATOM     10  C   UNL     1      -2.750   2.902  -8.131  1.00  0.00     0.001 A 
ATOM     11  C   UNL     1       0.020   1.720  -8.927  1.00  0.00     0.014 A 
ATOM     12  C   UNL     1      -1.324   2.879  -9.202  1.00  0.00     0.001 A 
BRANCH   8  13
ATOM     13  C   UNL     1      -2.135   0.250  -4.930  1.00  0.00     0.252 C 
ATOM     14  N   UNL     1      -1.697   0.985  -3.759  1.00  0.00    -0.345 N 
ATOM     15  H   UNL     1      -2.371   0.968  -3.042  1.00  0.00     0.164 HD
ATOM     16  O   UNL     1      -3.061  -0.549  -4.767  1.00  0.00    -0.269 OA
BRANCH  14  17
ATOM     17  C   UNL     1      -0.427   1.798  -3.346  1.00  0.00     0.124 C 
BRANCH  17  18
ATOM     18  C   UNL     1      -0.617   2.685  -2.109  1.00  0.00     0.152 C 
BRANCH  18  19
ATOM     19  C   UNL     1       0.327   2.212  -1.023  1.00  0.00     0.307 C 
ATOM     20  O   UNL     1       1.321   2.824  -0.658  1.00  0.00    -0.252 OA
BRANCH  19  21
ATOM     21  O   UNL     1      -0.070   0.999  -0.552  1.00  0.00    -0.469 OA
ATOM     22  C   UNL     1       0.739   0.469   0.500  1.00  0.00     0.282 C 
ENDBRANCH  19  21
ENDBRANCH  18  19
ENDBRANCH  17  18
BRANCH  17  23
ATOM     23  C   UNL     1       0.142   2.480  -4.567  1.00  0.00    -0.022 A 
ATOM     24  C   UNL     1       0.320   3.841  -4.743  1.00  0.00     0.006 A 
ATOM     25  C   UNL     1       0.031   1.674  -5.683  1.00  0.00    -0.043 A 
ATOM     26  C   UNL     1      -0.029   4.443  -5.945  1.00  0.00     0.001 A 
ATOM     27  C   UNL     1      -0.795   2.264  -7.017  1.00  0.00    -0.048 A 
ATOM     28  C   UNL     1       0.354   0.010  -5.179  1.00  0.00     0.045 C 
ATOM     29  C   UNL     1      -0.661   3.728  -6.981  1.00  0.00     0.004 A 
ATOM     30  C   UNL     1      -1.840   1.007  -8.412  1.00  0.00     0.044 C 
ENDBRANCH  17  23
ENDBRANCH  14  17
ENDBRANCH   8  13
ENDBRANCH   4   7
ENDBRANCH   2   3
ENDBRANCH   1   2
BRANCH   1  31
ATOM     31  C   UNL     1       3.880  -1.834  -3.689  1.00  0.00     0.002 C 
BRANCH  31  32
ATOM     32  C   UNL     1       3.338  -1.354  -2.338  1.00  0.00     0.002 C 
BRANCH  32  33
ATOM     33  C   UNL     1       2.133  -2.110  -1.761  1.00  0.00     0.021 C 
BRANCH  33  34
ATOM     34  C   UNL     1       2.250  -3.631  -1.665  1.00  0.00     0.116 C 
BRANCH  34  35
ATOM     35  N   UNL     1       3.462  -4.056  -0.978  1.00  0.00    -0.352 N 
ATOM     36  C   UNL     1       3.628  -4.842   0.136  1.00  0.00     0.251 C 
ATOM     37  H   UNL     1       4.299  -3.725  -1.377  1.00  0.00     0.163 HD
ATOM     38  O   UNL     1       4.732  -4.904   0.671  1.00  0.00    -0.269 OA
BRANCH  36  39
ATOM     39  C   UNL     1       2.494  -5.610   0.697  1.00  0.00     0.039 A 
ATOM     40  C   UNL     1       2.365  -5.717   2.086  1.00  0.00     0.014 A 
ATOM     41  C   UNL     1       1.585  -6.263  -0.139  1.00  0.00     0.014 A 
ATOM     42  C   UNL     1       1.299  -6.438   2.632  1.00  0.00     0.010 A 
ATOM     43  C   UNL     1       0.477  -6.906   0.406  1.00  0.00     0.010 A 
ATOM     44  C   UNL     1       0.331  -7.018   1.796  1.00  0.00    -0.014 A 
BRANCH  44  45
ATOM     45  C   UNL     1      -0.824  -7.771   2.351  1.00  0.00     0.031 A 
ATOM     46  C   UNL     1      -0.997  -9.232   2.018  1.00  0.00     0.074 A 
ATOM     47  C   UNL     1      -1.749  -7.129   3.091  1.00  0.00     0.049 A 
ATOM     48  N   UNL     1      -1.974 -10.041   2.337  1.00  0.00    -0.248 NA
ATOM     49  C   UNL     1       0.052  -9.860   1.196  1.00  0.00     0.031 C 
ATOM     50  C   UNL     1      -1.726  -5.703   3.427  1.00  0.00     0.029 A 
ATOM     51  N   UNL     1      -2.905  -7.586   3.675  1.00  0.00    -0.354 N 
ATOM     52  C   UNL     1      -1.671 -11.258   1.737  1.00  0.00     0.074 A 
ATOM     53  C   UNL     1      -0.447 -11.069   0.991  1.00  0.00     0.031 C 
ATOM     54  C   UNL     1      -2.810  -5.405   4.162  1.00  0.00     0.029 A 
ATOM     55  C   UNL     1      -3.624  -6.605   4.318  1.00  0.00     0.049 A 
ATOM     56  H   UNL     1      -3.192  -8.527   3.636  1.00  0.00     0.167 HD
ATOM     57  C   UNL     1      -2.328 -12.439   1.829  1.00  0.00     0.034 A 
ATOM     58  C   UNL     1      -4.812  -6.667   4.951  1.00  0.00     0.034 A 
ATOM     59  C   UNL     1      -3.528 -12.630   2.597  1.00  0.00     0.049 A 
ATOM     60  C   UNL     1      -5.519  -7.994   5.039  1.00  0.00     0.074 A 
ATOM     61  C   UNL     1      -4.248 -13.794   2.795  1.00  0.00     0.029 A 
ATOM     62  N   UNL     1      -4.184 -11.629   3.297  1.00  0.00    -0.354 N 
ATOM     63  N   UNL     1      -5.149  -9.161   4.570  1.00  0.00    -0.248 NA
ATOM     64  C   UNL     1      -6.790  -8.021   5.778  1.00  0.00     0.031 C 
ATOM     65  C   UNL     1      -5.353 -13.493   3.597  1.00  0.00     0.029 A 
ATOM     66  C   UNL     1      -5.299 -12.149   3.931  1.00  0.00     0.049 A 
ATOM     67  H   UNL     1      -3.900 -10.688   3.336  1.00  0.00     0.167 HD
ATOM     68  C   UNL     1      -6.111 -10.067   5.002  1.00  0.00     0.074 A 
ATOM     69  C   UNL     1      -7.070  -9.316   5.785  1.00  0.00     0.031 C 
ATOM     70  C   UNL     1      -6.202 -11.399   4.763  1.00  0.00     0.034 A 
BRANCH  57  71
ATOM     71  C   UNL     1      -1.727 -13.633   1.132  1.00  0.00     0.023 A 
ATOM     72  C   UNL     1      -0.530 -14.192   1.626  1.00  0.00     0.012 A 
ATOM     73  C   UNL     1      -2.371 -14.243   0.037  1.00  0.00     0.148 A 
ATOM     74  C   UNL     1       0.036 -15.314   1.022  1.00  0.00     0.002 A 
ATOM     75  C   UNL     1      -1.827 -15.390  -0.529  1.00  0.00     0.091 A 
ATOM     76  F   UNL     1      -3.500 -13.690  -0.428  1.00  0.00    -0.205 F 
ATOM     77  C   UNL     1      -0.618 -15.918  -0.047  1.00  0.00     0.022 A 
BRANCH  75  78
ATOM     78  S   UNL     1      -2.628 -16.295  -1.858  1.00  0.00     0.127 S 
ATOM     79  O   UNL     1      -1.683 -16.102  -2.958  1.00  0.00    -0.237 OA
ATOM     80  O   UNL     1      -2.668 -17.655  -1.321  1.00  0.00    -0.237 OA
ATOM     81  O   UNL     1      -3.931 -15.672  -2.044  1.00  0.00    -0.744 OA
ENDBRANCH  75  78
ENDBRANCH  57  71
BRANCH  58  82
ATOM     82  C   UNL     1      -5.394  -5.455   5.599  1.00  0.00     0.023 A 
ATOM     83  C   UNL     1      -5.519  -5.410   7.002  1.00  0.00     0.012 A 
ATOM     84  C   UNL     1      -5.843  -4.359   4.838  1.00  0.00     0.148 A 
ATOM     85  C   UNL     1      -6.133  -4.326   7.630  1.00  0.00     0.002 A 
ATOM     86  C   UNL     1      -6.399  -3.255   5.474  1.00  0.00     0.091 A 
ATOM     87  F   UNL     1      -5.724  -4.419   3.504  1.00  0.00    -0.205 F 
ATOM     88  C   UNL     1      -6.567  -3.246   6.867  1.00  0.00     0.022 A 
BRANCH  86  89
ATOM     89  S   UNL     1      -6.864  -1.767   4.583  1.00  0.00     0.127 S 
ATOM     90  O   UNL     1      -8.322  -1.842   4.614  1.00  0.00    -0.237 OA
ATOM     91  O   UNL     1      -6.283  -0.717   5.420  1.00  0.00    -0.237 OA
ATOM     92  O   UNL     1      -6.248  -1.890   3.268  1.00  0.00    -0.744 OA
ENDBRANCH  86  89
ENDBRANCH  58  82
BRANCH  70  93
ATOM     93  C   UNL     1      -7.333 -12.149   5.416  1.00  0.00     0.023 A 
ATOM     94  C   UNL     1      -8.657 -11.965   4.974  1.00  0.00     0.012 A 
ATOM     95  C   UNL     1      -7.066 -13.091   6.430  1.00  0.00     0.148 A 
ATOM     96  C   UNL     1      -9.704 -12.677   5.560  1.00  0.00     0.002 A 
ATOM     97  C   UNL     1      -8.105 -13.837   6.969  1.00  0.00     0.091 A 
ATOM     98  F   UNL     1      -5.800 -13.239   6.848  1.00  0.00    -0.205 F 
ATOM     99  C   UNL     1      -9.427 -13.620   6.547  1.00  0.00     0.022 A 
BRANCH  97 100
ATOM    100  S   UNL     1      -7.832 -15.144   8.169  1.00  0.00     0.127 S 
ATOM    101  O   UNL     1      -8.399 -14.558   9.382  1.00  0.00    -0.237 OA
ATOM    102  O   UNL     1      -8.608 -16.248   7.604  1.00  0.00    -0.237 OA
ATOM    103  O   UNL     1      -6.393 -15.370   8.200  1.00  0.00    -0.744 OA
ENDBRANCH  97 100
ENDBRANCH  70  93
ENDBRANCH  44  45
ENDBRANCH  36  39
ENDBRANCH  34  35
ENDBRANCH  33  34
ENDBRANCH  32  33
ENDBRANCH  31  32
ENDBRANCH   1  31
TORSDOF 22
