REMARK SMILES CC(=O)Nc1ccc(/N=C2\C(=O)N(c3ccc(NC(C)=O)cc3)[C@H](c3ccccc3)[C@H]2CC(=O)NCCCCCCNC(=O)c2ccc(-c3c4nc(c(-c5cccc(S(=O)(=O)[O-])c5F)c5ccc([nH]5)c(-c5cccc(S(=O)(=O)[O-])c5F)c5nc(c(-c6cccc(S(=O)(=O)[O-])c6F)c6ccc3[nH]6)C=C5)C=C4)cc2)cc1
REMARK SMILES IDX 38 1 37 2 36 3 35 4 33 5 34 6 32 8 31 9 9 10 10 11 11 12
REMARK SMILES IDX 12 13 13 14 24 15 8 16 5 17 6 18 109 19 7 20 108 21 4 22
REMARK SMILES IDX 1 23 2 24 3 25 14 27 15 28 23 29 16 30 22 31 17 32 18 33
REMARK SMILES IDX 19 34 20 36 21 37 25 38 26 39 30 40 27 41 29 42 28 43 39 44
REMARK SMILES IDX 40 45 41 46 42 47 43 48 44 50 45 51 46 52 107 53 47 54
REMARK SMILES IDX 106 55 48 56 49 57 50 58 100 59 51 60 105 61 99 62 101 63
REMARK SMILES IDX 52 64 104 65 98 66 97 67 53 69 85 70 65 71 84 72 66 73 69 74
REMARK SMILES IDX 83 75 102 76 67 77 68 78 82 80 103 81 70 82 54 83 55 84
REMARK SMILES IDX 63 85 56 86 58 87 64 88 57 89 59 90 60 91 61 92 62 93 86 94
REMARK SMILES IDX 87 95 95 96 88 97 90 98 96 99 89 100 91 101 92 102 93 103
REMARK SMILES IDX 94 104 71 105 72 106 80 107 73 108 75 109 81 110 74 111
REMARK SMILES IDX 76 112 77 113 78 114 79 115
REMARK H PARENT 35 7 4 26 18 35 42 49 101 68 69 79
REMARK Flexibility Score: inf
ROOT
ATOM      1  C   UNL     1       3.627   6.730  -0.177  1.00  0.00     0.002 C 
ENDROOT
BRANCH   1   2
ATOM      2  C   UNL     1       4.395   5.676   0.625  1.00  0.00     0.021 C 
BRANCH   2   3
ATOM      3  C   UNL     1       5.910   5.871   0.675  1.00  0.00     0.116 C 
BRANCH   3   4
ATOM      4  N   UNL     1       6.283   6.740   1.784  1.00  0.00    -0.356 N 
ATOM      5  C   UNL     1       6.834   6.446   2.993  1.00  0.00     0.220 C 
ATOM      6  O   UNL     1       6.951   7.347   3.826  1.00  0.00    -0.275 OA
ATOM      7  H   UNL     1       6.107   7.697   1.634  1.00  0.00     0.163 HD
BRANCH   5   8
ATOM      8  C   UNL     1       7.319   5.045   3.310  1.00  0.00     0.112 C 
BRANCH   8   9
ATOM      9  C   UNL     1       6.383   4.343   4.303  1.00  0.00     0.081 C 
ATOM     10  N   UNL     1       4.107   3.830   3.530  1.00  0.00    -0.247 NA
ATOM     11  C   UNL     1       5.370   3.531   3.560  1.00  0.00     0.112 C 
ATOM     12  C   UNL     1       6.029   2.240   3.160  1.00  0.00     0.273 C 
ATOM     13  O   UNL     1       5.820   1.649   2.127  1.00  0.00    -0.267 OA
ATOM     14  N   UNL     1       6.811   1.940   4.262  1.00  0.00    -0.299 N 
ATOM     15  C   UNL     1       7.082   3.151   5.050  1.00  0.00     0.131 C 
BRANCH  10  16
ATOM     16  C   UNL     1       3.152   2.948   2.983  1.00  0.00     0.064 A 
ATOM     17  C   UNL     1       1.250   1.281   1.700  1.00  0.00     0.041 A 
ATOM     18  C   UNL     1       1.198   2.672   1.566  1.00  0.00     0.028 A 
ATOM     19  C   UNL     1       2.192   0.738   2.564  1.00  0.00     0.028 A 
ATOM     20  C   UNL     1       2.140   3.491   2.195  1.00  0.00     0.030 A 
ATOM     21  C   UNL     1       3.106   1.571   3.228  1.00  0.00     0.030 A 
BRANCH  17  22
ATOM     22  N   UNL     1       0.310   0.556   0.961  1.00  0.00    -0.326 N 
ATOM     23  C   UNL     1       1.235  -1.772   0.924  1.00  0.00     0.114 C 
ATOM     24  C   UNL     1       0.190  -0.749   0.596  1.00  0.00     0.221 C 
ATOM     25  O   UNL     1      -0.810  -1.048  -0.063  1.00  0.00    -0.275 OA
ATOM     26  H   UNL     1      -0.430   1.115   0.632  1.00  0.00     0.169 HD
ENDBRANCH  17  22
ENDBRANCH  10  16
BRANCH  14  27
ATOM     27  C   UNL     1       6.851   0.592   4.689  1.00  0.00     0.045 A 
ATOM     28  C   UNL     1       7.418  -0.381   3.861  1.00  0.00     0.028 A 
ATOM     29  C   UNL     1       6.073   0.168   5.772  1.00  0.00     0.028 A 
ATOM     30  C   UNL     1       7.218  -1.747   4.114  1.00  0.00     0.028 A 
ATOM     31  C   UNL     1       5.847  -1.192   6.006  1.00  0.00     0.028 A 
ATOM     32  C   UNL     1       6.404  -2.160   5.169  1.00  0.00     0.041 A 
BRANCH  32  33
ATOM     33  N   UNL     1       6.017  -3.495   5.395  1.00  0.00    -0.326 N 
ATOM     34  C   UNL     1       6.513  -4.626   4.776  1.00  0.00     0.221 C 
ATOM     35  H   UNL     1       5.315  -3.639   6.070  1.00  0.00     0.169 HD
ATOM     36  C   UNL     1       5.673  -5.849   5.054  1.00  0.00     0.114 C 
ATOM     37  O   UNL     1       7.509  -4.690   4.064  1.00  0.00    -0.275 OA
ENDBRANCH  32  33
ENDBRANCH  14  27
BRANCH  15  38
ATOM     38  C   UNL     1       6.818   3.096   6.546  1.00  0.00    -0.024 A 
ATOM     39  C   UNL     1       7.836   2.623   7.397  1.00  0.00     0.006 A 
ATOM     40  C   UNL     1       5.593   3.470   7.121  1.00  0.00     0.006 A 
ATOM     41  C   UNL     1       7.637   2.532   8.776  1.00  0.00     0.000 A 
ATOM     42  C   UNL     1       5.399   3.384   8.502  1.00  0.00     0.000 A 
ATOM     43  C   UNL     1       6.419   2.915   9.328  1.00  0.00     0.000 A 
ENDBRANCH  15  38
ENDBRANCH   8   9
ENDBRANCH   5   8
ENDBRANCH   3   4
ENDBRANCH   2   3
ENDBRANCH   1   2
BRANCH   1  44
ATOM     44  C   UNL     1       3.747   6.618  -1.701  1.00  0.00     0.002 C 
BRANCH  44  45
ATOM     45  C   UNL     1       3.313   5.283  -2.326  1.00  0.00     0.021 C 
BRANCH  45  46
ATOM     46  C   UNL     1       1.889   4.815  -2.014  1.00  0.00     0.116 C 
BRANCH  46  47
ATOM     47  N   UNL     1       0.871   5.704  -2.554  1.00  0.00    -0.352 N 
ATOM     48  C   UNL     1      -0.299   5.398  -3.211  1.00  0.00     0.251 C 
ATOM     49  H   UNL     1       1.045   6.665  -2.432  1.00  0.00     0.163 HD
ATOM     50  O   UNL     1      -0.966   6.299  -3.715  1.00  0.00    -0.269 OA
BRANCH  48  51
ATOM     51  C   UNL     1      -0.752   3.992  -3.335  1.00  0.00     0.039 A 
ATOM     52  C   UNL     1      -1.160   3.520  -4.588  1.00  0.00     0.014 A 
ATOM     53  C   UNL     1      -0.807   3.148  -2.224  1.00  0.00     0.014 A 
ATOM     54  C   UNL     1      -1.543   2.182  -4.742  1.00  0.00     0.010 A 
ATOM     55  C   UNL     1      -1.160   1.806  -2.386  1.00  0.00     0.010 A 
ATOM     56  C   UNL     1      -1.511   1.303  -3.647  1.00  0.00    -0.014 A 
BRANCH  56  57
ATOM     57  C   UNL     1      -1.739  -0.157  -3.815  1.00  0.00     0.031 A 
ATOM     58  C   UNL     1      -2.933  -0.846  -3.212  1.00  0.00     0.074 A 
ATOM     59  C   UNL     1      -0.794  -0.893  -4.434  1.00  0.00     0.049 A 
ATOM     60  N   UNL     1      -3.259  -2.114  -3.252  1.00  0.00    -0.248 NA
ATOM     61  C   UNL     1      -3.882  -0.004  -2.468  1.00  0.00     0.031 C 
ATOM     62  C   UNL     1       0.461  -0.373  -4.980  1.00  0.00     0.029 A 
ATOM     63  N   UNL     1      -0.734  -2.240  -4.690  1.00  0.00    -0.354 N 
ATOM     64  C   UNL     1      -4.406  -2.236  -2.478  1.00  0.00     0.074 A 
ATOM     65  C   UNL     1      -4.747  -0.905  -2.018  1.00  0.00     0.031 C 
ATOM     66  C   UNL     1       1.156  -1.384  -5.526  1.00  0.00     0.029 A 
ATOM     67  C   UNL     1       0.403  -2.624  -5.358  1.00  0.00     0.049 A 
ATOM     68  H   UNL     1      -1.440  -2.872  -4.421  1.00  0.00     0.167 HD
ATOM     69  C   UNL     1      -5.122  -3.349  -2.188  1.00  0.00     0.034 A 
ATOM     70  C   UNL     1       0.794  -3.833  -5.802  1.00  0.00     0.034 A 
ATOM     71  C   UNL     1      -4.838  -4.663  -2.701  1.00  0.00     0.049 A 
ATOM     72  C   UNL     1      -0.084  -5.029  -5.581  1.00  0.00     0.074 A 
ATOM     73  C   UNL     1      -5.567  -5.830  -2.540  1.00  0.00     0.029 A 
ATOM     74  N   UNL     1      -3.738  -4.985  -3.479  1.00  0.00    -0.354 N 
ATOM     75  N   UNL     1      -1.252  -5.092  -4.992  1.00  0.00    -0.248 NA
ATOM     76  C   UNL     1       0.399  -6.314  -6.107  1.00  0.00     0.031 C 
ATOM     77  C   UNL     1      -4.923  -6.852  -3.249  1.00  0.00     0.029 A 
ATOM     78  C   UNL     1      -3.775  -6.327  -3.819  1.00  0.00     0.049 A 
ATOM     79  H   UNL     1      -3.033  -4.353  -3.749  1.00  0.00     0.167 HD
ATOM     80  C   UNL     1      -1.652  -6.418  -5.088  1.00  0.00     0.074 A 
ATOM     81  C   UNL     1      -0.610  -7.123  -5.807  1.00  0.00     0.031 C 
ATOM     82  C   UNL     1      -2.771  -7.002  -4.598  1.00  0.00     0.034 A 
BRANCH  69  83
ATOM     83  C   UNL     1      -6.346  -3.175  -1.336  1.00  0.00     0.023 A 
ATOM     84  C   UNL     1      -7.593  -3.018  -1.971  1.00  0.00     0.012 A 
ATOM     85  C   UNL     1      -6.284  -3.194   0.069  1.00  0.00     0.148 A 
ATOM     86  C   UNL     1      -8.760  -2.881  -1.220  1.00  0.00     0.002 A 
ATOM     87  C   UNL     1      -7.453  -3.051   0.810  1.00  0.00     0.091 A 
ATOM     88  F   UNL     1      -5.093  -3.339   0.669  1.00  0.00    -0.205 F 
ATOM     89  C   UNL     1      -8.692  -2.897   0.171  1.00  0.00     0.022 A 
BRANCH  87  90
ATOM     90  S   UNL     1      -7.373  -3.043   2.604  1.00  0.00     0.127 S 
ATOM     91  O   UNL     1      -6.527  -1.888   2.887  1.00  0.00    -0.237 OA
ATOM     92  O   UNL     1      -8.771  -2.870   3.005  1.00  0.00    -0.237 OA
ATOM     93  O   UNL     1      -6.819  -4.355   2.921  1.00  0.00    -0.744 OA
ENDBRANCH  87  90
ENDBRANCH  69  83
BRANCH  70  94
ATOM     94  C   UNL     1       2.036  -3.942  -6.608  1.00  0.00     0.023 A 
ATOM     95  C   UNL     1       1.928  -3.981  -8.011  1.00  0.00     0.012 A 
ATOM     96  C   UNL     1       3.308  -3.949  -6.014  1.00  0.00     0.148 A 
ATOM     97  C   UNL     1       3.070  -4.034  -8.809  1.00  0.00     0.002 A 
ATOM     98  C   UNL     1       4.444  -3.979  -6.818  1.00  0.00     0.091 A 
ATOM     99  F   UNL     1       3.401  -3.901  -4.677  1.00  0.00    -0.205 F 
ATOM    100  C   UNL     1       4.330  -4.029  -8.214  1.00  0.00     0.022 A 
BRANCH  98 101
ATOM    101  S   UNL     1       6.066  -3.898  -6.056  1.00  0.00     0.127 S 
ATOM    102  O   UNL     1       6.101  -5.106  -5.239  1.00  0.00    -0.237 OA
ATOM    103  O   UNL     1       6.977  -3.914  -7.201  1.00  0.00    -0.237 OA
ATOM    104  O   UNL     1       6.023  -2.624  -5.345  1.00  0.00    -0.744 OA
ENDBRANCH  98 101
ENDBRANCH  70  94
BRANCH  82 105
ATOM    105  C   UNL     1      -2.928  -8.477  -4.824  1.00  0.00     0.023 A 
ATOM    106  C   UNL     1      -2.420  -9.367  -3.859  1.00  0.00     0.012 A 
ATOM    107  C   UNL     1      -3.595  -8.985  -5.951  1.00  0.00     0.148 A 
ATOM    108  C   UNL     1      -2.569 -10.745  -4.018  1.00  0.00     0.002 A 
ATOM    109  C   UNL     1      -3.744 -10.361  -6.099  1.00  0.00     0.091 A 
ATOM    110  F   UNL     1      -4.074  -8.129  -6.867  1.00  0.00    -0.205 F 
ATOM    111  C   UNL     1      -3.232 -11.244  -5.138  1.00  0.00     0.022 A 
BRANCH 109 112
ATOM    112  S   UNL     1      -4.599 -11.008  -7.539  1.00  0.00     0.127 S 
ATOM    113  O   UNL     1      -3.777 -10.533  -8.648  1.00  0.00    -0.237 OA
ATOM    114  O   UNL     1      -4.554 -12.457  -7.338  1.00  0.00    -0.237 OA
ATOM    115  O   UNL     1      -5.934 -10.430  -7.422  1.00  0.00    -0.744 OA
ENDBRANCH 109 112
ENDBRANCH  82 105
ENDBRANCH  56  57
ENDBRANCH  48  51
ENDBRANCH  46  47
ENDBRANCH  45  46
ENDBRANCH  44  45
ENDBRANCH   1  44
TORSDOF 22
