REMARK SMILES Cc1cc(F)ccc1S(=O)(=O)N[C@@H](Cc1c[nH]c2ccccc12)C(=O)NCCCCCCNC(=O)c1ccc(-c2c3nc(c(-c4cccc(S(=O)(=O)[O-])c4F)c4ccc([nH]4)c(-c4cccc(S(=O)(=O)[O-])c4F)c4nc(c(-c5cccc(S(=O)(=O)[O-])c5F)c5ccc2[nH]5)C=C4)C=C3)cc1
REMARK SMILES IDX 29 1 28 2 27 3 26 4 24 5 25 6 13 8 12 9 9 11 10 12 11 13
REMARK SMILES IDX 8 14 1 15 2 16 3 17 4 18 7 19 5 20 6 21 14 22 15 23 16 24
REMARK SMILES IDX 23 25 17 26 18 27 22 28 19 30 21 31 20 32 30 33 31 34 32 35
REMARK SMILES IDX 33 36 34 37 35 39 36 40 37 41 98 42 38 43 97 44 39 45 40 46
REMARK SMILES IDX 41 47 91 48 42 49 96 50 90 51 92 52 43 53 95 54 89 55 88 56
REMARK SMILES IDX 44 58 76 59 56 60 75 61 57 62 60 63 74 64 93 65 58 66 59 67
REMARK SMILES IDX 73 69 94 70 61 71 45 72 46 73 54 74 47 75 49 76 55 77 48 78
REMARK SMILES IDX 50 79 51 80 52 81 53 82 77 83 78 84 86 85 79 86 81 87 87 88
REMARK SMILES IDX 80 89 82 90 83 91 84 92 85 93 62 94 63 95 71 96 64 97 66 98
REMARK SMILES IDX 72 99 65 100 67 101 68 102 69 103 70 104
REMARK H PARENT 26 7 12 10 17 29 33 38 92 57 60 68
REMARK Flexibility Score: inf
ROOT
ATOM      1  C   UNL     1       9.313   0.282  -0.928  1.00  0.00     0.002 C 
ENDROOT
BRANCH   1   2
ATOM      2  C   UNL     1       8.013  -0.509  -1.127  1.00  0.00     0.021 C 
BRANCH   2   3
ATOM      3  C   UNL     1       7.103  -0.572   0.096  1.00  0.00     0.116 C 
BRANCH   3   4
ATOM      4  N   UNL     1       6.454   0.693   0.413  1.00  0.00    -0.355 N 
ATOM      5  C   UNL     1       5.339   0.935   1.175  1.00  0.00     0.238 C 
ATOM      6  O   UNL     1       5.170   2.092   1.576  1.00  0.00    -0.273 OA
ATOM      7  H   UNL     1       6.878   1.492   0.023  1.00  0.00     0.163 HD
BRANCH   5   8
ATOM      8  C   UNL     1       4.271  -0.150   1.450  1.00  0.00     0.163 C 
BRANCH   8   9
ATOM      9  N   UNL     1       4.012  -0.845   0.182  1.00  0.00    -0.198 NA
ATOM     10  H   UNL     1       3.994  -0.106  -0.521  1.00  0.00     0.142 HD
BRANCH   9  11
ATOM     11  S   UNL     1       2.729  -1.809  -0.189  1.00  0.00     0.241 S 
ATOM     12  O   UNL     1       2.597  -2.787   0.868  1.00  0.00    -0.207 OA
ATOM     13  O   UNL     1       2.922  -2.197  -1.565  1.00  0.00    -0.207 OA
BRANCH  11  14
ATOM     14  C   UNL     1       1.219  -0.859  -0.158  1.00  0.00     0.085 A 
ATOM     15  C   UNL     1       2.224   1.450  -0.744  1.00  0.00     0.046 C 
ATOM     16  C   UNL     1       1.101   0.522  -0.388  1.00  0.00    -0.028 A 
ATOM     17  C   UNL     1      -0.182   1.099  -0.268  1.00  0.00     0.044 A 
ATOM     18  C   UNL     1      -1.305   0.319  -0.004  1.00  0.00     0.123 A 
ATOM     19  C   UNL     1       0.065  -1.635   0.094  1.00  0.00     0.025 A 
ATOM     20  F   UNL     1      -2.509   0.900   0.077  1.00  0.00    -0.207 F 
ATOM     21  C   UNL     1      -1.196  -1.050   0.161  1.00  0.00     0.040 A 
ENDBRANCH  11  14
ENDBRANCH   9  11
ENDBRANCH   8   9
BRANCH   8  22
ATOM     22  C   UNL     1       4.516  -0.980   2.717  1.00  0.00     0.068 C 
BRANCH  22  23
ATOM     23  C   UNL     1       5.802  -1.736   2.850  1.00  0.00    -0.021 A 
ATOM     24  C   UNL     1       6.995  -1.244   3.354  1.00  0.00     0.087 A 
ATOM     25  C   UNL     1       6.024  -3.125   2.570  1.00  0.00     0.003 A 
ATOM     26  N   UNL     1       7.939  -2.236   3.278  1.00  0.00    -0.361 N 
ATOM     27  C   UNL     1       7.381  -3.382   2.766  1.00  0.00     0.046 A 
ATOM     28  C   UNL     1       5.201  -4.196   2.171  1.00  0.00     0.010 A 
ATOM     29  H   UNL     1       8.880  -2.140   3.551  1.00  0.00     0.166 HD
ATOM     30  C   UNL     1       7.966  -4.626   2.498  1.00  0.00     0.026 A 
ATOM     31  C   UNL     1       5.760  -5.453   1.925  1.00  0.00     0.001 A 
ATOM     32  C   UNL     1       7.128  -5.658   2.068  1.00  0.00     0.002 A 
ENDBRANCH  22  23
ENDBRANCH   8  22
ENDBRANCH   5   8
ENDBRANCH   3   4
ENDBRANCH   2   3
ENDBRANCH   1   2
BRANCH   1  33
ATOM     33  C   UNL     1      10.157  -0.081   0.302  1.00  0.00     0.002 C 
BRANCH  33  34
ATOM     34  C   UNL     1      10.487  -1.565   0.485  1.00  0.00     0.021 C 
BRANCH  34  35
ATOM     35  C   UNL     1      11.214  -2.228  -0.678  1.00  0.00     0.116 C 
BRANCH  35  36
ATOM     36  N   UNL     1      12.511  -1.629  -0.947  1.00  0.00    -0.352 N 
ATOM     37  C   UNL     1      13.722  -2.242  -1.167  1.00  0.00     0.251 C 
ATOM     38  H   UNL     1      12.525  -0.645  -0.975  1.00  0.00     0.163 HD
ATOM     39  O   UNL     1      14.743  -1.564  -1.247  1.00  0.00    -0.269 OA
BRANCH  37  40
ATOM     40  C   UNL     1      13.800  -3.716  -1.278  1.00  0.00     0.039 A 
ATOM     41  C   UNL     1      14.819  -4.391  -0.599  1.00  0.00     0.014 A 
ATOM     42  C   UNL     1      12.876  -4.433  -2.043  1.00  0.00     0.014 A 
ATOM     43  C   UNL     1      14.874  -5.787  -0.638  1.00  0.00     0.010 A 
ATOM     44  C   UNL     1      12.889  -5.825  -2.021  1.00  0.00     0.010 A 
ATOM     45  C   UNL     1      13.890  -6.518  -1.324  1.00  0.00    -0.014 A 
BRANCH  45  46
ATOM     46  C   UNL     1      13.883  -8.004  -1.318  1.00  0.00     0.031 A 
ATOM     47  C   UNL     1      14.043  -8.768  -2.606  1.00  0.00     0.074 A 
ATOM     48  C   UNL     1      13.634  -8.666  -0.170  1.00  0.00     0.049 A 
ATOM     49  N   UNL     1      13.987 -10.059  -2.812  1.00  0.00    -0.248 NA
ATOM     50  C   UNL     1      14.266  -7.976  -3.827  1.00  0.00     0.031 C 
ATOM     51  C   UNL     1      13.381  -8.040   1.129  1.00  0.00     0.029 A 
ATOM     52  N   UNL     1      13.523 -10.011   0.083  1.00  0.00    -0.354 N 
ATOM     53  C   UNL     1      14.126 -10.231  -4.184  1.00  0.00     0.074 A 
ATOM     54  C   UNL     1      14.237  -8.911  -4.766  1.00  0.00     0.031 C 
ATOM     55  C   UNL     1      13.144  -8.997   2.041  1.00  0.00     0.029 A 
ATOM     56  C   UNL     1      13.200 -10.302   1.388  1.00  0.00     0.049 A 
ATOM     57  H   UNL     1      13.662 -10.702  -0.604  1.00  0.00     0.167 HD
ATOM     58  C   UNL     1      14.186 -11.383  -4.894  1.00  0.00     0.034 A 
ATOM     59  C   UNL     1      12.967 -11.485   1.990  1.00  0.00     0.034 A 
ATOM     60  C   UNL     1      14.129 -12.695  -4.307  1.00  0.00     0.049 A 
ATOM     61  C   UNL     1      13.086 -12.752   1.187  1.00  0.00     0.074 A 
ATOM     62  C   UNL     1      14.282 -13.922  -4.928  1.00  0.00     0.029 A 
ATOM     63  N   UNL     1      13.893 -12.952  -2.966  1.00  0.00    -0.354 N 
ATOM     64  N   UNL     1      13.386 -12.900  -0.080  1.00  0.00    -0.248 NA
ATOM     65  C   UNL     1      12.869 -14.017   1.905  1.00  0.00     0.031 C 
ATOM     66  C   UNL     1      14.120 -14.923  -3.963  1.00  0.00     0.029 A 
ATOM     67  C   UNL     1      13.887 -14.318  -2.739  1.00  0.00     0.049 A 
ATOM     68  H   UNL     1      13.751 -12.264  -2.276  1.00  0.00     0.167 HD
ATOM     69  C   UNL     1      13.425 -14.271  -0.305  1.00  0.00     0.074 A 
ATOM     70  C   UNL     1      13.143 -14.911   0.964  1.00  0.00     0.031 C 
ATOM     71  C   UNL     1      13.656 -14.941  -1.461  1.00  0.00     0.034 A 
BRANCH  58  72
ATOM     72  C   UNL     1      14.385 -11.277  -6.384  1.00  0.00     0.023 A 
ATOM     73  C   UNL     1      15.634 -10.862  -6.889  1.00  0.00     0.012 A 
ATOM     74  C   UNL     1      13.362 -11.638  -7.282  1.00  0.00     0.148 A 
ATOM     75  C   UNL     1      15.852 -10.773  -8.263  1.00  0.00     0.002 A 
ATOM     76  C   UNL     1      13.601 -11.589  -8.652  1.00  0.00     0.091 A 
ATOM     77  F   UNL     1      12.174 -12.011  -6.785  1.00  0.00    -0.205 F 
ATOM     78  C   UNL     1      14.840 -11.146  -9.143  1.00  0.00     0.022 A 
BRANCH  76  79
ATOM     79  S   UNL     1      12.390 -12.122  -9.867  1.00  0.00     0.127 S 
ATOM     80  O   UNL     1      11.979 -10.847 -10.452  1.00  0.00    -0.237 OA
ATOM     81  O   UNL     1      13.193 -12.967 -10.752  1.00  0.00    -0.237 OA
ATOM     82  O   UNL     1      11.359 -12.831  -9.122  1.00  0.00    -0.744 OA
ENDBRANCH  76  79
ENDBRANCH  58  72
BRANCH  59  83
ATOM     83  C   UNL     1      12.661 -11.530   3.449  1.00  0.00     0.023 A 
ATOM     84  C   UNL     1      13.619 -12.054   4.338  1.00  0.00     0.012 A 
ATOM     85  C   UNL     1      11.447 -11.035   3.961  1.00  0.00     0.148 A 
ATOM     86  C   UNL     1      13.361 -12.113   5.708  1.00  0.00     0.002 A 
ATOM     87  C   UNL     1      11.220 -11.044   5.332  1.00  0.00     0.091 A 
ATOM     88  F   UNL     1      10.543 -10.552   3.097  1.00  0.00    -0.205 F 
ATOM     89  C   UNL     1      12.167 -11.599   6.206  1.00  0.00     0.022 A 
BRANCH  87  90
ATOM     90  S   UNL     1       9.772 -10.280   6.071  1.00  0.00     0.127 S 
ATOM     91  O   UNL     1       9.005 -11.446   6.501  1.00  0.00    -0.237 OA
ATOM     92  O   UNL     1      10.365  -9.496   7.156  1.00  0.00    -0.237 OA
ATOM     93  O   UNL     1       9.172  -9.478   5.013  1.00  0.00    -0.744 OA
ENDBRANCH  87  90
ENDBRANCH  59  83
BRANCH  71  94
ATOM     94  C   UNL     1      13.641 -16.446  -1.411  1.00  0.00     0.023 A 
ATOM     95  C   UNL     1      12.416 -17.128  -1.269  1.00  0.00     0.012 A 
ATOM     96  C   UNL     1      14.829 -17.185  -1.581  1.00  0.00     0.148 A 
ATOM     97  C   UNL     1      12.377 -18.522  -1.266  1.00  0.00     0.002 A 
ATOM     98  C   UNL     1      14.776 -18.573  -1.625  1.00  0.00     0.091 A 
ATOM     99  F   UNL     1      15.987 -16.518  -1.696  1.00  0.00    -0.205 F 
ATOM    100  C   UNL     1      13.553 -19.243  -1.456  1.00  0.00     0.022 A 
BRANCH  98 101
ATOM    101  S   UNL     1      16.225 -19.581  -1.960  1.00  0.00     0.127 S 
ATOM    102  O   UNL     1      16.498 -20.157  -0.645  1.00  0.00    -0.237 OA
ATOM    103  O   UNL     1      15.720 -20.533  -2.950  1.00  0.00    -0.237 OA
ATOM    104  O   UNL     1      17.240 -18.667  -2.466  1.00  0.00    -0.744 OA
ENDBRANCH  98 101
ENDBRANCH  71  94
ENDBRANCH  45  46
ENDBRANCH  37  40
ENDBRANCH  35  36
ENDBRANCH  34  35
ENDBRANCH  33  34
ENDBRANCH   1  33
TORSDOF 21
