REMARK SMILES CCc1ccc(C[NH+]2CCC(Oc3ccccc3OC)(C(=O)NCCCCCCNC(=O)c3ccc(-c4c5nc(c(-c6cccc(S(=O)(=O)[O-])c6F)c6ccc([nH]6)c(-c6cccc(S(=O)(=O)[O-])c6F)c6nc(c(-c7cccc(S(=O)(=O)[O-])c7F)c7ccc4[nH]7)C=C6)C=C5)cc3)CC2)nc1
REMARK SMILES IDX 26 1 25 2 24 3 23 4 21 5 22 6 11 8 8 9 9 10 97 11 10 13
REMARK SMILES IDX 96 14 7 15 6 16 3 17 4 18 99 19 5 20 98 21 2 22 1 23 12 24
REMARK SMILES IDX 13 25 14 26 18 27 15 28 17 29 16 30 19 31 20 32 27 33 28 34
REMARK SMILES IDX 29 35 30 36 31 37 32 39 33 40 34 41 95 42 35 43 94 44 36 45
REMARK SMILES IDX 37 46 38 47 88 48 39 49 93 50 87 51 89 52 40 53 92 54 86 55
REMARK SMILES IDX 85 56 41 58 73 59 53 60 72 61 54 62 57 63 71 64 90 65 55 66
REMARK SMILES IDX 56 67 70 69 91 70 58 71 42 72 43 73 51 74 44 75 46 76 52 77
REMARK SMILES IDX 45 78 47 79 48 80 49 81 50 82 74 83 75 84 83 85 76 86 78 87
REMARK SMILES IDX 84 88 77 89 79 90 80 91 81 92 82 93 59 94 60 95 68 96 61 97
REMARK SMILES IDX 63 98 69 99 62 100 64 101 65 102 66 103 67 104
REMARK H PARENT 23 7 8 12 30 38 89 57 57 68
REMARK Flexibility Score: inf
ROOT
ATOM      1  C   UNL     1      -5.215  -1.332   5.338  1.00  0.00     0.002 C 
ENDROOT
BRANCH   1   2
ATOM      2  C   UNL     1      -4.299  -1.120   6.545  1.00  0.00     0.021 C 
BRANCH   2   3
ATOM      3  C   UNL     1      -3.828  -2.411   7.208  1.00  0.00     0.116 C 
BRANCH   3   4
ATOM      4  N   UNL     1      -2.777  -3.066   6.452  1.00  0.00    -0.353 N 
ATOM      5  C   UNL     1      -1.462  -3.292   6.758  1.00  0.00     0.264 C 
ATOM      6  O   UNL     1      -0.869  -4.058   5.989  1.00  0.00    -0.270 OA
ATOM      7  H   UNL     1      -3.057  -3.405   5.571  1.00  0.00     0.163 HD
BRANCH   5   8
ATOM      8  C   UNL     1      -0.753  -2.621   7.986  1.00  0.00     0.197 C 
ATOM      9  N   UNL     1       1.611  -1.178   6.986  1.00  0.00    -0.330 N 
ATOM     10  C   UNL     1       0.263  -0.676   6.711  1.00  0.00     0.267 C 
ATOM     11  C   UNL     1       1.623  -2.647   7.011  1.00  0.00     0.267 C 
ATOM     12  H   UNL     1       1.882  -0.851   7.914  1.00  0.00     0.348 HD
ATOM     13  C   UNL     1      -0.694  -1.100   7.810  1.00  0.00     0.120 C 
ATOM     14  C   UNL     1       0.685  -3.180   8.107  1.00  0.00     0.120 C 
BRANCH   9  15
ATOM     15  C   UNL     1       2.617  -0.624   6.047  1.00  0.00     0.319 C 
BRANCH  15  16
ATOM     16  C   UNL     1       2.239  -0.649   4.573  1.00  0.00     0.095 A 
ATOM     17  C   UNL     1       1.142  -0.848   2.048  1.00  0.00    -0.030 A 
ATOM     18  C   UNL     1       1.116   0.377   2.714  1.00  0.00     0.007 A 
ATOM     19  C   UNL     1       1.767  -1.909   2.695  1.00  0.00     0.115 A 
ATOM     20  C   UNL     1       1.674   0.483   3.985  1.00  0.00     0.030 A 
ATOM     21  N   UNL     1       2.326  -1.834   3.922  1.00  0.00    -0.255 NA
BRANCH  17  22
ATOM     22  C   UNL     1       0.461  -1.051   0.723  1.00  0.00     0.034 C 
ATOM     23  C   UNL     1       0.918  -0.074  -0.350  1.00  0.00     0.009 C 
ENDBRANCH  17  22
ENDBRANCH  15  16
ENDBRANCH   9  15
BRANCH   8  24
ATOM     24  O   UNL     1      -1.638  -2.966   9.078  1.00  0.00    -0.473 OA
BRANCH  24  25
ATOM     25  C   UNL     1      -1.171  -3.020  10.354  1.00  0.00     0.162 A 
ATOM     26  C   UNL     1      -0.808  -4.284  10.831  1.00  0.00     0.050 A 
ATOM     27  C   UNL     1      -1.222  -1.937  11.238  1.00  0.00     0.160 A 
ATOM     28  C   UNL     1      -0.449  -4.460  12.167  1.00  0.00     0.004 A 
ATOM     29  C   UNL     1      -0.849  -2.116  12.574  1.00  0.00     0.050 A 
ATOM     30  C   UNL     1      -0.472  -3.375  13.040  1.00  0.00     0.004 A 
BRANCH  27  31
ATOM     31  O   UNL     1      -1.549  -0.654  10.891  1.00  0.00    -0.493 OA
ATOM     32  C   UNL     1      -2.900  -0.504  10.469  1.00  0.00     0.278 C 
ENDBRANCH  27  31
ENDBRANCH  24  25
ENDBRANCH   8  24
ENDBRANCH   5   8
ENDBRANCH   3   4
ENDBRANCH   2   3
ENDBRANCH   1   2
BRANCH   1  33
ATOM     33  C   UNL     1      -6.506  -2.104   5.627  1.00  0.00     0.002 C 
BRANCH  33  34
ATOM     34  C   UNL     1      -7.368  -1.548   6.766  1.00  0.00     0.021 C 
BRANCH  34  35
ATOM     35  C   UNL     1      -7.824  -0.102   6.587  1.00  0.00     0.116 C 
BRANCH  35  36
ATOM     36  N   UNL     1      -8.614   0.073   5.380  1.00  0.00    -0.352 N 
ATOM     37  C   UNL     1      -9.867   0.603   5.214  1.00  0.00     0.251 C 
ATOM     38  H   UNL     1      -8.181  -0.236   4.551  1.00  0.00     0.163 HD
ATOM     39  O   UNL     1     -10.440   0.462   4.136  1.00  0.00    -0.269 OA
BRANCH  37  40
ATOM     40  C   UNL     1     -10.537   1.332   6.315  1.00  0.00     0.039 A 
ATOM     41  C   UNL     1     -11.909   1.144   6.502  1.00  0.00     0.014 A 
ATOM     42  C   UNL     1      -9.841   2.235   7.125  1.00  0.00     0.014 A 
ATOM     43  C   UNL     1     -12.573   1.832   7.521  1.00  0.00     0.010 A 
ATOM     44  C   UNL     1     -10.492   2.867   8.187  1.00  0.00     0.010 A 
ATOM     45  C   UNL     1     -11.867   2.683   8.388  1.00  0.00    -0.014 A 
BRANCH  45  46
ATOM     46  C   UNL     1     -12.567   3.361   9.511  1.00  0.00     0.031 A 
ATOM     47  C   UNL     1     -12.674   4.863   9.565  1.00  0.00     0.074 A 
ATOM     48  C   UNL     1     -13.070   2.618  10.517  1.00  0.00     0.049 A 
ATOM     49  N   UNL     1     -13.295   5.611  10.441  1.00  0.00    -0.248 NA
ATOM     50  C   UNL     1     -11.976   5.628   8.518  1.00  0.00     0.031 C 
ATOM     51  C   UNL     1     -12.945   1.163  10.636  1.00  0.00     0.029 A 
ATOM     52  N   UNL     1     -13.774   2.981  11.638  1.00  0.00    -0.354 N 
ATOM     53  C   UNL     1     -13.035   6.927  10.076  1.00  0.00     0.074 A 
ATOM     54  C   UNL     1     -12.179   6.879   8.912  1.00  0.00     0.031 C 
ATOM     55  C   UNL     1     -13.565   0.756  11.755  1.00  0.00     0.029 A 
ATOM     56  C   UNL     1     -14.114   1.919  12.445  1.00  0.00     0.049 A 
ATOM     57  H   UNL     1     -14.013   3.913  11.845  1.00  0.00     0.167 HD
ATOM     58  C   UNL     1     -13.489   8.071  10.642  1.00  0.00     0.034 A 
ATOM     59  C   UNL     1     -14.797   1.885  13.606  1.00  0.00     0.034 A 
ATOM     60  C   UNL     1     -14.386   8.115  11.767  1.00  0.00     0.049 A 
ATOM     61  C   UNL     1     -15.353   3.167  14.165  1.00  0.00     0.074 A 
ATOM     62  C   UNL     1     -14.999   9.218  12.334  1.00  0.00     0.029 A 
ATOM     63  N   UNL     1     -14.785   7.013  12.505  1.00  0.00    -0.354 N 
ATOM     64  N   UNL     1     -15.270   4.383  13.683  1.00  0.00    -0.248 NA
ATOM     65  C   UNL     1     -16.136   3.065  15.405  1.00  0.00     0.031 C 
ATOM     66  C   UNL     1     -15.745   8.786  13.436  1.00  0.00     0.029 A 
ATOM     67  C   UNL     1     -15.621   7.411  13.535  1.00  0.00     0.049 A 
ATOM     68  H   UNL     1     -14.514   6.084  12.325  1.00  0.00     0.167 HD
ATOM     69  C   UNL     1     -16.017   5.183  14.540  1.00  0.00     0.074 A 
ATOM     70  C   UNL     1     -16.573   4.308  15.550  1.00  0.00     0.031 C 
ATOM     71  C   UNL     1     -16.210   6.525  14.506  1.00  0.00     0.034 A 
BRANCH  58  72
ATOM     72  C   UNL     1     -13.072   9.383  10.029  1.00  0.00     0.023 A 
ATOM     73  C   UNL     1     -13.617   9.782   8.793  1.00  0.00     0.012 A 
ATOM     74  C   UNL     1     -12.217  10.263  10.723  1.00  0.00     0.148 A 
ATOM     75  C   UNL     1     -13.302  11.025   8.244  1.00  0.00     0.002 A 
ATOM     76  C   UNL     1     -11.942  11.518  10.192  1.00  0.00     0.091 A 
ATOM     77  F   UNL     1     -11.693   9.858  11.889  1.00  0.00    -0.205 F 
ATOM     78  C   UNL     1     -12.476  11.896   8.949  1.00  0.00     0.022 A 
BRANCH  76  79
ATOM     79  S   UNL     1     -10.957  12.744  11.060  1.00  0.00     0.127 S 
ATOM     80  O   UNL     1      -9.764  12.815  10.213  1.00  0.00    -0.237 OA
ATOM     81  O   UNL     1     -11.818  13.928  10.996  1.00  0.00    -0.237 OA
ATOM     82  O   UNL     1     -10.741  12.219  12.396  1.00  0.00    -0.744 OA
ENDBRANCH  76  79
ENDBRANCH  58  72
BRANCH  59  83
ATOM     83  C   UNL     1     -15.058   0.584  14.287  1.00  0.00     0.023 A 
ATOM     84  C   UNL     1     -16.374   0.083  14.347  1.00  0.00     0.012 A 
ATOM     85  C   UNL     1     -14.015  -0.158  14.872  1.00  0.00     0.148 A 
ATOM     86  C   UNL     1     -16.652  -1.108  15.019  1.00  0.00     0.002 A 
ATOM     87  C   UNL     1     -14.291  -1.374  15.488  1.00  0.00     0.091 A 
ATOM     88  F   UNL     1     -12.771   0.339  14.818  1.00  0.00    -0.205 F 
ATOM     89  C   UNL     1     -15.611  -1.841  15.581  1.00  0.00     0.022 A 
BRANCH  87  90
ATOM     90  S   UNL     1     -12.989  -2.442  16.113  1.00  0.00     0.127 S 
ATOM     91  O   UNL     1     -13.091  -2.227  17.553  1.00  0.00    -0.237 OA
ATOM     92  O   UNL     1     -13.429  -3.761  15.654  1.00  0.00    -0.237 OA
ATOM     93  O   UNL     1     -11.765  -1.970  15.480  1.00  0.00    -0.744 OA
ENDBRANCH  87  90
ENDBRANCH  59  83
BRANCH  71  94
ATOM     94  C   UNL     1     -17.083   7.128  15.575  1.00  0.00     0.023 A 
ATOM     95  C   UNL     1     -16.623   7.187  16.906  1.00  0.00     0.012 A 
ATOM     96  C   UNL     1     -18.341   7.676  15.256  1.00  0.00     0.148 A 
ATOM     97  C   UNL     1     -17.420   7.737  17.909  1.00  0.00     0.002 A 
ATOM     98  C   UNL     1     -19.107   8.270  16.251  1.00  0.00     0.091 A 
ATOM     99  F   UNL     1     -18.772   7.595  13.988  1.00  0.00    -0.205 F 
ATOM    100  C   UNL     1     -18.656   8.287  17.581  1.00  0.00     0.022 A 
BRANCH  98 101
ATOM    101  S   UNL     1     -20.665   9.091  15.897  1.00  0.00     0.127 S 
ATOM    102  O   UNL     1     -21.636   8.108  16.373  1.00  0.00    -0.237 OA
ATOM    103  O   UNL     1     -20.573  10.303  16.713  1.00  0.00    -0.237 OA
ATOM    104  O   UNL     1     -20.668   9.334  14.460  1.00  0.00    -0.744 OA
ENDBRANCH  98 101
ENDBRANCH  71  94
ENDBRANCH  45  46
ENDBRANCH  37  40
ENDBRANCH  35  36
ENDBRANCH  34  35
ENDBRANCH  33  34
ENDBRANCH   1  33
TORSDOF 22
