REMARK SMILES Nc1oc(-c2ccccc2)cc1C(=O)NCCCCCCNC(=O)c1ccc(-c2c3nc(c(-c4cccc(S(=O)(=O)[O-])c4F)c4ccc([nH]4)c(-c4cccc(S(=O)(=O)[O-])c4F)c4nc(c(-c5cccc(S(=O)(=O)[O-])c5F)c5ccc2[nH]5)C=C4)C=C3)cc1
REMARK SMILES IDX 19 1 18 2 17 3 16 4 15 5 13 6 14 7 12 9 2 10 3 11 4 12 11 13
REMARK SMILES IDX 1 14 5 17 6 18 10 19 7 20 9 21 8 22 20 23 21 24 22 25 23 26
REMARK SMILES IDX 24 28 25 29 26 30 87 31 27 32 86 33 28 34 29 35 30 36 80 37
REMARK SMILES IDX 31 38 85 39 79 40 81 41 32 42 84 43 78 44 77 45 33 47 65 48
REMARK SMILES IDX 45 49 64 50 46 51 49 52 63 53 82 54 47 55 48 56 62 58 83 59
REMARK SMILES IDX 50 60 34 61 35 62 43 63 36 64 38 65 44 66 37 67 39 68 40 69
REMARK SMILES IDX 41 70 42 71 66 72 67 73 75 74 68 75 70 76 76 77 69 78 71 79
REMARK SMILES IDX 72 80 73 81 74 82 51 83 52 84 60 85 53 86 55 87 61 88 54 89
REMARK SMILES IDX 56 90 57 91 58 92 59 93
REMARK H PARENT 15 8 1 15 1 16 22 27 81 46 49 57
REMARK Flexibility Score: inf
ROOT
ATOM      1  C   UNL     1      -5.696  -3.076   3.468  1.00  0.00     0.002 C 
ENDROOT
BRANCH   1   2
ATOM      2  C   UNL     1      -5.619  -2.092   2.286  1.00  0.00     0.002 C 
BRANCH   2   3
ATOM      3  C   UNL     1      -4.759  -0.842   2.515  1.00  0.00     0.021 C 
BRANCH   3   4
ATOM      4  C   UNL     1      -3.341  -1.167   2.978  1.00  0.00     0.116 C 
BRANCH   4   5
ATOM      5  N   UNL     1      -2.529  -1.629   1.871  1.00  0.00    -0.352 N 
ATOM      6  C   UNL     1      -1.473  -1.072   1.194  1.00  0.00     0.256 C 
ATOM      7  O   UNL     1      -0.982  -1.763   0.295  1.00  0.00    -0.269 OA
ATOM      8  H   UNL     1      -2.785  -2.519   1.538  1.00  0.00     0.163 HD
BRANCH   6   9
ATOM      9  C   UNL     1      -0.911   0.216   1.572  1.00  0.00     0.103 A 
ATOM     10  C   UNL     1       0.326   0.668   1.136  1.00  0.00     0.203 A 
ATOM     11  O   UNL     1       0.680   1.831   1.747  1.00  0.00    -0.440 OA
ATOM     12  C   UNL     1      -0.367   2.173   2.541  1.00  0.00     0.137 A 
ATOM     13  C   UNL     1      -1.399   1.281   2.375  1.00  0.00     0.067 A 
BRANCH  10  14
ATOM     14  N   UNL     1       1.210   0.172   0.263  1.00  0.00    -0.369 N 
ATOM     15  H   UNL     1       2.050   0.653   0.086  1.00  0.00     0.159 HD
ATOM     16  H   UNL     1       1.019  -0.674  -0.203  1.00  0.00     0.159 HD
ENDBRANCH  10  14
BRANCH  12  17
ATOM     17  C   UNL     1      -0.230   3.319   3.414  1.00  0.00     0.017 A 
ATOM     18  C   UNL     1      -0.237   4.619   2.907  1.00  0.00     0.012 A 
ATOM     19  C   UNL     1      -0.247   3.120   4.804  1.00  0.00     0.012 A 
ATOM     20  C   UNL     1      -0.291   5.707   3.782  1.00  0.00     0.001 A 
ATOM     21  C   UNL     1      -0.294   4.208   5.676  1.00  0.00     0.001 A 
ATOM     22  C   UNL     1      -0.326   5.502   5.162  1.00  0.00     0.000 A 
ENDBRANCH  12  17
ENDBRANCH   6   9
ENDBRANCH   4   5
ENDBRANCH   3   4
ENDBRANCH   2   3
ENDBRANCH   1   2
BRANCH   1  23
ATOM     23  C   UNL     1      -6.037  -2.478   4.843  1.00  0.00     0.021 C 
BRANCH  23  24
ATOM     24  C   UNL     1      -7.434  -1.888   4.920  1.00  0.00     0.116 C 
BRANCH  24  25
ATOM     25  N   UNL     1      -8.480  -2.905   4.754  1.00  0.00    -0.352 N 
ATOM     26  C   UNL     1      -9.855  -2.746   4.661  1.00  0.00     0.251 C 
ATOM     27  H   UNL     1      -8.159  -3.834   4.700  1.00  0.00     0.163 HD
ATOM     28  O   UNL     1     -10.608  -3.676   4.892  1.00  0.00    -0.269 OA
BRANCH  26  29
ATOM     29  C   UNL     1     -10.383  -1.429   4.258  1.00  0.00     0.039 A 
ATOM     30  C   UNL     1     -11.593  -0.913   4.730  1.00  0.00     0.014 A 
ATOM     31  C   UNL     1      -9.601  -0.692   3.383  1.00  0.00     0.014 A 
ATOM     32  C   UNL     1     -11.967   0.367   4.323  1.00  0.00     0.010 A 
ATOM     33  C   UNL     1      -9.804   0.645   3.262  1.00  0.00     0.010 A 
ATOM     34  C   UNL     1     -11.054   1.132   3.582  1.00  0.00    -0.014 A 
BRANCH  34  35
ATOM     35  C   UNL     1     -11.317   2.491   3.148  1.00  0.00     0.031 A 
ATOM     36  C   UNL     1     -11.556   3.423   4.270  1.00  0.00     0.074 A 
ATOM     37  C   UNL     1     -11.098   2.894   1.875  1.00  0.00     0.049 A 
ATOM     38  N   UNL     1     -12.689   3.916   4.640  1.00  0.00    -0.248 NA
ATOM     39  C   UNL     1     -10.457   3.667   5.217  1.00  0.00     0.031 C 
ATOM     40  C   UNL     1     -10.512   2.132   0.758  1.00  0.00     0.029 A 
ATOM     41  N   UNL     1     -11.219   4.136   1.343  1.00  0.00    -0.354 N 
ATOM     42  C   UNL     1     -12.386   4.761   5.702  1.00  0.00     0.074 A 
ATOM     43  C   UNL     1     -11.089   4.356   6.170  1.00  0.00     0.031 C 
ATOM     44  C   UNL     1     -10.105   2.985  -0.209  1.00  0.00     0.029 A 
ATOM     45  C   UNL     1     -10.550   4.320   0.135  1.00  0.00     0.049 A 
ATOM     46  H   UNL     1     -11.738   4.851   1.777  1.00  0.00     0.167 HD
ATOM     47  C   UNL     1     -13.091   5.910   5.896  1.00  0.00     0.034 A 
ATOM     48  C   UNL     1     -10.344   5.501  -0.501  1.00  0.00     0.034 A 
ATOM     49  C   UNL     1     -14.282   5.923   5.078  1.00  0.00     0.049 A 
ATOM     50  C   UNL     1     -11.341   6.456   0.039  1.00  0.00     0.074 A 
ATOM     51  C   UNL     1     -15.387   5.105   4.946  1.00  0.00     0.029 A 
ATOM     52  N   UNL     1     -14.223   6.671   3.924  1.00  0.00    -0.354 N 
ATOM     53  N   UNL     1     -12.625   6.324  -0.140  1.00  0.00    -0.248 NA
ATOM     54  C   UNL     1     -10.945   7.279   1.170  1.00  0.00     0.031 C 
ATOM     55  C   UNL     1     -15.645   5.063   3.544  1.00  0.00     0.029 A 
ATOM     56  C   UNL     1     -14.746   5.921   2.906  1.00  0.00     0.049 A 
ATOM     57  H   UNL     1     -13.866   7.585   3.845  1.00  0.00     0.167 HD
ATOM     58  C   UNL     1     -13.175   6.630   1.099  1.00  0.00     0.074 A 
ATOM     59  C   UNL     1     -12.107   7.316   1.828  1.00  0.00     0.031 C 
ATOM     60  C   UNL     1     -14.325   6.031   1.525  1.00  0.00     0.034 A 
BRANCH  47  61
ATOM     61  C   UNL     1     -12.540   7.192   6.483  1.00  0.00     0.023 A 
ATOM     62  C   UNL     1     -13.466   8.242   6.683  1.00  0.00     0.012 A 
ATOM     63  C   UNL     1     -11.171   7.525   6.588  1.00  0.00     0.148 A 
ATOM     64  C   UNL     1     -13.053   9.561   6.891  1.00  0.00     0.002 A 
ATOM     65  C   UNL     1     -10.764   8.825   6.868  1.00  0.00     0.091 A 
ATOM     66  F   UNL     1     -10.230   6.627   6.293  1.00  0.00    -0.205 F 
ATOM     67  C   UNL     1     -11.699   9.853   6.985  1.00  0.00     0.022 A 
BRANCH  65  68
ATOM     68  S   UNL     1      -9.025   9.252   7.039  1.00  0.00     0.127 S 
ATOM     69  O   UNL     1      -8.788  10.005   5.811  1.00  0.00    -0.237 OA
ATOM     70  O   UNL     1      -9.034  10.050   8.265  1.00  0.00    -0.237 OA
ATOM     71  O   UNL     1      -8.316   7.984   7.158  1.00  0.00    -0.744 OA
ENDBRANCH  65  68
ENDBRANCH  47  61
BRANCH  48  72
ATOM     72  C   UNL     1      -9.203   5.953  -1.333  1.00  0.00     0.023 A 
ATOM     73  C   UNL     1      -9.358   7.050  -2.206  1.00  0.00     0.012 A 
ATOM     74  C   UNL     1      -7.892   5.506  -1.055  1.00  0.00     0.148 A 
ATOM     75  C   UNL     1      -8.245   7.702  -2.753  1.00  0.00     0.002 A 
ATOM     76  C   UNL     1      -6.789   6.158  -1.601  1.00  0.00     0.091 A 
ATOM     77  F   UNL     1      -7.726   4.505  -0.181  1.00  0.00    -0.205 F 
ATOM     78  C   UNL     1      -6.961   7.264  -2.443  1.00  0.00     0.022 A 
BRANCH  76  79
ATOM     79  S   UNL     1      -5.100   5.674  -1.211  1.00  0.00     0.127 S 
ATOM     80  O   UNL     1      -4.503   5.566  -2.543  1.00  0.00    -0.237 OA
ATOM     81  O   UNL     1      -4.635   6.812  -0.422  1.00  0.00    -0.237 OA
ATOM     82  O   UNL     1      -5.204   4.410  -0.493  1.00  0.00    -0.744 OA
ENDBRANCH  76  79
ENDBRANCH  48  72
BRANCH  60  83
ATOM     83  C   UNL     1     -15.115   5.217   0.528  1.00  0.00     0.023 A 
ATOM     84  C   UNL     1     -14.622   4.026  -0.047  1.00  0.00     0.012 A 
ATOM     85  C   UNL     1     -16.459   5.563   0.321  1.00  0.00     0.148 A 
ATOM     86  C   UNL     1     -15.451   3.207  -0.821  1.00  0.00     0.002 A 
ATOM     87  C   UNL     1     -17.292   4.723  -0.405  1.00  0.00     0.091 A 
ATOM     88  F   UNL     1     -16.910   6.698   0.877  1.00  0.00    -0.205 F 
ATOM     89  C   UNL     1     -16.792   3.548  -0.986  1.00  0.00     0.022 A 
BRANCH  87  90
ATOM     90  S   UNL     1     -19.052   5.041  -0.536  1.00  0.00     0.127 S 
ATOM     91  O   UNL     1     -19.179   5.486  -1.922  1.00  0.00    -0.237 OA
ATOM     92  O   UNL     1     -19.630   3.725  -0.260  1.00  0.00    -0.237 OA
ATOM     93  O   UNL     1     -19.356   6.047   0.475  1.00  0.00    -0.744 OA
ENDBRANCH  87  90
ENDBRANCH  60  83
ENDBRANCH  34  35
ENDBRANCH  26  29
ENDBRANCH  24  25
ENDBRANCH  23  24
ENDBRANCH   1  23
TORSDOF 18
