REMARK SMILES CN1C(=O)/C(=C/c2ccc(OCC(=O)NCCCCCCNC(=O)c3ccc(-c4c5nc(c(-c6cccc(S(=O)(=O)[O-])c6F)c6ccc([nH]6)c(-c6cccc(S(=O)(=O)[O-])c6F)c6nc(c(-c7cccc(S(=O)(=O)[O-])c7F)c7ccc4[nH]7)C=C6)C=C5)cc3)c(Br)c2)C(=O)NC1=S
REMARK SMILES IDX 18 1 17 2 16 3 15 4 13 5 14 6 12 8 11 9 10 10 7 11 8 12
REMARK SMILES IDX 90 13 9 14 88 15 89 16 6 17 1 18 2 19 3 20 94 21 4 22 5 23
REMARK SMILES IDX 93 24 95 25 91 26 92 28 19 29 20 30 21 31 22 32 23 33 24 35
REMARK SMILES IDX 25 36 26 37 87 38 27 39 86 40 28 41 29 42 30 43 80 44 31 45
REMARK SMILES IDX 85 46 79 47 81 48 32 49 84 50 78 51 77 52 33 54 65 55 45 56
REMARK SMILES IDX 64 57 46 58 49 59 63 60 82 61 47 62 48 63 62 65 83 66 50 67
REMARK SMILES IDX 34 68 35 69 43 70 36 71 38 72 44 73 37 74 39 75 40 76 41 77
REMARK SMILES IDX 42 78 66 79 67 80 75 81 68 82 70 83 76 84 69 85 71 86 72 87
REMARK SMILES IDX 73 88 74 89 51 90 52 91 60 92 53 93 55 94 61 95 54 96 56 97
REMARK SMILES IDX 57 98 58 99 59 100
REMARK H PARENT 15 7 93 27 22 34 81 53 49 64
REMARK Flexibility Score: inf
ROOT
ATOM      1  C   UNL     1       7.636  -3.935  -8.821  1.00  0.00     0.002 C 
ENDROOT
BRANCH   1   2
ATOM      2  C   UNL     1       6.594  -4.950  -8.335  1.00  0.00     0.021 C 
BRANCH   2   3
ATOM      3  C   UNL     1       7.166  -6.179  -7.630  1.00  0.00     0.116 C 
BRANCH   3   4
ATOM      4  N   UNL     1       7.973  -5.813  -6.483  1.00  0.00    -0.353 N 
ATOM      5  C   UNL     1       7.811  -6.162  -5.176  1.00  0.00     0.257 C 
ATOM      6  O   UNL     1       8.661  -5.791  -4.364  1.00  0.00    -0.271 OA
ATOM      7  H   UNL     1       8.744  -5.232  -6.675  1.00  0.00     0.163 HD
BRANCH   5   8
ATOM      8  C   UNL     1       6.637  -7.063  -4.773  1.00  0.00     0.329 C 
BRANCH   8   9
ATOM      9  O   UNL     1       5.316  -6.668  -5.078  1.00  0.00    -0.483 OA
BRANCH   9  10
ATOM     10  C   UNL     1       4.820  -5.460  -4.684  1.00  0.00     0.134 A 
ATOM     11  C   UNL     1       3.385  -3.079  -4.180  1.00  0.00    -0.023 A 
ATOM     12  C   UNL     1       3.101  -3.821  -5.317  1.00  0.00     0.012 A 
ATOM     13  C   UNL     1       4.399  -3.510  -3.316  1.00  0.00     0.027 A 
ATOM     14  C   UNL     1       3.813  -5.001  -5.558  1.00  0.00     0.048 A 
ATOM     15  C   UNL     1       5.098  -4.706  -3.542  1.00  0.00     0.060 A 
ATOM     16  Br  UNL     1       6.242  -5.210  -2.114  1.00  0.00    -0.047 Br
BRANCH  11  17
ATOM     17  C   UNL     1       2.609  -1.911  -3.757  1.00  0.00     0.027 C 
ATOM     18  C   UNL     1       0.515   0.162  -0.100  1.00  0.00     0.156 C 
ATOM     19  N   UNL     1       0.531  -0.999  -0.988  1.00  0.00    -0.288 N 
ATOM     20  C   UNL     1       1.165  -0.768  -2.215  1.00  0.00     0.265 C 
ATOM     21  C   UNL     1      -0.060  -2.208  -0.641  1.00  0.00     0.182 C 
ATOM     22  O   UNL     1       1.492   0.352  -2.604  1.00  0.00    -0.268 OA
ATOM     23  C   UNL     1       1.506  -1.989  -2.984  1.00  0.00     0.106 C 
ATOM     24  N   UNL     1       0.062  -3.229  -1.543  1.00  0.00    -0.298 N 
ATOM     25  S   UNL     1      -0.924  -2.549   0.755  1.00  0.00    -0.040 S 
ATOM     26  C   UNL     1       0.773  -3.238  -2.708  1.00  0.00     0.263 C 
ATOM     27  H   UNL     1      -0.421  -4.059  -1.325  1.00  0.00     0.172 HD
ATOM     28  O   UNL     1       0.747  -4.215  -3.446  1.00  0.00    -0.269 OA
ENDBRANCH  11  17
ENDBRANCH   9  10
ENDBRANCH   8   9
ENDBRANCH   5   8
ENDBRANCH   3   4
ENDBRANCH   2   3
ENDBRANCH   1   2
BRANCH   1  29
ATOM     29  C   UNL     1       8.758  -4.501  -9.697  1.00  0.00     0.002 C 
BRANCH  29  30
ATOM     30  C   UNL     1       8.302  -5.262 -10.944  1.00  0.00     0.021 C 
BRANCH  30  31
ATOM     31  C   UNL     1       7.407  -4.476 -11.897  1.00  0.00     0.116 C 
BRANCH  31  32
ATOM     32  N   UNL     1       8.067  -3.301 -12.440  1.00  0.00    -0.352 N 
ATOM     33  C   UNL     1       8.162  -2.875 -13.742  1.00  0.00     0.251 C 
ATOM     34  H   UNL     1       8.511  -2.724 -11.777  1.00  0.00     0.163 HD
ATOM     35  O   UNL     1       8.895  -1.929 -14.020  1.00  0.00    -0.269 OA
BRANCH  33  36
ATOM     36  C   UNL     1       7.404  -3.562 -14.814  1.00  0.00     0.039 A 
ATOM     37  C   UNL     1       8.045  -3.820 -16.029  1.00  0.00     0.014 A 
ATOM     38  C   UNL     1       6.067  -3.930 -14.639  1.00  0.00     0.014 A 
ATOM     39  C   UNL     1       7.362  -4.490 -17.048  1.00  0.00     0.010 A 
ATOM     40  C   UNL     1       5.410  -4.660 -15.629  1.00  0.00     0.010 A 
ATOM     41  C   UNL     1       6.046  -4.937 -16.848  1.00  0.00    -0.014 A 
BRANCH  41  42
ATOM     42  C   UNL     1       5.332  -5.705 -17.901  1.00  0.00     0.031 A 
ATOM     43  C   UNL     1       4.095  -5.149 -18.552  1.00  0.00     0.074 A 
ATOM     44  C   UNL     1       5.749  -6.947 -18.213  1.00  0.00     0.049 A 
ATOM     45  N   UNL     1       3.343  -5.681 -19.481  1.00  0.00    -0.248 NA
ATOM     46  C   UNL     1       3.622  -3.839 -18.076  1.00  0.00     0.031 C 
ATOM     47  C   UNL     1       6.865  -7.648 -17.574  1.00  0.00     0.029 A 
ATOM     48  N   UNL     1       5.264  -7.853 -19.123  1.00  0.00    -0.354 N 
ATOM     49  C   UNL     1       2.292  -4.793 -19.676  1.00  0.00     0.074 A 
ATOM     50  C   UNL     1       2.484  -3.705 -18.741  1.00  0.00     0.031 C 
ATOM     51  C   UNL     1       6.974  -8.875 -18.106  1.00  0.00     0.029 A 
ATOM     52  C   UNL     1       5.933  -9.054 -19.115  1.00  0.00     0.049 A 
ATOM     53  H   UNL     1       4.508  -7.660 -19.724  1.00  0.00     0.167 HD
ATOM     54  C   UNL     1       1.279  -4.856 -20.573  1.00  0.00     0.034 A 
ATOM     55  C   UNL     1       5.734 -10.173 -19.838  1.00  0.00     0.034 A 
ATOM     56  C   UNL     1       1.117  -5.913 -21.535  1.00  0.00     0.049 A 
ATOM     57  C   UNL     1       4.666 -10.183 -20.896  1.00  0.00     0.074 A 
ATOM     58  C   UNL     1       0.193  -6.013 -22.560  1.00  0.00     0.029 A 
ATOM     59  N   UNL     1       1.895  -7.060 -21.587  1.00  0.00    -0.354 N 
ATOM     60  N   UNL     1       3.803  -9.245 -21.204  1.00  0.00    -0.248 NA
ATOM     61  C   UNL     1       4.576 -11.383 -21.739  1.00  0.00     0.031 C 
ATOM     62  C   UNL     1       0.404  -7.228 -23.224  1.00  0.00     0.029 A 
ATOM     63  C   UNL     1       1.469  -7.878 -22.621  1.00  0.00     0.049 A 
ATOM     64  H   UNL     1       2.641  -7.263 -20.978  1.00  0.00     0.167 HD
ATOM     65  C   UNL     1       3.083  -9.729 -22.290  1.00  0.00     0.074 A 
ATOM     66  C   UNL     1       3.633 -11.033 -22.605  1.00  0.00     0.031 C 
ATOM     67  C   UNL     1       2.049  -9.155 -22.954  1.00  0.00     0.034 A 
BRANCH  54  68
ATOM     68  C   UNL     1       0.302  -3.708 -20.594  1.00  0.00     0.023 A 
ATOM     69  C   UNL     1       0.720  -2.452 -21.081  1.00  0.00     0.012 A 
ATOM     70  C   UNL     1      -1.028  -3.870 -20.161  1.00  0.00     0.148 A 
ATOM     71  C   UNL     1      -0.154  -1.366 -21.095  1.00  0.00     0.002 A 
ATOM     72  C   UNL     1      -1.907  -2.793 -20.219  1.00  0.00     0.091 A 
ATOM     73  F   UNL     1      -1.406  -5.062 -19.677  1.00  0.00    -0.205 F 
ATOM     74  C   UNL     1      -1.468  -1.538 -20.673  1.00  0.00     0.022 A 
BRANCH  72  75
ATOM     75  S   UNL     1      -3.639  -2.946 -19.767  1.00  0.00     0.127 S 
ATOM     76  O   UNL     1      -3.645  -2.378 -18.420  1.00  0.00    -0.237 OA
ATOM     77  O   UNL     1      -4.302  -2.120 -20.778  1.00  0.00    -0.237 OA
ATOM     78  O   UNL     1      -3.945  -4.367 -19.858  1.00  0.00    -0.744 OA
ENDBRANCH  72  75
ENDBRANCH  54  68
BRANCH  55  79
ATOM     79  C   UNL     1       6.635 -11.341 -19.633  1.00  0.00     0.023 A 
ATOM     80  C   UNL     1       7.610 -11.643 -20.602  1.00  0.00     0.012 A 
ATOM     81  C   UNL     1       6.578 -12.105 -18.451  1.00  0.00     0.148 A 
ATOM     82  C   UNL     1       8.501 -12.699 -20.409  1.00  0.00     0.002 A 
ATOM     83  C   UNL     1       7.504 -13.121 -18.240  1.00  0.00     0.091 A 
ATOM     84  F   UNL     1       5.636 -11.806 -17.546  1.00  0.00    -0.205 F 
ATOM     85  C   UNL     1       8.456 -13.429 -19.224  1.00  0.00     0.022 A 
BRANCH  83  86
ATOM     86  S   UNL     1       7.613 -14.017 -16.686  1.00  0.00     0.127 S 
ATOM     87  O   UNL     1       7.142 -15.344 -17.073  1.00  0.00    -0.237 OA
ATOM     88  O   UNL     1       9.043 -13.932 -16.389  1.00  0.00    -0.237 OA
ATOM     89  O   UNL     1       6.763 -13.291 -15.752  1.00  0.00    -0.744 OA
ENDBRANCH  83  86
ENDBRANCH  55  79
BRANCH  67  90
ATOM     90  C   UNL     1       1.444  -9.927 -24.098  1.00  0.00     0.023 A 
ATOM     91  C   UNL     1       0.650 -11.060 -23.829  1.00  0.00     0.012 A 
ATOM     92  C   UNL     1       1.611  -9.501 -25.430  1.00  0.00     0.148 A 
ATOM     93  C   UNL     1       0.063 -11.779 -24.870  1.00  0.00     0.002 A 
ATOM     94  C   UNL     1       0.985 -10.197 -26.460  1.00  0.00     0.091 A 
ATOM     95  F   UNL     1       2.388  -8.435 -25.672  1.00  0.00    -0.205 F 
ATOM     96  C   UNL     1       0.221 -11.341 -26.183  1.00  0.00     0.022 A 
BRANCH  94  97
ATOM     97  S   UNL     1       1.067  -9.642 -28.167  1.00  0.00     0.127 S 
ATOM     98  O   UNL     1       2.110 -10.507 -28.714  1.00  0.00    -0.237 OA
ATOM     99  O   UNL     1      -0.282  -9.929 -28.658  1.00  0.00    -0.237 OA
ATOM    100  O   UNL     1       1.389  -8.223 -28.103  1.00  0.00    -0.744 OA
ENDBRANCH  94  97
ENDBRANCH  67  90
ENDBRANCH  41  42
ENDBRANCH  33  36
ENDBRANCH  31  32
ENDBRANCH  30  31
ENDBRANCH  29  30
ENDBRANCH   1  29
TORSDOF 19
