REMARK SMILES CCc1cc(OC(F)(F)F)cc2c1O[C@@H](C(F)(F)F)C(C(=O)NCCCCCCNC(=O)c1ccc(-c3c4nc(c(-c5cccc(S(=O)(=O)[O-])c5F)c5ccc([nH]5)c(-c5cccc(S(=O)(=O)[O-])c5F)c5nc(c(-c6cccc(S(=O)(=O)[O-])c6F)c6ccc3[nH]6)C=C5)C=C4)cc1)=C2
REMARK SMILES IDX 27 1 26 2 25 3 24 4 23 5 21 6 22 7 20 9 3 10 4 11 13 12 5 13
REMARK SMILES IDX 12 14 14 15 11 16 96 17 15 18 2 19 1 20 6 21 7 22 8 23 9 24
REMARK SMILES IDX 10 25 16 26 17 27 18 28 19 29 28 30 29 31 30 32 31 33 32 35
REMARK SMILES IDX 33 36 34 37 95 38 35 39 94 40 36 41 37 42 38 43 88 44 39 45
REMARK SMILES IDX 93 46 87 47 89 48 40 49 92 50 86 51 85 52 41 54 73 55 53 56
REMARK SMILES IDX 72 57 54 58 57 59 71 60 90 61 55 62 56 63 70 65 91 66 58 67
REMARK SMILES IDX 42 68 43 69 51 70 44 71 46 72 52 73 45 74 47 75 48 76 49 77
REMARK SMILES IDX 50 78 74 79 75 80 83 81 76 82 78 83 84 84 77 85 79 86 80 87
REMARK SMILES IDX 81 88 82 89 59 90 60 91 68 92 61 93 63 94 69 95 62 96 64 97
REMARK SMILES IDX 65 98 66 99 67 100
REMARK H PARENT 23 8 30 34 89 53 57 64
REMARK Flexibility Score: inf
ROOT
ATOM      1  C   UNL     1      -0.681   9.187   5.787  1.00  0.00     0.002 C 
ENDROOT
BRANCH   1   2
ATOM      2  C   UNL     1       0.401   8.753   4.792  1.00  0.00     0.002 C 
BRANCH   2   3
ATOM      3  C   UNL     1       0.625   7.236   4.717  1.00  0.00     0.021 C 
BRANCH   3   4
ATOM      4  C   UNL     1      -0.598   6.476   4.188  1.00  0.00     0.116 C 
BRANCH   4   5
ATOM      5  N   UNL     1      -0.666   6.629   2.744  1.00  0.00    -0.352 N 
ATOM      6  C   UNL     1      -0.192   5.874   1.722  1.00  0.00     0.251 C 
ATOM      7  O   UNL     1      -0.179   6.365   0.596  1.00  0.00    -0.270 OA
ATOM      8  H   UNL     1      -1.151   7.435   2.452  1.00  0.00     0.163 HD
BRANCH   6   9
ATOM      9  C   UNL     1       0.216   4.457   1.898  1.00  0.00     0.067 C 
ATOM     10  C   UNL     1       0.881   0.324   2.253  1.00  0.00    -0.002 A 
ATOM     11  C   UNL     1       1.565  -0.163   3.383  1.00  0.00     0.054 A 
ATOM     12  C   UNL     1       0.663   1.704   2.138  1.00  0.00     0.131 A 
ATOM     13  C   UNL     1       2.029   0.709   4.370  1.00  0.00     0.130 A 
ATOM     14  C   UNL     1       1.164   2.589   3.093  1.00  0.00     0.021 A 
ATOM     15  O   UNL     1      -0.137   2.130   1.116  1.00  0.00    -0.475 OA
ATOM     16  C   UNL     1       1.841   2.085   4.208  1.00  0.00     0.058 A 
ATOM     17  C   UNL     1       0.891   4.015   2.970  1.00  0.00     0.025 C 
ATOM     18  C   UNL     1      -0.034   3.525   0.719  1.00  0.00     0.314 C 
BRANCH  10  19
ATOM     19  C   UNL     1       0.382  -0.645   1.204  1.00  0.00     0.036 C 
ATOM     20  C   UNL     1       1.028  -0.431  -0.161  1.00  0.00     0.009 C 
ENDBRANCH  10  19
BRANCH  13  21
ATOM     21  O   UNL     1       2.658   0.364   5.532  1.00  0.00    -0.406 OA
BRANCH  21  22
ATOM     22  C   UNL     1       2.838  -1.015   5.809  1.00  0.00     0.573 C 
ATOM     23  F   UNL     1       1.657  -1.670   5.838  1.00  0.00    -0.132 F 
ATOM     24  F   UNL     1       3.642  -1.586   4.885  1.00  0.00    -0.132 F 
ATOM     25  F   UNL     1       3.425  -1.147   7.017  1.00  0.00    -0.132 F 
ENDBRANCH  21  22
ENDBRANCH  13  21
BRANCH  18  26
ATOM     26  C   UNL     1      -1.254   3.819  -0.183  1.00  0.00     0.429 C 
ATOM     27  F   UNL     1      -0.998   4.751  -1.128  1.00  0.00    -0.167 F 
ATOM     28  F   UNL     1      -1.618   2.704  -0.877  1.00  0.00    -0.167 F 
ATOM     29  F   UNL     1      -2.343   4.208   0.519  1.00  0.00    -0.167 F 
ENDBRANCH  18  26
ENDBRANCH   6   9
ENDBRANCH   4   5
ENDBRANCH   3   4
ENDBRANCH   2   3
ENDBRANCH   1   2
BRANCH   1  30
ATOM     30  C   UNL     1      -0.466   8.701   7.223  1.00  0.00     0.021 C 
BRANCH  30  31
ATOM     31  C   UNL     1       0.830   9.187   7.867  1.00  0.00     0.116 C 
BRANCH  31  32
ATOM     32  N   UNL     1       0.854  10.636   7.984  1.00  0.00    -0.352 N 
ATOM     33  C   UNL     1       1.060  11.418   9.091  1.00  0.00     0.251 C 
ATOM     34  H   UNL     1       0.699  11.128   7.146  1.00  0.00     0.163 HD
ATOM     35  O   UNL     1       0.798  12.616   9.044  1.00  0.00    -0.269 OA
BRANCH  33  36
ATOM     36  C   UNL     1       1.595  10.825  10.337  1.00  0.00     0.039 A 
ATOM     37  C   UNL     1       1.073  11.250  11.561  1.00  0.00     0.014 A 
ATOM     38  C   UNL     1       2.640   9.895  10.306  1.00  0.00     0.014 A 
ATOM     39  C   UNL     1       1.579  10.723  12.751  1.00  0.00     0.010 A 
ATOM     40  C   UNL     1       3.096   9.320  11.490  1.00  0.00     0.010 A 
ATOM     41  C   UNL     1       2.585   9.743  12.726  1.00  0.00    -0.014 A 
BRANCH  41  42
ATOM     42  C   UNL     1       3.104   9.160  13.989  1.00  0.00     0.031 A 
ATOM     43  C   UNL     1       4.535   9.377  14.403  1.00  0.00     0.074 A 
ATOM     44  C   UNL     1       2.294   8.390  14.742  1.00  0.00     0.049 A 
ATOM     45  N   UNL     1       5.149   8.971  15.485  1.00  0.00    -0.248 NA
ATOM     46  C   UNL     1       5.398  10.123  13.472  1.00  0.00     0.031 C 
ATOM     47  C   UNL     1       0.917   8.028  14.400  1.00  0.00     0.029 A 
ATOM     48  N   UNL     1       2.516   7.761  15.941  1.00  0.00    -0.354 N 
ATOM     49  C   UNL     1       6.469   9.385  15.353  1.00  0.00     0.074 A 
ATOM     50  C   UNL     1       6.578  10.041  14.069  1.00  0.00     0.031 C 
ATOM     51  C   UNL     1       0.412   7.253  15.373  1.00  0.00     0.029 A 
ATOM     52  C   UNL     1       1.432   7.049  16.398  1.00  0.00     0.049 A 
ATOM     53  H   UNL     1       3.370   7.814  16.427  1.00  0.00     0.167 HD
ATOM     54  C   UNL     1       7.490   9.262  16.235  1.00  0.00     0.034 A 
ATOM     55  C   UNL     1       1.273   6.323  17.521  1.00  0.00     0.034 A 
ATOM     56  C   UNL     1       7.365   8.650  17.531  1.00  0.00     0.049 A 
ATOM     57  C   UNL     1       2.400   6.264  18.516  1.00  0.00     0.074 A 
ATOM     58  C   UNL     1       8.313   8.557  18.535  1.00  0.00     0.029 A 
ATOM     59  N   UNL     1       6.223   8.022  18.002  1.00  0.00    -0.354 N 
ATOM     60  N   UNL     1       3.587   6.816  18.452  1.00  0.00    -0.248 NA
ATOM     61  C   UNL     1       2.148   5.522  19.760  1.00  0.00     0.031 C 
ATOM     62  C   UNL     1       7.748   7.857  19.607  1.00  0.00     0.029 A 
ATOM     63  C   UNL     1       6.441   7.534  19.279  1.00  0.00     0.049 A 
ATOM     64  H   UNL     1       5.379   7.936  17.501  1.00  0.00     0.167 HD
ATOM     65  C   UNL     1       4.213   6.515  19.656  1.00  0.00     0.074 A 
ATOM     66  C   UNL     1       3.261   5.757  20.442  1.00  0.00     0.031 C 
ATOM     67  C   UNL     1       5.468   6.823  20.068  1.00  0.00     0.034 A 
BRANCH  54  68
ATOM     68  C   UNL     1       8.821   9.857  15.853  1.00  0.00     0.023 A 
ATOM     69  C   UNL     1       8.971  11.260  15.827  1.00  0.00     0.012 A 
ATOM     70  C   UNL     1       9.935   9.040  15.579  1.00  0.00     0.148 A 
ATOM     71  C   UNL     1      10.197  11.839  15.501  1.00  0.00     0.002 A 
ATOM     72  C   UNL     1      11.165   9.625  15.298  1.00  0.00     0.091 A 
ATOM     73  F   UNL     1       9.770   7.710  15.586  1.00  0.00    -0.205 F 
ATOM     74  C   UNL     1      11.295  11.022  15.248  1.00  0.00     0.022 A 
BRANCH  72  75
ATOM     75  S   UNL     1      12.659   8.661  15.033  1.00  0.00     0.127 S 
ATOM     76  O   UNL     1      12.867   8.829  13.595  1.00  0.00    -0.237 OA
ATOM     77  O   UNL     1      13.630   9.360  15.875  1.00  0.00    -0.237 OA
ATOM     78  O   UNL     1      12.344   7.307  15.466  1.00  0.00    -0.744 OA
ENDBRANCH  72  75
ENDBRANCH  54  68
BRANCH  55  79
ATOM     79  C   UNL     1      -0.036   5.669  17.802  1.00  0.00     0.023 A 
ATOM     80  C   UNL     1      -0.855   6.175  18.830  1.00  0.00     0.012 A 
ATOM     81  C   UNL     1      -0.489   4.578  17.036  1.00  0.00     0.148 A 
ATOM     82  C   UNL     1      -2.088   5.586  19.112  1.00  0.00     0.002 A 
ATOM     83  C   UNL     1      -1.743   4.032  17.285  1.00  0.00     0.091 A 
ATOM     84  F   UNL     1       0.310   4.104  16.071  1.00  0.00    -0.205 F 
ATOM     85  C   UNL     1      -2.537   4.523  18.333  1.00  0.00     0.022 A 
BRANCH  83  86
ATOM     86  S   UNL     1      -2.456   2.754  16.243  1.00  0.00     0.127 S 
ATOM     87  O   UNL     1      -2.358   1.578  17.101  1.00  0.00    -0.237 OA
ATOM     88  O   UNL     1      -3.816   3.255  16.034  1.00  0.00    -0.237 OA
ATOM     89  O   UNL     1      -1.637   2.733  15.037  1.00  0.00    -0.744 OA
ENDBRANCH  83  86
ENDBRANCH  55  79
BRANCH  67  90
ATOM     90  C   UNL     1       5.880   6.361  21.442  1.00  0.00     0.023 A 
ATOM     91  C   UNL     1       6.119   4.992  21.677  1.00  0.00     0.012 A 
ATOM     92  C   UNL     1       6.081   7.287  22.485  1.00  0.00     0.148 A 
ATOM     93  C   UNL     1       6.513   4.547  22.938  1.00  0.00     0.002 A 
ATOM     94  C   UNL     1       6.521   6.841  23.726  1.00  0.00     0.091 A 
ATOM     95  F   UNL     1       5.828   8.583  22.250  1.00  0.00    -0.205 F 
ATOM     96  C   UNL     1       6.724   5.471  23.958  1.00  0.00     0.022 A 
BRANCH  94  97
ATOM     97  S   UNL     1       6.908   7.974  25.065  1.00  0.00     0.127 S 
ATOM     98  O   UNL     1       5.730   7.841  25.919  1.00  0.00    -0.237 OA
ATOM     99  O   UNL     1       8.133   7.397  25.620  1.00  0.00    -0.237 OA
ATOM    100  O   UNL     1       7.090   9.278  24.440  1.00  0.00    -0.744 OA
ENDBRANCH  94  97
ENDBRANCH  67  90
ENDBRANCH  41  42
ENDBRANCH  33  36
ENDBRANCH  31  32
ENDBRANCH  30  31
ENDBRANCH   1  30
TORSDOF 20
