REMARK SMILES Cc1cc2c(N[C@@H]3CCCCC[C@@H]3C(=O)NCCCCCCNC(=O)c3ccc(-c4c5nc(c(-c6cccc(S(=O)(=O)[O-])c6F)c6ccc([nH]6)c(-c6cccc(S(=O)(=O)[O-])c6F)c6nc(c(-c7cccc(S(=O)(=O)[O-])c7F)c7ccc4[nH]7)C=C6)C=C5)cc3)ncnc2s1
REMARK SMILES IDX 19 1 18 2 17 3 16 4 14 5 15 6 13 8 7 9 6 10 5 12 1 13 2 14
REMARK SMILES IDX 3 15 93 16 4 17 92 18 91 19 89 20 90 21 8 22 12 24 11 25
REMARK SMILES IDX 10 26 9 27 20 29 21 30 22 31 23 32 24 33 25 35 26 36 27 37
REMARK SMILES IDX 88 38 28 39 87 40 29 41 30 42 31 43 81 44 32 45 86 46 80 47
REMARK SMILES IDX 82 48 33 49 85 50 79 51 78 52 34 54 66 55 46 56 65 57 47 58
REMARK SMILES IDX 50 59 64 60 83 61 48 62 49 63 63 65 84 66 51 67 35 68 36 69
REMARK SMILES IDX 44 70 37 71 39 72 45 73 38 74 40 75 41 76 42 77 43 78 67 79
REMARK SMILES IDX 68 80 76 81 69 82 71 83 77 84 70 85 72 86 73 87 74 88 75 89
REMARK SMILES IDX 52 90 53 91 61 92 54 93 56 94 62 95 55 96 57 97 58 98 59 99
REMARK SMILES IDX 60 100
REMARK H PARENT 16 7 6 11 23 34 82 53 50 64
REMARK Flexibility Score: 90.00
ROOT
ATOM      1  C   UNL     1       2.469  -2.732  -5.268  1.00  0.00     0.002 C 
ENDROOT
BRANCH   1   2
ATOM      2  C   UNL     1       2.721  -2.208  -3.851  1.00  0.00     0.021 C 
BRANCH   2   3
ATOM      3  C   UNL     1       2.161  -3.111  -2.758  1.00  0.00     0.116 C 
BRANCH   3   4
ATOM      4  N   UNL     1       3.059  -4.193  -2.412  1.00  0.00    -0.356 N 
ATOM      5  C   UNL     1       3.661  -4.540  -1.245  1.00  0.00     0.225 C 
ATOM      6  O   UNL     1       4.289  -5.608  -1.248  1.00  0.00    -0.275 OA
ATOM      7  H   UNL     1       3.274  -4.789  -3.165  1.00  0.00     0.163 HD
BRANCH   5   8
ATOM      8  C   UNL     1       3.558  -3.738   0.062  1.00  0.00     0.101 C 
BRANCH   8   9
ATOM      9  C   UNL     1       2.611  -4.449   1.062  1.00  0.00     0.093 C 
BRANCH   9  10
ATOM     10  N   UNL     1       1.423  -5.102   0.501  1.00  0.00    -0.366 N 
ATOM     11  H   UNL     1       1.413  -6.073   0.662  1.00  0.00     0.162 HD
BRANCH  10  12
ATOM     12  C   UNL     1       0.325  -4.673  -0.195  1.00  0.00     0.138 A 
ATOM     13  C   UNL     1      -0.032   0.393  -0.250  1.00  0.00     0.056 C 
ATOM     14  C   UNL     1      -0.422  -1.036  -0.409  1.00  0.00     0.004 A 
ATOM     15  C   UNL     1       0.101  -2.110   0.275  1.00  0.00     0.029 A 
ATOM     16  S   UNL     1      -1.587  -1.553  -1.538  1.00  0.00    -0.121 S 
ATOM     17  C   UNL     1      -0.193  -3.369  -0.328  1.00  0.00     0.054 A 
ATOM     18  C   UNL     1      -1.193  -3.196  -1.278  1.00  0.00     0.129 A 
ATOM     19  N   UNL     1      -1.782  -4.158  -2.008  1.00  0.00    -0.225 NA
ATOM     20  N   UNL     1      -0.281  -5.664  -0.894  1.00  0.00    -0.219 NA
ATOM     21  C   UNL     1      -1.281  -5.363  -1.737  1.00  0.00     0.225 A 
ENDBRANCH  10  12
ENDBRANCH   9  10
BRANCH   9  22
ATOM     22  C   UNL     1       2.286  -3.819   2.425  1.00  0.00     0.026 CG0
ATOM     23  G   UNL     1       3.313  -2.863   3.023  1.00  0.00     0.000 G0
ENDBRANCH   9  22
ENDBRANCH   8   9
BRANCH   8  24
ATOM     24  C   UNL     1       3.539  -2.214  -0.073  1.00  0.00     0.015 C 
BRANCH  24  25
ATOM     25  C   UNL     1       4.160  -1.436   1.081  1.00  0.00     0.001 C 
BRANCH  25  26
ATOM     26  C   UNL     1       3.366  -1.484   2.378  1.00  0.00     0.000 C 
BRANCH  26  27
ATOM     27  C   UNL     1       3.313  -2.863   3.023  1.00  0.00     0.002 CG0
ATOM     28  G   UNL     1       2.286  -3.819   2.425  1.00  0.00     0.000 G0
ENDBRANCH  26  27
ENDBRANCH  25  26
ENDBRANCH  24  25
ENDBRANCH   8  24
ENDBRANCH   5   8
ENDBRANCH   3   4
ENDBRANCH   2   3
ENDBRANCH   1   2
BRANCH   1  29
ATOM     29  C   UNL     1       0.999  -3.011  -5.626  1.00  0.00     0.002 C 
BRANCH  29  30
ATOM     30  C   UNL     1       0.002  -1.879  -5.339  1.00  0.00     0.021 C 
BRANCH  30  31
ATOM     31  C   UNL     1       0.230  -0.633  -6.182  1.00  0.00     0.116 C 
BRANCH  31  32
ATOM     32  N   UNL     1       0.030  -0.901  -7.603  1.00  0.00    -0.352 N 
ATOM     33  C   UNL     1       0.227  -0.060  -8.678  1.00  0.00     0.251 C 
ATOM     34  H   UNL     1      -0.289  -1.806  -7.825  1.00  0.00     0.163 HD
ATOM     35  O   UNL     1      -0.286  -0.302  -9.758  1.00  0.00    -0.269 OA
BRANCH  33  36
ATOM     36  C   UNL     1       1.061   1.141  -8.497  1.00  0.00     0.039 A 
ATOM     37  C   UNL     1       0.667   2.360  -9.057  1.00  0.00     0.014 A 
ATOM     38  C   UNL     1       2.234   1.043  -7.751  1.00  0.00     0.014 A 
ATOM     39  C   UNL     1       1.423   3.496  -8.792  1.00  0.00     0.010 A 
ATOM     40  C   UNL     1       2.909   2.184  -7.388  1.00  0.00     0.010 A 
ATOM     41  C   UNL     1       2.531   3.406  -7.936  1.00  0.00    -0.014 A 
BRANCH  41  42
ATOM     42  C   UNL     1       3.227   4.617  -7.514  1.00  0.00     0.031 A 
ATOM     43  C   UNL     1       2.357   5.654  -6.895  1.00  0.00     0.074 A 
ATOM     44  C   UNL     1       4.571   4.731  -7.496  1.00  0.00     0.049 A 
ATOM     45  N   UNL     1       2.068   6.816  -7.376  1.00  0.00    -0.248 NA
ATOM     46  C   UNL     1       1.618   5.316  -5.669  1.00  0.00     0.031 C 
ATOM     47  C   UNL     1       5.569   3.696  -7.788  1.00  0.00     0.029 A 
ATOM     48  N   UNL     1       5.334   5.770  -7.057  1.00  0.00    -0.354 N 
ATOM     49  C   UNL     1       1.302   7.452  -6.401  1.00  0.00     0.074 A 
ATOM     50  C   UNL     1       0.896   6.423  -5.480  1.00  0.00     0.031 C 
ATOM     51  C   UNL     1       6.759   4.063  -7.265  1.00  0.00     0.029 A 
ATOM     52  C   UNL     1       6.647   5.418  -6.761  1.00  0.00     0.049 A 
ATOM     53  H   UNL     1       4.988   6.687  -6.958  1.00  0.00     0.167 HD
ATOM     54  C   UNL     1       1.276   8.810  -6.301  1.00  0.00     0.034 A 
ATOM     55  C   UNL     1       7.561   6.170  -6.104  1.00  0.00     0.034 A 
ATOM     56  C   UNL     1       1.834   9.434  -7.475  1.00  0.00     0.049 A 
ATOM     57  C   UNL     1       7.126   7.581  -6.220  1.00  0.00     0.074 A 
ATOM     58  C   UNL     1       1.566   9.383  -8.828  1.00  0.00     0.029 A 
ATOM     59  N   UNL     1       3.098   9.963  -7.359  1.00  0.00    -0.354 N 
ATOM     60  N   UNL     1       7.109   8.235  -7.349  1.00  0.00    -0.248 NA
ATOM     61  C   UNL     1       6.301   8.138  -5.160  1.00  0.00     0.031 C 
ATOM     62  C   UNL     1       2.847   9.412  -9.452  1.00  0.00     0.029 A 
ATOM     63  C   UNL     1       3.811   9.553  -8.451  1.00  0.00     0.049 A 
ATOM     64  H   UNL     1       3.427  10.532  -6.626  1.00  0.00     0.167 HD
ATOM     65  C   UNL     1       5.937   8.977  -7.295  1.00  0.00     0.074 A 
ATOM     66  C   UNL     1       5.552   8.975  -5.884  1.00  0.00     0.031 C 
ATOM     67  C   UNL     1       5.230   9.266  -8.427  1.00  0.00     0.034 A 
BRANCH  54  68
ATOM     68  C   UNL     1       1.101   9.594  -5.020  1.00  0.00     0.023 A 
ATOM     69  C   UNL     1       0.963  10.998  -5.137  1.00  0.00     0.012 A 
ATOM     70  C   UNL     1       1.347   9.083  -3.726  1.00  0.00     0.148 A 
ATOM     71  C   UNL     1       1.132  11.849  -4.041  1.00  0.00     0.002 A 
ATOM     72  C   UNL     1       1.428   9.928  -2.624  1.00  0.00     0.091 A 
ATOM     73  F   UNL     1       1.642   7.792  -3.559  1.00  0.00    -0.205 F 
ATOM     74  C   UNL     1       1.359  11.313  -2.780  1.00  0.00     0.022 A 
BRANCH  72  75
ATOM     75  S   UNL     1       1.659   9.283  -0.962  1.00  0.00     0.127 S 
ATOM     76  O   UNL     1       3.052   9.633  -0.702  1.00  0.00    -0.237 OA
ATOM     77  O   UNL     1       0.672  10.053  -0.204  1.00  0.00    -0.237 OA
ATOM     78  O   UNL     1       1.362   7.859  -1.051  1.00  0.00    -0.744 OA
ENDBRANCH  72  75
ENDBRANCH  54  68
BRANCH  55  79
ATOM     79  C   UNL     1       8.670   5.750  -5.217  1.00  0.00     0.023 A 
ATOM     80  C   UNL     1       9.726   6.643  -4.949  1.00  0.00     0.012 A 
ATOM     81  C   UNL     1       8.563   4.587  -4.420  1.00  0.00     0.148 A 
ATOM     82  C   UNL     1      10.625   6.405  -3.902  1.00  0.00     0.002 A 
ATOM     83  C   UNL     1       9.460   4.353  -3.381  1.00  0.00     0.091 A 
ATOM     84  F   UNL     1       7.530   3.759  -4.621  1.00  0.00    -0.205 F 
ATOM     85  C   UNL     1      10.487   5.266  -3.112  1.00  0.00     0.022 A 
BRANCH  83  86
ATOM     86  S   UNL     1       9.321   2.925  -2.296  1.00  0.00     0.127 S 
ATOM     87  O   UNL     1      10.682   2.389  -2.325  1.00  0.00    -0.237 OA
ATOM     88  O   UNL     1       8.932   3.542  -1.031  1.00  0.00    -0.237 OA
ATOM     89  O   UNL     1       8.321   2.055  -2.903  1.00  0.00    -0.744 OA
ENDBRANCH  83  86
ENDBRANCH  55  79
BRANCH  67  90
ATOM     90  C   UNL     1       5.860   8.989  -9.772  1.00  0.00     0.023 A 
ATOM     91  C   UNL     1       6.223   7.688 -10.177  1.00  0.00     0.012 A 
ATOM     92  C   UNL     1       5.864  10.022 -10.726  1.00  0.00     0.148 A 
ATOM     93  C   UNL     1       6.590   7.425 -11.500  1.00  0.00     0.002 A 
ATOM     94  C   UNL     1       6.173   9.745 -12.052  1.00  0.00     0.091 A 
ATOM     95  F   UNL     1       5.516  11.255 -10.326  1.00  0.00    -0.205 F 
ATOM     96  C   UNL     1       6.546   8.450 -12.441  1.00  0.00     0.022 A 
BRANCH  94  97
ATOM     97  S   UNL     1       5.983  10.982 -13.338  1.00  0.00     0.127 S 
ATOM     98  O   UNL     1       7.371  11.318 -13.647  1.00  0.00    -0.237 OA
ATOM     99  O   UNL     1       5.285  10.239 -14.388  1.00  0.00    -0.237 OA
ATOM    100  O   UNL     1       5.195  12.058 -12.748  1.00  0.00    -0.744 OA
ENDBRANCH  94  97
ENDBRANCH  67  90
ENDBRANCH  41  42
ENDBRANCH  33  36
ENDBRANCH  31  32
ENDBRANCH  30  31
ENDBRANCH  29  30
ENDBRANCH   1  29
TORSDOF 18
