REMARK SMILES Cc1ccc(-c2cc(OCC(=O)NCCCCCCNC(=O)c3ccc(-c4c5nc(c(-c6cccc(S(=O)(=O)[O-])c6F)c6ccc([nH]6)c(-c6cccc(S(=O)(=O)[O-])c6F)c6nc(c(-c7cccc(S(=O)(=O)[O-])c7F)c7ccc4[nH]7)C=C6)C=C5)cc3)nc(NCc3ccc4c(c3)OCO4)n2)cc1
REMARK SMILES IDX 15 1 14 2 13 3 11 4 12 5 10 7 9 8 8 9 6 10 7 11 99 12 87 13
REMARK SMILES IDX 86 14 5 15 1 16 2 17 3 18 101 19 4 20 100 21 88 22 89 24
REMARK SMILES IDX 90 25 91 26 95 27 92 28 94 29 93 30 96 31 98 32 97 33 16 34
REMARK SMILES IDX 17 35 18 36 19 37 20 38 21 39 22 41 23 42 24 43 85 44 25 45
REMARK SMILES IDX 84 46 26 47 27 48 28 49 78 50 29 51 83 52 77 53 79 54 30 55
REMARK SMILES IDX 82 56 76 57 75 58 31 60 63 61 43 62 62 63 44 64 47 65 61 66
REMARK SMILES IDX 80 67 45 68 46 69 60 71 81 72 48 73 32 74 33 75 41 76 34 77
REMARK SMILES IDX 36 78 42 79 35 80 37 81 38 82 39 83 40 84 64 85 65 86 73 87
REMARK SMILES IDX 66 88 68 89 74 90 67 91 69 92 70 93 71 94 72 95 49 96 50 97
REMARK SMILES IDX 58 98 51 99 53 100 59 101 52 102 54 103 55 104 56 105 57 106
REMARK H PARENT 13 6 88 23 20 40 79 59 47 70
REMARK Flexibility Score: inf
ROOT
ATOM      1  C   UNL     1      -6.632   4.269  -0.359  1.00  0.00     0.021 C 
ENDROOT
BRANCH   1   2
ATOM      2  C   UNL     1      -6.484   4.023  -1.857  1.00  0.00     0.116 C 
BRANCH   2   3
ATOM      3  N   UNL     1      -5.098   3.909  -2.261  1.00  0.00    -0.353 N 
ATOM      4  C   UNL     1      -4.489   2.860  -2.879  1.00  0.00     0.258 C 
ATOM      5  O   UNL     1      -3.304   2.960  -3.203  1.00  0.00    -0.271 OA
ATOM      6  H   UNL     1      -4.526   4.686  -2.065  1.00  0.00     0.163 HD
BRANCH   4   7
ATOM      7  C   UNL     1      -5.297   1.592  -3.182  1.00  0.00     0.331 C 
BRANCH   7   8
ATOM      8  O   UNL     1      -5.927   0.952  -2.087  1.00  0.00    -0.467 OA
BRANCH   8   9
ATOM      9  C   UNL     1      -5.136   0.492  -1.073  1.00  0.00     0.219 A 
ATOM     10  C   UNL     1      -3.154  -0.080   0.008  1.00  0.00     0.080 A 
ATOM     11  C   UNL     1      -3.775   0.374  -1.134  1.00  0.00     0.097 A 
ATOM     12  N   UNL     1      -3.832  -0.467   1.104  1.00  0.00    -0.213 NA
ATOM     13  C   UNL     1      -5.161  -0.312   1.078  1.00  0.00     0.226 A 
ATOM     14  N   UNL     1      -5.834   0.166   0.024  1.00  0.00    -0.177 NA
BRANCH  10  15
ATOM     15  C   UNL     1      -1.692  -0.090   0.087  1.00  0.00     0.000 A 
ATOM     16  C   UNL     1       2.631  -0.060   0.024  1.00  0.00     0.044 C 
ATOM     17  C   UNL     1       1.133  -0.063   0.063  1.00  0.00    -0.051 A 
ATOM     18  C   UNL     1       0.431  -1.274   0.124  1.00  0.00     0.004 A 
ATOM     19  C   UNL     1       0.417   1.136   0.029  1.00  0.00     0.004 A 
ATOM     20  C   UNL     1      -0.968  -1.287   0.144  1.00  0.00     0.010 A 
ATOM     21  C   UNL     1      -0.979   1.121   0.040  1.00  0.00     0.010 A 
ENDBRANCH  10  15
BRANCH  13  22
ATOM     22  N   UNL     1      -5.923  -0.614   2.171  1.00  0.00    -0.350 N 
ATOM     23  H   UNL     1      -6.790  -0.161   2.278  1.00  0.00     0.164 HD
BRANCH  22  24
ATOM     24  C   UNL     1      -5.515  -1.564   3.174  1.00  0.00     0.152 C 
BRANCH  24  25
ATOM     25  C   UNL     1      -5.871  -2.996   2.805  1.00  0.00    -0.025 A 
ATOM     26  C   UNL     1      -5.267  -4.058   3.526  1.00  0.00     0.009 A 
ATOM     27  C   UNL     1      -6.784  -3.306   1.781  1.00  0.00     0.056 A 
ATOM     28  C   UNL     1      -5.507  -5.396   3.190  1.00  0.00     0.051 A 
ATOM     29  C   UNL     1      -6.972  -4.629   1.448  1.00  0.00     0.166 A 
ATOM     30  C   UNL     1      -6.342  -5.646   2.124  1.00  0.00     0.165 A 
ATOM     31  O   UNL     1      -7.737  -5.085   0.420  1.00  0.00    -0.454 OA
ATOM     32  O   UNL     1      -6.624  -6.868   1.595  1.00  0.00    -0.454 OA
ATOM     33  C   UNL     1      -7.356  -6.473   0.415  1.00  0.00     0.468 C 
ENDBRANCH  24  25
ENDBRANCH  22  24
ENDBRANCH  13  22
ENDBRANCH   8   9
ENDBRANCH   7   8
ENDBRANCH   4   7
ENDBRANCH   2   3
ENDBRANCH   1   2
BRANCH   1  34
ATOM     34  C   UNL     1      -5.927   5.522   0.179  1.00  0.00     0.002 C 
BRANCH  34  35
ATOM     35  C   UNL     1      -6.174   6.841  -0.573  1.00  0.00     0.002 C 
BRANCH  35  36
ATOM     36  C   UNL     1      -7.622   7.165  -0.946  1.00  0.00     0.021 C 
BRANCH  36  37
ATOM     37  C   UNL     1      -8.571   7.193   0.235  1.00  0.00     0.116 C 
BRANCH  37  38
ATOM     38  N   UNL     1      -8.768   8.507   0.798  1.00  0.00    -0.352 N 
ATOM     39  C   UNL     1      -9.659   8.911   1.772  1.00  0.00     0.251 C 
ATOM     40  H   UNL     1      -8.185   9.214   0.438  1.00  0.00     0.163 HD
ATOM     41  O   UNL     1      -9.901  10.114   1.853  1.00  0.00    -0.269 OA
BRANCH  39  42
ATOM     42  C   UNL     1     -10.184   7.953   2.788  1.00  0.00     0.039 A 
ATOM     43  C   UNL     1     -10.434   8.458   4.073  1.00  0.00     0.014 A 
ATOM     44  C   UNL     1     -10.193   6.576   2.591  1.00  0.00     0.014 A 
ATOM     45  C   UNL     1     -10.396   7.610   5.178  1.00  0.00     0.010 A 
ATOM     46  C   UNL     1     -10.068   5.744   3.675  1.00  0.00     0.010 A 
ATOM     47  C   UNL     1     -10.075   6.280   4.963  1.00  0.00    -0.014 A 
BRANCH  47  48
ATOM     48  C   UNL     1      -9.703   5.322   5.982  1.00  0.00     0.031 A 
ATOM     49  C   UNL     1     -10.742   4.490   6.605  1.00  0.00     0.074 A 
ATOM     50  C   UNL     1      -8.395   4.981   6.011  1.00  0.00     0.049 A 
ATOM     51  N   UNL     1     -10.522   3.659   7.563  1.00  0.00    -0.248 NA
ATOM     52  C   UNL     1     -12.144   4.552   6.200  1.00  0.00     0.031 C 
ATOM     53  C   UNL     1      -7.811   3.718   6.437  1.00  0.00     0.029 A 
ATOM     54  N   UNL     1      -7.284   5.798   5.768  1.00  0.00    -0.354 N 
ATOM     55  C   UNL     1     -11.627   2.840   7.630  1.00  0.00     0.074 A 
ATOM     56  C   UNL     1     -12.658   3.548   6.917  1.00  0.00     0.031 C 
ATOM     57  C   UNL     1      -6.506   3.910   6.688  1.00  0.00     0.029 A 
ATOM     58  C   UNL     1      -6.281   5.345   6.643  1.00  0.00     0.049 A 
ATOM     59  H   UNL     1      -7.218   6.537   5.120  1.00  0.00     0.167 HD
ATOM     60  C   UNL     1     -11.467   1.577   8.114  1.00  0.00     0.034 A 
ATOM     61  C   UNL     1      -5.813   6.097   7.686  1.00  0.00     0.034 A 
ATOM     62  C   UNL     1     -10.138   1.431   8.737  1.00  0.00     0.049 A 
ATOM     63  C   UNL     1      -6.068   5.449   9.039  1.00  0.00     0.074 A 
ATOM     64  C   UNL     1      -8.969   0.804   8.343  1.00  0.00     0.029 A 
ATOM     65  N   UNL     1      -9.798   2.248   9.814  1.00  0.00    -0.354 N 
ATOM     66  N   UNL     1      -6.787   4.373   9.212  1.00  0.00    -0.248 NA
ATOM     67  C   UNL     1      -5.547   5.960  10.305  1.00  0.00     0.031 C 
ATOM     68  C   UNL     1      -7.899   1.367   9.099  1.00  0.00     0.029 A 
ATOM     69  C   UNL     1      -8.422   2.292   9.989  1.00  0.00     0.049 A 
ATOM     70  H   UNL     1     -10.447   2.730  10.375  1.00  0.00     0.167 HD
ATOM     71  C   UNL     1      -6.953   4.119  10.545  1.00  0.00     0.074 A 
ATOM     72  C   UNL     1      -6.083   5.093  11.185  1.00  0.00     0.031 C 
ATOM     73  C   UNL     1      -7.835   3.173  11.001  1.00  0.00     0.034 A 
BRANCH  60  74
ATOM     74  C   UNL     1     -12.390   0.389   7.851  1.00  0.00     0.023 A 
ATOM     75  C   UNL     1     -12.006  -0.854   8.406  1.00  0.00     0.012 A 
ATOM     76  C   UNL     1     -13.546   0.357   7.027  1.00  0.00     0.148 A 
ATOM     77  C   UNL     1     -12.703  -2.044   8.153  1.00  0.00     0.002 A 
ATOM     78  C   UNL     1     -14.280  -0.818   6.825  1.00  0.00     0.091 A 
ATOM     79  F   UNL     1     -13.920   1.438   6.344  1.00  0.00    -0.205 F 
ATOM     80  C   UNL     1     -13.851  -2.026   7.375  1.00  0.00     0.022 A 
BRANCH  78  81
ATOM     81  S   UNL     1     -15.808  -0.855   5.864  1.00  0.00     0.127 S 
ATOM     82  O   UNL     1     -15.423  -1.656   4.703  1.00  0.00    -0.237 OA
ATOM     83  O   UNL     1     -16.737  -1.519   6.779  1.00  0.00    -0.237 OA
ATOM     84  O   UNL     1     -16.145   0.533   5.572  1.00  0.00    -0.744 OA
ENDBRANCH  78  81
ENDBRANCH  60  74
BRANCH  61  85
ATOM     85  C   UNL     1      -5.818   7.564   7.396  1.00  0.00     0.023 A 
ATOM     86  C   UNL     1      -4.960   7.997   6.355  1.00  0.00     0.012 A 
ATOM     87  C   UNL     1      -6.909   8.377   7.756  1.00  0.00     0.148 A 
ATOM     88  C   UNL     1      -5.285   9.107   5.574  1.00  0.00     0.002 A 
ATOM     89  C   UNL     1      -7.224   9.488   6.973  1.00  0.00     0.091 A 
ATOM     90  F   UNL     1      -7.673   8.002   8.790  1.00  0.00    -0.205 F 
ATOM     91  C   UNL     1      -6.444   9.823   5.854  1.00  0.00     0.022 A 
BRANCH  89  92
ATOM     92  S   UNL     1      -8.712  10.458   7.265  1.00  0.00     0.127 S 
ATOM     93  O   UNL     1      -8.191  11.558   8.071  1.00  0.00    -0.237 OA
ATOM     94  O   UNL     1      -9.121  10.831   5.912  1.00  0.00    -0.237 OA
ATOM     95  O   UNL     1      -9.628   9.546   7.935  1.00  0.00    -0.744 OA
ENDBRANCH  89  92
ENDBRANCH  61  85
BRANCH  73  96
ATOM     96  C   UNL     1      -8.248   3.002  12.453  1.00  0.00     0.023 A 
ATOM     97  C   UNL     1      -8.146   4.045  13.394  1.00  0.00     0.012 A 
ATOM     98  C   UNL     1      -8.897   1.816  12.887  1.00  0.00     0.148 A 
ATOM     99  C   UNL     1      -8.590   3.900  14.713  1.00  0.00     0.002 A 
ATOM    100  C   UNL     1      -9.443   1.721  14.165  1.00  0.00     0.091 A 
ATOM    101  F   UNL     1      -8.974   0.758  12.068  1.00  0.00    -0.205 F 
ATOM    102  C   UNL     1      -9.259   2.746  15.094  1.00  0.00     0.022 A 
BRANCH 100 103
ATOM    103  S   UNL     1     -10.533   0.360  14.610  1.00  0.00     0.127 S 
ATOM    104  O   UNL     1      -9.608  -0.573  15.249  1.00  0.00    -0.237 OA
ATOM    105  O   UNL     1     -11.480   1.001  15.524  1.00  0.00    -0.237 OA
ATOM    106  O   UNL     1     -11.124  -0.079  13.353  1.00  0.00    -0.744 OA
ENDBRANCH 100 103
ENDBRANCH  73  96
ENDBRANCH  47  48
ENDBRANCH  39  42
ENDBRANCH  37  38
ENDBRANCH  36  37
ENDBRANCH  35  36
ENDBRANCH  34  35
ENDBRANCH   1  34
TORSDOF 22
