REMARK SMILES N#Cc1ccc(C[N@H+]2CCCC[C@H]2C(=O)NCCCCCCNC(=O)c2ccc(-c3c4nc(c(-c5cccc(S(=O)(=O)[O-])c5F)c5ccc([nH]5)c(-c5cccc(S(=O)(=O)[O-])c5F)c5nc(c(-c6cccc(S(=O)(=O)[O-])c6F)c6ccc3[nH]6)C=C5)C=C4)cc2)c(F)c1
REMARK SMILES IDX 19 1 18 2 17 3 16 4 14 5 15 6 13 8 8 9 9 10 10 12 12 13
REMARK SMILES IDX 11 14 7 15 6 16 3 17 4 18 91 19 5 20 89 21 90 22 2 23 1 24
REMARK SMILES IDX 20 25 21 26 22 27 23 28 24 29 25 31 26 32 27 33 88 34 28 35
REMARK SMILES IDX 87 36 29 37 30 38 31 39 81 40 32 41 86 42 80 43 82 44 33 45
REMARK SMILES IDX 85 46 79 47 78 48 34 50 66 51 46 52 65 53 47 54 50 55 64 56
REMARK SMILES IDX 83 57 48 58 49 59 63 61 84 62 51 63 35 64 36 65 44 66 37 67
REMARK SMILES IDX 39 68 45 69 38 70 40 71 41 72 42 73 43 74 67 75 68 76 76 77
REMARK SMILES IDX 69 78 71 79 77 80 70 81 72 82 73 83 74 84 75 85 52 86 53 87
REMARK SMILES IDX 61 88 54 89 56 90 62 91 55 92 57 93 58 94 59 95 60 96
REMARK H PARENT 16 7 8 11 23 30 82 49 50 60
REMARK Flexibility Score: inf
ROOT
ATOM      1  C   UNL     1       1.286  -5.037   2.630  1.00  0.00     0.002 C 
ENDROOT
BRANCH   1   2
ATOM      2  C   UNL     1       2.726  -4.503   2.523  1.00  0.00     0.021 C 
BRANCH   2   3
ATOM      3  C   UNL     1       2.957  -3.659   1.265  1.00  0.00     0.116 C 
BRANCH   3   4
ATOM      4  N   UNL     1       2.055  -2.531   1.309  1.00  0.00    -0.351 N 
ATOM      5  C   UNL     1       2.323  -1.275   1.761  1.00  0.00     0.278 C 
ATOM      6  O   UNL     1       1.393  -0.680   2.309  1.00  0.00    -0.268 OA
ATOM      7  H   UNL     1       1.143  -2.688   0.973  1.00  0.00     0.163 HD
BRANCH   5   8
ATOM      8  C   UNL     1       3.729  -0.675   1.498  1.00  0.00     0.274 C 
ATOM      9  N   UNL     1       3.719   0.799   1.310  1.00  0.00    -0.321 N 
ATOM     10  C   UNL     1       3.311   1.542   2.502  1.00  0.00     0.263 C 
ATOM     11  H   UNL     1       4.703   1.038   1.195  1.00  0.00     0.349 HD
ATOM     12  C   UNL     1       4.124   1.144   3.746  1.00  0.00     0.062 C 
ATOM     13  C   UNL     1       4.685  -1.030   2.643  1.00  0.00     0.076 C 
ATOM     14  C   UNL     1       4.257  -0.362   3.941  1.00  0.00     0.012 C 
BRANCH   9  15
ATOM     15  C   UNL     1       3.157   1.278   0.033  1.00  0.00     0.302 C 
BRANCH  15  16
ATOM     16  C   UNL     1       1.695   1.008  -0.241  1.00  0.00     0.042 A 
ATOM     17  C   UNL     1      -1.014   0.267  -0.358  1.00  0.00     0.055 A 
ATOM     18  C   UNL     1      -0.650   1.536   0.107  1.00  0.00     0.020 A 
ATOM     19  C   UNL     1      -0.039  -0.589  -0.866  1.00  0.00     0.059 A 
ATOM     20  C   UNL     1       0.699   1.902   0.172  1.00  0.00     0.014 A 
ATOM     21  C   UNL     1       1.296  -0.196  -0.835  1.00  0.00     0.133 A 
ATOM     22  F   UNL     1       2.223  -1.050  -1.296  1.00  0.00    -0.206 F 
BRANCH  17  23
ATOM     23  C   UNL     1      -2.379  -0.169  -0.268  1.00  0.00     0.099 C 
ATOM     24  N   UNL     1      -3.477  -0.524  -0.180  1.00  0.00    -0.192 NA
ENDBRANCH  17  23
ENDBRANCH  15  16
ENDBRANCH   9  15
ENDBRANCH   5   8
ENDBRANCH   3   4
ENDBRANCH   2   3
ENDBRANCH   1   2
BRANCH   1  25
ATOM     25  C   UNL     1       0.833  -5.856   1.417  1.00  0.00     0.002 C 
BRANCH  25  26
ATOM     26  C   UNL     1       1.724  -7.061   1.122  1.00  0.00     0.021 C 
BRANCH  26  27
ATOM     27  C   UNL     1       1.827  -8.036   2.286  1.00  0.00     0.116 C 
BRANCH  27  28
ATOM     28  N   UNL     1       0.534  -8.614   2.613  1.00  0.00    -0.352 N 
ATOM     29  C   UNL     1       0.199  -9.934   2.762  1.00  0.00     0.251 C 
ATOM     30  H   UNL     1      -0.200  -7.970   2.744  1.00  0.00     0.163 HD
ATOM     31  O   UNL     1      -0.981 -10.269   2.801  1.00  0.00    -0.269 OA
BRANCH  29  32
ATOM     32  C   UNL     1       1.270 -10.945   2.868  1.00  0.00     0.039 A 
ATOM     33  C   UNL     1       1.115 -12.165   2.208  1.00  0.00     0.014 A 
ATOM     34  C   UNL     1       2.418 -10.694   3.627  1.00  0.00     0.014 A 
ATOM     35  C   UNL     1       2.122 -13.126   2.299  1.00  0.00     0.010 A 
ATOM     36  C   UNL     1       3.463 -11.608   3.628  1.00  0.00     0.010 A 
ATOM     37  C   UNL     1       3.310 -12.851   2.998  1.00  0.00    -0.014 A 
BRANCH  37  38
ATOM     38  C   UNL     1       4.377 -13.875   3.118  1.00  0.00     0.031 A 
ATOM     39  C   UNL     1       4.769 -14.400   4.475  1.00  0.00     0.074 A 
ATOM     40  C   UNL     1       5.012 -14.310   2.014  1.00  0.00     0.049 A 
ATOM     41  N   UNL     1       5.658 -15.309   4.781  1.00  0.00    -0.248 NA
ATOM     42  C   UNL     1       4.095 -13.810   5.644  1.00  0.00     0.031 C 
ATOM     43  C   UNL     1       4.767 -13.831   0.652  1.00  0.00     0.029 A 
ATOM     44  N   UNL     1       5.999 -15.250   1.863  1.00  0.00    -0.354 N 
ATOM     45  C   UNL     1       5.667 -15.380   6.169  1.00  0.00     0.074 A 
ATOM     46  C   UNL     1       4.740 -14.380   6.648  1.00  0.00     0.031 C 
ATOM     47  C   UNL     1       5.555 -14.506  -0.200  1.00  0.00     0.029 A 
ATOM     48  C   UNL     1       6.389 -15.434   0.557  1.00  0.00     0.049 A 
ATOM     49  H   UNL     1       6.391 -15.747   2.617  1.00  0.00     0.167 HD
ATOM     50  C   UNL     1       6.357 -16.221   6.975  1.00  0.00     0.034 A 
ATOM     51  C   UNL     1       7.314 -16.259   0.032  1.00  0.00     0.034 A 
ATOM     52  C   UNL     1       7.268 -17.223   6.492  1.00  0.00     0.049 A 
ATOM     53  C   UNL     1       8.073 -17.180   0.947  1.00  0.00     0.074 A 
ATOM     54  C   UNL     1       7.974 -18.166   7.216  1.00  0.00     0.029 A 
ATOM     55  N   UNL     1       7.615 -17.398   5.161  1.00  0.00    -0.354 N 
ATOM     56  N   UNL     1       7.973 -17.323   2.247  1.00  0.00    -0.248 NA
ATOM     57  C   UNL     1       9.045 -18.084   0.316  1.00  0.00     0.031 C 
ATOM     58  C   UNL     1       8.787 -18.878   6.328  1.00  0.00     0.029 A 
ATOM     59  C   UNL     1       8.537 -18.424   5.043  1.00  0.00     0.049 A 
ATOM     60  H   UNL     1       7.258 -16.871   4.410  1.00  0.00     0.167 HD
ATOM     61  C   UNL     1       8.829 -18.367   2.582  1.00  0.00     0.074 A 
ATOM     62  C   UNL     1       9.427 -18.826   1.345  1.00  0.00     0.031 C 
ATOM     63  C   UNL     1       9.095 -18.897   3.802  1.00  0.00     0.034 A 
BRANCH  50  64
ATOM     64  C   UNL     1       6.131 -16.101   8.462  1.00  0.00     0.023 A 
ATOM     65  C   UNL     1       4.875 -16.431   9.014  1.00  0.00     0.012 A 
ATOM     66  C   UNL     1       7.168 -15.681   9.318  1.00  0.00     0.148 A 
ATOM     67  C   UNL     1       4.637 -16.291  10.381  1.00  0.00     0.002 A 
ATOM     68  C   UNL     1       6.940 -15.598  10.687  1.00  0.00     0.091 A 
ATOM     69  F   UNL     1       8.350 -15.355   8.778  1.00  0.00    -0.205 F 
ATOM     70  C   UNL     1       5.672 -15.883  11.217  1.00  0.00     0.022 A 
BRANCH  68  71
ATOM     71  S   UNL     1       8.230 -15.165  11.858  1.00  0.00     0.127 S 
ATOM     72  O   UNL     1       7.781 -13.853  12.320  1.00  0.00    -0.237 OA
ATOM     73  O   UNL     1       8.113 -16.234  12.850  1.00  0.00    -0.237 OA
ATOM     74  O   UNL     1       9.477 -15.168  11.105  1.00  0.00    -0.744 OA
ENDBRANCH  68  71
ENDBRANCH  50  64
BRANCH  51  75
ATOM     75  C   UNL     1       7.529 -16.302  -1.442  1.00  0.00     0.023 A 
ATOM     76  C   UNL     1       7.159 -17.453  -2.165  1.00  0.00     0.012 A 
ATOM     77  C   UNL     1       8.090 -15.210  -2.131  1.00  0.00     0.148 A 
ATOM     78  C   UNL     1       7.384 -17.534  -3.539  1.00  0.00     0.002 A 
ATOM     79  C   UNL     1       8.259 -15.274  -3.508  1.00  0.00     0.091 A 
ATOM     80  F   UNL     1       8.435 -14.124  -1.424  1.00  0.00    -0.205 F 
ATOM     81  C   UNL     1       7.926 -16.442  -4.212  1.00  0.00     0.022 A 
BRANCH  79  82
ATOM     82  S   UNL     1       8.840 -13.877  -4.476  1.00  0.00     0.127 S 
ATOM     83  O   UNL     1      10.117 -14.375  -4.982  1.00  0.00    -0.237 OA
ATOM     84  O   UNL     1       7.784 -13.751  -5.480  1.00  0.00    -0.237 OA
ATOM     85  O   UNL     1       8.927 -12.759  -3.547  1.00  0.00    -0.744 OA
ENDBRANCH  79  82
ENDBRANCH  51  75
BRANCH  63  86
ATOM     86  C   UNL     1      10.022 -20.085   3.857  1.00  0.00     0.023 A 
ATOM     87  C   UNL     1      11.393 -19.941   3.563  1.00  0.00     0.012 A 
ATOM     88  C   UNL     1       9.530 -21.346   4.250  1.00  0.00     0.148 A 
ATOM     89  C   UNL     1      12.246 -21.044   3.607  1.00  0.00     0.002 A 
ATOM     90  C   UNL     1      10.397 -22.425   4.353  1.00  0.00     0.091 A 
ATOM     91  F   UNL     1       8.220 -21.468   4.512  1.00  0.00    -0.205 F 
ATOM     92  C   UNL     1      11.751 -22.282   4.013  1.00  0.00     0.022 A 
BRANCH  90  93
ATOM     93  S   UNL     1       9.870 -24.028   4.966  1.00  0.00     0.127 S 
ATOM     94  O   UNL     1       9.926 -24.844   3.755  1.00  0.00    -0.237 OA
ATOM     95  O   UNL     1      10.903 -24.333   5.957  1.00  0.00    -0.237 OA
ATOM     96  O   UNL     1       8.538 -23.830   5.523  1.00  0.00    -0.744 OA
ENDBRANCH  90  93
ENDBRANCH  63  86
ENDBRANCH  37  38
ENDBRANCH  29  32
ENDBRANCH  27  28
ENDBRANCH  26  27
ENDBRANCH  25  26
ENDBRANCH   1  25
TORSDOF 19
