REMARK SMILES Cc1n[nH]cc1CNC(=O)NC[C@H](CC(C)C)C(=O)NCCCCCCNC(=O)c1ccc(-c2c3nc(c(-c4cccc(S(=O)(=O)[O-])c4F)c4ccc([nH]4)c(-c4cccc(S(=O)(=O)[O-])c4F)c4nc(c(-c5cccc(S(=O)(=O)[O-])c5F)c5ccc2[nH]5)C=C4)C=C3)cc1
REMARK SMILES IDX 23 1 22 2 21 3 20 4 18 5 19 6 13 8 12 9 11 10 8 11 9 12
REMARK SMILES IDX 10 14 7 16 6 17 1 18 2 19 3 20 4 21 5 22 14 24 15 25 16 26
REMARK SMILES IDX 17 27 24 28 25 29 26 30 27 31 28 32 29 34 30 35 31 36 92 37
REMARK SMILES IDX 32 38 91 39 33 40 34 41 35 42 85 43 36 44 90 45 84 46 86 47
REMARK SMILES IDX 37 48 89 49 83 50 82 51 38 53 70 54 50 55 69 56 51 57 54 58
REMARK SMILES IDX 68 59 87 60 52 61 53 62 67 64 88 65 55 66 39 67 40 68 48 69
REMARK SMILES IDX 41 70 43 71 49 72 42 73 44 74 45 75 46 76 47 77 71 78 72 79
REMARK SMILES IDX 80 80 73 81 75 82 81 83 74 84 76 85 77 86 78 87 79 88 56 89
REMARK SMILES IDX 57 90 65 91 58 92 60 93 66 94 59 95 61 96 62 97 63 98 64 99
REMARK H PARENT 20 7 8 13 11 15 4 23 27 33 86 52 54 63
REMARK Flexibility Score: inf
ROOT
ATOM      1  C   UNL     1      -1.687   1.523   6.348  1.00  0.00     0.002 C 
ENDROOT
BRANCH   1   2
ATOM      2  C   UNL     1      -1.639   2.097   4.932  1.00  0.00     0.021 C 
BRANCH   2   3
ATOM      3  C   UNL     1      -1.261   3.579   4.839  1.00  0.00     0.116 C 
BRANCH   3   4
ATOM      4  N   UNL     1       0.091   3.777   4.351  1.00  0.00    -0.356 N 
ATOM      5  C   UNL     1       0.582   4.395   3.245  1.00  0.00     0.224 C 
ATOM      6  O   UNL     1       1.813   4.398   3.120  1.00  0.00    -0.275 OA
ATOM      7  H   UNL     1       0.785   3.390   4.933  1.00  0.00     0.163 HD
BRANCH   5   8
ATOM      8  C   UNL     1      -0.285   5.063   2.169  1.00  0.00     0.098 C 
BRANCH   8   9
ATOM      9  C   UNL     1      -1.129   6.229   2.708  1.00  0.00     0.131 C 
BRANCH   9  10
ATOM     10  N   UNL     1      -2.150   6.690   1.786  1.00  0.00    -0.337 N 
ATOM     11  N   UNL     1      -4.178   7.030   2.967  1.00  0.00    -0.334 N 
ATOM     12  C   UNL     1      -3.408   7.127   1.886  1.00  0.00     0.315 C 
ATOM     13  H   UNL     1      -5.011   7.548   2.873  1.00  0.00     0.165 HD
ATOM     14  O   UNL     1      -3.889   7.656   0.880  1.00  0.00    -0.249 OA
ATOM     15  H   UNL     1      -1.837   6.678   0.853  1.00  0.00     0.165 HD
BRANCH  11  16
ATOM     16  C   UNL     1      -4.102   6.359   4.242  1.00  0.00     0.157 C 
BRANCH  16  17
ATOM     17  C   UNL     1      -4.177   7.327   5.368  1.00  0.00     0.012 A 
ATOM     18  C   UNL     1      -4.415   5.666   7.372  1.00  0.00     0.069 C 
ATOM     19  C   UNL     1      -4.310   7.007   6.751  1.00  0.00     0.064 A 
ATOM     20  N   UNL     1      -4.340   8.099   7.521  1.00  0.00    -0.181 NA
ATOM     21  N   UNL     1      -4.325   9.111   6.643  1.00  0.00    -0.285 N 
ATOM     22  C   UNL     1      -4.158   8.707   5.353  1.00  0.00     0.111 A 
ATOM     23  H   UNL     1      -4.424  10.055   6.904  1.00  0.00     0.189 HD
ENDBRANCH  16  17
ENDBRANCH  11  16
ENDBRANCH   9  10
ENDBRANCH   8   9
BRANCH   8  24
ATOM     24  C   UNL     1      -0.866   4.088   1.113  1.00  0.00     0.018 C 
BRANCH  24  25
ATOM     25  C   UNL     1      -1.873   3.000   1.514  1.00  0.00    -0.017 C 
ATOM     26  C   UNL     1      -3.280   3.528   1.776  1.00  0.00     0.007 C 
ATOM     27  C   UNL     1      -1.963   1.921   0.427  1.00  0.00     0.007 C 
ENDBRANCH  24  25
ENDBRANCH   8  24
ENDBRANCH   5   8
ENDBRANCH   3   4
ENDBRANCH   2   3
ENDBRANCH   1   2
BRANCH   1  28
ATOM     28  C   UNL     1      -2.727   2.144   7.285  1.00  0.00     0.002 C 
BRANCH  28  29
ATOM     29  C   UNL     1      -4.167   2.186   6.762  1.00  0.00     0.021 C 
BRANCH  29  30
ATOM     30  C   UNL     1      -4.778   0.836   6.401  1.00  0.00     0.116 C 
BRANCH  30  31
ATOM     31  N   UNL     1      -4.849  -0.053   7.547  1.00  0.00    -0.352 N 
ATOM     32  C   UNL     1      -5.919  -0.455   8.309  1.00  0.00     0.251 C 
ATOM     33  H   UNL     1      -3.984  -0.432   7.825  1.00  0.00     0.163 HD
ATOM     34  O   UNL     1      -5.705  -1.014   9.382  1.00  0.00    -0.269 OA
BRANCH  32  35
ATOM     35  C   UNL     1      -7.316  -0.227   7.867  1.00  0.00     0.039 A 
ATOM     36  C   UNL     1      -8.284   0.079   8.831  1.00  0.00     0.014 A 
ATOM     37  C   UNL     1      -7.701  -0.389   6.535  1.00  0.00     0.014 A 
ATOM     38  C   UNL     1      -9.619   0.262   8.453  1.00  0.00     0.010 A 
ATOM     39  C   UNL     1      -9.015  -0.125   6.147  1.00  0.00     0.010 A 
ATOM     40  C   UNL     1      -9.994   0.184   7.102  1.00  0.00    -0.014 A 
BRANCH  40  41
ATOM     41  C   UNL     1     -11.401   0.402   6.671  1.00  0.00     0.031 A 
ATOM     42  C   UNL     1     -12.170  -0.704   5.993  1.00  0.00     0.074 A 
ATOM     43  C   UNL     1     -11.962   1.621   6.808  1.00  0.00     0.049 A 
ATOM     44  N   UNL     1     -13.374  -0.680   5.482  1.00  0.00    -0.248 NA
ATOM     45  C   UNL     1     -11.485  -1.999   5.843  1.00  0.00     0.031 C 
ATOM     46  C   UNL     1     -11.303   2.796   7.380  1.00  0.00     0.029 A 
ATOM     47  N   UNL     1     -13.206   2.080   6.449  1.00  0.00    -0.354 N 
ATOM     48  C   UNL     1     -13.572  -1.932   4.910  1.00  0.00     0.074 A 
ATOM     49  C   UNL     1     -12.354  -2.685   5.114  1.00  0.00     0.031 C 
ATOM     50  C   UNL     1     -12.148   3.839   7.338  1.00  0.00     0.029 A 
ATOM     51  C   UNL     1     -13.396   3.418   6.710  1.00  0.00     0.049 A 
ATOM     52  H   UNL     1     -13.896   1.507   6.044  1.00  0.00     0.167 HD
ATOM     53  C   UNL     1     -14.675  -2.423   4.297  1.00  0.00     0.034 A 
ATOM     54  C   UNL     1     -14.454   4.217   6.467  1.00  0.00     0.034 A 
ATOM     55  C   UNL     1     -15.909  -1.697   4.154  1.00  0.00     0.049 A 
ATOM     56  C   UNL     1     -15.687   3.630   5.834  1.00  0.00     0.074 A 
ATOM     57  C   UNL     1     -17.116  -2.144   3.646  1.00  0.00     0.029 A 
ATOM     58  N   UNL     1     -16.094  -0.373   4.518  1.00  0.00    -0.354 N 
ATOM     59  N   UNL     1     -15.910   2.396   5.451  1.00  0.00    -0.248 NA
ATOM     60  C   UNL     1     -16.828   4.536   5.634  1.00  0.00     0.031 C 
ATOM     61  C   UNL     1     -18.026  -1.083   3.685  1.00  0.00     0.029 A 
ATOM     62  C   UNL     1     -17.391   0.018   4.236  1.00  0.00     0.049 A 
ATOM     63  H   UNL     1     -15.404   0.205   4.917  1.00  0.00     0.167 HD
ATOM     64  C   UNL     1     -17.225   2.369   5.000  1.00  0.00     0.074 A 
ATOM     65  C   UNL     1     -17.755   3.705   5.177  1.00  0.00     0.031 C 
ATOM     66  C   UNL     1     -17.925   1.335   4.472  1.00  0.00     0.034 A 
BRANCH  53  67
ATOM     67  C   UNL     1     -14.624  -3.839   3.781  1.00  0.00     0.023 A 
ATOM     68  C   UNL     1     -14.635  -4.913   4.694  1.00  0.00     0.012 A 
ATOM     69  C   UNL     1     -14.634  -4.108   2.398  1.00  0.00     0.148 A 
ATOM     70  C   UNL     1     -14.621  -6.231   4.240  1.00  0.00     0.002 A 
ATOM     71  C   UNL     1     -14.666  -5.425   1.953  1.00  0.00     0.091 A 
ATOM     72  F   UNL     1     -14.604  -3.075   1.544  1.00  0.00    -0.205 F 
ATOM     73  C   UNL     1     -14.648  -6.487   2.872  1.00  0.00     0.022 A 
BRANCH  71  74
ATOM     74  S   UNL     1     -14.781  -5.859   0.213  1.00  0.00     0.127 S 
ATOM     75  O   UNL     1     -13.439  -6.377  -0.050  1.00  0.00    -0.237 OA
ATOM     76  O   UNL     1     -15.836  -6.873   0.217  1.00  0.00    -0.237 OA
ATOM     77  O   UNL     1     -15.125  -4.628  -0.484  1.00  0.00    -0.744 OA
ENDBRANCH  71  74
ENDBRANCH  53  67
BRANCH  54  78
ATOM     78  C   UNL     1     -14.423   5.645   6.894  1.00  0.00     0.023 A 
ATOM     79  C   UNL     1     -15.234   6.059   7.969  1.00  0.00     0.012 A 
ATOM     80  C   UNL     1     -13.583   6.585   6.266  1.00  0.00     0.148 A 
ATOM     81  C   UNL     1     -15.233   7.389   8.391  1.00  0.00     0.002 A 
ATOM     82  C   UNL     1     -13.548   7.897   6.726  1.00  0.00     0.091 A 
ATOM     83  F   UNL     1     -12.829   6.177   5.236  1.00  0.00    -0.205 F 
ATOM     84  C   UNL     1     -14.384   8.305   7.777  1.00  0.00     0.022 A 
BRANCH  82  85
ATOM     85  S   UNL     1     -12.391   9.111   6.080  1.00  0.00     0.127 S 
ATOM     86  O   UNL     1     -13.267   9.968   5.288  1.00  0.00    -0.237 OA
ATOM     87  O   UNL     1     -11.873   9.721   7.305  1.00  0.00    -0.237 OA
ATOM     88  O   UNL     1     -11.402   8.346   5.331  1.00  0.00    -0.744 OA
ENDBRANCH  82  85
ENDBRANCH  54  78
BRANCH  66  89
ATOM     89  C   UNL     1     -19.357   1.586   4.078  1.00  0.00     0.023 A 
ATOM     90  C   UNL     1     -19.643   2.348   2.928  1.00  0.00     0.012 A 
ATOM     91  C   UNL     1     -20.416   1.002   4.801  1.00  0.00     0.148 A 
ATOM     92  C   UNL     1     -20.961   2.549   2.521  1.00  0.00     0.002 A 
ATOM     93  C   UNL     1     -21.724   1.167   4.362  1.00  0.00     0.091 A 
ATOM     94  F   UNL     1     -20.125   0.297   5.904  1.00  0.00    -0.205 F 
ATOM     95  C   UNL     1     -21.999   1.949   3.229  1.00  0.00     0.022 A 
BRANCH  93  96
ATOM     96  S   UNL     1     -23.114   0.351   5.157  1.00  0.00     0.127 S 
ATOM     97  O   UNL     1     -23.751   1.464   5.859  1.00  0.00    -0.237 OA
ATOM     98  O   UNL     1     -23.870  -0.161   4.013  1.00  0.00    -0.237 OA
ATOM     99  O   UNL     1     -22.538  -0.681   6.009  1.00  0.00    -0.744 OA
ENDBRANCH  93  96
ENDBRANCH  66  89
ENDBRANCH  40  41
ENDBRANCH  32  35
ENDBRANCH  30  31
ENDBRANCH  29  30
ENDBRANCH  28  29
ENDBRANCH   1  28
TORSDOF 22
