REMARK SMILES CC(C)CCc1cc2c(cc1Cl)C=C(C(=O)NCCCCCCNC(=O)c1ccc(-c3c4nc(c(-c5cccc(S(=O)(=O)[O-])c5F)c5ccc([nH]5)c(-c5cccc(S(=O)(=O)[O-])c5F)c5nc(c(-c6cccc(S(=O)(=O)[O-])c6F)c6ccc3[nH]6)C=C5)C=C4)cc1)[C@@H](C(F)(F)F)O2
REMARK SMILES IDX 20 1 19 2 18 3 17 4 15 5 16 6 14 8 6 9 7 10 11 11 8 12 10 13
REMARK SMILES IDX 12 14 9 15 95 16 13 17 90 18 5 19 4 20 2 21 1 22 3 23 91 24
REMARK SMILES IDX 92 25 93 26 94 27 21 28 22 29 23 30 24 31 25 32 26 34 27 35
REMARK SMILES IDX 28 36 89 37 29 38 88 39 30 40 31 41 32 42 82 43 33 44 87 45
REMARK SMILES IDX 81 46 83 47 34 48 86 49 80 50 79 51 35 53 67 54 47 55 66 56
REMARK SMILES IDX 48 57 51 58 65 59 84 60 49 61 50 62 64 64 85 65 52 66 36 67
REMARK SMILES IDX 37 68 45 69 38 70 40 71 46 72 39 73 41 74 42 75 43 76 44 77
REMARK SMILES IDX 68 78 69 79 77 80 70 81 72 82 78 83 71 84 73 85 74 86 75 87
REMARK SMILES IDX 76 88 53 89 54 90 62 91 55 92 57 93 63 94 56 95 58 96 59 97
REMARK SMILES IDX 60 98 61 99
REMARK H PARENT 17 7 24 33 83 52 51 63
REMARK Flexibility Score: inf
ROOT
ATOM      1  C   UNL     1      -2.137  12.711   1.283  1.00  0.00     0.002 C 
ENDROOT
BRANCH   1   2
ATOM      2  C   UNL     1      -2.390  11.210   1.448  1.00  0.00     0.021 C 
BRANCH   2   3
ATOM      3  C   UNL     1      -2.326  10.398   0.161  1.00  0.00     0.116 C 
BRANCH   3   4
ATOM      4  N   UNL     1      -0.971  10.201  -0.311  1.00  0.00    -0.352 N 
ATOM      5  C   UNL     1      -0.226   9.131  -0.675  1.00  0.00     0.251 C 
ATOM      6  O   UNL     1       0.915   9.380  -1.078  1.00  0.00    -0.270 OA
ATOM      7  H   UNL     1      -0.473  11.047  -0.385  1.00  0.00     0.163 HD
BRANCH   5   8
ATOM      8  C   UNL     1      -0.683   7.712  -0.587  1.00  0.00     0.067 C 
ATOM      9  C   UNL     1      -0.610   2.676  -0.008  1.00  0.00    -0.026 A 
ATOM     10  C   UNL     1      -1.606   3.627  -0.298  1.00  0.00     0.052 A 
ATOM     11  C   UNL     1       0.702   3.141   0.174  1.00  0.00     0.045 A 
ATOM     12  C   UNL     1      -1.301   4.984  -0.410  1.00  0.00     0.128 A 
ATOM     13  C   UNL     1       1.014   4.494  -0.004  1.00  0.00     0.032 A 
ATOM     14  Cl  UNL     1       1.993   2.128   0.710  1.00  0.00    -0.084 Cl
ATOM     15  C   UNL     1       0.010   5.420  -0.288  1.00  0.00     0.019 A 
ATOM     16  O   UNL     1      -2.353   5.817  -0.625  1.00  0.00    -0.475 OA
ATOM     17  C   UNL     1       0.319   6.833  -0.415  1.00  0.00     0.025 C 
ATOM     18  C   UNL     1      -2.116   7.253  -0.707  1.00  0.00     0.314 C 
BRANCH   9  19
ATOM     19  C   UNL     1      -1.028   1.226   0.112  1.00  0.00     0.037 C 
BRANCH  19  20
ATOM     20  C   UNL     1      -0.876   0.402  -1.181  1.00  0.00     0.008 C 
BRANCH  20  21
ATOM     21  C   UNL     1       0.549  -0.088  -1.503  1.00  0.00    -0.017 C 
ATOM     22  C   UNL     1       1.090  -1.048  -0.440  1.00  0.00     0.007 C 
ATOM     23  C   UNL     1       0.585  -0.787  -2.865  1.00  0.00     0.007 C 
ENDBRANCH  20  21
ENDBRANCH  19  20
ENDBRANCH   9  19
BRANCH  18  24
ATOM     24  C   UNL     1      -2.828   7.732  -1.983  1.00  0.00     0.429 C 
ATOM     25  F   UNL     1      -4.173   7.660  -1.822  1.00  0.00    -0.167 F 
ATOM     26  F   UNL     1      -2.551   9.014  -2.304  1.00  0.00    -0.167 F 
ATOM     27  F   UNL     1      -2.506   6.976  -3.057  1.00  0.00    -0.167 F 
ENDBRANCH  18  24
ENDBRANCH   5   8
ENDBRANCH   3   4
ENDBRANCH   2   3
ENDBRANCH   1   2
BRANCH   1  28
ATOM     28  C   UNL     1      -2.994  13.426   0.232  1.00  0.00     0.002 C 
BRANCH  28  29
ATOM     29  C   UNL     1      -4.497  13.150   0.289  1.00  0.00     0.021 C 
BRANCH  29  30
ATOM     30  C   UNL     1      -5.161  13.438   1.628  1.00  0.00     0.116 C 
BRANCH  30  31
ATOM     31  N   UNL     1      -5.098  14.841   1.996  1.00  0.00    -0.352 N 
ATOM     32  C   UNL     1      -6.116  15.670   2.414  1.00  0.00     0.251 C 
ATOM     33  H   UNL     1      -4.207  15.256   1.939  1.00  0.00     0.163 HD
ATOM     34  O   UNL     1      -5.919  16.868   2.545  1.00  0.00    -0.269 OA
BRANCH  32  35
ATOM     35  C   UNL     1      -7.455  15.091   2.663  1.00  0.00     0.039 A 
ATOM     36  C   UNL     1      -7.593  13.926   3.422  1.00  0.00     0.014 A 
ATOM     37  C   UNL     1      -8.577  15.698   2.093  1.00  0.00     0.014 A 
ATOM     38  C   UNL     1      -8.824  13.282   3.474  1.00  0.00     0.010 A 
ATOM     39  C   UNL     1      -9.829  15.091   2.217  1.00  0.00     0.010 A 
ATOM     40  C   UNL     1      -9.956  13.854   2.867  1.00  0.00    -0.014 A 
BRANCH  40  41
ATOM     41  C   UNL     1     -11.258  13.142   2.934  1.00  0.00     0.031 A 
ATOM     42  C   UNL     1     -11.927  12.630   1.686  1.00  0.00     0.074 A 
ATOM     43  C   UNL     1     -11.823  12.925   4.138  1.00  0.00     0.049 A 
ATOM     44  N   UNL     1     -13.054  11.976   1.571  1.00  0.00    -0.248 NA
ATOM     45  C   UNL     1     -11.251  12.884   0.403  1.00  0.00     0.031 C 
ATOM     46  C   UNL     1     -11.281  13.388   5.417  1.00  0.00     0.029 A 
ATOM     47  N   UNL     1     -12.967  12.252   4.486  1.00  0.00    -0.354 N 
ATOM     48  C   UNL     1     -13.244  11.777   0.209  1.00  0.00     0.074 A 
ATOM     49  C   UNL     1     -12.117  12.380  -0.467  1.00  0.00     0.031 C 
ATOM     50  C   UNL     1     -12.067  12.951   6.412  1.00  0.00     0.029 A 
ATOM     51  C   UNL     1     -13.195  12.222   5.841  1.00  0.00     0.049 A 
ATOM     52  H   UNL     1     -13.566  11.831   3.828  1.00  0.00     0.167 HD
ATOM     53  C   UNL     1     -14.255  11.132  -0.419  1.00  0.00     0.034 A 
ATOM     54  C   UNL     1     -14.201  11.678   6.551  1.00  0.00     0.034 A 
ATOM     55  C   UNL     1     -15.346  10.483   0.256  1.00  0.00     0.049 A 
ATOM     56  C   UNL     1     -15.300  10.954   5.831  1.00  0.00     0.074 A 
ATOM     57  C   UNL     1     -16.390   9.764  -0.299  1.00  0.00     0.029 A 
ATOM     58  N   UNL     1     -15.532  10.466   1.629  1.00  0.00    -0.354 N 
ATOM     59  N   UNL     1     -15.421  10.716   4.548  1.00  0.00    -0.248 NA
ATOM     60  C   UNL     1     -16.393  10.414   6.651  1.00  0.00     0.031 C 
ATOM     61  C   UNL     1     -17.210   9.314   0.739  1.00  0.00     0.029 A 
ATOM     62  C   UNL     1     -16.673   9.749   1.940  1.00  0.00     0.049 A 
ATOM     63  H   UNL     1     -14.940  10.900   2.285  1.00  0.00     0.167 HD
ATOM     64  C   UNL     1     -16.597   9.992   4.406  1.00  0.00     0.074 A 
ATOM     65  C   UNL     1     -17.142   9.810   5.736  1.00  0.00     0.031 C 
ATOM     66  C   UNL     1     -17.180   9.538   3.271  1.00  0.00     0.034 A 
BRANCH  53  67
ATOM     67  C   UNL     1     -14.213  11.039  -1.919  1.00  0.00     0.023 A 
ATOM     68  C   UNL     1     -13.390  10.069  -2.524  1.00  0.00     0.012 A 
ATOM     69  C   UNL     1     -15.060  11.830  -2.720  1.00  0.00     0.148 A 
ATOM     70  C   UNL     1     -13.402   9.893  -3.907  1.00  0.00     0.002 A 
ATOM     71  C   UNL     1     -15.087  11.630  -4.095  1.00  0.00     0.091 A 
ATOM     72  F   UNL     1     -15.824  12.754  -2.121  1.00  0.00    -0.205 F 
ATOM     73  C   UNL     1     -14.257  10.664  -4.690  1.00  0.00     0.022 A 
BRANCH  71  74
ATOM     74  S   UNL     1     -16.190  12.530  -5.190  1.00  0.00     0.127 S 
ATOM     75  O   UNL     1     -15.242  13.315  -5.981  1.00  0.00    -0.237 OA
ATOM     76  O   UNL     1     -16.847  11.448  -5.923  1.00  0.00    -0.237 OA
ATOM     77  O   UNL     1     -17.069  13.307  -4.328  1.00  0.00    -0.744 OA
ENDBRANCH  71  74
ENDBRANCH  53  67
BRANCH  54  78
ATOM     78  C   UNL     1     -14.168  11.766   8.035  1.00  0.00     0.023 A 
ATOM     79  C   UNL     1     -13.819  10.626   8.783  1.00  0.00     0.012 A 
ATOM     80  C   UNL     1     -14.380  12.991   8.696  1.00  0.00     0.148 A 
ATOM     81  C   UNL     1     -13.681  10.705  10.169  1.00  0.00     0.002 A 
ATOM     82  C   UNL     1     -14.197  13.073  10.070  1.00  0.00     0.091 A 
ATOM     83  F   UNL     1     -14.715  14.058   7.958  1.00  0.00    -0.205 F 
ATOM     84  C   UNL     1     -13.857  11.929  10.810  1.00  0.00     0.022 A 
BRANCH  82  85
ATOM     85  S   UNL     1     -14.282  14.626  10.968  1.00  0.00     0.127 S 
ATOM     86  O   UNL     1     -15.431  14.402  11.842  1.00  0.00    -0.237 OA
ATOM     87  O   UNL     1     -12.986  14.649  11.646  1.00  0.00    -0.237 OA
ATOM     88  O   UNL     1     -14.456  15.660   9.957  1.00  0.00    -0.744 OA
ENDBRANCH  82  85
ENDBRANCH  54  78
BRANCH  66  89
ATOM     89  C   UNL     1     -18.478   8.792   3.396  1.00  0.00     0.023 A 
ATOM     90  C   UNL     1     -19.673   9.519   3.558  1.00  0.00     0.012 A 
ATOM     91  C   UNL     1     -18.527   7.396   3.227  1.00  0.00     0.148 A 
ATOM     92  C   UNL     1     -20.903   8.862   3.554  1.00  0.00     0.002 A 
ATOM     93  C   UNL     1     -19.757   6.752   3.192  1.00  0.00     0.091 A 
ATOM     94  F   UNL     1     -17.371   6.730   3.084  1.00  0.00    -0.205 F 
ATOM     95  C   UNL     1     -20.946   7.483   3.359  1.00  0.00     0.022 A 
BRANCH  93  96
ATOM     96  S   UNL     1     -19.922   4.992   2.873  1.00  0.00     0.127 S 
ATOM     97  O   UNL     1     -20.431   4.504   4.154  1.00  0.00    -0.237 OA
ATOM     98  O   UNL     1     -20.893   4.966   1.780  1.00  0.00    -0.237 OA
ATOM     99  O   UNL     1     -18.591   4.520   2.516  1.00  0.00    -0.744 OA
ENDBRANCH  93  96
ENDBRANCH  66  89
ENDBRANCH  40  41
ENDBRANCH  32  35
ENDBRANCH  30  31
ENDBRANCH  29  30
ENDBRANCH  28  29
ENDBRANCH   1  28
TORSDOF 20
