REMARK SMILES O=C(NCCCCCCNC(=O)c1ccccc1C(=O)Nc1ccc(N2C(=O)[C@H]3[C@@H]4CC[C@@H](C4)[C@@H]3C2=O)cc1)c1ccc(-c2c3nc(c(-c4cccc(S(=O)(=O)[O-])c4F)c4ccc([nH]4)c(-c4cccc(S(=O)(=O)[O-])c4F)c4nc(c(-c5cccc(S(=O)(=O)[O-])c5F)c5ccc2[nH]5)C=C4)C=C3)cc1
REMARK SMILES IDX 6 1 5 2 4 3 3 4 1 5 2 6 40 8 41 9 102 10 42 11 101 12 43 13
REMARK SMILES IDX 44 14 45 15 95 16 46 17 100 18 94 19 96 20 47 21 99 22 93 23
REMARK SMILES IDX 92 24 48 26 80 27 60 28 79 29 61 30 64 31 78 32 97 33 62 34
REMARK SMILES IDX 63 35 77 37 98 38 65 39 49 40 50 41 58 42 51 43 53 44 59 45
REMARK SMILES IDX 52 46 54 47 55 48 56 49 57 50 81 51 82 52 90 53 83 54 85 55
REMARK SMILES IDX 91 56 84 57 86 58 87 59 88 60 89 61 66 62 67 63 75 64 68 65
REMARK SMILES IDX 70 66 76 67 69 68 71 69 72 70 73 71 74 72 7 73 8 74 9 75
REMARK SMILES IDX 10 76 11 77 12 79 13 80 14 81 18 82 15 83 17 84 16 85 19 86
REMARK SMILES IDX 20 87 21 88 22 90 23 91 39 92 24 93 38 94 25 95 26 96 27 97
REMARK SMILES IDX 36 98 28 99 29 100 35 101 37 102 30 103 33 104 31 105 34 106
REMARK SMILES IDX 32 107
REMARK H PARENT 3 7 96 25 64 36 10 78 21 89
REMARK Flexibility Score: inf
ROOT
ATOM      1  C   UNL     1       4.659   0.245   3.623  1.00  0.00     0.002 C 
ENDROOT
BRANCH   1   2
ATOM      2  C   UNL     1       4.997   0.848   2.269  1.00  0.00     0.021 C 
BRANCH   2   3
ATOM      3  C   UNL     1       4.568   0.012   1.082  1.00  0.00     0.116 C 
BRANCH   3   4
ATOM      4  N   UNL     1       3.126  -0.164   1.000  1.00  0.00    -0.352 N 
ATOM      5  O   UNL     1       1.104  -0.063  -0.010  1.00  0.00    -0.269 OA
ATOM      6  C   UNL     1       2.324  -0.013  -0.108  1.00  0.00     0.251 C 
ATOM      7  H   UNL     1       2.671  -0.421   1.834  1.00  0.00     0.163 HD
BRANCH   6   8
ATOM      8  C   UNL     1       2.977   0.251  -1.407  1.00  0.00     0.039 A 
ATOM      9  C   UNL     1       4.078  -0.517  -1.795  1.00  0.00     0.014 A 
ATOM     10  C   UNL     1       2.549   1.326  -2.188  1.00  0.00     0.014 A 
ATOM     11  C   UNL     1       4.855  -0.106  -2.866  1.00  0.00     0.010 A 
ATOM     12  C   UNL     1       3.265   1.661  -3.339  1.00  0.00     0.010 A 
ATOM     13  C   UNL     1       4.440   0.967  -3.670  1.00  0.00    -0.014 A 
BRANCH  13  14
ATOM     14  C   UNL     1       5.194   1.267  -4.911  1.00  0.00     0.031 A 
ATOM     15  C   UNL     1       5.840   2.603  -5.141  1.00  0.00     0.074 A 
ATOM     16  C   UNL     1       5.264   0.305  -5.852  1.00  0.00     0.049 A 
ATOM     17  N   UNL     1       6.503   3.022  -6.188  1.00  0.00    -0.248 NA
ATOM     18  C   UNL     1       5.721   3.602  -4.068  1.00  0.00     0.031 C 
ATOM     19  C   UNL     1       4.633  -1.014  -5.752  1.00  0.00     0.029 A 
ATOM     20  N   UNL     1       5.876   0.286  -7.078  1.00  0.00    -0.354 N 
ATOM     21  C   UNL     1       6.837   4.345  -5.927  1.00  0.00     0.074 A 
ATOM     22  C   UNL     1       6.303   4.660  -4.618  1.00  0.00     0.031 C 
ATOM     23  C   UNL     1       4.899  -1.717  -6.859  1.00  0.00     0.029 A 
ATOM     24  C   UNL     1       5.649  -0.874  -7.779  1.00  0.00     0.049 A 
ATOM     25  H   UNL     1       6.424   1.029  -7.422  1.00  0.00     0.167 HD
ATOM     26  C   UNL     1       7.528   5.212  -6.706  1.00  0.00     0.034 A 
ATOM     27  C   UNL     1       5.964  -1.212  -9.042  1.00  0.00     0.034 A 
ATOM     28  C   UNL     1       8.065   4.876  -8.001  1.00  0.00     0.049 A 
ATOM     29  C   UNL     1       6.731  -0.237  -9.880  1.00  0.00     0.074 A 
ATOM     30  C   UNL     1       8.845   5.657  -8.836  1.00  0.00     0.029 A 
ATOM     31  N   UNL     1       7.857   3.673  -8.660  1.00  0.00    -0.354 N 
ATOM     32  N   UNL     1       7.152   0.964  -9.565  1.00  0.00    -0.248 NA
ATOM     33  C   UNL     1       7.093  -0.669 -11.235  1.00  0.00     0.031 C 
ATOM     34  C   UNL     1       9.067   4.944 -10.019  1.00  0.00     0.029 A 
ATOM     35  C   UNL     1       8.471   3.699  -9.902  1.00  0.00     0.049 A 
ATOM     36  H   UNL     1       7.348   2.913  -8.298  1.00  0.00     0.167 HD
ATOM     37  C   UNL     1       7.850   1.423 -10.672  1.00  0.00     0.074 A 
ATOM     38  C   UNL     1       7.814   0.360 -11.657  1.00  0.00     0.031 C 
ATOM     39  C   UNL     1       8.457   2.621 -10.859  1.00  0.00     0.034 A 
BRANCH  26  40
ATOM     40  C   UNL     1       7.746   6.610  -6.183  1.00  0.00     0.023 A 
ATOM     41  C   UNL     1       8.615   6.831  -5.096  1.00  0.00     0.012 A 
ATOM     42  C   UNL     1       7.127   7.714  -6.804  1.00  0.00     0.148 A 
ATOM     43  C   UNL     1       8.830   8.120  -4.606  1.00  0.00     0.002 A 
ATOM     44  C   UNL     1       7.383   9.000  -6.341  1.00  0.00     0.091 A 
ATOM     45  F   UNL     1       6.290   7.487  -7.826  1.00  0.00    -0.205 F 
ATOM     46  C   UNL     1       8.222   9.204  -5.234  1.00  0.00     0.022 A 
BRANCH  44  47
ATOM     47  S   UNL     1       6.714  10.466  -7.135  1.00  0.00     0.127 S 
ATOM     48  O   UNL     1       5.723  10.906  -6.154  1.00  0.00    -0.237 OA
ATOM     49  O   UNL     1       7.893  11.326  -7.238  1.00  0.00    -0.237 OA
ATOM     50  O   UNL     1       6.175  10.021  -8.412  1.00  0.00    -0.744 OA
ENDBRANCH  44  47
ENDBRANCH  26  40
BRANCH  27  51
ATOM     51  C   UNL     1       5.542  -2.539  -9.566  1.00  0.00     0.023 A 
ATOM     52  C   UNL     1       6.505  -3.536  -9.806  1.00  0.00     0.012 A 
ATOM     53  C   UNL     1       4.177  -2.837  -9.755  1.00  0.00     0.148 A 
ATOM     54  C   UNL     1       6.117  -4.801 -10.249  1.00  0.00     0.002 A 
ATOM     55  C   UNL     1       3.794  -4.115 -10.135  1.00  0.00     0.091 A 
ATOM     56  F   UNL     1       3.279  -1.869  -9.521  1.00  0.00    -0.205 F 
ATOM     57  C   UNL     1       4.763  -5.094 -10.400  1.00  0.00     0.022 A 
BRANCH  55  58
ATOM     58  S   UNL     1       2.073  -4.623 -10.210  1.00  0.00     0.127 S 
ATOM     59  O   UNL     1       1.888  -4.835 -11.643  1.00  0.00    -0.237 OA
ATOM     60  O   UNL     1       2.086  -5.843  -9.402  1.00  0.00    -0.237 OA
ATOM     61  O   UNL     1       1.310  -3.526  -9.631  1.00  0.00    -0.744 OA
ENDBRANCH  55  58
ENDBRANCH  27  51
BRANCH  39  62
ATOM     62  C   UNL     1       9.171   2.837 -12.167  1.00  0.00     0.023 A 
ATOM     63  C   UNL     1       8.434   3.012 -13.355  1.00  0.00     0.012 A 
ATOM     64  C   UNL     1      10.576   2.934 -12.203  1.00  0.00     0.148 A 
ATOM     65  C   UNL     1       9.087   3.247 -14.565  1.00  0.00     0.002 A 
ATOM     66  C   UNL     1      11.216   3.223 -13.401  1.00  0.00     0.091 A 
ATOM     67  F   UNL     1      11.258   2.744 -11.065  1.00  0.00    -0.205 F 
ATOM     68  C   UNL     1      10.475   3.366 -14.585  1.00  0.00     0.022 A 
BRANCH  66  69
ATOM     69  S   UNL     1      12.988   3.492 -13.506  1.00  0.00     0.127 S 
ATOM     70  O   UNL     1      13.422   2.322 -14.269  1.00  0.00    -0.237 OA
ATOM     71  O   UNL     1      13.065   4.759 -14.233  1.00  0.00    -0.237 OA
ATOM     72  O   UNL     1      13.471   3.550 -12.133  1.00  0.00    -0.744 OA
ENDBRANCH  66  69
ENDBRANCH  39  62
ENDBRANCH  13  14
ENDBRANCH   6   8
ENDBRANCH   3   4
ENDBRANCH   2   3
ENDBRANCH   1   2
BRANCH   1  73
ATOM     73  C   UNL     1       5.045  -1.224   3.824  1.00  0.00     0.002 C 
BRANCH  73  74
ATOM     74  C   UNL     1       6.526  -1.557   3.590  1.00  0.00     0.021 C 
BRANCH  74  75
ATOM     75  C   UNL     1       7.470  -0.941   4.617  1.00  0.00     0.116 C 
BRANCH  75  76
ATOM     76  N   UNL     1       7.260  -1.510   5.934  1.00  0.00    -0.352 N 
ATOM     77  C   UNL     1       8.037  -1.440   7.053  1.00  0.00     0.252 C 
ATOM     78  H   UNL     1       6.429  -2.027   6.036  1.00  0.00     0.163 HD
ATOM     79  O   UNL     1       7.767  -2.143   8.027  1.00  0.00    -0.269 OA
BRANCH  77  80
ATOM     80  C   UNL     1       9.273  -0.638   7.095  1.00  0.00     0.052 A 
ATOM     81  C   UNL     1      10.391  -1.409   7.496  1.00  0.00     0.014 A 
ATOM     82  C   UNL     1       9.436   0.720   6.781  1.00  0.00     0.052 A 
ATOM     83  C   UNL     1      11.679  -0.884   7.491  1.00  0.00     0.001 A 
ATOM     84  C   UNL     1      10.764   1.215   6.748  1.00  0.00     0.014 A 
ATOM     85  C   UNL     1      11.868   0.425   7.085  1.00  0.00     0.001 A 
BRANCH  82  86
ATOM     86  C   UNL     1       8.412   1.725   6.351  1.00  0.00     0.256 C 
ATOM     87  O   UNL     1       8.768   2.559   5.510  1.00  0.00    -0.269 OA
ATOM     88  N   UNL     1       7.087   1.772   6.717  1.00  0.00    -0.322 N 
ATOM     89  H   UNL     1       6.559   2.431   6.211  1.00  0.00     0.170 HD
BRANCH  88  90
ATOM     90  C   UNL     1       6.348   1.068   7.665  1.00  0.00     0.041 A 
ATOM     91  C   UNL     1       5.092   0.600   7.263  1.00  0.00     0.028 A 
ATOM     92  C   UNL     1       6.832   0.753   8.925  1.00  0.00     0.028 A 
ATOM     93  C   UNL     1       4.464  -0.416   7.976  1.00  0.00     0.029 A 
ATOM     94  C   UNL     1       6.124  -0.155   9.714  1.00  0.00     0.029 A 
ATOM     95  C   UNL     1       4.999  -0.817   9.194  1.00  0.00     0.052 A 
BRANCH  95  96
ATOM     96  N   UNL     1       4.532  -1.970   9.840  1.00  0.00    -0.250 N 
ATOM     97  C   UNL     1       4.364  -2.037  11.227  1.00  0.00     0.237 C 
ATOM     98  C   UNL     1       4.532  -3.245   9.234  1.00  0.00     0.237 C 
ATOM     99  O   UNL     1       4.138  -1.164  12.038  1.00  0.00    -0.274 OA
ATOM    100  C   UNL     1       4.727  -3.447  11.516  1.00  0.00     0.095 C 
ATOM    101  C   UNL     1       4.062  -4.144  10.341  1.00  0.00     0.095 C 
ATOM    102  O   UNL     1       4.752  -3.577   8.083  1.00  0.00    -0.274 OA
ATOM    103  C   UNL     1       4.470  -4.406  12.672  1.00  0.00     0.002 C 
ATOM    104  C   UNL     1       4.234  -5.601  10.760  1.00  0.00     0.002 C 
ATOM    105  C   UNL     1       5.729  -5.300  12.688  1.00  0.00     0.005 C 
ATOM    106  C   UNL     1       3.484  -5.455  12.111  1.00  0.00     0.009 C 
ATOM    107  C   UNL     1       5.651  -5.973  11.286  1.00  0.00     0.005 C 
ENDBRANCH  95  96
ENDBRANCH  88  90
ENDBRANCH  82  86
ENDBRANCH  77  80
ENDBRANCH  75  76
ENDBRANCH  74  75
ENDBRANCH  73  74
ENDBRANCH   1  73
TORSDOF 19
