REMARK SMILES C[C@H](CCO)S[C@H]1CC[C@]([NH2+]C2CC2)(C(=O)NCCCCCCNC(=O)c2ccc(-c3c4nc(c(-c5cccc(S(=O)(=O)[O-])c5F)c5ccc([nH]5)c(-c5cccc(S(=O)(=O)[O-])c5F)c5nc(c(-c6cccc(S(=O)(=O)[O-])c6F)c6ccc3[nH]6)C=C5)C=C4)cc2)C1
REMARK SMILES IDX 19 1 18 2 17 3 15 4 16 5 10 7 7 8 8 9 90 10 9 11 6 12 2 13
REMARK SMILES IDX 1 14 3 15 4 16 5 17 11 19 12 22 13 23 14 24 20 25 21 26
REMARK SMILES IDX 22 27 23 28 24 29 25 30 26 32 27 33 28 34 89 35 29 36 88 37
REMARK SMILES IDX 30 38 31 39 32 40 82 41 33 42 87 43 81 44 83 45 34 46 86 47
REMARK SMILES IDX 80 48 79 49 35 51 67 52 47 53 66 54 48 55 51 56 65 57 84 58
REMARK SMILES IDX 49 59 50 60 64 62 85 63 52 64 36 65 37 66 45 67 38 68 40 69
REMARK SMILES IDX 46 70 39 71 41 72 42 73 43 74 44 75 68 76 69 77 77 78 70 79
REMARK SMILES IDX 72 80 78 81 71 82 73 83 74 84 75 85 76 86 53 87 54 88 62 89
REMARK SMILES IDX 55 90 57 91 63 92 56 93 58 94 59 95 60 96 61 97
REMARK H PARENT 17 6 5 18 11 20 11 21 24 31 83 50 51 61
REMARK Flexibility Score: inf
ROOT
ATOM      1  C   UNL     1      -1.385   4.078  -6.501  1.00  0.00     0.021 C 
ENDROOT
BRANCH   1   2
ATOM      2  C   UNL     1      -1.652   2.650  -6.038  1.00  0.00     0.116 C 
BRANCH   2   3
ATOM      3  N   UNL     1      -0.454   1.908  -5.674  1.00  0.00    -0.351 N 
ATOM      4  C   UNL     1      -0.332   0.881  -4.761  1.00  0.00     0.281 C 
ATOM      5  O   UNL     1       0.747   0.283  -4.722  1.00  0.00    -0.268 OA
ATOM      6  H   UNL     1       0.373   2.171  -6.137  1.00  0.00     0.163 HD
BRANCH   4   7
ATOM      7  C   UNL     1      -1.504   0.580  -3.748  1.00  0.00     0.176 C 
ATOM      8  C   UNL     1      -1.839   1.148  -1.336  1.00  0.00     0.054 C 
ATOM      9  C   UNL     1      -1.393  -0.324  -1.429  1.00  0.00     0.022 C 
ATOM     10  C   UNL     1      -1.393   1.695  -2.688  1.00  0.00     0.093 C 
ATOM     11  C   UNL     1      -1.264  -0.699  -2.917  1.00  0.00     0.080 C 
BRANCH   8  12
ATOM     12  S   UNL     1      -3.615   1.206  -0.891  1.00  0.00    -0.155 SA
BRANCH  12  13
ATOM     13  C   UNL     1      -3.981   2.968  -0.424  1.00  0.00     0.046 C 
ATOM     14  C   UNL     1      -5.451   2.943   0.014  1.00  0.00     0.019 C 
BRANCH  13  15
ATOM     15  C   UNL     1      -3.659   4.033  -1.494  1.00  0.00     0.042 C 
BRANCH  15  16
ATOM     16  C   UNL     1      -4.781   4.900  -2.057  1.00  0.00     0.157 C 
BRANCH  16  17
ATOM     17  O   UNL     1      -5.368   5.702  -1.050  1.00  0.00    -0.396 OA
ATOM     18  H   UNL     1      -5.750   5.131  -0.364  1.00  0.00     0.210 HD
ENDBRANCH  16  17
ENDBRANCH  15  16
ENDBRANCH  13  15
ENDBRANCH  12  13
ENDBRANCH   8  12
BRANCH   7  19
ATOM     19  N   UNL     1      -2.720   0.435  -4.578  1.00  0.00    -0.331 N 
ATOM     20  H   UNL     1      -2.631  -0.454  -5.070  1.00  0.00     0.347 HD
ATOM     21  H   UNL     1      -2.719   1.293  -5.130  1.00  0.00     0.347 HD
BRANCH  19  22
ATOM     22  C   UNL     1      -4.045   0.445  -3.974  1.00  0.00     0.183 C 
ATOM     23  C   UNL     1      -4.859   1.712  -3.945  1.00  0.00     0.071 C 
ATOM     24  C   UNL     1      -5.223   0.625  -4.900  1.00  0.00     0.071 C 
ENDBRANCH  19  22
ENDBRANCH   7  19
ENDBRANCH   4   7
ENDBRANCH   2   3
ENDBRANCH   1   2
BRANCH   1  25
ATOM     25  C   UNL     1      -0.581   4.222  -7.793  1.00  0.00     0.002 C 
BRANCH  25  26
ATOM     26  C   UNL     1      -1.152   3.510  -9.022  1.00  0.00     0.002 C 
BRANCH  26  27
ATOM     27  C   UNL     1      -2.603   3.843  -9.380  1.00  0.00     0.021 C 
BRANCH  27  28
ATOM     28  C   UNL     1      -2.921   5.327  -9.545  1.00  0.00     0.116 C 
BRANCH  28  29
ATOM     29  N   UNL     1      -2.123   5.961 -10.583  1.00  0.00    -0.352 N 
ATOM     30  C   UNL     1      -2.527   6.718 -11.654  1.00  0.00     0.251 C 
ATOM     31  H   UNL     1      -1.151   5.828 -10.506  1.00  0.00     0.163 HD
ATOM     32  O   UNL     1      -1.709   7.039 -12.518  1.00  0.00    -0.269 OA
BRANCH  30  33
ATOM     33  C   UNL     1      -3.941   7.130 -11.789  1.00  0.00     0.039 A 
ATOM     34  C   UNL     1      -4.563   7.006 -13.035  1.00  0.00     0.014 A 
ATOM     35  C   UNL     1      -4.652   7.639 -10.699  1.00  0.00     0.014 A 
ATOM     36  C   UNL     1      -5.915   7.332 -13.170  1.00  0.00     0.010 A 
ATOM     37  C   UNL     1      -6.017   7.894 -10.819  1.00  0.00     0.010 A 
ATOM     38  C   UNL     1      -6.664   7.743 -12.055  1.00  0.00    -0.014 A 
BRANCH  38  39
ATOM     39  C   UNL     1      -8.128   7.981 -12.160  1.00  0.00     0.031 A 
ATOM     40  C   UNL     1      -8.707   9.342 -11.886  1.00  0.00     0.074 A 
ATOM     41  C   UNL     1      -8.949   6.943 -12.418  1.00  0.00     0.049 A 
ATOM     42  N   UNL     1      -9.959   9.720 -11.888  1.00  0.00    -0.248 NA
ATOM     43  C   UNL     1      -7.760  10.414 -11.538  1.00  0.00     0.031 C 
ATOM     44  C   UNL     1      -8.519   5.557 -12.618  1.00  0.00     0.029 A 
ATOM     45  N   UNL     1     -10.316   6.885 -12.527  1.00  0.00    -0.354 N 
ATOM     46  C   UNL     1      -9.956  11.056 -11.508  1.00  0.00     0.074 A 
ATOM     47  C   UNL     1      -8.578  11.418 -11.255  1.00  0.00     0.031 C 
ATOM     48  C   UNL     1      -9.599   4.787 -12.823  1.00  0.00     0.029 A 
ATOM     49  C   UNL     1     -10.798   5.614 -12.736  1.00  0.00     0.049 A 
ATOM     50  H   UNL     1     -10.897   7.678 -12.461  1.00  0.00     0.167 HD
ATOM     51  C   UNL     1     -11.001  11.912 -11.401  1.00  0.00     0.034 A 
ATOM     52  C   UNL     1     -12.063   5.158 -12.831  1.00  0.00     0.034 A 
ATOM     53  C   UNL     1     -12.366  11.558 -11.686  1.00  0.00     0.049 A 
ATOM     54  C   UNL     1     -13.203   6.135 -12.746  1.00  0.00     0.074 A 
ATOM     55  C   UNL     1     -13.480  12.379 -11.708  1.00  0.00     0.029 A 
ATOM     56  N   UNL     1     -12.810  10.277 -11.976  1.00  0.00    -0.354 N 
ATOM     57  N   UNL     1     -13.164   7.432 -12.560  1.00  0.00    -0.248 NA
ATOM     58  C   UNL     1     -14.558   5.593 -12.919  1.00  0.00     0.031 C 
ATOM     59  C   UNL     1     -14.602  11.587 -11.972  1.00  0.00     0.029 A 
ATOM     60  C   UNL     1     -14.183  10.280 -12.155  1.00  0.00     0.049 A 
ATOM     61  H   UNL     1     -12.233   9.482 -12.045  1.00  0.00     0.167 HD
ATOM     62  C   UNL     1     -14.484   7.866 -12.621  1.00  0.00     0.074 A 
ATOM     63  C   UNL     1     -15.295   6.696 -12.889  1.00  0.00     0.031 C 
ATOM     64  C   UNL     1     -14.979   9.117 -12.458  1.00  0.00     0.034 A 
BRANCH  51  65
ATOM     65  C   UNL     1     -10.707  13.332 -10.990  1.00  0.00     0.023 A 
ATOM     66  C   UNL     1     -10.035  14.196 -11.880  1.00  0.00     0.012 A 
ATOM     67  C   UNL     1     -11.149  13.830  -9.748  1.00  0.00     0.148 A 
ATOM     68  C   UNL     1      -9.775  15.519 -11.527  1.00  0.00     0.002 A 
ATOM     69  C   UNL     1     -10.928  15.164  -9.423  1.00  0.00     0.091 A 
ATOM     70  F   UNL     1     -11.768  12.991  -8.906  1.00  0.00    -0.205 F 
ATOM     71  C   UNL     1     -10.230  16.005 -10.305  1.00  0.00     0.022 A 
BRANCH  69  72
ATOM     72  S   UNL     1     -11.547  15.907  -7.910  1.00  0.00     0.127 S 
ATOM     73  O   UNL     1     -10.310  16.122  -7.160  1.00  0.00    -0.237 OA
ATOM     74  O   UNL     1     -12.181  17.130  -8.405  1.00  0.00    -0.237 OA
ATOM     75  O   UNL     1     -12.467  14.937  -7.332  1.00  0.00    -0.744 OA
ENDBRANCH  69  72
ENDBRANCH  51  65
BRANCH  52  76
ATOM     76  C   UNL     1     -12.311   3.706 -13.060  1.00  0.00     0.023 A 
ATOM     77  C   UNL     1     -12.812   3.272 -14.302  1.00  0.00     0.012 A 
ATOM     78  C   UNL     1     -12.018   2.753 -12.065  1.00  0.00     0.148 A 
ATOM     79  C   UNL     1     -13.046   1.916 -14.539  1.00  0.00     0.002 A 
ATOM     80  C   UNL     1     -12.197   1.401 -12.328  1.00  0.00     0.091 A 
ATOM     81  F   UNL     1     -11.552   3.190 -10.887  1.00  0.00    -0.205 F 
ATOM     82  C   UNL     1     -12.728   0.981 -13.557  1.00  0.00     0.022 A 
BRANCH  80  83
ATOM     83  S   UNL     1     -11.686   0.121 -11.177  1.00  0.00     0.127 S 
ATOM     84  O   UNL     1     -12.971  -0.430 -10.753  1.00  0.00    -0.237 OA
ATOM     85  O   UNL     1     -10.892  -0.757 -12.037  1.00  0.00    -0.237 OA
ATOM     86  O   UNL     1     -10.919   0.802 -10.143  1.00  0.00    -0.744 OA
ENDBRANCH  80  83
ENDBRANCH  52  76
BRANCH  64  87
ATOM     87  C   UNL     1     -16.469   9.303 -12.590  1.00  0.00     0.023 A 
ATOM     88  C   UNL     1     -17.330   8.812 -11.588  1.00  0.00     0.012 A 
ATOM     89  C   UNL     1     -17.009  10.024 -13.672  1.00  0.00     0.148 A 
ATOM     90  C   UNL     1     -18.708   9.006 -11.680  1.00  0.00     0.002 A 
ATOM     91  C   UNL     1     -18.378  10.259 -13.730  1.00  0.00     0.091 A 
ATOM     92  F   UNL     1     -16.176  10.469 -14.624  1.00  0.00    -0.205 F 
ATOM     93  C   UNL     1     -19.230   9.739 -12.743  1.00  0.00     0.022 A 
BRANCH  91  94
ATOM     94  S   UNL     1     -19.129  11.274 -15.008  1.00  0.00     0.127 S 
ATOM     95  O   UNL     1     -19.858  10.277 -15.790  1.00  0.00    -0.237 OA
ATOM     96  O   UNL     1     -19.977  12.176 -14.227  1.00  0.00    -0.237 OA
ATOM     97  O   UNL     1     -18.029  11.929 -15.702  1.00  0.00    -0.744 OA
ENDBRANCH  91  94
ENDBRANCH  64  87
ENDBRANCH  38  39
ENDBRANCH  30  33
ENDBRANCH  28  29
ENDBRANCH  27  28
ENDBRANCH  26  27
ENDBRANCH  25  26
ENDBRANCH   1  25
TORSDOF 23
