REMARK SMILES C[C@]1(C(=O)NCCCCCCNC(=O)c2ccc(-c3c4nc(c(-c5cccc(S(=O)(=O)[O-])c5F)c5ccc([nH]5)c(-c5cccc(S(=O)(=O)[O-])c5F)c5nc(c(-c6cccc(S(=O)(=O)[O-])c6F)c6ccc3[nH]6)C=C5)C=C4)cc2)COC[C@@H]1NC(=O)[C@H]1C=C[C@@H]([NH3+])C1
REMARK SMILES IDX 8 1 7 2 6 3 5 4 3 5 4 6 2 8 1 9 78 10 81 11 79 12 80 13
REMARK SMILES IDX 82 14 83 15 84 17 85 18 86 19 90 20 87 21 88 22 89 23 9 27
REMARK SMILES IDX 10 28 11 29 12 30 13 31 14 33 15 34 16 35 77 36 17 37 76 38
REMARK SMILES IDX 18 39 19 40 20 41 70 42 21 43 75 44 69 45 71 46 22 47 74 48
REMARK SMILES IDX 68 49 67 50 23 52 55 53 35 54 54 55 36 56 39 57 53 58 72 59
REMARK SMILES IDX 37 60 38 61 52 63 73 64 40 65 24 66 25 67 33 68 26 69 28 70
REMARK SMILES IDX 34 71 27 72 29 73 30 74 31 75 32 76 56 77 57 78 65 79 58 80
REMARK SMILES IDX 60 81 66 82 59 83 61 84 62 85 63 86 64 87 41 88 42 89 50 90
REMARK SMILES IDX 43 91 45 92 51 93 44 94 46 95 47 96 48 97 49 98
REMARK H PARENT 5 7 82 16 89 24 89 25 89 26 12 32 71 51 39 62
REMARK Flexibility Score: inf
ROOT
ATOM      1  C   UNL     1      -1.487  -3.321   1.196  1.00  0.00     0.002 C 
ENDROOT
BRANCH   1   2
ATOM      2  C   UNL     1      -1.736  -1.814   1.338  1.00  0.00     0.021 C 
BRANCH   2   3
ATOM      3  C   UNL     1      -0.532  -1.053   1.895  1.00  0.00     0.116 C 
BRANCH   3   4
ATOM      4  N   UNL     1       0.484  -0.912   0.873  1.00  0.00    -0.355 N 
ATOM      5  C   UNL     1       0.745   0.102   0.008  1.00  0.00     0.230 C 
ATOM      6  O   UNL     1       1.575  -0.141  -0.873  1.00  0.00    -0.274 OA
ATOM      7  H   UNL     1       1.090  -1.683   0.791  1.00  0.00     0.163 HD
BRANCH   5   8
ATOM      8  C   UNL     1       0.121   1.494   0.170  1.00  0.00     0.092 C 
ATOM      9  C   UNL     1      -1.416   1.521   0.253  1.00  0.00     0.026 C 
ATOM     10  C   UNL     1       0.756   2.175   1.381  1.00  0.00     0.179 C 
ATOM     11  C   UNL     1       0.624   2.424  -0.958  1.00  0.00     0.125 C 
ATOM     12  O   UNL     1       0.744   3.586   1.133  1.00  0.00    -0.378 OA
ATOM     13  C   UNL     1       0.689   3.795  -0.282  1.00  0.00     0.186 C 
BRANCH  11  14
ATOM     14  N   UNL     1      -0.204   2.428  -2.166  1.00  0.00    -0.349 N 
ATOM     15  C   UNL     1       0.136   2.716  -3.453  1.00  0.00     0.227 C 
ATOM     16  H   UNL     1      -1.149   2.185  -2.027  1.00  0.00     0.163 HD
ATOM     17  O   UNL     1      -0.758   2.681  -4.301  1.00  0.00    -0.274 OA
BRANCH  15  18
ATOM     18  C   UNL     1       1.591   3.024  -3.790  1.00  0.00     0.107 C 
ATOM     19  C   UNL     1       2.220   1.828  -4.447  1.00  0.00    -0.012 C 
ATOM     20  C   UNL     1       1.712   4.101  -4.878  1.00  0.00     0.087 C 
ATOM     21  C   UNL     1       2.896   2.166  -5.551  1.00  0.00     0.033 C 
ATOM     22  C   UNL     1       2.854   3.638  -5.790  1.00  0.00     0.205 C 
BRANCH  22  23
ATOM     23  N   UNL     1       2.601   3.975  -7.178  1.00  0.00    -0.352 N 
ATOM     24  H   UNL     1       1.717   3.560  -7.473  1.00  0.00     0.345 HD
ATOM     25  H   UNL     1       3.357   3.613  -7.759  1.00  0.00     0.345 HD
ATOM     26  H   UNL     1       2.551   4.989  -7.278  1.00  0.00     0.345 HD
ENDBRANCH  22  23
ENDBRANCH  15  18
ENDBRANCH  11  14
ENDBRANCH   5   8
ENDBRANCH   3   4
ENDBRANCH   2   3
ENDBRANCH   1   2
BRANCH   1  27
ATOM     27  C   UNL     1      -1.136  -4.037   2.505  1.00  0.00     0.002 C 
BRANCH  27  28
ATOM     28  C   UNL     1      -2.122  -3.795   3.651  1.00  0.00     0.021 C 
BRANCH  28  29
ATOM     29  C   UNL     1      -3.553  -4.221   3.344  1.00  0.00     0.116 C 
BRANCH  29  30
ATOM     30  N   UNL     1      -3.645  -5.655   3.114  1.00  0.00    -0.352 N 
ATOM     31  C   UNL     1      -4.400  -6.585   3.779  1.00  0.00     0.251 C 
ATOM     32  H   UNL     1      -3.089  -6.004   2.381  1.00  0.00     0.163 HD
ATOM     33  O   UNL     1      -4.177  -7.786   3.621  1.00  0.00    -0.269 OA
BRANCH  31  34
ATOM     34  C   UNL     1      -5.473  -6.141   4.691  1.00  0.00     0.039 A 
ATOM     35  C   UNL     1      -5.602  -6.753   5.940  1.00  0.00     0.014 A 
ATOM     36  C   UNL     1      -6.354  -5.124   4.310  1.00  0.00     0.014 A 
ATOM     37  C   UNL     1      -6.586  -6.310   6.826  1.00  0.00     0.010 A 
ATOM     38  C   UNL     1      -7.281  -4.633   5.223  1.00  0.00     0.010 A 
ATOM     39  C   UNL     1      -7.416  -5.228   6.486  1.00  0.00    -0.014 A 
BRANCH  39  40
ATOM     40  C   UNL     1      -8.429  -4.706   7.438  1.00  0.00     0.031 A 
ATOM     41  C   UNL     1      -9.893  -4.756   7.088  1.00  0.00     0.074 A 
ATOM     42  C   UNL     1      -8.028  -4.120   8.584  1.00  0.00     0.049 A 
ATOM     43  N   UNL     1     -10.917  -4.299   7.761  1.00  0.00    -0.248 NA
ATOM     44  C   UNL     1     -10.253  -5.379   5.802  1.00  0.00     0.031 C 
ATOM     45  C   UNL     1      -6.635  -3.944   9.003  1.00  0.00     0.029 A 
ATOM     46  N   UNL     1      -8.752  -3.538   9.595  1.00  0.00    -0.354 N 
ATOM     47  C   UNL     1     -12.034  -4.550   6.972  1.00  0.00     0.074 A 
ATOM     48  C   UNL     1     -11.560  -5.165   5.753  1.00  0.00     0.031 C 
ATOM     49  C   UNL     1      -6.607  -3.303  10.182  1.00  0.00     0.029 A 
ATOM     50  C   UNL     1      -7.973  -2.990  10.588  1.00  0.00     0.049 A 
ATOM     51  H   UNL     1      -9.736  -3.514   9.608  1.00  0.00     0.167 HD
ATOM     52  C   UNL     1     -13.338  -4.318   7.250  1.00  0.00     0.034 A 
ATOM     53  C   UNL     1      -8.320  -2.303  11.694  1.00  0.00     0.034 A 
ATOM     54  C   UNL     1     -13.809  -3.740   8.480  1.00  0.00     0.049 A 
ATOM     55  C   UNL     1      -9.780  -2.080  11.987  1.00  0.00     0.074 A 
ATOM     56  C   UNL     1     -15.116  -3.533   8.887  1.00  0.00     0.029 A 
ATOM     57  N   UNL     1     -12.994  -3.272   9.498  1.00  0.00    -0.354 N 
ATOM     58  N   UNL     1     -10.828  -2.460  11.297  1.00  0.00    -0.248 NA
ATOM     59  C   UNL     1     -10.107  -1.366  13.230  1.00  0.00     0.031 C 
ATOM     60  C   UNL     1     -15.089  -2.914  10.140  1.00  0.00     0.029 A 
ATOM     61  C   UNL     1     -13.768  -2.769  10.529  1.00  0.00     0.049 A 
ATOM     62  H   UNL     1     -12.010  -3.294   9.489  1.00  0.00     0.167 HD
ATOM     63  C   UNL     1     -11.935  -2.069  12.041  1.00  0.00     0.074 A 
ATOM     64  C   UNL     1     -11.430  -1.444  13.245  1.00  0.00     0.031 C 
ATOM     65  C   UNL     1     -13.252  -2.203  11.748  1.00  0.00     0.034 A 
BRANCH  52  66
ATOM     66  C   UNL     1     -14.363  -4.739   6.228  1.00  0.00     0.023 A 
ATOM     67  C   UNL     1     -14.619  -6.110   6.026  1.00  0.00     0.012 A 
ATOM     68  C   UNL     1     -15.125  -3.783   5.529  1.00  0.00     0.148 A 
ATOM     69  C   UNL     1     -15.597  -6.525   5.123  1.00  0.00     0.002 A 
ATOM     70  C   UNL     1     -16.130  -4.203   4.665  1.00  0.00     0.091 A 
ATOM     71  F   UNL     1     -14.854  -2.484   5.722  1.00  0.00    -0.205 F 
ATOM     72  C   UNL     1     -16.360  -5.572   4.453  1.00  0.00     0.022 A 
BRANCH  70  73
ATOM     73  S   UNL     1     -17.223  -3.059   3.815  1.00  0.00     0.127 S 
ATOM     74  O   UNL     1     -16.833  -3.261   2.420  1.00  0.00    -0.237 OA
ATOM     75  O   UNL     1     -18.544  -3.584   4.161  1.00  0.00    -0.237 OA
ATOM     76  O   UNL     1     -16.929  -1.740   4.357  1.00  0.00    -0.744 OA
ENDBRANCH  70  73
ENDBRANCH  52  66
BRANCH  53  77
ATOM     77  C   UNL     1      -7.273  -1.813  12.636  1.00  0.00     0.023 A 
ATOM     78  C   UNL     1      -7.178  -2.376  13.924  1.00  0.00     0.012 A 
ATOM     79  C   UNL     1      -6.376  -0.792  12.266  1.00  0.00     0.148 A 
ATOM     80  C   UNL     1      -6.241  -1.899  14.842  1.00  0.00     0.002 A 
ATOM     81  C   UNL     1      -5.406  -0.363  13.164  1.00  0.00     0.091 A 
ATOM     82  F   UNL     1      -6.488  -0.261  11.040  1.00  0.00    -0.205 F 
ATOM     83  C   UNL     1      -5.350  -0.899  14.460  1.00  0.00     0.022 A 
BRANCH  81  84
ATOM     84  S   UNL     1      -4.137   0.824  12.711  1.00  0.00     0.127 S 
ATOM     85  O   UNL     1      -4.561   2.012  13.446  1.00  0.00    -0.237 OA
ATOM     86  O   UNL     1      -2.925   0.182  13.223  1.00  0.00    -0.237 OA
ATOM     87  O   UNL     1      -4.193   0.921  11.258  1.00  0.00    -0.744 OA
ENDBRANCH  81  84
ENDBRANCH  53  77
BRANCH  65  88
ATOM     88  C   UNL     1     -14.249  -1.712  12.765  1.00  0.00     0.023 A 
ATOM     89  C   UNL     1     -14.425  -0.329  12.970  1.00  0.00     0.012 A 
ATOM     90  C   UNL     1     -15.063  -2.625  13.465  1.00  0.00     0.148 A 
ATOM     91  C   UNL     1     -15.371   0.136  13.884  1.00  0.00     0.002 A 
ATOM     92  C   UNL     1     -16.039  -2.152  14.333  1.00  0.00     0.091 A 
ATOM     93  F   UNL     1     -14.868  -3.937  13.268  1.00  0.00    -0.205 F 
ATOM     94  C   UNL     1     -16.185  -0.773  14.555  1.00  0.00     0.022 A 
BRANCH  92  95
ATOM     95  S   UNL     1     -17.199  -3.243  15.165  1.00  0.00     0.127 S 
ATOM     96  O   UNL     1     -16.744  -3.159  16.552  1.00  0.00    -0.237 OA
ATOM     97  O   UNL     1     -18.481  -2.587  14.903  1.00  0.00    -0.237 OA
ATOM     98  O   UNL     1     -17.047  -4.548  14.537  1.00  0.00    -0.744 OA
ENDBRANCH  92  95
ENDBRANCH  65  88
ENDBRANCH  39  40
ENDBRANCH  31  34
ENDBRANCH  29  30
ENDBRANCH  28  29
ENDBRANCH  27  28
ENDBRANCH   1  27
TORSDOF 19
