REMARK SMILES CC(C)Cc1ccc([C@H](CF)C(=O)NCCCCCCNC(=O)c2ccc(-c3c4nc(c(-c5cccc(S(=O)(=O)[O-])c5F)c5ccc([nH]5)c(-c5cccc(S(=O)(=O)[O-])c5F)c5nc(c(-c6cccc(S(=O)(=O)[O-])c6F)c6ccc3[nH]6)C=C5)C=C4)cc2)cc1
REMARK SMILES IDX 17 1 16 2 15 3 14 4 12 5 13 6 9 8 8 9 5 10 6 11 88 12 7 13
REMARK SMILES IDX 87 14 4 15 2 16 1 17 3 18 10 19 11 20 18 21 19 22 20 23
REMARK SMILES IDX 21 24 22 25 23 27 24 28 25 29 86 30 26 31 85 32 27 33 28 34
REMARK SMILES IDX 29 35 79 36 30 37 84 38 78 39 80 40 31 41 83 42 77 43 76 44
REMARK SMILES IDX 32 46 64 47 44 48 63 49 45 50 48 51 62 52 81 53 46 54 47 55
REMARK SMILES IDX 61 57 82 58 49 59 33 60 34 61 42 62 35 63 37 64 43 65 36 66
REMARK SMILES IDX 38 67 39 68 40 69 41 70 65 71 66 72 74 73 67 74 69 75 75 76
REMARK SMILES IDX 68 77 70 78 71 79 72 80 73 81 50 82 51 83 59 84 52 85 54 86
REMARK SMILES IDX 60 87 53 88 55 89 56 90 57 91 58 92
REMARK H PARENT 14 7 21 26 80 45 48 56
REMARK Flexibility Score: inf
ROOT
ATOM      1  C   UNL     1      -1.915   1.826  -4.901  1.00  0.00     0.002 C 
ENDROOT
BRANCH   1   2
ATOM      2  C   UNL     1      -2.312   0.850  -3.792  1.00  0.00     0.021 C 
BRANCH   2   3
ATOM      3  C   UNL     1      -3.097  -0.366  -4.274  1.00  0.00     0.116 C 
BRANCH   3   4
ATOM      4  N   UNL     1      -2.251  -1.301  -4.991  1.00  0.00    -0.355 N 
ATOM      5  C   UNL     1      -2.073  -2.642  -4.814  1.00  0.00     0.230 C 
ATOM      6  O   UNL     1      -1.326  -3.225  -5.606  1.00  0.00    -0.274 OA
ATOM      7  H   UNL     1      -1.720  -0.906  -5.720  1.00  0.00     0.163 HD
BRANCH   5   8
ATOM      8  C   UNL     1      -2.752  -3.408  -3.674  1.00  0.00     0.139 C 
BRANCH   8   9
ATOM      9  C   UNL     1      -4.267  -3.434  -3.844  1.00  0.00    -0.033 A 
ATOM     10  C   UNL     1      -7.012  -3.238  -4.490  1.00  0.00    -0.048 A 
ATOM     11  C   UNL     1      -6.149  -3.983  -5.297  1.00  0.00     0.004 A 
ATOM     12  C   UNL     1      -6.513  -2.665  -3.316  1.00  0.00     0.004 A 
ATOM     13  C   UNL     1      -4.793  -4.075  -4.980  1.00  0.00     0.005 A 
ATOM     14  C   UNL     1      -5.160  -2.784  -2.982  1.00  0.00     0.005 A 
BRANCH  10  15
ATOM     15  C   UNL     1      -8.445  -3.005  -4.909  1.00  0.00     0.038 C 
BRANCH  15  16
ATOM     16  C   UNL     1      -8.679  -1.604  -5.515  1.00  0.00    -0.013 C 
ATOM     17  C   UNL     1      -7.931  -1.407  -6.838  1.00  0.00     0.008 C 
ATOM     18  C   UNL     1     -10.176  -1.376  -5.735  1.00  0.00     0.008 C 
ENDBRANCH  15  16
ENDBRANCH  10  15
ENDBRANCH   8   9
BRANCH   8  19
ATOM     19  C   UNL     1      -2.156  -2.954  -2.345  1.00  0.00     0.232 C 
ATOM     20  F   UNL     1      -2.337  -3.930  -1.411  1.00  0.00    -0.250 F 
ENDBRANCH   8  19
ENDBRANCH   5   8
ENDBRANCH   3   4
ENDBRANCH   2   3
ENDBRANCH   1   2
BRANCH   1  21
ATOM     21  C   UNL     1      -3.080   2.391  -5.720  1.00  0.00     0.002 C 
BRANCH  21  22
ATOM     22  C   UNL     1      -4.207   3.034  -4.905  1.00  0.00     0.021 C 
BRANCH  22  23
ATOM     23  C   UNL     1      -3.768   4.157  -3.970  1.00  0.00     0.116 C 
BRANCH  23  24
ATOM     24  N   UNL     1      -3.140   5.255  -4.687  1.00  0.00    -0.352 N 
ATOM     25  C   UNL     1      -3.424   6.595  -4.650  1.00  0.00     0.251 C 
ATOM     26  H   UNL     1      -2.402   4.999  -5.287  1.00  0.00     0.163 HD
ATOM     27  O   UNL     1      -2.903   7.351  -5.473  1.00  0.00    -0.269 OA
BRANCH  25  28
ATOM     28  C   UNL     1      -4.361   7.135  -3.642  1.00  0.00     0.039 A 
ATOM     29  C   UNL     1      -5.305   8.084  -4.040  1.00  0.00     0.014 A 
ATOM     30  C   UNL     1      -4.301   6.724  -2.307  1.00  0.00     0.014 A 
ATOM     31  C   UNL     1      -6.219   8.585  -3.111  1.00  0.00     0.010 A 
ATOM     32  C   UNL     1      -5.261   7.168  -1.400  1.00  0.00     0.010 A 
ATOM     33  C   UNL     1      -6.224   8.110  -1.788  1.00  0.00    -0.014 A 
BRANCH  33  34
ATOM     34  C   UNL     1      -7.242   8.580  -0.813  1.00  0.00     0.031 A 
ATOM     35  C   UNL     1      -6.832   9.332   0.424  1.00  0.00     0.074 A 
ATOM     36  C   UNL     1      -8.538   8.265  -1.008  1.00  0.00     0.049 A 
ATOM     37  N   UNL     1      -7.582   9.808   1.385  1.00  0.00    -0.248 NA
ATOM     38  C   UNL     1      -5.391   9.554   0.625  1.00  0.00     0.031 C 
ATOM     39  C   UNL     1      -9.053   7.462  -2.119  1.00  0.00     0.029 A 
ATOM     40  N   UNL     1      -9.654   8.560  -0.266  1.00  0.00    -0.354 N 
ATOM     41  C   UNL     1      -6.708  10.352   2.318  1.00  0.00     0.074 A 
ATOM     42  C   UNL     1      -5.368  10.117   1.825  1.00  0.00     0.031 C 
ATOM     43  C   UNL     1     -10.383   7.334  -1.989  1.00  0.00     0.029 A 
ATOM     44  C   UNL     1     -10.812   8.020  -0.774  1.00  0.00     0.049 A 
ATOM     45  H   UNL     1      -9.628   9.105   0.553  1.00  0.00     0.167 HD
ATOM     46  C   UNL     1      -6.992  11.012   3.466  1.00  0.00     0.034 A 
ATOM     47  C   UNL     1     -12.078   8.067  -0.314  1.00  0.00     0.034 A 
ATOM     48  C   UNL     1      -8.327  11.276   3.934  1.00  0.00     0.049 A 
ATOM     49  C   UNL     1     -12.374   8.852   0.934  1.00  0.00     0.074 A 
ATOM     50  C   UNL     1      -8.722  12.024   5.029  1.00  0.00     0.029 A 
ATOM     51  N   UNL     1      -9.484  10.789   3.346  1.00  0.00    -0.354 N 
ATOM     52  N   UNL     1     -11.549   9.513   1.708  1.00  0.00    -0.248 NA
ATOM     53  C   UNL     1     -13.782   8.932   1.349  1.00  0.00     0.031 C 
ATOM     54  C   UNL     1     -10.117  11.961   5.122  1.00  0.00     0.029 A 
ATOM     55  C   UNL     1     -10.593  11.204   4.064  1.00  0.00     0.049 A 
ATOM     56  H   UNL     1      -9.513  10.229   2.537  1.00  0.00     0.167 HD
ATOM     57  C   UNL     1     -12.337  10.112   2.684  1.00  0.00     0.074 A 
ATOM     58  C   UNL     1     -13.710   9.756   2.385  1.00  0.00     0.031 C 
ATOM     59  C   UNL     1     -11.958  10.876   3.738  1.00  0.00     0.034 A 
BRANCH  46  60
ATOM     60  C   UNL     1      -5.834  11.532   4.280  1.00  0.00     0.023 A 
ATOM     61  C   UNL     1      -5.063  12.608   3.792  1.00  0.00     0.012 A 
ATOM     62  C   UNL     1      -5.539  10.993   5.548  1.00  0.00     0.148 A 
ATOM     63  C   UNL     1      -3.993  13.110   4.532  1.00  0.00     0.002 A 
ATOM     64  C   UNL     1      -4.502  11.531   6.301  1.00  0.00     0.091 A 
ATOM     65  F   UNL     1      -6.268   9.957   5.988  1.00  0.00    -0.205 F 
ATOM     66  C   UNL     1      -3.720  12.579   5.789  1.00  0.00     0.022 A 
BRANCH  64  67
ATOM     67  S   UNL     1      -4.122  10.972   7.965  1.00  0.00     0.127 S 
ATOM     68  O   UNL     1      -2.863  10.259   7.756  1.00  0.00    -0.237 OA
ATOM     69  O   UNL     1      -3.994  12.235   8.692  1.00  0.00    -0.237 OA
ATOM     70  O   UNL     1      -5.248  10.146   8.377  1.00  0.00    -0.744 OA
ENDBRANCH  64  67
ENDBRANCH  46  60
BRANCH  47  71
ATOM     71  C   UNL     1     -13.166   7.397  -1.080  1.00  0.00     0.023 A 
ATOM     72  C   UNL     1     -14.118   8.178  -1.763  1.00  0.00     0.012 A 
ATOM     73  C   UNL     1     -13.236   5.994  -1.170  1.00  0.00     0.148 A 
ATOM     74  C   UNL     1     -15.138   7.574  -2.499  1.00  0.00     0.002 A 
ATOM     75  C   UNL     1     -14.219   5.399  -1.952  1.00  0.00     0.091 A 
ATOM     76  F   UNL     1     -12.325   5.269  -0.505  1.00  0.00    -0.205 F 
ATOM     77  C   UNL     1     -15.182   6.186  -2.602  1.00  0.00     0.022 A 
BRANCH  75  78
ATOM     78  S   UNL     1     -14.268   3.629  -2.255  1.00  0.00     0.127 S 
ATOM     79  O   UNL     1     -15.480   3.236  -1.540  1.00  0.00    -0.237 OA
ATOM     80  O   UNL     1     -14.368   3.577  -3.714  1.00  0.00    -0.237 OA
ATOM     81  O   UNL     1     -13.021   3.101  -1.720  1.00  0.00    -0.744 OA
ENDBRANCH  75  78
ENDBRANCH  47  71
BRANCH  59  82
ATOM     82  C   UNL     1     -13.044  11.405   4.640  1.00  0.00     0.023 A 
ATOM     83  C   UNL     1     -13.742  10.526   5.492  1.00  0.00     0.012 A 
ATOM     84  C   UNL     1     -13.332  12.784   4.685  1.00  0.00     0.148 A 
ATOM     85  C   UNL     1     -14.739  11.004   6.343  1.00  0.00     0.002 A 
ATOM     86  C   UNL     1     -14.289  13.260   5.574  1.00  0.00     0.091 A 
ATOM     87  F   UNL     1     -12.671  13.604   3.855  1.00  0.00    -0.205 F 
ATOM     88  C   UNL     1     -15.004  12.370   6.392  1.00  0.00     0.022 A 
BRANCH  86  89
ATOM     89  S   UNL     1     -14.626  15.013   5.775  1.00  0.00     0.127 S 
ATOM     90  O   UNL     1     -15.926  15.143   5.119  1.00  0.00    -0.237 OA
ATOM     91  O   UNL     1     -14.660  15.158   7.231  1.00  0.00    -0.237 OA
ATOM     92  O   UNL     1     -13.524  15.710   5.125  1.00  0.00    -0.744 OA
ENDBRANCH  86  89
ENDBRANCH  59  82
ENDBRANCH  33  34
ENDBRANCH  25  28
ENDBRANCH  23  24
ENDBRANCH  22  23
ENDBRANCH  21  22
ENDBRANCH   1  21
TORSDOF 20
