REMARK SMILES COc1ccc(-c2nc3cc(N4C[C@@H](C(=O)NCCCCCCNC(=O)c5ccc(-c6c7nc(c(-c8cccc(S(=O)(=O)[O-])c8F)c8ccc([nH]8)c(-c8cccc(S(=O)(=O)[O-])c8F)c8nc(c(-c9cccc(S(=O)(=O)[O-])c9F)c9ccc6[nH]9)C=C8)C=C7)cc5)CC4=O)ccc3o2)cc1
REMARK SMILES IDX 20 1 19 2 18 3 17 4 15 5 16 6 14 8 12 9 13 10 91 11 90 12
REMARK SMILES IDX 92 13 11 14 7 15 8 16 96 17 9 18 95 19 10 20 94 21 93 22
REMARK SMILES IDX 6 23 3 24 4 25 98 26 5 27 97 28 2 29 1 30 21 31 22 32 23 33
REMARK SMILES IDX 24 34 25 35 26 37 27 38 28 39 89 40 29 41 88 42 30 43 31 44
REMARK SMILES IDX 32 45 82 46 33 47 87 48 81 49 83 50 34 51 86 52 80 53 79 54
REMARK SMILES IDX 35 56 67 57 47 58 66 59 48 60 51 61 65 62 84 63 49 64 50 65
REMARK SMILES IDX 64 67 85 68 52 69 36 70 37 71 45 72 38 73 40 74 46 75 39 76
REMARK SMILES IDX 41 77 42 78 43 79 44 80 68 81 69 82 77 83 70 84 72 85 78 86
REMARK SMILES IDX 71 87 73 88 74 89 75 90 76 91 53 92 54 93 62 94 55 95 57 96
REMARK SMILES IDX 63 97 56 98 58 99 59 100 60 101 61 102
REMARK H PARENT 17 7 24 36 83 55 51 66
REMARK Flexibility Score: inf
ROOT
ATOM      1  C   UNL     1      10.426  -2.702  14.818  1.00  0.00     0.002 C 
ENDROOT
BRANCH   1   2
ATOM      2  C   UNL     1       9.597  -3.346  13.701  1.00  0.00     0.021 C 
BRANCH   2   3
ATOM      3  C   UNL     1       8.906  -2.338  12.785  1.00  0.00     0.116 C 
BRANCH   3   4
ATOM      4  N   UNL     1       9.885  -1.604  12.002  1.00  0.00    -0.356 N 
ATOM      5  C   UNL     1      10.139  -1.590  10.671  1.00  0.00     0.225 C 
ATOM      6  O   UNL     1      11.085  -0.905  10.274  1.00  0.00    -0.275 OA
ATOM      7  H   UNL     1      10.467  -1.012  12.532  1.00  0.00     0.163 HD
BRANCH   5   8
ATOM      8  C   UNL     1       9.263  -2.313   9.675  1.00  0.00     0.107 C 
ATOM      9  N   UNL     1       6.971  -2.800   9.460  1.00  0.00    -0.312 N 
ATOM     10  C   UNL     1       7.882  -1.697   9.635  1.00  0.00     0.139 C 
ATOM     11  C   UNL     1       7.580  -4.035   9.696  1.00  0.00     0.227 C 
ATOM     12  C   UNL     1       9.064  -3.805   9.882  1.00  0.00     0.116 C 
ATOM     13  O   UNL     1       7.079  -5.142   9.686  1.00  0.00    -0.274 OA
BRANCH   9  14
ATOM     14  C   UNL     1       5.635  -2.619   9.023  1.00  0.00     0.046 A 
ATOM     15  C   UNL     1       2.538  -1.199   6.180  1.00  0.00     0.227 A 
ATOM     16  N   UNL     1       3.716  -0.706   6.503  1.00  0.00    -0.209 NA
ATOM     17  O   UNL     1       2.083  -2.210   6.991  1.00  0.00    -0.436 OA
ATOM     18  C   UNL     1       4.121  -1.509   7.521  1.00  0.00     0.112 A 
ATOM     19  C   UNL     1       3.143  -2.433   7.836  1.00  0.00     0.155 A 
ATOM     20  C   UNL     1       5.360  -1.554   8.156  1.00  0.00     0.058 A 
ATOM     21  C   UNL     1       3.309  -3.427   8.790  1.00  0.00     0.051 A 
ATOM     22  C   UNL     1       4.604  -3.523   9.347  1.00  0.00     0.030 A 
BRANCH  15  23
ATOM     23  C   UNL     1       1.843  -0.947   4.931  1.00  0.00     0.037 A 
ATOM     24  C   UNL     1       0.722  -0.237   2.453  1.00  0.00     0.118 A 
ATOM     25  C   UNL     1      -0.060  -0.257   3.615  1.00  0.00     0.047 A 
ATOM     26  C   UNL     1       2.064  -0.597   2.528  1.00  0.00     0.047 A 
ATOM     27  C   UNL     1       0.490  -0.624   4.852  1.00  0.00     0.017 A 
ATOM     28  C   UNL     1       2.617  -0.941   3.759  1.00  0.00     0.017 A 
BRANCH  24  29
ATOM     29  O   UNL     1       0.078   0.176   1.317  1.00  0.00    -0.497 OA
ATOM     30  C   UNL     1       0.785   0.003   0.094  1.00  0.00     0.278 C 
ENDBRANCH  24  29
ENDBRANCH  15  23
ENDBRANCH   9  14
ENDBRANCH   5   8
ENDBRANCH   3   4
ENDBRANCH   2   3
ENDBRANCH   1   2
BRANCH   1  31
ATOM     31  C   UNL     1       9.652  -1.742  15.727  1.00  0.00     0.002 C 
BRANCH  31  32
ATOM     32  C   UNL     1       8.380  -2.322  16.349  1.00  0.00     0.021 C 
BRANCH  32  33
ATOM     33  C   UNL     1       8.594  -3.590  17.169  1.00  0.00     0.116 C 
BRANCH  33  34
ATOM     34  N   UNL     1       9.462  -3.361  18.313  1.00  0.00    -0.352 N 
ATOM     35  C   UNL     1       9.256  -3.683  19.631  1.00  0.00     0.251 C 
ATOM     36  H   UNL     1      10.316  -2.913  18.115  1.00  0.00     0.163 HD
ATOM     37  O   UNL     1      10.014  -3.251  20.495  1.00  0.00    -0.269 OA
BRANCH  35  38
ATOM     38  C   UNL     1       8.108  -4.537  20.007  1.00  0.00     0.039 A 
ATOM     39  C   UNL     1       7.318  -4.167  21.098  1.00  0.00     0.014 A 
ATOM     40  C   UNL     1       7.814  -5.698  19.286  1.00  0.00     0.014 A 
ATOM     41  C   UNL     1       6.201  -4.935  21.435  1.00  0.00     0.010 A 
ATOM     42  C   UNL     1       6.661  -6.420  19.579  1.00  0.00     0.010 A 
ATOM     43  C   UNL     1       5.848  -6.053  20.662  1.00  0.00    -0.014 A 
BRANCH  43  44
ATOM     44  C   UNL     1       4.634  -6.852  20.969  1.00  0.00     0.031 A 
ATOM     45  C   UNL     1       4.761  -8.296  21.372  1.00  0.00     0.074 A 
ATOM     46  C   UNL     1       3.415  -6.302  20.804  1.00  0.00     0.049 A 
ATOM     47  N   UNL     1       3.819  -9.168  21.622  1.00  0.00    -0.248 NA
ATOM     48  C   UNL     1       6.125  -8.840  21.483  1.00  0.00     0.031 C 
ATOM     49  C   UNL     1       3.158  -4.935  20.345  1.00  0.00     0.029 A 
ATOM     50  N   UNL     1       2.162  -6.834  20.977  1.00  0.00    -0.354 N 
ATOM     51  C   UNL     1       4.471 -10.368  21.884  1.00  0.00     0.074 A 
ATOM     52  C   UNL     1       5.888 -10.121  21.726  1.00  0.00     0.031 C 
ATOM     53  C   UNL     1       1.832  -4.735  20.278  1.00  0.00     0.029 A 
ATOM     54  C   UNL     1       1.144  -5.964  20.660  1.00  0.00     0.049 A 
ATOM     55  H   UNL     1       2.006  -7.752  21.298  1.00  0.00     0.167 HD
ATOM     56  C   UNL     1       3.943 -11.559  22.253  1.00  0.00     0.034 A 
ATOM     57  C   UNL     1      -0.192  -6.139  20.672  1.00  0.00     0.034 A 
ATOM     58  C   UNL     1       2.538 -11.789  22.452  1.00  0.00     0.049 A 
ATOM     59  C   UNL     1      -0.753  -7.461  21.123  1.00  0.00     0.074 A 
ATOM     60  C   UNL     1       1.909 -12.935  22.905  1.00  0.00     0.029 A 
ATOM     61  N   UNL     1       1.541 -10.857  22.206  1.00  0.00    -0.354 N 
ATOM     62  N   UNL     1      -0.115  -8.536  21.517  1.00  0.00    -0.248 NA
ATOM     63  C   UNL     1      -2.217  -7.581  21.167  1.00  0.00     0.031 C 
ATOM     64  C   UNL     1       0.530 -12.702  22.915  1.00  0.00     0.029 A 
ATOM     65  C   UNL     1       0.302 -11.402  22.492  1.00  0.00     0.049 A 
ATOM     66  H   UNL     1       1.693  -9.942  21.876  1.00  0.00     0.167 HD
ATOM     67  C   UNL     1      -1.097  -9.446  21.894  1.00  0.00     0.074 A 
ATOM     68  C   UNL     1      -2.372  -8.787  21.697  1.00  0.00     0.031 C 
ATOM     69  C   UNL     1      -0.957 -10.716  22.348  1.00  0.00     0.034 A 
BRANCH  56  70
ATOM     70  C   UNL     1       4.899 -12.692  22.524  1.00  0.00     0.023 A 
ATOM     71  C   UNL     1       5.716 -12.650  23.673  1.00  0.00     0.012 A 
ATOM     72  C   UNL     1       4.955 -13.817  21.679  1.00  0.00     0.148 A 
ATOM     73  C   UNL     1       6.602 -13.689  23.956  1.00  0.00     0.002 A 
ATOM     74  C   UNL     1       5.808 -14.871  21.992  1.00  0.00     0.091 A 
ATOM     75  F   UNL     1       4.188 -13.832  20.580  1.00  0.00    -0.205 F 
ATOM     76  C   UNL     1       6.640 -14.803  23.122  1.00  0.00     0.022 A 
BRANCH  74  77
ATOM     77  S   UNL     1       5.873 -16.383  21.025  1.00  0.00     0.127 S 
ATOM     78  O   UNL     1       7.165 -16.248  20.353  1.00  0.00    -0.237 OA
ATOM     79  O   UNL     1       5.831 -17.415  22.062  1.00  0.00    -0.237 OA
ATOM     80  O   UNL     1       4.707 -16.352  20.153  1.00  0.00    -0.744 OA
ENDBRANCH  74  77
ENDBRANCH  56  70
BRANCH  57  81
ATOM     81  C   UNL     1      -1.094  -5.006  20.317  1.00  0.00     0.023 A 
ATOM     82  C   UNL     1      -1.861  -4.394  21.328  1.00  0.00     0.012 A 
ATOM     83  C   UNL     1      -1.177  -4.516  19.000  1.00  0.00     0.148 A 
ATOM     84  C   UNL     1      -2.719  -3.335  21.028  1.00  0.00     0.002 A 
ATOM     85  C   UNL     1      -1.992  -3.425  18.718  1.00  0.00     0.091 A 
ATOM     86  F   UNL     1      -0.448  -5.119  18.050  1.00  0.00    -0.205 F 
ATOM     87  C   UNL     1      -2.777  -2.845  19.726  1.00  0.00     0.022 A 
BRANCH  85  88
ATOM     88  S   UNL     1      -2.030  -2.644  17.101  1.00  0.00     0.127 S 
ATOM     89  O   UNL     1      -3.349  -3.034  16.611  1.00  0.00    -0.237 OA
ATOM     90  O   UNL     1      -1.892  -1.228  17.445  1.00  0.00    -0.237 OA
ATOM     91  O   UNL     1      -0.895  -3.195  16.372  1.00  0.00    -0.744 OA
ENDBRANCH  85  88
ENDBRANCH  57  81
BRANCH  69  92
ATOM     92  C   UNL     1      -2.208 -11.473  22.706  1.00  0.00     0.023 A 
ATOM     93  C   UNL     1      -3.062 -11.940  21.688  1.00  0.00     0.012 A 
ATOM     94  C   UNL     1      -2.496 -11.787  24.050  1.00  0.00     0.148 A 
ATOM     95  C   UNL     1      -4.201 -12.681  22.003  1.00  0.00     0.002 A 
ATOM     96  C   UNL     1      -3.606 -12.567  24.352  1.00  0.00     0.091 A 
ATOM     97  F   UNL     1      -1.682 -11.316  25.006  1.00  0.00    -0.205 F 
ATOM     98  C   UNL     1      -4.465 -13.005  23.332  1.00  0.00     0.022 A 
BRANCH  96  99
ATOM     99  S   UNL     1      -3.970 -13.114  26.024  1.00  0.00     0.127 S 
ATOM    100  O   UNL     1      -5.121 -12.280  26.366  1.00  0.00    -0.237 OA
ATOM    101  O   UNL     1      -4.279 -14.530  25.828  1.00  0.00    -0.237 OA
ATOM    102  O   UNL     1      -2.762 -12.863  26.800  1.00  0.00    -0.744 OA
ENDBRANCH  96  99
ENDBRANCH  69  92
ENDBRANCH  43  44
ENDBRANCH  35  38
ENDBRANCH  33  34
ENDBRANCH  32  33
ENDBRANCH  31  32
ENDBRANCH   1  31
TORSDOF 19
