REMARK SMILES C[C@@H](c1cccc(F)c1)[C@@](C)(O)C(=O)NCCCCCCNC(=O)c1ccc(-c2c3nc(c(-c4cccc(S(=O)(=O)[O-])c4F)c4ccc([nH]4)c(-c4cccc(S(=O)(=O)[O-])c4F)c4nc(c(-c5cccc(S(=O)(=O)[O-])c5F)c5ccc2[nH]5)C=C4)C=C3)cc1
REMARK SMILES IDX 19 1 18 2 17 3 16 4 15 5 13 6 14 7 10 9 11 10 2 11 1 12 3 13
REMARK SMILES IDX 4 14 9 15 5 16 7 17 6 18 8 19 12 20 20 22 21 23 22 24 23 25
REMARK SMILES IDX 24 27 25 28 26 29 87 30 27 31 86 32 28 33 29 34 30 35 80 36
REMARK SMILES IDX 31 37 85 38 79 39 81 40 32 41 84 42 78 43 77 44 33 46 65 47
REMARK SMILES IDX 45 48 64 49 46 50 49 51 63 52 82 53 47 54 48 55 62 57 83 58
REMARK SMILES IDX 50 59 34 60 35 61 43 62 36 63 38 64 44 65 37 66 39 67 40 68
REMARK SMILES IDX 41 69 42 70 66 71 67 72 75 73 68 74 70 75 76 76 69 77 71 78
REMARK SMILES IDX 72 79 73 80 74 81 51 82 52 83 60 84 53 85 55 86 61 87 54 88
REMARK SMILES IDX 56 89 57 90 58 91 59 92
REMARK H PARENT 15 8 12 21 22 26 81 45 49 56
REMARK Flexibility Score: inf
ROOT
ATOM      1  C   UNL     1      -6.447   1.538   1.323  1.00  0.00     0.002 C 
ENDROOT
BRANCH   1   2
ATOM      2  C   UNL     1      -5.567   1.420   2.571  1.00  0.00     0.002 C 
BRANCH   2   3
ATOM      3  C   UNL     1      -4.815   0.093   2.727  1.00  0.00     0.021 C 
BRANCH   3   4
ATOM      4  C   UNL     1      -4.011  -0.337   1.503  1.00  0.00     0.116 C 
BRANCH   4   5
ATOM      5  N   UNL     1      -3.034   0.663   1.118  1.00  0.00    -0.354 N 
ATOM      6  C   UNL     1      -1.686   0.573   0.936  1.00  0.00     0.252 C 
ATOM      7  O   UNL     1      -1.136   1.589   0.500  1.00  0.00    -0.272 OA
ATOM      8  H   UNL     1      -3.408   1.560   0.961  1.00  0.00     0.163 HD
BRANCH   6   9
ATOM      9  C   UNL     1      -0.931  -0.775   1.148  1.00  0.00     0.146 C 
ATOM     10  C   UNL     1      -1.278  -1.669  -0.059  1.00  0.00     0.053 C 
BRANCH   9  11
ATOM     11  C   UNL     1       0.626  -0.617   1.284  1.00  0.00     0.057 C 
ATOM     12  C   UNL     1       1.351  -0.049   0.055  1.00  0.00     0.016 C 
BRANCH  11  13
ATOM     13  C   UNL     1       1.062   0.077   2.577  1.00  0.00    -0.039 A 
ATOM     14  C   UNL     1       1.032   1.472   2.734  1.00  0.00     0.004 A 
ATOM     15  C   UNL     1       1.489  -0.700   3.668  1.00  0.00     0.043 A 
ATOM     16  C   UNL     1       1.393   2.071   3.945  1.00  0.00     0.003 A 
ATOM     17  C   UNL     1       1.856  -0.093   4.866  1.00  0.00     0.123 A 
ATOM     18  C   UNL     1       1.806   1.285   5.017  1.00  0.00     0.039 A 
ATOM     19  F   UNL     1       2.263  -0.854   5.891  1.00  0.00    -0.207 F 
ENDBRANCH  11  13
ENDBRANCH   9  11
BRANCH   9  20
ATOM     20  O   UNL     1      -1.387  -1.459   2.328  1.00  0.00    -0.380 OA
ATOM     21  H   UNL     1      -0.898  -2.290   2.429  1.00  0.00     0.212 HD
ENDBRANCH   9  20
ENDBRANCH   6   9
ENDBRANCH   4   5
ENDBRANCH   3   4
ENDBRANCH   2   3
ENDBRANCH   1   2
BRANCH   1  22
ATOM     22  C   UNL     1      -7.478   0.423   1.142  1.00  0.00     0.021 C 
BRANCH  22  23
ATOM     23  C   UNL     1      -8.427   0.231   2.317  1.00  0.00     0.116 C 
BRANCH  23  24
ATOM     24  N   UNL     1      -9.238   1.412   2.570  1.00  0.00    -0.352 N 
ATOM     25  C   UNL     1     -10.601   1.512   2.700  1.00  0.00     0.251 C 
ATOM     26  H   UNL     1      -8.741   2.257   2.659  1.00  0.00     0.163 HD
ATOM     27  O   UNL     1     -11.137   2.617   2.733  1.00  0.00    -0.269 OA
BRANCH  25  28
ATOM     28  C   UNL     1     -11.422   0.285   2.779  1.00  0.00     0.039 A 
ATOM     29  C   UNL     1     -12.587   0.200   2.013  1.00  0.00     0.014 A 
ATOM     30  C   UNL     1     -11.040  -0.782   3.598  1.00  0.00     0.014 A 
ATOM     31  C   UNL     1     -13.337  -0.977   2.025  1.00  0.00     0.010 A 
ATOM     32  C   UNL     1     -11.745  -1.981   3.547  1.00  0.00     0.010 A 
ATOM     33  C   UNL     1     -12.905  -2.090   2.766  1.00  0.00    -0.014 A 
BRANCH  33  34
ATOM     34  C   UNL     1     -13.644  -3.378   2.723  1.00  0.00     0.031 A 
ATOM     35  C   UNL     1     -14.259  -3.945   3.974  1.00  0.00     0.074 A 
ATOM     36  C   UNL     1     -13.700  -4.075   1.570  1.00  0.00     0.049 A 
ATOM     37  N   UNL     1     -14.897  -5.074   4.137  1.00  0.00    -0.248 NA
ATOM     38  C   UNL     1     -14.121  -3.154   5.209  1.00  0.00     0.031 C 
ATOM     39  C   UNL     1     -13.084  -3.665   0.306  1.00  0.00     0.029 A 
ATOM     40  N   UNL     1     -14.284  -5.282   1.277  1.00  0.00    -0.354 N 
ATOM     41  C   UNL     1     -15.209  -5.144   5.489  1.00  0.00     0.074 A 
ATOM     42  C   UNL     1     -14.661  -3.960   6.112  1.00  0.00     0.031 C 
ATOM     43  C   UNL     1     -13.332  -4.597  -0.627  1.00  0.00     0.029 A 
ATOM     44  C   UNL     1     -14.091  -5.688  -0.024  1.00  0.00     0.049 A 
ATOM     45  H   UNL     1     -14.793  -5.809   1.935  1.00  0.00     0.167 HD
ATOM     46  C   UNL     1     -15.914  -6.094   6.146  1.00  0.00     0.034 A 
ATOM     47  C   UNL     1     -14.473  -6.814  -0.660  1.00  0.00     0.034 A 
ATOM     48  C   UNL     1     -16.495  -7.248   5.515  1.00  0.00     0.049 A 
ATOM     49  C   UNL     1     -15.278  -7.841   0.089  1.00  0.00     0.074 A 
ATOM     50  C   UNL     1     -17.298  -8.220   6.084  1.00  0.00     0.029 A 
ATOM     51  N   UNL     1     -16.334  -7.590   4.182  1.00  0.00    -0.354 N 
ATOM     52  N   UNL     1     -15.684  -7.819   1.335  1.00  0.00    -0.248 NA
ATOM     53  C   UNL     1     -15.708  -9.031  -0.660  1.00  0.00     0.031 C 
ATOM     54  C   UNL     1     -17.593  -9.170   5.104  1.00  0.00     0.029 A 
ATOM     55  C   UNL     1     -17.011  -8.767   3.913  1.00  0.00     0.049 A 
ATOM     56  H   UNL     1     -15.816  -7.073   3.524  1.00  0.00     0.167 HD
ATOM     57  C   UNL     1     -16.442  -8.971   1.511  1.00  0.00     0.074 A 
ATOM     58  C   UNL     1     -16.455  -9.661   0.237  1.00  0.00     0.031 C 
ATOM     59  C   UNL     1     -17.061  -9.421   2.630  1.00  0.00     0.034 A 
BRANCH  46  60
ATOM     60  C   UNL     1     -16.156  -5.909   7.622  1.00  0.00     0.023 A 
ATOM     61  C   UNL     1     -17.058  -4.918   8.059  1.00  0.00     0.012 A 
ATOM     62  C   UNL     1     -15.582  -6.786   8.563  1.00  0.00     0.148 A 
ATOM     63  C   UNL     1     -17.370  -4.789   9.412  1.00  0.00     0.002 A 
ATOM     64  C   UNL     1     -15.937  -6.684   9.903  1.00  0.00     0.091 A 
ATOM     65  F   UNL     1     -14.713  -7.710   8.129  1.00  0.00    -0.205 F 
ATOM     66  C   UNL     1     -16.822  -5.681  10.330  1.00  0.00     0.022 A 
BRANCH  64  67
ATOM     67  S   UNL     1     -15.360  -7.839  11.152  1.00  0.00     0.127 S 
ATOM     68  O   UNL     1     -14.530  -6.974  11.992  1.00  0.00    -0.237 OA
ATOM     69  O   UNL     1     -16.613  -8.270  11.772  1.00  0.00    -0.237 OA
ATOM     70  O   UNL     1     -14.640  -8.883  10.437  1.00  0.00    -0.744 OA
ENDBRANCH  64  67
ENDBRANCH  46  60
BRANCH  47  71
ATOM     71  C   UNL     1     -14.149  -6.991  -2.104  1.00  0.00     0.023 A 
ATOM     72  C   UNL     1     -15.183  -6.931  -3.058  1.00  0.00     0.012 A 
ATOM     73  C   UNL     1     -12.820  -7.159  -2.541  1.00  0.00     0.148 A 
ATOM     74  C   UNL     1     -14.902  -7.058  -4.420  1.00  0.00     0.002 A 
ATOM     75  C   UNL     1     -12.541  -7.223  -3.901  1.00  0.00     0.091 A 
ATOM     76  F   UNL     1     -11.852  -7.223  -1.616  1.00  0.00    -0.205 F 
ATOM     77  C   UNL     1     -13.582  -7.191  -4.841  1.00  0.00     0.022 A 
BRANCH  75  78
ATOM     78  S   UNL     1     -10.863  -7.250  -4.542  1.00  0.00     0.127 S 
ATOM     79  O   UNL     1     -10.787  -8.585  -5.130  1.00  0.00    -0.237 OA
ATOM     80  O   UNL     1     -10.894  -6.151  -5.508  1.00  0.00    -0.237 OA
ATOM     81  O   UNL     1      -9.996  -7.017  -3.394  1.00  0.00    -0.744 OA
ENDBRANCH  75  78
ENDBRANCH  47  71
BRANCH  59  82
ATOM     82  C   UNL     1     -17.840 -10.708   2.547  1.00  0.00     0.023 A 
ATOM     83  C   UNL     1     -17.156 -11.936   2.454  1.00  0.00     0.012 A 
ATOM     84  C   UNL     1     -19.242 -10.704   2.690  1.00  0.00     0.148 A 
ATOM     85  C   UNL     1     -17.858 -13.140   2.486  1.00  0.00     0.002 A 
ATOM     86  C   UNL     1     -19.929 -11.909   2.776  1.00  0.00     0.091 A 
ATOM     87  F   UNL     1     -19.874  -9.524   2.762  1.00  0.00    -0.205 F 
ATOM     88  C   UNL     1     -19.240 -13.127   2.663  1.00  0.00     0.022 A 
BRANCH  86  89
ATOM     89  S   UNL     1     -21.692 -11.995   3.112  1.00  0.00     0.127 S 
ATOM     90  O   UNL     1     -22.211 -12.509   1.845  1.00  0.00    -0.237 OA
ATOM     91  O   UNL     1     -21.747 -12.944   4.224  1.00  0.00    -0.237 OA
ATOM     92  O   UNL     1     -22.106 -10.640   3.448  1.00  0.00    -0.744 OA
ENDBRANCH  86  89
ENDBRANCH  59  82
ENDBRANCH  33  34
ENDBRANCH  25  28
ENDBRANCH  23  24
ENDBRANCH  22  23
ENDBRANCH   1  22
TORSDOF 19
