REMARK SMILES C[C@H](CN(C)C(=O)CCc1nc2ccccc2o1)C(=O)NCCCCCCNC(=O)c1ccc(-c2c3nc(c(-c4cccc(S(=O)(=O)[O-])c4F)c4ccc([nH]4)c(-c4cccc(S(=O)(=O)[O-])c4F)c4nc(c(-c5cccc(S(=O)(=O)[O-])c5F)c5ccc2[nH]5)C=C4)C=C3)cc1
REMARK SMILES IDX 23 1 22 2 21 3 19 4 20 5 2 7 1 8 3 9 4 10 5 11 6 12 7 13
REMARK SMILES IDX 8 14 9 15 10 16 11 17 18 18 12 19 17 20 13 21 16 22 14 23
REMARK SMILES IDX 15 24 24 25 25 26 26 27 27 28 28 29 29 30 30 32 31 33 32 34
REMARK SMILES IDX 93 35 33 36 92 37 34 38 35 39 36 40 86 41 37 42 91 43 85 44
REMARK SMILES IDX 87 45 38 46 90 47 84 48 83 49 39 51 71 52 51 53 70 54 52 55
REMARK SMILES IDX 55 56 69 57 88 58 53 59 54 60 68 62 89 63 56 64 40 65 41 66
REMARK SMILES IDX 49 67 42 68 44 69 50 70 43 71 45 72 46 73 47 74 48 75 72 76
REMARK SMILES IDX 73 77 81 78 74 79 76 80 82 81 75 82 77 83 78 84 79 85 80 86
REMARK SMILES IDX 57 87 58 88 66 89 59 90 61 91 67 92 60 93 62 94 63 95 64 96
REMARK SMILES IDX 65 97
REMARK H PARENT 21 6 28 31 87 50 55 61
REMARK Flexibility Score: inf
ROOT
ATOM      1  C   UNL     1      -0.301   1.289  -2.743  1.00  0.00     0.021 C 
ENDROOT
BRANCH   1   2
ATOM      2  C   UNL     1       0.678   1.671  -1.311  1.00  0.00     0.116 C 
BRANCH   2   3
ATOM      3  N   UNL     1       0.269   2.345   0.004  1.00  0.00    -0.356 N 
ATOM      4  C   UNL     1       0.142   1.910   1.307  1.00  0.00     0.224 C 
ATOM      5  O   UNL     1      -0.508   2.536   2.144  1.00  0.00    -0.275 OA
ATOM      6  H   UNL     1       0.048   3.297  -0.105  1.00  0.00     0.163 HD
BRANCH   4   7
ATOM      7  C   UNL     1       0.875   0.682   1.682  1.00  0.00     0.095 C 
ATOM      8  C   UNL     1       2.361   1.026   1.479  1.00  0.00     0.020 C 
BRANCH   7   9
ATOM      9  C   UNL     1       0.282  -0.523   0.970  1.00  0.00     0.132 C 
BRANCH   9  10
ATOM     10  N   UNL     1      -0.396  -0.321  -0.326  1.00  0.00    -0.345 N 
ATOM     11  C   UNL     1       0.047  -1.345  -1.314  1.00  0.00     0.146 C 
BRANCH  10  12
ATOM     12  C   UNL     1      -1.670   0.327  -0.422  1.00  0.00     0.222 C 
ATOM     13  O   UNL     1      -2.653  -0.430  -0.308  1.00  0.00    -0.275 OA
BRANCH  12  14
ATOM     14  C   UNL     1      -2.046   2.075  -0.625  1.00  0.00     0.110 C 
BRANCH  14  15
ATOM     15  C   UNL     1      -1.600   3.601  -1.442  1.00  0.00     0.107 C 
BRANCH  15  16
ATOM     16  C   UNL     1      -0.234   4.113  -2.135  1.00  0.00     0.195 A 
ATOM     17  N   UNL     1       0.849   4.627  -1.551  1.00  0.00    -0.214 NA
ATOM     18  O   UNL     1      -0.001   3.864  -3.487  1.00  0.00    -0.441 OA
ATOM     19  C   UNL     1       1.903   4.335  -2.437  1.00  0.00     0.109 A 
ATOM     20  C   UNL     1       1.386   3.820  -3.615  1.00  0.00     0.154 A 
ATOM     21  C   UNL     1       3.281   4.143  -2.176  1.00  0.00     0.032 A 
ATOM     22  C   UNL     1       2.138   3.079  -4.553  1.00  0.00     0.049 A 
ATOM     23  C   UNL     1       4.031   3.308  -3.035  1.00  0.00     0.003 A 
ATOM     24  C   UNL     1       3.465   2.776  -4.196  1.00  0.00     0.004 A 
ENDBRANCH  15  16
ENDBRANCH  14  15
ENDBRANCH  12  14
ENDBRANCH  10  12
ENDBRANCH   9  10
ENDBRANCH   7   9
ENDBRANCH   4   7
ENDBRANCH   2   3
ENDBRANCH   1   2
BRANCH   1  25
ATOM     25  C   UNL     1      -1.837   1.009  -3.217  1.00  0.00     0.002 C 
BRANCH  25  26
ATOM     26  C   UNL     1      -3.041   1.962  -3.554  1.00  0.00     0.002 C 
BRANCH  26  27
ATOM     27  C   UNL     1      -2.854   3.002  -4.644  1.00  0.00     0.021 C 
BRANCH  27  28
ATOM     28  C   UNL     1      -3.084   2.412  -6.016  1.00  0.00     0.116 C 
BRANCH  28  29
ATOM     29  N   UNL     1      -4.494   2.452  -6.401  1.00  0.00    -0.352 N 
ATOM     30  C   UNL     1      -5.043   3.085  -7.492  1.00  0.00     0.251 C 
ATOM     31  H   UNL     1      -5.122   1.971  -5.814  1.00  0.00     0.163 HD
ATOM     32  O   UNL     1      -6.262   3.226  -7.607  1.00  0.00    -0.269 OA
BRANCH  30  33
ATOM     33  C   UNL     1      -4.122   3.613  -8.517  1.00  0.00     0.039 A 
ATOM     34  C   UNL     1      -4.243   4.930  -8.961  1.00  0.00     0.014 A 
ATOM     35  C   UNL     1      -3.050   2.817  -8.926  1.00  0.00     0.014 A 
ATOM     36  C   UNL     1      -3.245   5.465  -9.778  1.00  0.00     0.010 A 
ATOM     37  C   UNL     1      -1.990   3.401  -9.594  1.00  0.00     0.010 A 
ATOM     38  C   UNL     1      -2.096   4.713 -10.075  1.00  0.00    -0.014 A 
BRANCH  38  39
ATOM     39  C   UNL     1      -1.020   5.223 -10.959  1.00  0.00     0.031 A 
ATOM     40  C   UNL     1      -0.669   4.436 -12.199  1.00  0.00     0.074 A 
ATOM     41  C   UNL     1      -0.308   6.314 -10.613  1.00  0.00     0.049 A 
ATOM     42  N   UNL     1       0.300   4.631 -13.052  1.00  0.00    -0.248 NA
ATOM     43  C   UNL     1      -1.483   3.239 -12.493  1.00  0.00     0.031 C 
ATOM     44  C   UNL     1      -0.496   7.106  -9.394  1.00  0.00     0.029 A 
ATOM     45  N   UNL     1       0.740   6.932 -11.247  1.00  0.00    -0.354 N 
ATOM     46  C   UNL     1       0.252   3.553 -13.929  1.00  0.00     0.074 A 
ATOM     47  C   UNL     1      -0.807   2.681 -13.484  1.00  0.00     0.031 C 
ATOM     48  C   UNL     1       0.391   8.115  -9.381  1.00  0.00     0.029 A 
ATOM     49  C   UNL     1       1.236   8.021 -10.567  1.00  0.00     0.049 A 
ATOM     50  H   UNL     1       1.104   6.625 -12.109  1.00  0.00     0.167 HD
ATOM     51  C   UNL     1       0.997   3.327 -15.033  1.00  0.00     0.034 A 
ATOM     52  C   UNL     1       2.262   8.842 -10.868  1.00  0.00     0.034 A 
ATOM     53  C   UNL     1       1.979   4.249 -15.525  1.00  0.00     0.049 A 
ATOM     54  C   UNL     1       3.025   8.604 -12.146  1.00  0.00     0.074 A 
ATOM     55  C   UNL     1       2.696   4.188 -16.704  1.00  0.00     0.029 A 
ATOM     56  N   UNL     1       2.379   5.397 -14.863  1.00  0.00    -0.354 N 
ATOM     57  N   UNL     1       2.848   7.674 -13.053  1.00  0.00    -0.248 NA
ATOM     58  C   UNL     1       4.107   9.549 -12.460  1.00  0.00     0.031 C 
ATOM     59  C   UNL     1       3.562   5.284 -16.738  1.00  0.00     0.029 A 
ATOM     60  C   UNL     1       3.349   6.047 -15.600  1.00  0.00     0.049 A 
ATOM     61  H   UNL     1       2.025   5.705 -13.997  1.00  0.00     0.167 HD
ATOM     62  C   UNL     1       3.761   7.949 -14.064  1.00  0.00     0.074 A 
ATOM     63  C   UNL     1       4.477   9.143 -13.667  1.00  0.00     0.031 C 
ATOM     64  C   UNL     1       3.997   7.271 -15.214  1.00  0.00     0.034 A 
BRANCH  51  65
ATOM     65  C   UNL     1       0.751   2.066 -15.815  1.00  0.00     0.023 A 
ATOM     66  C   UNL     1      -0.434   1.915 -16.563  1.00  0.00     0.012 A 
ATOM     67  C   UNL     1       1.739   1.064 -15.874  1.00  0.00     0.148 A 
ATOM     68  C   UNL     1      -0.644   0.775 -17.337  1.00  0.00     0.002 A 
ATOM     69  C   UNL     1       1.547  -0.043 -16.689  1.00  0.00     0.091 A 
ATOM     70  F   UNL     1       2.847   1.216 -15.134  1.00  0.00    -0.205 F 
ATOM     71  C   UNL     1       0.352  -0.195 -17.412  1.00  0.00     0.022 A 
BRANCH  69  72
ATOM     72  S   UNL     1       2.803  -1.304 -16.922  1.00  0.00     0.127 S 
ATOM     73  O   UNL     1       2.159  -2.475 -16.328  1.00  0.00    -0.237 OA
ATOM     74  O   UNL     1       2.924  -1.347 -18.379  1.00  0.00    -0.237 OA
ATOM     75  O   UNL     1       3.989  -0.829 -16.222  1.00  0.00    -0.744 OA
ENDBRANCH  69  72
ENDBRANCH  51  65
BRANCH  52  76
ATOM     76  C   UNL     1       2.602   9.996  -9.985  1.00  0.00     0.023 A 
ATOM     77  C   UNL     1       2.406  11.310 -10.456  1.00  0.00     0.012 A 
ATOM     78  C   UNL     1       3.135   9.804  -8.696  1.00  0.00     0.148 A 
ATOM     79  C   UNL     1       2.783  12.409  -9.682  1.00  0.00     0.002 A 
ATOM     80  C   UNL     1       3.455  10.904  -7.908  1.00  0.00     0.091 A 
ATOM     81  F   UNL     1       3.326   8.548  -8.268  1.00  0.00    -0.205 F 
ATOM     82  C   UNL     1       3.300  12.207  -8.406  1.00  0.00     0.022 A 
BRANCH  80  83
ATOM     83  S   UNL     1       4.013  10.737  -6.209  1.00  0.00     0.127 S 
ATOM     84  O   UNL     1       5.430  11.072  -6.325  1.00  0.00    -0.237 OA
ATOM     85  O   UNL     1       3.197  11.738  -5.521  1.00  0.00    -0.237 OA
ATOM     86  O   UNL     1       3.715   9.361  -5.835  1.00  0.00    -0.744 OA
ENDBRANCH  80  83
ENDBRANCH  52  76
BRANCH  64  87
ATOM     87  C   UNL     1       5.024   7.829 -16.161  1.00  0.00     0.023 A 
ATOM     88  C   UNL     1       6.393   7.746 -15.846  1.00  0.00     0.012 A 
ATOM     89  C   UNL     1       4.625   8.343 -17.411  1.00  0.00     0.148 A 
ATOM     90  C   UNL     1       7.352   8.197 -16.751  1.00  0.00     0.002 A 
ATOM     91  C   UNL     1       5.588   8.736 -18.329  1.00  0.00     0.091 A 
ATOM     92  F   UNL     1       3.314   8.423 -17.681  1.00  0.00    -0.205 F 
ATOM     93  C   UNL     1       6.951   8.678 -17.996  1.00  0.00     0.022 A 
BRANCH  91  94
ATOM     94  S   UNL     1       5.170   9.263 -19.994  1.00  0.00     0.127 S 
ATOM     95  O   UNL     1       5.489  10.689 -19.943  1.00  0.00    -0.237 OA
ATOM     96  O   UNL     1       6.083   8.461 -20.809  1.00  0.00    -0.237 OA
ATOM     97  O   UNL     1       3.760   8.947 -20.176  1.00  0.00    -0.744 OA
ENDBRANCH  91  94
ENDBRANCH  64  87
ENDBRANCH  38  39
ENDBRANCH  30  33
ENDBRANCH  28  29
ENDBRANCH  27  28
ENDBRANCH  26  27
ENDBRANCH  25  26
ENDBRANCH   1  25
TORSDOF 22
