REMARK SMILES CCCC[C@@H](C(=O)NCCCCCCNC(=O)c1ccc(-c2c3nc(c(-c4cccc(S(=O)(=O)[O-])c4F)c4ccc([nH]4)c(-c4cccc(S(=O)(=O)[O-])c4F)c4nc(c(-c5cccc(S(=O)(=O)[O-])c5F)c5ccc2[nH]5)C=C4)C=C3)cc1)[C@](C)(O)c1cccc(Br)c1
REMARK SMILES IDX 11 1 10 2 9 3 8 4 6 5 7 6 5 8 4 9 3 10 2 11 1 12 81 13 82 14
REMARK SMILES IDX 83 15 84 17 85 18 90 19 86 20 88 21 87 22 89 23 12 24 13 25
REMARK SMILES IDX 14 26 15 27 16 28 17 30 18 31 19 32 80 33 20 34 79 35 21 36
REMARK SMILES IDX 22 37 23 38 73 39 24 40 78 41 72 42 74 43 25 44 77 45 71 46
REMARK SMILES IDX 70 47 26 49 58 50 38 51 57 52 39 53 42 54 56 55 75 56 40 57
REMARK SMILES IDX 41 58 55 60 76 61 43 62 27 63 28 64 36 65 29 66 31 67 37 68
REMARK SMILES IDX 30 69 32 70 33 71 34 72 35 73 59 74 60 75 68 76 61 77 63 78
REMARK SMILES IDX 69 79 62 80 64 81 65 82 66 83 67 84 44 85 45 86 53 87 46 88
REMARK SMILES IDX 48 89 54 90 47 91 49 92 50 93 51 94 52 95
REMARK H PARENT 8 7 83 16 15 29 74 48 42 59
REMARK Flexibility Score: inf
ROOT
ATOM      1  C   UNL     1       3.047  -4.005   3.859  1.00  0.00     0.002 C 
ENDROOT
BRANCH   1   2
ATOM      2  C   UNL     1       1.683  -4.456   3.338  1.00  0.00     0.021 C 
BRANCH   2   3
ATOM      3  C   UNL     1       0.876  -3.333   2.679  1.00  0.00     0.116 C 
BRANCH   3   4
ATOM      4  N   UNL     1       1.212  -3.266   1.278  1.00  0.00    -0.356 N 
ATOM      5  C   UNL     1       0.554  -3.703   0.174  1.00  0.00     0.226 C 
ATOM      6  O   UNL     1       1.246  -3.736  -0.845  1.00  0.00    -0.275 OA
ATOM      7  H   UNL     1       2.072  -2.825   1.088  1.00  0.00     0.163 HD
BRANCH   5   8
ATOM      8  C   UNL     1      -0.951  -4.042   0.189  1.00  0.00     0.114 C 
BRANCH   8   9
ATOM      9  C   UNL     1      -1.276  -5.497   0.640  1.00  0.00     0.017 C 
BRANCH   9  10
ATOM     10  C   UNL     1      -1.286  -5.879   2.121  1.00  0.00     0.001 C 
BRANCH  10  11
ATOM     11  C   UNL     1      -2.280  -5.134   3.014  1.00  0.00    -0.003 C 
ATOM     12  C   UNL     1      -3.706  -5.640   2.878  1.00  0.00     0.004 C 
ENDBRANCH  10  11
ENDBRANCH   9  10
ENDBRANCH   8   9
BRANCH   8  13
ATOM     13  C   UNL     1      -1.588  -3.770  -1.250  1.00  0.00     0.098 C 
ATOM     14  C   UNL     1      -1.326  -2.331  -1.745  1.00  0.00     0.048 C 
BRANCH  13  15
ATOM     15  O   UNL     1      -3.030  -3.817  -1.086  1.00  0.00    -0.385 OA
ATOM     16  H   UNL     1      -3.458  -3.656  -1.942  1.00  0.00     0.211 HD
ENDBRANCH  13  15
BRANCH  13  17
ATOM     17  C   UNL     1      -1.232  -4.843  -2.301  1.00  0.00    -0.015 A 
ATOM     18  C   UNL     1      -1.980  -6.036  -2.391  1.00  0.00     0.007 A 
ATOM     19  C   UNL     1      -0.106  -4.737  -3.135  1.00  0.00     0.022 A 
ATOM     20  C   UNL     1      -1.564  -7.109  -3.183  1.00  0.00     0.002 A 
ATOM     21  C   UNL     1       0.306  -5.809  -3.934  1.00  0.00     0.018 A 
ATOM     22  C   UNL     1      -0.406  -7.003  -3.944  1.00  0.00     0.016 A 
ATOM     23  Br  UNL     1       1.877  -5.651  -4.977  1.00  0.00    -0.051 Br
ENDBRANCH  13  17
ENDBRANCH   8  13
ENDBRANCH   5   8
ENDBRANCH   3   4
ENDBRANCH   2   3
ENDBRANCH   1   2
BRANCH   1  24
ATOM     24  C   UNL     1       2.975  -3.058   5.060  1.00  0.00     0.002 C 
BRANCH  24  25
ATOM     25  C   UNL     1       2.162  -3.578   6.250  1.00  0.00     0.021 C 
BRANCH  25  26
ATOM     26  C   UNL     1       2.594  -4.946   6.773  1.00  0.00     0.116 C 
BRANCH  26  27
ATOM     27  N   UNL     1       3.984  -4.942   7.198  1.00  0.00    -0.352 N 
ATOM     28  C   UNL     1       4.519  -5.242   8.424  1.00  0.00     0.251 C 
ATOM     29  H   UNL     1       4.635  -4.686   6.505  1.00  0.00     0.163 HD
ATOM     30  O   UNL     1       5.686  -4.949   8.667  1.00  0.00    -0.269 OA
BRANCH  28  31
ATOM     31  C   UNL     1       3.694  -5.920   9.446  1.00  0.00     0.039 A 
ATOM     32  C   UNL     1       3.787  -5.501  10.776  1.00  0.00     0.014 A 
ATOM     33  C   UNL     1       2.871  -6.997   9.105  1.00  0.00     0.014 A 
ATOM     34  C   UNL     1       3.038  -6.148  11.760  1.00  0.00     0.010 A 
ATOM     35  C   UNL     1       2.073  -7.596  10.075  1.00  0.00     0.010 A 
ATOM     36  C   UNL     1       2.168  -7.195  11.416  1.00  0.00    -0.014 A 
BRANCH  36  37
ATOM     37  C   UNL     1       1.384  -7.915  12.451  1.00  0.00     0.031 A 
ATOM     38  C   UNL     1       1.655  -9.373  12.717  1.00  0.00     0.074 A 
ATOM     39  C   UNL     1       0.390  -7.280  13.102  1.00  0.00     0.049 A 
ATOM     40  N   UNL     1       1.049 -10.188  13.540  1.00  0.00    -0.248 NA
ATOM     41  C   UNL     1       2.731 -10.005  11.934  1.00  0.00     0.031 C 
ATOM     42  C   UNL     1      -0.014  -5.890  12.881  1.00  0.00     0.029 A 
ATOM     43  N   UNL     1      -0.477  -7.729  14.066  1.00  0.00    -0.354 N 
ATOM     44  C   UNL     1       1.642 -11.431  13.349  1.00  0.00     0.074 A 
ATOM     45  C   UNL     1       2.630 -11.273  12.306  1.00  0.00     0.031 C 
ATOM     46  C   UNL     1      -1.046  -5.599  13.689  1.00  0.00     0.029 A 
ATOM     47  C   UNL     1      -1.391  -6.784  14.469  1.00  0.00     0.049 A 
ATOM     48  H   UNL     1      -0.447  -8.641  14.435  1.00  0.00     0.167 HD
ATOM     49  C   UNL     1       1.412 -12.592  14.007  1.00  0.00     0.034 A 
ATOM     50  C   UNL     1      -2.391  -6.865  15.369  1.00  0.00     0.034 A 
ATOM     51  C   UNL     1       0.468 -12.731  15.083  1.00  0.00     0.049 A 
ATOM     52  C   UNL     1      -2.585  -8.151  16.128  1.00  0.00     0.074 A 
ATOM     53  C   UNL     1       0.208 -13.844  15.863  1.00  0.00     0.029 A 
ATOM     54  N   UNL     1      -0.366 -11.721  15.535  1.00  0.00    -0.354 N 
ATOM     55  N   UNL     1      -1.917  -9.275  16.033  1.00  0.00    -0.248 NA
ATOM     56  C   UNL     1      -3.643  -8.167  17.149  1.00  0.00     0.031 C 
ATOM     57  C   UNL     1      -0.790 -13.507  16.784  1.00  0.00     0.029 A 
ATOM     58  C   UNL     1      -1.137 -12.180  16.588  1.00  0.00     0.049 A 
ATOM     59  H   UNL     1      -0.405 -10.810  15.162  1.00  0.00     0.167 HD
ATOM     60  C   UNL     1      -2.439 -10.113  17.012  1.00  0.00     0.074 A 
ATOM     61  C   UNL     1      -3.469  -9.361  17.698  1.00  0.00     0.031 C 
ATOM     62  C   UNL     1      -2.107 -11.394  17.306  1.00  0.00     0.034 A 
BRANCH  49  63
ATOM     63  C   UNL     1       2.244 -13.790  13.628  1.00  0.00     0.023 A 
ATOM     64  C   UNL     1       3.609 -13.823  13.983  1.00  0.00     0.012 A 
ATOM     65  C   UNL     1       1.673 -14.900  12.976  1.00  0.00     0.148 A 
ATOM     66  C   UNL     1       4.400 -14.926  13.665  1.00  0.00     0.002 A 
ATOM     67  C   UNL     1       2.458 -16.015  12.702  1.00  0.00     0.091 A 
ATOM     68  F   UNL     1       0.380 -14.843  12.628  1.00  0.00    -0.205 F 
ATOM     69  C   UNL     1       3.823 -16.024  13.035  1.00  0.00     0.022 A 
BRANCH  67  70
ATOM     70  S   UNL     1       1.794 -17.512  11.963  1.00  0.00     0.127 S 
ATOM     71  O   UNL     1       2.386 -17.469  10.627  1.00  0.00    -0.237 OA
ATOM     72  O   UNL     1       2.335 -18.553  12.837  1.00  0.00    -0.237 OA
ATOM     73  O   UNL     1       0.345 -17.373  12.010  1.00  0.00    -0.744 OA
ENDBRANCH  67  70
ENDBRANCH  49  63
BRANCH  50  74
ATOM     74  C   UNL     1      -3.227  -5.668  15.667  1.00  0.00     0.023 A 
ATOM     75  C   UNL     1      -3.088  -5.024  16.913  1.00  0.00     0.012 A 
ATOM     76  C   UNL     1      -4.140  -5.152  14.728  1.00  0.00     0.148 A 
ATOM     77  C   UNL     1      -3.869  -3.913  17.233  1.00  0.00     0.002 A 
ATOM     78  C   UNL     1      -4.876  -4.012  15.031  1.00  0.00     0.091 A 
ATOM     79  F   UNL     1      -4.268  -5.784  13.552  1.00  0.00    -0.205 F 
ATOM     80  C   UNL     1      -4.756  -3.402  16.290  1.00  0.00     0.022 A 
BRANCH  78  81
ATOM     81  S   UNL     1      -5.943  -3.212  13.828  1.00  0.00     0.127 S 
ATOM     82  O   UNL     1      -7.270  -3.592  14.303  1.00  0.00    -0.237 OA
ATOM     83  O   UNL     1      -5.604  -1.799  14.010  1.00  0.00    -0.237 OA
ATOM     84  O   UNL     1      -5.548  -3.757  12.536  1.00  0.00    -0.744 OA
ENDBRANCH  78  81
ENDBRANCH  50  74
BRANCH  62  85
ATOM     85  C   UNL     1      -2.821 -12.055  18.455  1.00  0.00     0.023 A 
ATOM     86  C   UNL     1      -4.164 -12.456  18.310  1.00  0.00     0.012 A 
ATOM     87  C   UNL     1      -2.136 -12.348  19.651  1.00  0.00     0.148 A 
ATOM     88  C   UNL     1      -4.824 -13.109  19.350  1.00  0.00     0.002 A 
ATOM     89  C   UNL     1      -2.785 -13.041  20.665  1.00  0.00     0.091 A 
ATOM     90  F   UNL     1      -0.865 -11.940  19.777  1.00  0.00    -0.205 F 
ATOM     91  C   UNL     1      -4.132 -13.412  20.521  1.00  0.00     0.022 A 
BRANCH  89  92
ATOM     92  S   UNL     1      -1.941 -13.558  22.164  1.00  0.00     0.127 S 
ATOM     93  O   UNL     1      -2.446 -12.593  23.138  1.00  0.00    -0.237 OA
ATOM     94  O   UNL     1      -2.434 -14.924  22.346  1.00  0.00    -0.237 OA
ATOM     95  O   UNL     1      -0.517 -13.468  21.869  1.00  0.00    -0.744 OA
ENDBRANCH  89  92
ENDBRANCH  62  85
ENDBRANCH  36  37
ENDBRANCH  28  31
ENDBRANCH  26  27
ENDBRANCH  25  26
ENDBRANCH  24  25
ENDBRANCH   1  24
TORSDOF 22
