REMARK SMILES C[C@H](CSc1ccc(C(=O)N(C)C)cn1)C(=O)NCCCCCCNC(=O)c1ccc(-c2c3nc(c(-c4cccc(S(=O)(=O)[O-])c4F)c4ccc([nH]4)c(-c4cccc(S(=O)(=O)[O-])c4F)c4nc(c(-c5cccc(S(=O)(=O)[O-])c5F)c5ccc2[nH]5)C=C4)C=C3)cc1
REMARK SMILES IDX 21 1 20 2 19 3 18 4 16 5 17 6 2 8 1 9 3 10 4 11 5 12 6 13
REMARK SMILES IDX 15 14 7 15 14 16 8 17 9 18 10 19 11 20 12 21 13 22 22 23
REMARK SMILES IDX 23 24 24 25 25 26 26 27 27 29 28 30 29 31 90 32 30 33 89 34
REMARK SMILES IDX 31 35 32 36 33 37 83 38 34 39 88 40 82 41 84 42 35 43 87 44
REMARK SMILES IDX 81 45 80 46 36 48 68 49 48 50 67 51 49 52 52 53 66 54 85 55
REMARK SMILES IDX 50 56 51 57 65 59 86 60 53 61 37 62 38 63 46 64 39 65 41 66
REMARK SMILES IDX 47 67 40 68 42 69 43 70 44 71 45 72 69 73 70 74 78 75 71 76
REMARK SMILES IDX 73 77 79 78 72 79 74 80 75 81 76 82 77 83 54 84 55 85 63 86
REMARK SMILES IDX 56 87 58 88 64 89 57 90 59 91 60 92 61 93 62 94
REMARK H PARENT 18 7 25 28 84 47 52 58
REMARK Flexibility Score: inf
ROOT
ATOM      1  C   UNL     1      -2.923  -2.621   1.611  1.00  0.00     0.002 C 
ENDROOT
BRANCH   1   2
ATOM      2  C   UNL     1      -1.400  -2.464   1.658  1.00  0.00     0.021 C 
BRANCH   2   3
ATOM      3  C   UNL     1      -0.667  -2.677   0.336  1.00  0.00     0.116 C 
BRANCH   3   4
ATOM      4  N   UNL     1      -1.252  -1.928  -0.757  1.00  0.00    -0.356 N 
ATOM      5  C   UNL     1      -0.758  -0.955  -1.552  1.00  0.00     0.223 C 
ATOM      6  O   UNL     1      -1.509  -0.509  -2.430  1.00  0.00    -0.275 OA
ATOM      7  H   UNL     1      -2.184  -2.175  -0.958  1.00  0.00     0.163 HD
BRANCH   5   8
ATOM      8  C   UNL     1       0.662  -0.430  -1.452  1.00  0.00     0.085 C 
ATOM      9  C   UNL     1       1.676  -1.515  -1.837  1.00  0.00     0.019 C 
BRANCH   8  10
ATOM     10  C   UNL     1       1.129   0.421  -0.258  1.00  0.00     0.089 C 
BRANCH  10  11
ATOM     11  S   UNL     1       0.227   0.787   1.285  1.00  0.00    -0.106 SA
BRANCH  11  12
ATOM     12  C   UNL     1      -1.451   1.154   0.858  1.00  0.00     0.096 A 
ATOM     13  C   UNL     1      -1.876   1.692  -0.344  1.00  0.00     0.036 A 
ATOM     14  N   UNL     1      -2.330   0.847   1.838  1.00  0.00    -0.249 NA
ATOM     15  C   UNL     1      -3.253   1.826  -0.586  1.00  0.00     0.018 A 
ATOM     16  C   UNL     1      -3.654   0.994   1.586  1.00  0.00     0.126 A 
ATOM     17  C   UNL     1      -4.179   1.434   0.379  1.00  0.00     0.058 A 
BRANCH  17  18
ATOM     18  C   UNL     1      -5.660   1.546   0.282  1.00  0.00     0.254 C 
ATOM     19  O   UNL     1      -6.282   1.587   1.347  1.00  0.00    -0.269 OA
ATOM     20  N   UNL     1      -6.339   1.629  -0.935  1.00  0.00    -0.345 N 
ATOM     21  C   UNL     1      -5.832   1.265  -2.248  1.00  0.00     0.146 C 
ATOM     22  C   UNL     1      -7.746   1.987  -0.861  1.00  0.00     0.146 C 
ENDBRANCH  17  18
ENDBRANCH  11  12
ENDBRANCH  10  11
ENDBRANCH   8  10
ENDBRANCH   5   8
ENDBRANCH   3   4
ENDBRANCH   2   3
ENDBRANCH   1   2
BRANCH   1  23
ATOM     23  C   UNL     1      -3.416  -4.027   1.277  1.00  0.00     0.002 C 
BRANCH  23  24
ATOM     24  C   UNL     1      -2.807  -5.138   2.132  1.00  0.00     0.021 C 
BRANCH  24  25
ATOM     25  C   UNL     1      -2.870  -4.899   3.638  1.00  0.00     0.116 C 
BRANCH  25  26
ATOM     26  N   UNL     1      -4.236  -4.854   4.133  1.00  0.00    -0.352 N 
ATOM     27  C   UNL     1      -4.810  -5.604   5.126  1.00  0.00     0.251 C 
ATOM     28  H   UNL     1      -4.826  -4.199   3.697  1.00  0.00     0.163 HD
ATOM     29  O   UNL     1      -6.029  -5.571   5.300  1.00  0.00    -0.269 OA
BRANCH  27  30
ATOM     30  C   UNL     1      -3.964  -6.473   5.970  1.00  0.00     0.039 A 
ATOM     31  C   UNL     1      -4.364  -7.792   6.191  1.00  0.00     0.014 A 
ATOM     32  C   UNL     1      -2.773  -5.995   6.528  1.00  0.00     0.014 A 
ATOM     33  C   UNL     1      -3.543  -8.647   6.927  1.00  0.00     0.010 A 
ATOM     34  C   UNL     1      -1.919  -6.871   7.195  1.00  0.00     0.010 A 
ATOM     35  C   UNL     1      -2.299  -8.204   7.410  1.00  0.00    -0.014 A 
BRANCH  35  36
ATOM     36  C   UNL     1      -1.386  -9.141   8.113  1.00  0.00     0.031 A 
ATOM     37  C   UNL     1      -1.011  -8.921   9.554  1.00  0.00     0.074 A 
ATOM     38  C   UNL     1      -0.848 -10.172   7.431  1.00  0.00     0.049 A 
ATOM     39  N   UNL     1      -0.276  -9.669  10.335  1.00  0.00    -0.248 NA
ATOM     40  C   UNL     1      -1.504  -7.691  10.194  1.00  0.00     0.031 C 
ATOM     41  C   UNL     1      -1.056 -10.441   6.006  1.00  0.00     0.029 A 
ATOM     42  N   UNL     1      -0.011 -11.180   7.840  1.00  0.00    -0.354 N 
ATOM     43  C   UNL     1      -0.189  -8.989  11.544  1.00  0.00     0.074 A 
ATOM     44  C   UNL     1      -0.919  -7.751  11.382  1.00  0.00     0.031 C 
ATOM     45  C   UNL     1      -0.390 -11.556   5.668  1.00  0.00     0.029 A 
ATOM     46  C   UNL     1       0.311 -12.069   6.841  1.00  0.00     0.049 A 
ATOM     47  H   UNL     1       0.326 -11.259   8.761  1.00  0.00     0.167 HD
ATOM     48  C   UNL     1       0.417  -9.372  12.694  1.00  0.00     0.034 A 
ATOM     49  C   UNL     1       1.075 -13.178   6.869  1.00  0.00     0.034 A 
ATOM     50  C   UNL     1       1.110 -10.622  12.862  1.00  0.00     0.049 A 
ATOM     51  C   UNL     1       1.692 -13.608   8.171  1.00  0.00     0.074 A 
ATOM     52  C   UNL     1       1.661 -11.153  14.015  1.00  0.00     0.029 A 
ATOM     53  N   UNL     1       1.365 -11.529  11.845  1.00  0.00    -0.354 N 
ATOM     54  N   UNL     1       1.600 -13.050   9.354  1.00  0.00    -0.248 NA
ATOM     55  C   UNL     1       2.487 -14.844   8.149  1.00  0.00     0.031 C 
ATOM     56  C   UNL     1       2.279 -12.365  13.687  1.00  0.00     0.029 A 
ATOM     57  C   UNL     1       2.086 -12.605  12.337  1.00  0.00     0.049 A 
ATOM     58  H   UNL     1       1.077 -11.424  10.910  1.00  0.00     0.167 HD
ATOM     59  C   UNL     1       2.299 -13.880  10.222  1.00  0.00     0.074 A 
ATOM     60  C   UNL     1       2.782 -14.995   9.433  1.00  0.00     0.031 C 
ATOM     61  C   UNL     1       2.534 -13.726  11.550  1.00  0.00     0.034 A 
BRANCH  48  62
ATOM     62  C   UNL     1       0.320  -8.442  13.878  1.00  0.00     0.023 A 
ATOM     63  C   UNL     1      -0.918  -8.263  14.528  1.00  0.00     0.012 A 
ATOM     64  C   UNL     1       1.461  -7.783  14.376  1.00  0.00     0.148 A 
ATOM     65  C   UNL     1      -1.029  -7.411  15.627  1.00  0.00     0.002 A 
ATOM     66  C   UNL     1       1.352  -6.972  15.501  1.00  0.00     0.091 A 
ATOM     67  F   UNL     1       2.627  -7.945  13.733  1.00  0.00    -0.205 F 
ATOM     68  C   UNL     1       0.107  -6.775  16.119  1.00  0.00     0.022 A 
BRANCH  66  69
ATOM     69  S   UNL     1       2.773  -6.176  16.259  1.00  0.00     0.127 S 
ATOM     70  O   UNL     1       2.563  -4.779  15.885  1.00  0.00    -0.237 OA
ATOM     71  O   UNL     1       2.566  -6.464  17.679  1.00  0.00    -0.237 OA
ATOM     72  O   UNL     1       3.946  -6.813  15.678  1.00  0.00    -0.744 OA
ENDBRANCH  66  69
ENDBRANCH  48  62
BRANCH  49  73
ATOM     73  C   UNL     1       1.222 -14.008   5.640  1.00  0.00     0.023 A 
ATOM     74  C   UNL     1       0.602 -15.272   5.584  1.00  0.00     0.012 A 
ATOM     75  C   UNL     1       1.937 -13.544   4.519  1.00  0.00     0.148 A 
ATOM     76  C   UNL     1       0.716 -16.071   4.447  1.00  0.00     0.002 A 
ATOM     77  C   UNL     1       2.000 -14.321   3.369  1.00  0.00     0.091 A 
ATOM     78  F   UNL     1       2.527 -12.343   4.596  1.00  0.00    -0.205 F 
ATOM     79  C   UNL     1       1.405 -15.592   3.336  1.00  0.00     0.022 A 
BRANCH  77  80
ATOM     80  S   UNL     1       2.751 -13.733   1.847  1.00  0.00     0.127 S 
ATOM     81  O   UNL     1       3.925 -14.594   1.740  1.00  0.00    -0.237 OA
ATOM     82  O   UNL     1       1.697 -14.002   0.868  1.00  0.00    -0.237 OA
ATOM     83  O   UNL     1       3.022 -12.318   2.061  1.00  0.00    -0.744 OA
ENDBRANCH  77  80
ENDBRANCH  49  73
BRANCH  61  84
ATOM     84  C   UNL     1       3.340 -14.799  12.238  1.00  0.00     0.023 A 
ATOM     85  C   UNL     1       4.716 -14.928  11.960  1.00  0.00     0.012 A 
ATOM     86  C   UNL     1       2.746 -15.653  13.188  1.00  0.00     0.148 A 
ATOM     87  C   UNL     1       5.476 -15.919  12.579  1.00  0.00     0.002 A 
ATOM     88  C   UNL     1       3.522 -16.604  13.841  1.00  0.00     0.091 A 
ATOM     89  F   UNL     1       1.433 -15.531  13.428  1.00  0.00    -0.205 F 
ATOM     90  C   UNL     1       4.883 -16.750  13.526  1.00  0.00     0.022 A 
BRANCH  88  91
ATOM     91  S   UNL     1       2.862 -17.650  15.144  1.00  0.00     0.127 S 
ATOM     92  O   UNL     1       2.721 -18.932  14.456  1.00  0.00    -0.237 OA
ATOM     93  O   UNL     1       3.928 -17.610  16.146  1.00  0.00    -0.237 OA
ATOM     94  O   UNL     1       1.617 -17.022  15.566  1.00  0.00    -0.744 OA
ENDBRANCH  88  91
ENDBRANCH  61  84
ENDBRANCH  35  36
ENDBRANCH  27  30
ENDBRANCH  25  26
ENDBRANCH  24  25
ENDBRANCH  23  24
ENDBRANCH   1  23
TORSDOF 20
