REMARK SMILES O=C(Cn1nc(C(=O)NCCCCCCNC(=O)c2ccc(-c3c4nc(c(-c5cccc(S(=O)(=O)[O-])c5F)c5ccc([nH]5)c(-c5cccc(S(=O)(=O)[O-])c5F)c5nc(c(-c6cccc(S(=O)(=O)[O-])c6F)c6ccc3[nH]6)C=C5)C=C4)cc2)c2ccccc2c1=O)Nc1ccc2c(c1)C(=O)c1ccccc1C2=O
REMARK SMILES IDX 12 1 11 2 10 3 9 4 7 5 8 6 6 8 4 9 5 10 88 11 87 12 89 13
REMARK SMILES IDX 82 14 86 15 83 16 85 17 84 18 3 19 2 20 1 21 90 22 91 24
REMARK SMILES IDX 92 25 96 26 93 27 95 28 94 29 97 30 105 31 98 32 99 33
REMARK SMILES IDX 104 34 106 35 100 36 103 37 101 38 102 39 13 40 14 41 15 42
REMARK SMILES IDX 16 43 17 44 18 46 19 47 20 48 81 49 21 50 80 51 22 52 23 53
REMARK SMILES IDX 24 54 74 55 25 56 79 57 73 58 75 59 26 60 78 61 72 62 71 63
REMARK SMILES IDX 27 65 59 66 39 67 58 68 40 69 43 70 57 71 76 72 41 73 42 74
REMARK SMILES IDX 56 76 77 77 44 78 28 79 29 80 37 81 30 82 32 83 38 84 31 85
REMARK SMILES IDX 33 86 34 87 35 88 36 89 60 90 61 91 69 92 62 93 64 94 70 95
REMARK SMILES IDX 63 96 65 97 66 98 67 99 68 100 45 101 46 102 54 103 47 104
REMARK SMILES IDX 49 105 55 106 48 107 50 108 51 109 52 110 53 111
REMARK H PARENT 9 7 90 23 16 45 75 64 43 75
REMARK Flexibility Score: inf
ROOT
ATOM      1  C   UNL     1       6.413  -4.044  -5.870  1.00  0.00     0.002 C 
ENDROOT
BRANCH   1   2
ATOM      2  C   UNL     1       5.284  -3.341  -5.114  1.00  0.00     0.021 C 
BRANCH   2   3
ATOM      3  C   UNL     1       5.655  -2.484  -3.909  1.00  0.00     0.116 C 
BRANCH   3   4
ATOM      4  N   UNL     1       6.622  -1.437  -4.181  1.00  0.00    -0.351 N 
ATOM      5  C   UNL     1       6.691  -0.171  -3.636  1.00  0.00     0.272 C 
ATOM      6  O   UNL     1       7.746   0.454  -3.679  1.00  0.00    -0.267 OA
ATOM      7  H   UNL     1       7.319  -1.658  -4.840  1.00  0.00     0.163 HD
BRANCH   5   8
ATOM      8  C   UNL     1       5.444   0.484  -3.025  1.00  0.00     0.156 A 
ATOM      9  N   UNL     1       3.481   0.234  -1.814  1.00  0.00    -0.219 N 
ATOM     10  N   UNL     1       4.698  -0.249  -2.245  1.00  0.00    -0.163 NA
ATOM     11  C   UNL     1       2.996   1.490  -2.169  1.00  0.00     0.275 A 
ATOM     12  C   UNL     1       3.934   2.401  -2.835  1.00  0.00     0.051 A 
ATOM     13  O   UNL     1       1.847   1.866  -1.964  1.00  0.00    -0.267 OA
ATOM     14  C   UNL     1       5.131   1.901  -3.337  1.00  0.00     0.020 A 
ATOM     15  C   UNL     1       3.587   3.751  -2.997  1.00  0.00     0.014 A 
ATOM     16  C   UNL     1       5.966   2.764  -4.059  1.00  0.00     0.011 A 
ATOM     17  C   UNL     1       4.438   4.608  -3.688  1.00  0.00     0.001 A 
ATOM     18  C   UNL     1       5.620   4.111  -4.230  1.00  0.00     0.001 A 
BRANCH   9  19
ATOM     19  C   UNL     1       2.511  -0.767  -1.343  1.00  0.00     0.248 C 
BRANCH  19  20
ATOM     20  C   UNL     1       1.741  -0.321  -0.100  1.00  0.00     0.246 C 
ATOM     21  O   UNL     1       0.543  -0.553   0.049  1.00  0.00    -0.273 OA
ATOM     22  N   UNL     1       2.539   0.186   0.902  1.00  0.00    -0.324 N 
ATOM     23  H   UNL     1       3.474  -0.117   0.950  1.00  0.00     0.169 HD
BRANCH  22  24
ATOM     24  C   UNL     1       2.092   1.108   1.857  1.00  0.00     0.042 A 
ATOM     25  C   UNL     1       2.429   0.895   3.196  1.00  0.00     0.027 A 
ATOM     26  C   UNL     1       1.707   2.375   1.409  1.00  0.00     0.039 A 
ATOM     27  C   UNL     1       2.479   1.967   4.086  1.00  0.00     0.015 A 
ATOM     28  C   UNL     1       1.899   3.458   2.263  1.00  0.00     0.036 A 
ATOM     29  C   UNL     1       2.316   3.256   3.581  1.00  0.00     0.034 A 
ATOM     30  C   UNL     1       2.015   4.809   1.669  1.00  0.00     0.194 C 
ATOM     31  C   UNL     1       2.906   4.389   4.324  1.00  0.00     0.194 C 
ATOM     32  O   UNL     1       1.344   5.174   0.722  1.00  0.00    -0.289 OA
ATOM     33  C   UNL     1       3.129   5.627   2.190  1.00  0.00     0.034 A 
ATOM     34  C   UNL     1       3.579   5.409   3.492  1.00  0.00     0.034 A 
ATOM     35  O   UNL     1       2.972   4.408   5.545  1.00  0.00    -0.289 OA
ATOM     36  C   UNL     1       3.827   6.475   1.329  1.00  0.00     0.013 A 
ATOM     37  C   UNL     1       4.748   6.024   3.943  1.00  0.00     0.013 A 
ATOM     38  C   UNL     1       5.013   7.065   1.768  1.00  0.00     0.001 A 
ATOM     39  C   UNL     1       5.474   6.835   3.069  1.00  0.00     0.001 A 
ENDBRANCH  22  24
ENDBRANCH  19  20
ENDBRANCH   9  19
ENDBRANCH   5   8
ENDBRANCH   3   4
ENDBRANCH   2   3
ENDBRANCH   1   2
BRANCH   1  40
ATOM     40  C   UNL     1       7.426  -4.849  -5.054  1.00  0.00     0.002 C 
BRANCH  40  41
ATOM     41  C   UNL     1       6.879  -5.853  -4.038  1.00  0.00     0.021 C 
BRANCH  41  42
ATOM     42  C   UNL     1       5.850  -6.857  -4.546  1.00  0.00     0.116 C 
BRANCH  42  43
ATOM     43  N   UNL     1       6.372  -7.789  -5.528  1.00  0.00    -0.352 N 
ATOM     44  C   UNL     1       6.128  -9.140  -5.652  1.00  0.00     0.251 C 
ATOM     45  H   UNL     1       6.982  -7.404  -6.197  1.00  0.00     0.163 HD
ATOM     46  O   UNL     1       6.725  -9.788  -6.507  1.00  0.00    -0.269 OA
BRANCH  44  47
ATOM     47  C   UNL     1       5.188  -9.820  -4.724  1.00  0.00     0.039 A 
ATOM     48  C   UNL     1       3.943  -9.267  -4.415  1.00  0.00     0.014 A 
ATOM     49  C   UNL     1       5.572 -11.033  -4.142  1.00  0.00     0.014 A 
ATOM     50  C   UNL     1       3.158  -9.840  -3.415  1.00  0.00     0.010 A 
ATOM     51  C   UNL     1       4.752 -11.641  -3.183  1.00  0.00     0.010 A 
ATOM     52  C   UNL     1       3.562 -11.022  -2.773  1.00  0.00    -0.014 A 
BRANCH  52  53
ATOM     53  C   UNL     1       2.729 -11.578  -1.674  1.00  0.00     0.031 A 
ATOM     54  C   UNL     1       3.219 -11.561  -0.250  1.00  0.00     0.074 A 
ATOM     55  C   UNL     1       1.495 -12.044  -1.949  1.00  0.00     0.049 A 
ATOM     56  N   UNL     1       2.578 -11.898   0.841  1.00  0.00    -0.248 NA
ATOM     57  C   UNL     1       4.600 -11.110  -0.014  1.00  0.00     0.031 C 
ATOM     58  C   UNL     1       0.913 -12.141  -3.288  1.00  0.00     0.029 A 
ATOM     59  N   UNL     1       0.501 -12.497  -1.118  1.00  0.00    -0.354 N 
ATOM     60  C   UNL     1       3.481 -11.729   1.883  1.00  0.00     0.074 A 
ATOM     61  C   UNL     1       4.719 -11.264   1.298  1.00  0.00     0.031 C 
ATOM     62  C   UNL     1      -0.354 -12.572  -3.184  1.00  0.00     0.029 A 
ATOM     63  C   UNL     1      -0.667 -12.803  -1.776  1.00  0.00     0.049 A 
ATOM     64  H   UNL     1       0.613 -12.594  -0.145  1.00  0.00     0.167 HD
ATOM     65  C   UNL     1       3.290 -11.915   3.211  1.00  0.00     0.034 A 
ATOM     66  C   UNL     1      -1.863 -13.202  -1.302  1.00  0.00     0.034 A 
ATOM     67  C   UNL     1       2.046 -12.317   3.808  1.00  0.00     0.049 A 
ATOM     68  C   UNL     1      -2.059 -13.367   0.178  1.00  0.00     0.074 A 
ATOM     69  C   UNL     1       1.753 -12.479   5.152  1.00  0.00     0.029 A 
ATOM     70  N   UNL     1       0.890 -12.612   3.107  1.00  0.00    -0.354 N 
ATOM     71  N   UNL     1      -1.222 -13.104   1.151  1.00  0.00    -0.248 NA
ATOM     72  C   UNL     1      -3.367 -13.870   0.626  1.00  0.00     0.031 C 
ATOM     73  C   UNL     1       0.412 -12.863   5.263  1.00  0.00     0.029 A 
ATOM     74  C   UNL     1      -0.121 -12.953   3.988  1.00  0.00     0.049 A 
ATOM     75  H   UNL     1       0.800 -12.583   2.127  1.00  0.00     0.167 HD
ATOM     76  C   UNL     1      -1.900 -13.405   2.326  1.00  0.00     0.074 A 
ATOM     77  C   UNL     1      -3.227 -13.845   1.946  1.00  0.00     0.031 C 
ATOM     78  C   UNL     1      -1.450 -13.347   3.602  1.00  0.00     0.034 A 
BRANCH  65  79
ATOM     79  C   UNL     1       4.437 -11.612   4.131  1.00  0.00     0.023 A 
ATOM     80  C   UNL     1       4.627 -10.284   4.562  1.00  0.00     0.012 A 
ATOM     81  C   UNL     1       5.265 -12.633   4.633  1.00  0.00     0.148 A 
ATOM     82  C   UNL     1       5.630  -9.975   5.478  1.00  0.00     0.002 A 
ATOM     83  C   UNL     1       6.253 -12.319   5.561  1.00  0.00     0.091 A 
ATOM     84  F   UNL     1       5.077 -13.884   4.190  1.00  0.00    -0.205 F 
ATOM     85  C   UNL     1       6.436 -10.992   5.984  1.00  0.00     0.022 A 
BRANCH  83  86
ATOM     86  S   UNL     1       7.320 -13.562   6.298  1.00  0.00     0.127 S 
ATOM     87  O   UNL     1       8.597 -13.276   5.645  1.00  0.00    -0.237 OA
ATOM     88  O   UNL     1       7.270 -13.211   7.718  1.00  0.00    -0.237 OA
ATOM     89  O   UNL     1       6.724 -14.848   5.969  1.00  0.00    -0.744 OA
ENDBRANCH  83  86
ENDBRANCH  65  79
BRANCH  66  90
ATOM     90  C   UNL     1      -2.997 -13.376  -2.250  1.00  0.00     0.023 A 
ATOM     91  C   UNL     1      -3.994 -12.384  -2.306  1.00  0.00     0.012 A 
ATOM     92  C   UNL     1      -3.049 -14.461  -3.144  1.00  0.00     0.148 A 
ATOM     93  C   UNL     1      -5.026 -12.469  -3.239  1.00  0.00     0.002 A 
ATOM     94  C   UNL     1      -4.058 -14.518  -4.099  1.00  0.00     0.091 A 
ATOM     95  F   UNL     1      -2.100 -15.403  -3.056  1.00  0.00    -0.205 F 
ATOM     96  C   UNL     1      -5.051 -13.527  -4.144  1.00  0.00     0.022 A 
BRANCH  94  97
ATOM     97  S   UNL     1      -4.093 -15.781  -5.377  1.00  0.00     0.127 S 
ATOM     98  O   UNL     1      -5.165 -16.653  -4.905  1.00  0.00    -0.237 OA
ATOM     99  O   UNL     1      -4.415 -14.999  -6.571  1.00  0.00    -0.237 OA
ATOM    100  O   UNL     1      -2.757 -16.361  -5.386  1.00  0.00    -0.744 OA
ENDBRANCH  94  97
ENDBRANCH  66  90
BRANCH  78 101
ATOM    101  C   UNL     1      -2.380 -13.791   4.695  1.00  0.00     0.023 A 
ATOM    102  C   UNL     1      -2.480 -15.167   4.979  1.00  0.00     0.012 A 
ATOM    103  C   UNL     1      -3.057 -12.860   5.505  1.00  0.00     0.148 A 
ATOM    104  C   UNL     1      -3.246 -15.613   6.054  1.00  0.00     0.002 A 
ATOM    105  C   UNL     1      -3.800 -13.311   6.591  1.00  0.00     0.091 A 
ATOM    106  F   UNL     1      -2.954 -11.558   5.205  1.00  0.00    -0.205 F 
ATOM    107  C   UNL     1      -3.896 -14.686   6.865  1.00  0.00     0.022 A 
BRANCH 105 108
ATOM    108  S   UNL     1      -4.623 -12.193   7.731  1.00  0.00     0.127 S 
ATOM    109  O   UNL     1      -6.030 -12.416   7.403  1.00  0.00    -0.237 OA
ATOM    110  O   UNL     1      -4.210 -12.717   9.033  1.00  0.00    -0.237 OA
ATOM    111  O   UNL     1      -4.115 -10.863   7.426  1.00  0.00    -0.744 OA
ENDBRANCH 105 108
ENDBRANCH  78 101
ENDBRANCH  52  53
ENDBRANCH  44  47
ENDBRANCH  42  43
ENDBRANCH  41  42
ENDBRANCH  40  41
ENDBRANCH   1  40
TORSDOF 19
