REMARK SMILES Cc1cc2c(c(C)c1Cl)C=C(C(=O)NCCCCCCNC(=O)c1ccc(-c3c4nc(c(-c5cccc(S(=O)(=O)[O-])c5F)c5ccc([nH]5)c(-c5cccc(S(=O)(=O)[O-])c5F)c5nc(c(-c6cccc(S(=O)(=O)[O-])c6F)c6ccc3[nH]6)C=C5)C=C4)cc1)[C@@H](C(F)(F)F)O2
REMARK SMILES IDX 18 1 17 2 16 3 15 4 14 5 12 6 13 7 11 9 1 10 2 11 3 12 8 13
REMARK SMILES IDX 4 14 6 15 9 16 5 17 92 18 7 19 10 20 87 21 88 22 89 23 90 24
REMARK SMILES IDX 91 25 19 26 20 27 21 28 22 29 23 31 24 32 25 33 86 34 26 35
REMARK SMILES IDX 85 36 27 37 28 38 29 39 79 40 30 41 84 42 78 43 80 44 31 45
REMARK SMILES IDX 83 46 77 47 76 48 32 50 64 51 44 52 63 53 45 54 48 55 62 56
REMARK SMILES IDX 81 57 46 58 47 59 61 61 82 62 49 63 33 64 34 65 42 66 35 67
REMARK SMILES IDX 37 68 43 69 36 70 38 71 39 72 40 73 41 74 65 75 66 76 74 77
REMARK SMILES IDX 67 78 69 79 75 80 68 81 70 82 71 83 72 84 73 85 50 86 51 87
REMARK SMILES IDX 59 88 52 89 54 90 60 91 53 92 55 93 56 94 57 95 58 96
REMARK H PARENT 14 8 21 30 80 49 48 60
REMARK Flexibility Score: inf
ROOT
ATOM      1  C   UNL     1      -3.425   3.253  10.757  1.00  0.00     0.002 C 
ENDROOT
BRANCH   1   2
ATOM      2  C   UNL     1      -1.925   3.384  10.460  1.00  0.00     0.002 C 
BRANCH   2   3
ATOM      3  C   UNL     1      -1.432   2.577   9.256  1.00  0.00     0.021 C 
BRANCH   3   4
ATOM      4  C   UNL     1      -2.188   2.881   7.968  1.00  0.00     0.116 C 
BRANCH   4   5
ATOM      5  N   UNL     1      -1.667   4.064   7.306  1.00  0.00    -0.352 N 
ATOM      6  C   UNL     1      -1.134   4.370   6.101  1.00  0.00     0.251 C 
ATOM      7  O   UNL     1      -0.832   5.559   5.944  1.00  0.00    -0.270 OA
ATOM      8  H   UNL     1      -1.713   4.855   7.891  1.00  0.00     0.163 HD
BRANCH   6   9
ATOM      9  C   UNL     1      -0.894   3.396   4.993  1.00  0.00     0.067 C 
ATOM     10  C   UNL     1       1.102   0.078  -0.243  1.00  0.00     0.046 C 
ATOM     11  C   UNL     1       0.753   1.121   0.783  1.00  0.00    -0.028 A 
ATOM     12  C   UNL     1       0.119   0.709   1.955  1.00  0.00     0.052 A 
ATOM     13  C   UNL     1       1.060   2.487   0.621  1.00  0.00     0.047 A 
ATOM     14  C   UNL     1      -0.200   1.628   2.947  1.00  0.00     0.128 A 
ATOM     15  C   UNL     1       0.738   3.435   1.625  1.00  0.00    -0.021 A 
ATOM     16  Cl  UNL     1       1.866   2.981  -0.838  1.00  0.00    -0.084 Cl
ATOM     17  C   UNL     1       0.114   2.982   2.813  1.00  0.00     0.022 A 
ATOM     18  O   UNL     1      -0.784   1.089   4.052  1.00  0.00    -0.475 OA
ATOM     19  C   UNL     1       1.056   4.904   1.467  1.00  0.00     0.047 C 
ATOM     20  C   UNL     1      -0.175   3.858   3.953  1.00  0.00     0.026 C 
ATOM     21  C   UNL     1      -1.427   1.995   4.978  1.00  0.00     0.314 C 
BRANCH  21  22
ATOM     22  C   UNL     1      -2.951   1.942   4.765  1.00  0.00     0.429 C 
ATOM     23  F   UNL     1      -3.441   0.733   5.127  1.00  0.00    -0.167 F 
ATOM     24  F   UNL     1      -3.611   2.862   5.508  1.00  0.00    -0.167 F 
ATOM     25  F   UNL     1      -3.296   2.159   3.476  1.00  0.00    -0.167 F 
ENDBRANCH  21  22
ENDBRANCH   6   9
ENDBRANCH   4   5
ENDBRANCH   3   4
ENDBRANCH   2   3
ENDBRANCH   1   2
BRANCH   1  26
ATOM     26  C   UNL     1      -3.952   1.817  10.829  1.00  0.00     0.021 C 
BRANCH  26  27
ATOM     27  C   UNL     1      -3.250   0.940  11.859  1.00  0.00     0.116 C 
BRANCH  27  28
ATOM     28  N   UNL     1      -3.377   1.482  13.202  1.00  0.00    -0.352 N 
ATOM     29  C   UNL     1      -3.928   0.905  14.316  1.00  0.00     0.251 C 
ATOM     30  H   UNL     1      -3.018   2.390  13.328  1.00  0.00     0.163 HD
ATOM     31  O   UNL     1      -4.162   1.586  15.312  1.00  0.00    -0.269 OA
BRANCH  29  32
ATOM     32  C   UNL     1      -4.245  -0.536  14.306  1.00  0.00     0.039 A 
ATOM     33  C   UNL     1      -5.481  -0.963  14.794  1.00  0.00     0.014 A 
ATOM     34  C   UNL     1      -3.317  -1.462  13.817  1.00  0.00     0.014 A 
ATOM     35  C   UNL     1      -5.805  -2.320  14.752  1.00  0.00     0.010 A 
ATOM     36  C   UNL     1      -3.671  -2.801  13.707  1.00  0.00     0.010 A 
ATOM     37  C   UNL     1      -4.911  -3.246  14.188  1.00  0.00    -0.014 A 
BRANCH  37  38
ATOM     38  C   UNL     1      -5.252  -4.687  14.111  1.00  0.00     0.031 A 
ATOM     39  C   UNL     1      -4.446  -5.692  14.886  1.00  0.00     0.074 A 
ATOM     40  C   UNL     1      -6.250  -5.094  13.302  1.00  0.00     0.049 A 
ATOM     41  N   UNL     1      -4.574  -6.992  14.928  1.00  0.00    -0.248 NA
ATOM     42  C   UNL     1      -3.337  -5.174  15.707  1.00  0.00     0.031 C 
ATOM     43  C   UNL     1      -7.061  -4.216  12.456  1.00  0.00     0.029 A 
ATOM     44  N   UNL     1      -6.744  -6.348  13.049  1.00  0.00    -0.354 N 
ATOM     45  C   UNL     1      -3.556  -7.447  15.758  1.00  0.00     0.074 A 
ATOM     46  C   UNL     1      -2.789  -6.291  16.162  1.00  0.00     0.031 C 
ATOM     47  C   UNL     1      -7.962  -4.957  11.791  1.00  0.00     0.029 A 
ATOM     48  C   UNL     1      -7.774  -6.362  12.137  1.00  0.00     0.049 A 
ATOM     49  H   UNL     1      -6.394  -7.162  13.479  1.00  0.00     0.167 HD
ATOM     50  C   UNL     1      -3.307  -8.710  16.177  1.00  0.00     0.034 A 
ATOM     51  C   UNL     1      -8.488  -7.392  11.639  1.00  0.00     0.034 A 
ATOM     52  C   UNL     1      -4.100  -9.849  15.804  1.00  0.00     0.049 A 
ATOM     53  C   UNL     1      -8.196  -8.785  12.129  1.00  0.00     0.074 A 
ATOM     54  C   UNL     1      -3.970 -11.159  16.228  1.00  0.00     0.029 A 
ATOM     55  N   UNL     1      -5.167  -9.817  14.919  1.00  0.00    -0.354 N 
ATOM     56  N   UNL     1      -7.319  -9.178  13.022  1.00  0.00    -0.248 NA
ATOM     57  C   UNL     1      -9.010  -9.874  11.569  1.00  0.00     0.031 C 
ATOM     58  C   UNL     1      -4.941 -11.925  15.578  1.00  0.00     0.029 A 
ATOM     59  C   UNL     1      -5.697 -11.087  14.774  1.00  0.00     0.049 A 
ATOM     60  H   UNL     1      -5.498  -9.011  14.462  1.00  0.00     0.167 HD
ATOM     61  C   UNL     1      -7.495 -10.551  13.153  1.00  0.00     0.074 A 
ATOM     62  C   UNL     1      -8.580 -10.918  12.266  1.00  0.00     0.031 C 
ATOM     63  C   UNL     1      -6.809 -11.430  13.924  1.00  0.00     0.034 A 
BRANCH  50  64
ATOM     64  C   UNL     1      -2.171  -8.923  17.144  1.00  0.00     0.023 A 
ATOM     65  C   UNL     1      -2.301  -8.472  18.473  1.00  0.00     0.012 A 
ATOM     66  C   UNL     1      -1.023  -9.648  16.769  1.00  0.00     0.148 A 
ATOM     67  C   UNL     1      -1.298  -8.716  19.409  1.00  0.00     0.002 A 
ATOM     68  C   UNL     1      -0.049  -9.930  17.720  1.00  0.00     0.091 A 
ATOM     69  F   UNL     1      -0.909 -10.051  15.496  1.00  0.00    -0.205 F 
ATOM     70  C   UNL     1      -0.179  -9.456  19.036  1.00  0.00     0.022 A 
BRANCH  68  71
ATOM     71  S   UNL     1       1.389 -10.948  17.368  1.00  0.00     0.127 S 
ATOM     72  O   UNL     1       2.476  -9.979  17.497  1.00  0.00    -0.237 OA
ATOM     73  O   UNL     1       1.328 -11.942  18.439  1.00  0.00    -0.237 OA
ATOM     74  O   UNL     1       1.188 -11.480  16.027  1.00  0.00    -0.744 OA
ENDBRANCH  68  71
ENDBRANCH  50  64
BRANCH  51  75
ATOM     75  C   UNL     1      -9.599  -7.128  10.679  1.00  0.00     0.023 A 
ATOM     76  C   UNL     1     -10.930  -7.330  11.094  1.00  0.00     0.012 A 
ATOM     77  C   UNL     1      -9.352  -6.632   9.384  1.00  0.00     0.148 A 
ATOM     78  C   UNL     1     -11.993  -7.066  10.230  1.00  0.00     0.002 A 
ATOM     79  C   UNL     1     -10.418  -6.315   8.549  1.00  0.00     0.091 A 
ATOM     80  F   UNL     1      -8.079  -6.457   9.003  1.00  0.00    -0.205 F 
ATOM     81  C   UNL     1     -11.739  -6.548   8.964  1.00  0.00     0.022 A 
BRANCH  79  82
ATOM     82  S   UNL     1     -10.194  -5.511   6.958  1.00  0.00     0.127 S 
ATOM     83  O   UNL     1     -10.619  -6.558   6.032  1.00  0.00    -0.237 OA
ATOM     84  O   UNL     1     -11.107  -4.373   7.066  1.00  0.00    -0.237 OA
ATOM     85  O   UNL     1      -8.785  -5.148   6.894  1.00  0.00    -0.744 OA
ENDBRANCH  79  82
ENDBRANCH  51  75
BRANCH  63  86
ATOM     86  C   UNL     1      -7.205 -12.884  13.866  1.00  0.00     0.023 A 
ATOM     87  C   UNL     1      -6.894 -13.644  12.722  1.00  0.00     0.012 A 
ATOM     88  C   UNL     1      -7.772 -13.521  14.989  1.00  0.00     0.148 A 
ATOM     89  C   UNL     1      -7.160 -15.012  12.687  1.00  0.00     0.002 A 
ATOM     90  C   UNL     1      -7.984 -14.894  14.966  1.00  0.00     0.091 A 
ATOM     91  F   UNL     1      -8.073 -12.777  16.062  1.00  0.00    -0.205 F 
ATOM     92  C   UNL     1      -7.689 -15.639  13.813  1.00  0.00     0.022 A 
BRANCH  90  93
ATOM     93  S   UNL     1      -8.557 -15.809  16.403  1.00  0.00     0.127 S 
ATOM     94  O   UNL     1      -9.896 -16.217  15.981  1.00  0.00    -0.237 OA
ATOM     95  O   UNL     1      -7.583 -16.898  16.483  1.00  0.00    -0.237 OA
ATOM     96  O   UNL     1      -8.515 -14.874  17.520  1.00  0.00    -0.744 OA
ENDBRANCH  90  93
ENDBRANCH  63  86
ENDBRANCH  37  38
ENDBRANCH  29  32
ENDBRANCH  27  28
ENDBRANCH  26  27
ENDBRANCH   1  26
TORSDOF 17
