REMARK SMILES Cc1cc(NS(=O)(=O)c2ccc(NC(=O)[C@@H]3CCCC[C@@H]3C(=O)NCCCCCCNC(=O)c3ccc(-c4c5nc(c(-c6cccc(S(=O)(=O)[O-])c6F)c6ccc([nH]6)c(-c6cccc(S(=O)(=O)[O-])c6F)c6nc(c(-c7cccc(S(=O)(=O)[O-])c7F)c7ccc4[nH]7)C=C6)C=C5)cc3)cc2)no1
REMARK SMILES IDX 26 1 25 2 24 3 22 4 23 5 21 7 16 8 17 9 18 10 20 11 19 12
REMARK SMILES IDX 14 13 13 14 15 16 12 17 9 18 10 19 98 20 11 21 97 22 6 23
REMARK SMILES IDX 7 24 8 25 5 26 4 28 1 29 2 30 3 31 100 32 99 33 27 34 28 35
REMARK SMILES IDX 29 36 30 37 31 38 32 39 33 41 34 42 35 43 96 44 36 45 95 46
REMARK SMILES IDX 37 47 38 48 39 49 89 50 40 51 94 52 88 53 90 54 41 55 93 56
REMARK SMILES IDX 87 57 86 58 42 60 74 61 54 62 73 63 55 64 58 65 72 66 91 67
REMARK SMILES IDX 56 68 57 69 71 71 92 72 59 73 43 74 44 75 52 76 45 77 47 78
REMARK SMILES IDX 53 79 46 80 48 81 49 82 50 83 51 84 75 85 76 86 84 87 77 88
REMARK SMILES IDX 79 89 85 90 78 91 80 92 81 93 82 94 83 95 60 96 61 97 69 98
REMARK SMILES IDX 62 99 64 100 70 101 63 102 65 103 66 104 67 105 68 106
REMARK H PARENT 24 6 13 15 5 27 31 40 90 59 58 70
REMARK Flexibility Score: inf
ROOT
ATOM      1  C   UNL     1      -4.115   8.422   1.744  1.00  0.00     0.021 C 
ENDROOT
BRANCH   1   2
ATOM      2  C   UNL     1      -3.213   7.953   2.886  1.00  0.00     0.116 C 
BRANCH   2   3
ATOM      3  N   UNL     1      -3.694   6.704   3.462  1.00  0.00    -0.356 N 
ATOM      4  C   UNL     1      -3.054   5.524   3.689  1.00  0.00     0.223 C 
ATOM      5  O   UNL     1      -3.697   4.608   4.207  1.00  0.00    -0.275 OA
ATOM      6  H   UNL     1      -4.640   6.715   3.733  1.00  0.00     0.163 HD
BRANCH   4   7
ATOM      7  C   UNL     1      -1.580   5.362   3.330  1.00  0.00     0.091 C 
ATOM      8  C   UNL     1      -1.308   4.797   1.915  1.00  0.00     0.091 C 
ATOM      9  C   UNL     1      -0.903   3.323   1.774  1.00  0.00     0.014 C 
ATOM     10  C   UNL     1      -0.173   2.734   2.972  1.00  0.00     0.001 C 
ATOM     11  C   UNL     1      -0.839   4.619   4.452  1.00  0.00     0.014 C 
ATOM     12  C   UNL     1      -0.845   3.109   4.282  1.00  0.00     0.001 C 
BRANCH   8  13
ATOM     13  C   UNL     1      -2.254   5.381   0.861  1.00  0.00     0.228 C 
ATOM     14  N   UNL     1      -3.356   4.824   0.300  1.00  0.00    -0.326 N 
ATOM     15  H   UNL     1      -3.884   5.470  -0.223  1.00  0.00     0.169 HD
ATOM     16  O   UNL     1      -1.982   6.515   0.430  1.00  0.00    -0.274 OA
BRANCH  14  17
ATOM     17  C   UNL     1      -3.914   3.541   0.296  1.00  0.00     0.041 A 
ATOM     18  C   UNL     1      -4.421   0.837  -0.085  1.00  0.00     0.088 A 
ATOM     19  C   UNL     1      -4.237   1.325   1.210  1.00  0.00     0.024 A 
ATOM     20  C   UNL     1      -4.562   1.716  -1.158  1.00  0.00     0.024 A 
ATOM     21  C   UNL     1      -4.003   2.693   1.397  1.00  0.00     0.027 A 
ATOM     22  C   UNL     1      -4.327   3.074  -0.958  1.00  0.00     0.027 A 
BRANCH  18  23
ATOM     23  S   UNL     1      -4.352  -0.904  -0.403  1.00  0.00     0.263 S 
ATOM     24  O   UNL     1      -4.546  -1.134  -1.821  1.00  0.00    -0.201 OA
ATOM     25  O   UNL     1      -5.216  -1.546   0.566  1.00  0.00    -0.201 OA
BRANCH  23  26
ATOM     26  N   UNL     1      -2.805  -1.395  -0.007  1.00  0.00    -0.261 N 
ATOM     27  H   UNL     1      -2.725  -2.251   0.473  1.00  0.00     0.182 HD
BRANCH  26  28
ATOM     28  C   UNL     1      -1.621  -0.727  -0.281  1.00  0.00     0.183 A 
ATOM     29  C   UNL     1       1.978  -0.013  -0.095  1.00  0.00     0.091 C 
ATOM     30  C   UNL     1       0.524  -0.211  -0.248  1.00  0.00     0.135 A 
ATOM     31  C   UNL     1      -0.348  -1.215   0.092  1.00  0.00     0.096 A 
ATOM     32  O   UNL     1      -0.175   0.799  -0.831  1.00  0.00    -0.360 OA
ATOM     33  N   UNL     1      -1.517   0.462  -0.875  1.00  0.00    -0.061 NA
ENDBRANCH  26  28
ENDBRANCH  23  26
ENDBRANCH  18  23
ENDBRANCH  14  17
ENDBRANCH   8  13
ENDBRANCH   4   7
ENDBRANCH   2   3
ENDBRANCH   1   2
BRANCH   1  34
ATOM     34  C   UNL     1      -5.524   8.848   2.169  1.00  0.00     0.002 C 
BRANCH  34  35
ATOM     35  C   UNL     1      -5.584  10.009   3.163  1.00  0.00     0.002 C 
BRANCH  35  36
ATOM     36  C   UNL     1      -4.837  11.276   2.738  1.00  0.00     0.021 C 
BRANCH  36  37
ATOM     37  C   UNL     1      -5.212  11.826   1.364  1.00  0.00     0.116 C 
BRANCH  37  38
ATOM     38  N   UNL     1      -6.621  12.176   1.269  1.00  0.00    -0.352 N 
ATOM     39  C   UNL     1      -7.201  13.356   0.871  1.00  0.00     0.251 C 
ATOM     40  H   UNL     1      -7.250  11.464   1.527  1.00  0.00     0.163 HD
ATOM     41  O   UNL     1      -8.410  13.521   1.002  1.00  0.00    -0.269 OA
BRANCH  39  42
ATOM     42  C   UNL     1      -6.362  14.436   0.308  1.00  0.00     0.039 A 
ATOM     43  C   UNL     1      -6.531  15.738   0.787  1.00  0.00     0.014 A 
ATOM     44  C   UNL     1      -5.411  14.169  -0.680  1.00  0.00     0.014 A 
ATOM     45  C   UNL     1      -5.697  16.759   0.325  1.00  0.00     0.010 A 
ATOM     46  C   UNL     1      -4.539  15.174  -1.093  1.00  0.00     0.010 A 
ATOM     47  C   UNL     1      -4.670  16.479  -0.592  1.00  0.00    -0.014 A 
BRANCH  47  48
ATOM     48  C   UNL     1      -3.699  17.526  -1.002  1.00  0.00     0.031 A 
ATOM     49  C   UNL     1      -3.625  17.983  -2.433  1.00  0.00     0.074 A 
ATOM     50  C   UNL     1      -2.819  18.000  -0.098  1.00  0.00     0.049 A 
ATOM     51  N   UNL     1      -2.812  18.851  -2.978  1.00  0.00    -0.248 NA
ATOM     52  C   UNL     1      -4.569  17.370  -3.381  1.00  0.00     0.031 C 
ATOM     53  C   UNL     1      -2.735  17.575   1.302  1.00  0.00     0.029 A 
ATOM     54  N   UNL     1      -1.809  18.921  -0.225  1.00  0.00    -0.354 N 
ATOM     55  C   UNL     1      -3.121  18.864  -4.333  1.00  0.00     0.074 A 
ATOM     56  C   UNL     1      -4.179  17.898  -4.533  1.00  0.00     0.031 C 
ATOM     57  C   UNL     1      -1.731  18.234   1.902  1.00  0.00     0.029 A 
ATOM     58  C   UNL     1      -1.083  19.107   0.929  1.00  0.00     0.049 A 
ATOM     59  H   UNL     1      -1.622  19.402  -1.063  1.00  0.00     0.167 HD
ATOM     60  C   UNL     1      -2.591  19.630  -5.316  1.00  0.00     0.034 A 
ATOM     61  C   UNL     1      -0.012  19.887   1.175  1.00  0.00     0.034 A 
ATOM     62  C   UNL     1      -1.571  20.623  -5.106  1.00  0.00     0.049 A 
ATOM     63  C   UNL     1       0.527  20.759   0.073  1.00  0.00     0.074 A 
ATOM     64  C   UNL     1      -1.044  21.520  -6.019  1.00  0.00     0.029 A 
ATOM     65  N   UNL     1      -0.918  20.846  -3.904  1.00  0.00    -0.354 N 
ATOM     66  N   UNL     1       0.103  20.886  -1.161  1.00  0.00    -0.248 NA
ATOM     67  C   UNL     1       1.670  21.621   0.406  1.00  0.00     0.031 C 
ATOM     68  C   UNL     1      -0.056  22.271  -5.373  1.00  0.00     0.029 A 
ATOM     69  C   UNL     1       0.017  21.856  -4.054  1.00  0.00     0.049 A 
ATOM     70  H   UNL     1      -1.093  20.358  -3.067  1.00  0.00     0.167 HD
ATOM     71  C   UNL     1       0.903  21.863  -1.741  1.00  0.00     0.074 A 
ATOM     72  C   UNL     1       1.822  22.313  -0.715  1.00  0.00     0.031 C 
ATOM     73  C   UNL     1       0.890  22.333  -3.012  1.00  0.00     0.034 A 
BRANCH  60  74
ATOM     74  C   UNL     1      -3.146  19.472  -6.708  1.00  0.00     0.023 A 
ATOM     75  C   UNL     1      -4.430  19.973  -7.002  1.00  0.00     0.012 A 
ATOM     76  C   UNL     1      -2.373  18.901  -7.739  1.00  0.00     0.148 A 
ATOM     77  C   UNL     1      -4.949  19.884  -8.293  1.00  0.00     0.002 A 
ATOM     78  C   UNL     1      -2.881  18.853  -9.032  1.00  0.00     0.091 A 
ATOM     79  F   UNL     1      -1.163  18.411  -7.435  1.00  0.00    -0.205 F 
ATOM     80  C   UNL     1      -4.171  19.335  -9.309  1.00  0.00     0.022 A 
BRANCH  78  81
ATOM     81  S   UNL     1      -1.929  18.236 -10.426  1.00  0.00     0.127 S 
ATOM     82  O   UNL     1      -2.615  16.977 -10.716  1.00  0.00    -0.237 OA
ATOM     83  O   UNL     1      -2.132  19.285 -11.426  1.00  0.00    -0.237 OA
ATOM     84  O   UNL     1      -0.559  18.107  -9.950  1.00  0.00    -0.744 OA
ENDBRANCH  78  81
ENDBRANCH  60  74
BRANCH  61  85
ATOM     85  C   UNL     1       0.578  19.933   2.543  1.00  0.00     0.023 A 
ATOM     86  C   UNL     1       0.421  21.098   3.321  1.00  0.00     0.012 A 
ATOM     87  C   UNL     1       1.265  18.831   3.087  1.00  0.00     0.148 A 
ATOM     88  C   UNL     1       0.966  21.175   4.603  1.00  0.00     0.002 A 
ATOM     89  C   UNL     1       1.757  18.896   4.386  1.00  0.00     0.091 A 
ATOM     90  F   UNL     1       1.417  17.738   2.327  1.00  0.00    -0.205 F 
ATOM     91  C   UNL     1       1.624  20.072   5.139  1.00  0.00     0.022 A 
BRANCH  89  92
ATOM     92  S   UNL     1       2.499  17.477   5.201  1.00  0.00     0.127 S 
ATOM     93  O   UNL     1       3.915  17.834   5.194  1.00  0.00    -0.237 OA
ATOM     94  O   UNL     1       1.861  17.513   6.517  1.00  0.00    -0.237 OA
ATOM     95  O   UNL     1       2.129  16.324   4.390  1.00  0.00    -0.744 OA
ENDBRANCH  89  92
ENDBRANCH  61  85
BRANCH  73  96
ATOM     96  C   UNL     1       1.882  23.409  -3.369  1.00  0.00     0.023 A 
ATOM     97  C   UNL     1       3.245  23.081  -3.511  1.00  0.00     0.012 A 
ATOM     98  C   UNL     1       1.456  24.725  -3.634  1.00  0.00     0.148 A 
ATOM     99  C   UNL     1       4.173  24.054  -3.881  1.00  0.00     0.002 A 
ATOM    100  C   UNL     1       2.379  25.678  -4.048  1.00  0.00     0.091 A 
ATOM    101  F   UNL     1       0.158  25.023  -3.475  1.00  0.00    -0.205 F 
ATOM    102  C   UNL     1       3.739  25.347  -4.160  1.00  0.00     0.022 A 
BRANCH 100 103
ATOM    103  S   UNL     1       1.897  27.343  -4.519  1.00  0.00     0.127 S 
ATOM    104  O   UNL     1       2.366  28.125  -3.376  1.00  0.00    -0.237 OA
ATOM    105  O   UNL     1       2.657  27.551  -5.753  1.00  0.00    -0.237 OA
ATOM    106  O   UNL     1       0.452  27.305  -4.702  1.00  0.00    -0.744 OA
ENDBRANCH 100 103
ENDBRANCH  73  96
ENDBRANCH  47  48
ENDBRANCH  39  42
ENDBRANCH  37  38
ENDBRANCH  36  37
ENDBRANCH  35  36
ENDBRANCH  34  35
ENDBRANCH   1  34
TORSDOF 21
