REMARK SMILES Cc1ccc(Cl)c(Nc2ccccc2C(=O)NCC(=O)NCCCCCCNC(=O)c2ccc(-c3c4nc(c(-c5cccc(S(=O)(=O)[O-])c5F)c5ccc([nH]5)c(-c5cccc(S(=O)(=O)[O-])c5F)c5nc(c(-c6cccc(S(=O)(=O)[O-])c6F)c6ccc3[nH]6)C=C5)C=C4)cc2)c1Cl
REMARK SMILES IDX 24 1 23 2 22 3 21 4 19 5 20 6 18 8 17 9 15 10 16 11 14 13
REMARK SMILES IDX 9 14 10 15 11 16 13 17 12 18 8 19 7 21 1 22 2 23 3 24 94 25
REMARK SMILES IDX 4 26 95 27 5 28 6 29 25 30 26 31 27 32 28 33 29 34 30 36
REMARK SMILES IDX 31 37 32 38 93 39 33 40 92 41 34 42 35 43 36 44 86 45 37 46
REMARK SMILES IDX 91 47 85 48 87 49 38 50 90 51 84 52 83 53 39 55 71 56 51 57
REMARK SMILES IDX 70 58 52 59 55 60 69 61 88 62 53 63 54 64 68 66 89 67 56 68
REMARK SMILES IDX 40 69 41 70 49 71 42 72 44 73 50 74 43 75 45 76 46 77 47 78
REMARK SMILES IDX 48 79 72 80 73 81 81 82 74 83 76 84 82 85 75 86 77 87 78 88
REMARK SMILES IDX 79 89 80 90 57 91 58 92 66 93 59 94 61 95 67 96 60 97 62 98
REMARK SMILES IDX 63 99 64 100 65 101
REMARK H PARENT 21 7 17 12 8 20 28 35 87 54 55 65
REMARK Flexibility Score: inf
ROOT
ATOM      1  C   UNL     1      -2.785  -4.082   4.686  1.00  0.00     0.002 C 
ENDROOT
BRANCH   1   2
ATOM      2  C   UNL     1      -1.486  -3.684   3.976  1.00  0.00     0.021 C 
BRANCH   2   3
ATOM      3  C   UNL     1      -1.696  -3.502   2.478  1.00  0.00     0.116 C 
BRANCH   3   4
ATOM      4  N   UNL     1      -2.570  -2.376   2.262  1.00  0.00    -0.355 N 
ATOM      5  C   UNL     1      -2.206  -1.064   2.253  1.00  0.00     0.239 C 
ATOM      6  O   UNL     1      -3.095  -0.209   2.292  1.00  0.00    -0.273 OA
ATOM      7  H   UNL     1      -3.522  -2.574   2.105  1.00  0.00     0.163 HD
BRANCH   5   8
ATOM      8  C   UNL     1      -0.771  -0.693   1.890  1.00  0.00     0.216 C 
BRANCH   8   9
ATOM      9  N   UNL     1       0.431  -1.259   2.460  1.00  0.00    -0.343 N 
ATOM     10  C   UNL     1       1.531  -1.815   1.836  1.00  0.00     0.253 C 
ATOM     11  O   UNL     1       2.612  -1.583   2.389  1.00  0.00    -0.269 OA
ATOM     12  H   UNL     1       0.472  -1.246   3.443  1.00  0.00     0.164 HD
BRANCH  10  13
ATOM     13  C   UNL     1       1.500  -2.852   0.739  1.00  0.00     0.063 A 
ATOM     14  C   UNL     1       0.791  -2.908  -0.486  1.00  0.00     0.051 A 
ATOM     15  C   UNL     1       0.903  -4.091  -1.267  1.00  0.00     0.027 A 
ATOM     16  C   UNL     1       1.730  -5.155  -0.914  1.00  0.00     0.002 A 
ATOM     17  C   UNL     1       2.345  -3.950   1.063  1.00  0.00     0.016 A 
ATOM     18  C   UNL     1       2.473  -5.075   0.247  1.00  0.00     0.001 A 
BRANCH  14  19
ATOM     19  N   UNL     1       0.074  -1.882  -1.142  1.00  0.00    -0.352 N 
ATOM     20  H   UNL     1      -0.688  -2.217  -1.667  1.00  0.00     0.167 HD
BRANCH  19  21
ATOM     21  C   UNL     1       0.219  -0.474  -1.204  1.00  0.00     0.077 A 
ATOM     22  C   UNL     1       2.687   2.251  -0.148  1.00  0.00     0.046 C 
ATOM     23  C   UNL     1       1.426   1.565  -0.595  1.00  0.00    -0.030 A 
ATOM     24  C   UNL     1       0.218   2.278  -0.601  1.00  0.00     0.006 A 
ATOM     25  C   UNL     1       1.427   0.200  -0.946  1.00  0.00     0.069 A 
ATOM     26  C   UNL     1      -0.966   1.662  -0.994  1.00  0.00     0.023 A 
ATOM     27  Cl  UNL     1       2.951  -0.609  -1.158  1.00  0.00    -0.082 Cl
ATOM     28  C   UNL     1      -0.963   0.304  -1.305  1.00  0.00     0.066 A 
ATOM     29  Cl  UNL     1      -2.487  -0.443  -1.670  1.00  0.00    -0.082 Cl
ENDBRANCH  19  21
ENDBRANCH  14  19
ENDBRANCH  10  13
ENDBRANCH   8   9
ENDBRANCH   5   8
ENDBRANCH   3   4
ENDBRANCH   2   3
ENDBRANCH   1   2
BRANCH   1  30
ATOM     30  C   UNL     1      -3.399  -5.382   4.157  1.00  0.00     0.002 C 
BRANCH  30  31
ATOM     31  C   UNL     1      -2.443  -6.576   4.195  1.00  0.00     0.021 C 
BRANCH  31  32
ATOM     32  C   UNL     1      -1.869  -6.850   5.579  1.00  0.00     0.116 C 
BRANCH  32  33
ATOM     33  N   UNL     1      -2.924  -7.113   6.545  1.00  0.00    -0.352 N 
ATOM     34  C   UNL     1      -3.054  -8.176   7.399  1.00  0.00     0.251 C 
ATOM     35  H   UNL     1      -3.639  -6.437   6.592  1.00  0.00     0.163 HD
ATOM     36  O   UNL     1      -4.113  -8.384   7.979  1.00  0.00    -0.269 OA
BRANCH  34  37
ATOM     37  C   UNL     1      -1.897  -9.069   7.599  1.00  0.00     0.039 A 
ATOM     38  C   UNL     1      -2.087 -10.449   7.542  1.00  0.00     0.014 A 
ATOM     39  C   UNL     1      -0.626  -8.530   7.821  1.00  0.00     0.014 A 
ATOM     40  C   UNL     1      -0.986 -11.295   7.670  1.00  0.00     0.010 A 
ATOM     41  C   UNL     1       0.478  -9.371   7.869  1.00  0.00     0.010 A 
ATOM     42  C   UNL     1       0.306 -10.761   7.810  1.00  0.00    -0.014 A 
BRANCH  42  43
ATOM     43  C   UNL     1       1.494 -11.643   7.897  1.00  0.00     0.031 A 
ATOM     44  C   UNL     1       2.342 -11.649   9.138  1.00  0.00     0.074 A 
ATOM     45  C   UNL     1       1.857 -12.371   6.824  1.00  0.00     0.049 A 
ATOM     46  N   UNL     1       3.438 -12.318   9.384  1.00  0.00    -0.248 NA
ATOM     47  C   UNL     1       1.920 -10.764  10.237  1.00  0.00     0.031 C 
ATOM     48  C   UNL     1       1.165 -12.377   5.533  1.00  0.00     0.029 A 
ATOM     49  N   UNL     1       2.915 -13.224   6.638  1.00  0.00    -0.354 N 
ATOM     50  C   UNL     1       3.856 -11.910  10.644  1.00  0.00     0.074 A 
ATOM     51  C   UNL     1       2.919 -10.905  11.095  1.00  0.00     0.031 C 
ATOM     52  C   UNL     1       1.815 -13.195   4.691  1.00  0.00     0.029 A 
ATOM     53  C   UNL     1       2.983 -13.748   5.369  1.00  0.00     0.049 A 
ATOM     54  H   UNL     1       3.564 -13.441   7.346  1.00  0.00     0.167 HD
ATOM     55  C   UNL     1       4.907 -12.353  11.374  1.00  0.00     0.034 A 
ATOM     56  C   UNL     1       3.889 -14.574   4.811  1.00  0.00     0.034 A 
ATOM     57  C   UNL     1       5.814 -13.377  10.932  1.00  0.00     0.049 A 
ATOM     58  C   UNL     1       5.021 -15.090   5.655  1.00  0.00     0.074 A 
ATOM     59  C   UNL     1       6.852 -13.967  11.629  1.00  0.00     0.029 A 
ATOM     60  N   UNL     1       5.800 -13.954   9.671  1.00  0.00    -0.354 N 
ATOM     61  N   UNL     1       5.304 -14.823   6.907  1.00  0.00    -0.248 NA
ATOM     62  C   UNL     1       5.935 -16.052   5.024  1.00  0.00     0.031 C 
ATOM     63  C   UNL     1       7.485 -14.881  10.779  1.00  0.00     0.029 A 
ATOM     64  C   UNL     1       6.819 -14.884   9.563  1.00  0.00     0.049 A 
ATOM     65  H   UNL     1       5.158 -13.735   8.957  1.00  0.00     0.167 HD
ATOM     66  C   UNL     1       6.409 -15.604   7.224  1.00  0.00     0.074 A 
ATOM     67  C   UNL     1       6.730 -16.371   6.037  1.00  0.00     0.031 C 
ATOM     68  C   UNL     1       7.102 -15.671   8.388  1.00  0.00     0.034 A 
BRANCH  55  69
ATOM     69  C   UNL     1       5.099 -11.759  12.746  1.00  0.00     0.023 A 
ATOM     70  C   UNL     1       4.171 -12.049  13.769  1.00  0.00     0.012 A 
ATOM     71  C   UNL     1       6.207 -10.940  13.035  1.00  0.00     0.148 A 
ATOM     72  C   UNL     1       4.315 -11.495  15.040  1.00  0.00     0.002 A 
ATOM     73  C   UNL     1       6.371 -10.431  14.319  1.00  0.00     0.091 A 
ATOM     74  F   UNL     1       7.068 -10.655  12.048  1.00  0.00    -0.205 F 
ATOM     75  C   UNL     1       5.419 -10.695  15.317  1.00  0.00     0.022 A 
BRANCH  73  76
ATOM     76  S   UNL     1       7.804  -9.460  14.797  1.00  0.00     0.127 S 
ATOM     77  O   UNL     1       7.232  -8.118  14.894  1.00  0.00    -0.237 OA
ATOM     78  O   UNL     1       8.171 -10.060  16.080  1.00  0.00    -0.237 OA
ATOM     79  O   UNL     1       8.786  -9.649  13.739  1.00  0.00    -0.744 OA
ENDBRANCH  73  76
ENDBRANCH  55  69
BRANCH  56  80
ATOM     80  C   UNL     1       3.711 -15.011   3.398  1.00  0.00     0.023 A 
ATOM     81  C   UNL     1       3.319 -16.335   3.127  1.00  0.00     0.012 A 
ATOM     82  C   UNL     1       3.864 -14.105   2.331  1.00  0.00     0.148 A 
ATOM     83  C   UNL     1       3.106 -16.758   1.814  1.00  0.00     0.002 A 
ATOM     84  C   UNL     1       3.596 -14.517   1.031  1.00  0.00     0.091 A 
ATOM     85  F   UNL     1       4.242 -12.850   2.613  1.00  0.00    -0.205 F 
ATOM     86  C   UNL     1       3.233 -15.847   0.768  1.00  0.00     0.022 A 
BRANCH  84  87
ATOM     87  S   UNL     1       3.598 -13.382  -0.362  1.00  0.00     0.127 S 
ATOM     88  O   UNL     1       4.733 -13.868  -1.143  1.00  0.00    -0.237 OA
ATOM     89  O   UNL     1       2.286 -13.636  -0.957  1.00  0.00    -0.237 OA
ATOM     90  O   UNL     1       3.751 -12.051   0.210  1.00  0.00    -0.744 OA
ENDBRANCH  84  87
ENDBRANCH  56  80
BRANCH  68  91
ATOM     91  C   UNL     1       8.265 -16.627   8.454  1.00  0.00     0.023 A 
ATOM     92  C   UNL     1       9.455 -16.336   7.759  1.00  0.00     0.012 A 
ATOM     93  C   UNL     1       8.203 -17.776   9.269  1.00  0.00     0.148 A 
ATOM     94  C   UNL     1      10.554 -17.190   7.846  1.00  0.00     0.002 A 
ATOM     95  C   UNL     1       9.319 -18.594   9.392  1.00  0.00     0.091 A 
ATOM     96  F   UNL     1       7.055 -18.045   9.908  1.00  0.00    -0.205 F 
ATOM     97  C   UNL     1      10.490 -18.310   8.671  1.00  0.00     0.022 A 
BRANCH  95  98
ATOM     98  S   UNL     1       9.362 -20.003  10.505  1.00  0.00     0.127 S 
ATOM     99  O   UNL     1       9.331 -21.125   9.568  1.00  0.00    -0.237 OA
ATOM    100  O   UNL     1      10.641 -19.816  11.192  1.00  0.00    -0.237 OA
ATOM    101  O   UNL     1       8.192 -19.873  11.363  1.00  0.00    -0.744 OA
ENDBRANCH  95  98
ENDBRANCH  68  91
ENDBRANCH  42  43
ENDBRANCH  34  37
ENDBRANCH  32  33
ENDBRANCH  31  32
ENDBRANCH  30  31
ENDBRANCH   1  30
TORSDOF 20
