REMARK SMILES O=C(NCCCCCCNC(=O)c1ccc(-c2c3nc(c(-c4cccc(S(=O)(=O)[O-])c4F)c4ccc([nH]4)c(-c4cccc(S(=O)(=O)[O-])c4F)c4nc(c(-c5cccc(S(=O)(=O)[O-])c5F)c5ccc2[nH]5)C=C4)C=C3)cc1)C1=Cc2cc(C(F)(F)F)ccc2O[C@@H]1C(F)(F)F
REMARK SMILES IDX 7 1 6 2 5 3 4 4 3 5 1 6 2 7 76 9 77 10 89 11 78 12 88 13
REMARK SMILES IDX 79 14 87 15 80 16 86 17 85 18 90 19 91 20 92 21 93 22 81 23
REMARK SMILES IDX 82 24 83 25 84 26 8 27 9 28 10 29 11 30 12 32 13 33 14 34
REMARK SMILES IDX 75 35 15 36 74 37 16 38 17 39 18 40 68 41 19 42 73 43 67 44
REMARK SMILES IDX 69 45 20 46 72 47 66 48 65 49 21 51 53 52 33 53 52 54 34 55
REMARK SMILES IDX 37 56 51 57 70 58 35 59 36 60 50 62 71 63 38 64 22 65 23 66
REMARK SMILES IDX 31 67 24 68 26 69 32 70 25 71 27 72 28 73 29 74 30 75 54 76
REMARK SMILES IDX 55 77 63 78 56 79 58 80 64 81 57 82 59 83 60 84 61 85 62 86
REMARK SMILES IDX 39 87 40 88 48 89 41 90 43 91 49 92 42 93 44 94 45 95 46 96
REMARK SMILES IDX 47 97
REMARK H PARENT 3 8 10 31 69 50 37 61
REMARK Flexibility Score: inf
ROOT
ATOM      1  C   UNL     1       4.558  -3.153   3.396  1.00  0.00     0.002 C 
ENDROOT
BRANCH   1   2
ATOM      2  C   UNL     1       3.901  -1.906   4.000  1.00  0.00     0.002 C 
BRANCH   2   3
ATOM      3  C   UNL     1       4.242  -0.571   3.342  1.00  0.00     0.021 C 
BRANCH   3   4
ATOM      4  C   UNL     1       3.944  -0.465   1.851  1.00  0.00     0.116 C 
BRANCH   4   5
ATOM      5  N   UNL     1       2.643   0.082   1.511  1.00  0.00    -0.352 N 
ATOM      6  O   UNL     1       1.045   0.963   0.200  1.00  0.00    -0.270 OA
ATOM      7  C   UNL     1       2.238   0.710   0.364  1.00  0.00     0.251 C 
ATOM      8  H   UNL     1       1.951  -0.013   2.205  1.00  0.00     0.163 HD
BRANCH   7   9
ATOM      9  C   UNL     1       3.183   1.024  -0.750  1.00  0.00     0.067 C 
ATOM     10  C   UNL     1       4.377   1.599  -0.525  1.00  0.00     0.025 C 
ATOM     11  C   UNL     1       3.024   0.103  -1.938  1.00  0.00     0.314 C 
ATOM     12  C   UNL     1       5.488   0.636  -0.746  1.00  0.00     0.018 A 
ATOM     13  O   UNL     1       4.051  -0.925  -1.961  1.00  0.00    -0.475 OA
ATOM     14  C   UNL     1       6.687   0.854  -0.056  1.00  0.00     0.025 A 
ATOM     15  C   UNL     1       5.239  -0.606  -1.350  1.00  0.00     0.128 A 
ATOM     16  C   UNL     1       7.586  -0.205   0.143  1.00  0.00     0.056 A 
ATOM     17  C   UNL     1       6.166  -1.637  -1.223  1.00  0.00     0.048 A 
ATOM     18  C   UNL     1       7.323  -1.445  -0.462  1.00  0.00     0.017 A 
BRANCH  11  19
ATOM     19  C   UNL     1       2.971   0.871  -3.268  1.00  0.00     0.429 C 
ATOM     20  F   UNL     1       2.650   0.051  -4.297  1.00  0.00    -0.167 F 
ATOM     21  F   UNL     1       2.032   1.848  -3.242  1.00  0.00    -0.167 F 
ATOM     22  F   UNL     1       4.148   1.463  -3.576  1.00  0.00    -0.167 F 
ENDBRANCH  11  19
BRANCH  16  23
ATOM     23  C   UNL     1       8.768  -0.022   1.068  1.00  0.00     0.416 C 
ATOM     24  F   UNL     1       9.839   0.538   0.456  1.00  0.00    -0.166 F 
ATOM     25  F   UNL     1       8.461   0.793   2.121  1.00  0.00    -0.166 F 
ATOM     26  F   UNL     1       9.187  -1.187   1.631  1.00  0.00    -0.166 F 
ENDBRANCH  16  23
ENDBRANCH   7   9
ENDBRANCH   4   5
ENDBRANCH   3   4
ENDBRANCH   2   3
ENDBRANCH   1   2
BRANCH   1  27
ATOM     27  C   UNL     1       6.076  -3.108   3.192  1.00  0.00     0.021 C 
BRANCH  27  28
ATOM     28  C   UNL     1       6.914  -2.760   4.420  1.00  0.00     0.116 C 
BRANCH  28  29
ATOM     29  N   UNL     1       6.669  -3.652   5.541  1.00  0.00    -0.352 N 
ATOM     30  C   UNL     1       7.553  -4.356   6.321  1.00  0.00     0.251 C 
ATOM     31  H   UNL     1       5.721  -3.769   5.779  1.00  0.00     0.163 HD
ATOM     32  O   UNL     1       7.124  -5.170   7.133  1.00  0.00    -0.269 OA
BRANCH  30  33
ATOM     33  C   UNL     1       9.014  -4.156   6.178  1.00  0.00     0.039 A 
ATOM     34  C   UNL     1       9.849  -5.277   6.213  1.00  0.00     0.014 A 
ATOM     35  C   UNL     1       9.568  -2.881   6.043  1.00  0.00     0.014 A 
ATOM     36  C   UNL     1      11.229  -5.124   6.061  1.00  0.00     0.010 A 
ATOM     37  C   UNL     1      10.936  -2.736   5.816  1.00  0.00     0.010 A 
ATOM     38  C   UNL     1      11.783  -3.854   5.833  1.00  0.00    -0.014 A 
BRANCH  38  39
ATOM     39  C   UNL     1      13.243  -3.682   5.609  1.00  0.00     0.031 A 
ATOM     40  C   UNL     1      14.071  -2.866   6.564  1.00  0.00     0.074 A 
ATOM     41  C   UNL     1      13.811  -4.199   4.502  1.00  0.00     0.049 A 
ATOM     42  N   UNL     1      15.345  -2.571   6.508  1.00  0.00    -0.248 NA
ATOM     43  C   UNL     1      13.373  -2.283   7.722  1.00  0.00     0.031 C 
ATOM     44  C   UNL     1      13.102  -4.941   3.457  1.00  0.00     0.029 A 
ATOM     45  N   UNL     1      15.109  -4.157   4.056  1.00  0.00    -0.354 N 
ATOM     46  C   UNL     1      15.594  -1.748   7.600  1.00  0.00     0.074 A 
ATOM     47  C   UNL     1      14.330  -1.555   8.278  1.00  0.00     0.031 C 
ATOM     48  C   UNL     1      13.971  -5.282   2.493  1.00  0.00     0.029 A 
ATOM     49  C   UNL     1      15.290  -4.758   2.832  1.00  0.00     0.049 A 
ATOM     50  H   UNL     1      15.840  -3.736   4.564  1.00  0.00     0.167 HD
ATOM     51  C   UNL     1      16.770  -1.223   8.021  1.00  0.00     0.034 A 
ATOM     52  C   UNL     1      16.391  -4.866   2.062  1.00  0.00     0.034 A 
ATOM     53  C   UNL     1      18.029  -1.438   7.359  1.00  0.00     0.049 A 
ATOM     54  C   UNL     1      17.693  -4.303   2.563  1.00  0.00     0.074 A 
ATOM     55  C   UNL     1      19.289  -1.016   7.747  1.00  0.00     0.029 A 
ATOM     56  N   UNL     1      18.189  -2.126   6.165  1.00  0.00    -0.354 N 
ATOM     57  N   UNL     1      17.938  -3.658   3.678  1.00  0.00    -0.248 NA
ATOM     58  C   UNL     1      18.878  -4.515   1.720  1.00  0.00     0.031 C 
ATOM     59  C   UNL     1      20.206  -1.422   6.771  1.00  0.00     0.029 A 
ATOM     60  C   UNL     1      19.524  -2.130   5.795  1.00  0.00     0.049 A 
ATOM     61  H   UNL     1      17.461  -2.548   5.656  1.00  0.00     0.167 HD
ATOM     62  C   UNL     1      19.306  -3.416   3.687  1.00  0.00     0.074 A 
ATOM     63  C   UNL     1      19.841  -4.003   2.475  1.00  0.00     0.031 C 
ATOM     64  C   UNL     1      20.051  -2.756   4.608  1.00  0.00     0.034 A 
BRANCH  51  65
ATOM     65  C   UNL     1      16.754  -0.402   9.286  1.00  0.00     0.023 A 
ATOM     66  C   UNL     1      16.512  -1.035  10.524  1.00  0.00     0.012 A 
ATOM     67  C   UNL     1      17.015   0.982   9.261  1.00  0.00     0.148 A 
ATOM     68  C   UNL     1      16.484  -0.300  11.707  1.00  0.00     0.002 A 
ATOM     69  C   UNL     1      17.034   1.700  10.451  1.00  0.00     0.091 A 
ATOM     70  F   UNL     1      17.225   1.573   8.076  1.00  0.00    -0.205 F 
ATOM     71  C   UNL     1      16.754   1.065  11.672  1.00  0.00     0.022 A 
BRANCH  69  72
ATOM     72  S   UNL     1      17.452   3.446  10.523  1.00  0.00     0.127 S 
ATOM     73  O   UNL     1      16.154   4.047  10.830  1.00  0.00    -0.237 OA
ATOM     74  O   UNL     1      18.417   3.487  11.623  1.00  0.00    -0.237 OA
ATOM     75  O   UNL     1      18.004   3.781   9.218  1.00  0.00    -0.744 OA
ENDBRANCH  69  72
ENDBRANCH  51  65
BRANCH  52  76
ATOM     76  C   UNL     1      16.312  -5.583   0.758  1.00  0.00     0.023 A 
ATOM     77  C   UNL     1      16.936  -6.837   0.613  1.00  0.00     0.012 A 
ATOM     78  C   UNL     1      15.584  -5.048  -0.323  1.00  0.00     0.148 A 
ATOM     79  C   UNL     1      16.860  -7.533  -0.594  1.00  0.00     0.002 A 
ATOM     80  C   UNL     1      15.463  -5.773  -1.502  1.00  0.00     0.091 A 
ATOM     81  F   UNL     1      15.005  -3.849  -0.167  1.00  0.00    -0.205 F 
ATOM     82  C   UNL     1      16.115  -7.007  -1.647  1.00  0.00     0.022 A 
BRANCH  80  83
ATOM     83  S   UNL     1      14.411  -5.241  -2.857  1.00  0.00     0.127 S 
ATOM     84  O   UNL     1      15.392  -4.924  -3.892  1.00  0.00    -0.237 OA
ATOM     85  O   UNL     1      13.614  -6.443  -3.109  1.00  0.00    -0.237 OA
ATOM     86  O   UNL     1      13.646  -4.112  -2.345  1.00  0.00    -0.744 OA
ENDBRANCH  80  83
ENDBRANCH  52  76
BRANCH  64  87
ATOM     87  C   UNL     1      21.536  -2.659   4.368  1.00  0.00     0.023 A 
ATOM     88  C   UNL     1      22.032  -1.818   3.352  1.00  0.00     0.012 A 
ATOM     89  C   UNL     1      22.442  -3.347   5.200  1.00  0.00     0.148 A 
ATOM     90  C   UNL     1      23.405  -1.691   3.145  1.00  0.00     0.002 A 
ATOM     91  C   UNL     1      23.809  -3.175   5.021  1.00  0.00     0.091 A 
ATOM     92  F   UNL     1      21.950  -4.156   6.150  1.00  0.00    -0.205 F 
ATOM     93  C   UNL     1      24.293  -2.358   3.986  1.00  0.00     0.022 A 
BRANCH  91  94
ATOM     94  S   UNL     1      25.025  -3.916   6.116  1.00  0.00     0.127 S 
ATOM     95  O   UNL     1      25.621  -4.935   5.253  1.00  0.00    -0.237 OA
ATOM     96  O   UNL     1      25.901  -2.783   6.417  1.00  0.00    -0.237 OA
ATOM     97  O   UNL     1      24.281  -4.425   7.259  1.00  0.00    -0.744 OA
ENDBRANCH  91  94
ENDBRANCH  64  87
ENDBRANCH  38  39
ENDBRANCH  30  33
ENDBRANCH  28  29
ENDBRANCH  27  28
ENDBRANCH   1  27
TORSDOF 18
