REMARK SMILES O=C(NCCCCCCNC(=O)c1ccc(C[NH2+]C[C@H]2C[C@H](O)C2)nc1)c1ccc(-c2c3nc(c(-c4cccc(S(=O)(=O)[O-])c4F)c4ccc([nH]4)c(-c4cccc(S(=O)(=O)[O-])c4F)c4nc(c(-c5cccc(S(=O)(=O)[O-])c5F)c5ccc2[nH]5)C=C4)C=C3)cc1
REMARK SMILES IDX 7 1 6 2 5 3 4 4 3 5 1 6 2 7 27 9 28 10 89 11 29 12 88 13
REMARK SMILES IDX 30 14 31 15 32 16 82 17 33 18 87 19 81 20 83 21 34 22 86 23
REMARK SMILES IDX 80 24 79 25 35 27 67 28 47 29 66 30 48 31 51 32 65 33 84 34
REMARK SMILES IDX 49 35 50 36 64 38 85 39 52 40 36 41 37 42 45 43 38 44 40 45
REMARK SMILES IDX 46 46 39 47 41 48 42 49 43 50 44 51 68 52 69 53 77 54 70 55
REMARK SMILES IDX 72 56 78 57 71 58 73 59 74 60 75 61 76 62 53 63 54 64 62 65
REMARK SMILES IDX 55 66 57 67 63 68 56 69 58 70 59 71 60 72 61 73 8 74 9 75
REMARK SMILES IDX 10 76 11 77 12 79 13 80 14 81 26 82 15 83 25 84 16 85 17 86
REMARK SMILES IDX 18 87 19 90 20 91 24 92 21 93 22 94 23 95
REMARK H PARENT 3 8 83 26 51 37 10 78 18 88 18 89 23 96
REMARK Flexibility Score: inf
ROOT
ATOM      1  C   UNL     1       4.816   3.531   2.552  1.00  0.00     0.002 C 
ENDROOT
BRANCH   1   2
ATOM      2  C   UNL     1       4.279   3.735   1.133  1.00  0.00     0.002 C 
BRANCH   2   3
ATOM      3  C   UNL     1       4.771   2.719   0.103  1.00  0.00     0.021 C 
BRANCH   3   4
ATOM      4  C   UNL     1       4.498   1.268   0.471  1.00  0.00     0.116 C 
BRANCH   4   5
ATOM      5  N   UNL     1       3.076   0.978   0.533  1.00  0.00    -0.352 N 
ATOM      6  O   UNL     1       1.151   0.005  -0.122  1.00  0.00    -0.269 OA
ATOM      7  C   UNL     1       2.378  -0.010  -0.117  1.00  0.00     0.251 C 
ATOM      8  H   UNL     1       2.545   1.566   1.117  1.00  0.00     0.163 HD
BRANCH   7   9
ATOM      9  C   UNL     1       3.125  -1.075  -0.820  1.00  0.00     0.039 A 
ATOM     10  C   UNL     1       4.219  -1.688  -0.202  1.00  0.00     0.014 A 
ATOM     11  C   UNL     1       2.727  -1.467  -2.100  1.00  0.00     0.014 A 
ATOM     12  C   UNL     1       4.983  -2.610  -0.905  1.00  0.00     0.010 A 
ATOM     13  C   UNL     1       3.443  -2.461  -2.771  1.00  0.00     0.010 A 
ATOM     14  C   UNL     1       4.581  -3.034  -2.182  1.00  0.00    -0.014 A 
BRANCH  14  15
ATOM     15  C   UNL     1       5.275  -4.187  -2.806  1.00  0.00     0.031 A 
ATOM     16  C   UNL     1       6.032  -4.054  -4.095  1.00  0.00     0.074 A 
ATOM     17  C   UNL     1       5.179  -5.383  -2.189  1.00  0.00     0.049 A 
ATOM     18  N   UNL     1       6.681  -4.976  -4.758  1.00  0.00    -0.248 NA
ATOM     19  C   UNL     1       6.066  -2.725  -4.728  1.00  0.00     0.031 C 
ATOM     20  C   UNL     1       4.420  -5.635  -0.959  1.00  0.00     0.029 A 
ATOM     21  N   UNL     1       5.701  -6.609  -2.510  1.00  0.00    -0.354 N 
ATOM     22  C   UNL     1       7.163  -4.358  -5.905  1.00  0.00     0.074 A 
ATOM     23  C   UNL     1       6.742  -2.974  -5.845  1.00  0.00     0.031 C 
ATOM     24  C   UNL     1       4.530  -6.928  -0.627  1.00  0.00     0.029 A 
ATOM     25  C   UNL     1       5.311  -7.609  -1.650  1.00  0.00     0.049 A 
ATOM     26  H   UNL     1       6.295  -6.759  -3.280  1.00  0.00     0.167 HD
ATOM     27  C   UNL     1       7.893  -4.900  -6.909  1.00  0.00     0.034 A 
ATOM     28  C   UNL     1       5.521  -8.938  -1.698  1.00  0.00     0.034 A 
ATOM     29  C   UNL     1       8.331  -6.272  -6.940  1.00  0.00     0.049 A 
ATOM     30  C   UNL     1       6.341  -9.498  -2.823  1.00  0.00     0.074 A 
ATOM     31  C   UNL     1       9.159  -6.886  -7.864  1.00  0.00     0.029 A 
ATOM     32  N   UNL     1       7.958  -7.247  -6.029  1.00  0.00    -0.354 N 
ATOM     33  N   UNL     1       6.934  -8.863  -3.804  1.00  0.00    -0.248 NA
ATOM     34  C   UNL     1       6.540 -10.953  -2.836  1.00  0.00     0.031 C 
ATOM     35  C   UNL     1       9.253  -8.242  -7.535  1.00  0.00     0.029 A 
ATOM     36  C   UNL     1       8.511  -8.466  -6.388  1.00  0.00     0.049 A 
ATOM     37  H   UNL     1       7.384  -7.097  -5.244  1.00  0.00     0.167 HD
ATOM     38  C   UNL     1       7.590  -9.839  -4.543  1.00  0.00     0.074 A 
ATOM     39  C   UNL     1       7.355 -11.101  -3.871  1.00  0.00     0.031 C 
ATOM     40  C   UNL     1       8.301  -9.707  -5.688  1.00  0.00     0.034 A 
BRANCH  27  41
ATOM     41  C   UNL     1       8.299  -4.020  -8.062  1.00  0.00     0.023 A 
ATOM     42  C   UNL     1       9.344  -3.090  -7.898  1.00  0.00     0.012 A 
ATOM     43  C   UNL     1       7.736  -4.213  -9.340  1.00  0.00     0.148 A 
ATOM     44  C   UNL     1       9.818  -2.358  -8.987  1.00  0.00     0.002 A 
ATOM     45  C   UNL     1       8.240  -3.509 -10.427  1.00  0.00     0.091 A 
ATOM     46  F   UNL     1       6.733  -5.093  -9.469  1.00  0.00    -0.205 F 
ATOM     47  C   UNL     1       9.276  -2.576 -10.251  1.00  0.00     0.022 A 
BRANCH  45  48
ATOM     48  S   UNL     1       7.668  -3.775 -12.110  1.00  0.00     0.127 S 
ATOM     49  O   UNL     1       7.046  -2.487 -12.415  1.00  0.00    -0.237 OA
ATOM     50  O   UNL     1       8.921  -4.030 -12.821  1.00  0.00    -0.237 OA
ATOM     51  O   UNL     1       6.754  -4.907 -12.052  1.00  0.00    -0.744 OA
ENDBRANCH  45  48
ENDBRANCH  27  41
BRANCH  28  52
ATOM     52  C   UNL     1       4.940  -9.824  -0.651  1.00  0.00     0.023 A 
ATOM     53  C   UNL     1       5.789 -10.502   0.242  1.00  0.00     0.012 A 
ATOM     54  C   UNL     1       3.545  -9.984  -0.530  1.00  0.00     0.148 A 
ATOM     55  C   UNL     1       5.262 -11.356   1.211  1.00  0.00     0.002 A 
ATOM     56  C   UNL     1       3.025 -10.784   0.479  1.00  0.00     0.091 A 
ATOM     57  F   UNL     1       2.751  -9.344  -1.400  1.00  0.00    -0.205 F 
ATOM     58  C   UNL     1       3.881 -11.489   1.337  1.00  0.00     0.022 A 
BRANCH  56  59
ATOM     59  S   UNL     1       1.260 -10.887   0.796  1.00  0.00     0.127 S 
ATOM     60  O   UNL     1       0.928 -12.188   0.222  1.00  0.00    -0.237 OA
ATOM     61  O   UNL     1       1.208 -10.826   2.257  1.00  0.00    -0.237 OA
ATOM     62  O   UNL     1       0.681  -9.727   0.131  1.00  0.00    -0.744 OA
ENDBRANCH  56  59
ENDBRANCH  28  52
BRANCH  40  63
ATOM     63  C   UNL     1       8.889 -10.958  -6.283  1.00  0.00     0.023 A 
ATOM     64  C   UNL     1       8.041 -11.903  -6.894  1.00  0.00     0.012 A 
ATOM     65  C   UNL     1      10.280 -11.171  -6.285  1.00  0.00     0.148 A 
ATOM     66  C   UNL     1       8.567 -13.060  -7.468  1.00  0.00     0.002 A 
ATOM     67  C   UNL     1      10.802 -12.300  -6.904  1.00  0.00     0.091 A 
ATOM     68  F   UNL     1      11.067 -10.267  -5.683  1.00  0.00    -0.205 F 
ATOM     69  C   UNL     1       9.946 -13.252  -7.483  1.00  0.00     0.022 A 
BRANCH  67  70
ATOM     70  S   UNL     1      12.568 -12.588  -7.057  1.00  0.00     0.127 S 
ATOM     71  O   UNL     1      12.762 -13.726  -6.159  1.00  0.00    -0.237 OA
ATOM     72  O   UNL     1      12.708 -12.902  -8.479  1.00  0.00    -0.237 OA
ATOM     73  O   UNL     1      13.216 -11.351  -6.643  1.00  0.00    -0.744 OA
ENDBRANCH  67  70
ENDBRANCH  40  63
ENDBRANCH  14  15
ENDBRANCH   7   9
ENDBRANCH   4   5
ENDBRANCH   3   4
ENDBRANCH   2   3
ENDBRANCH   1   2
BRANCH   1  74
ATOM     74  C   UNL     1       6.342   3.472   2.669  1.00  0.00     0.021 C 
BRANCH  74  75
ATOM     75  C   UNL     1       7.074   4.667   2.063  1.00  0.00     0.116 C 
BRANCH  75  76
ATOM     76  N   UNL     1       6.690   5.917   2.702  1.00  0.00    -0.352 N 
ATOM     77  C   UNL     1       7.481   6.827   3.352  1.00  0.00     0.252 C 
ATOM     78  H   UNL     1       5.731   6.138   2.662  1.00  0.00     0.163 HD
ATOM     79  O   UNL     1       6.989   7.732   4.019  1.00  0.00    -0.269 OA
BRANCH  77  80
ATOM     80  C   UNL     1       8.939   6.704   3.251  1.00  0.00     0.058 A 
ATOM     81  C   UNL     1       9.581   6.642   2.016  1.00  0.00     0.017 A 
ATOM     82  C   UNL     1       9.697   6.626   4.406  1.00  0.00     0.125 A 
ATOM     83  C   UNL     1      10.952   6.423   1.986  1.00  0.00     0.030 A 
ATOM     84  N   UNL     1      11.032   6.404   4.402  1.00  0.00    -0.255 NA
ATOM     85  C   UNL     1      11.640   6.279   3.194  1.00  0.00     0.094 A 
BRANCH  85  86
ATOM     86  C   UNL     1      13.121   5.949   3.169  1.00  0.00     0.317 C 
BRANCH  86  87
ATOM     87  N   UNL     1      13.964   7.115   3.400  1.00  0.00    -0.341 N 
ATOM     88  H   UNL     1      13.833   7.415   4.367  1.00  0.00     0.346 HD
ATOM     89  H   UNL     1      13.676   7.817   2.718  1.00  0.00     0.346 HD
BRANCH  87  90
ATOM     90  C   UNL     1      15.388   6.895   3.184  1.00  0.00     0.264 C 
BRANCH  90  91
ATOM     91  C   UNL     1      15.847   6.829   1.724  1.00  0.00     0.049 C 
ATOM     92  C   UNL     1      15.095   7.609   0.620  1.00  0.00     0.041 C 
ATOM     93  C   UNL     1      15.674   5.530   0.905  1.00  0.00     0.041 C 
ATOM     94  C   UNL     1      15.055   6.340  -0.248  1.00  0.00     0.115 C 
BRANCH  94  95
ATOM     95  O   UNL     1      15.809   6.387  -1.473  1.00  0.00    -0.393 OA
ATOM     96  H   UNL     1      16.717   6.669  -1.282  1.00  0.00     0.210 HD
ENDBRANCH  94  95
ENDBRANCH  90  91
ENDBRANCH  87  90
ENDBRANCH  86  87
ENDBRANCH  85  86
ENDBRANCH  77  80
ENDBRANCH  75  76
ENDBRANCH  74  75
ENDBRANCH   1  74
TORSDOF 21
