REMARK SMILES C#CCN(CC(=O)NCCCCCCNC(=O)c1ccc(-c2c3nc(c(-c4cccc(S(=O)(=O)[O-])c4F)c4ccc([nH]4)c(-c4cccc(S(=O)(=O)[O-])c4F)c4nc(c(-c5cccc(S(=O)(=O)[O-])c5F)c5ccc2[nH]5)C=C4)C=C3)cc1)C(=O)N[C@@H]1CCOC1
REMARK SMILES IDX 11 1 10 2 9 3 8 4 6 5 7 6 5 8 4 9 3 10 2 11 1 12 81 13 82 14
REMARK SMILES IDX 83 15 84 17 85 18 88 19 86 20 87 21 12 22 13 23 14 24 15 25
REMARK SMILES IDX 16 26 17 28 18 29 19 30 80 31 20 32 79 33 21 34 22 35 23 36
REMARK SMILES IDX 73 37 24 38 78 39 72 40 74 41 25 42 77 43 71 44 70 45 26 47
REMARK SMILES IDX 58 48 38 49 57 50 39 51 42 52 56 53 75 54 40 55 41 56 55 58
REMARK SMILES IDX 76 59 43 60 27 61 28 62 36 63 29 64 31 65 37 66 30 67 32 68
REMARK SMILES IDX 33 69 34 70 35 71 59 72 60 73 68 74 61 75 63 76 69 77 62 78
REMARK SMILES IDX 64 79 65 80 66 81 67 82 44 83 45 84 53 85 46 86 48 87 54 88
REMARK SMILES IDX 47 89 49 90 50 91 51 92 52 93
REMARK H PARENT 8 7 83 16 15 27 74 46 42 57
REMARK Flexibility Score: inf
ROOT
ATOM      1  C   UNL     1      -6.307  -2.420  -0.543  1.00  0.00     0.002 C 
ENDROOT
BRANCH   1   2
ATOM      2  C   UNL     1      -4.996  -1.683  -0.865  1.00  0.00     0.021 C 
BRANCH   2   3
ATOM      3  C   UNL     1      -5.126  -0.156  -0.833  1.00  0.00     0.116 C 
BRANCH   3   4
ATOM      4  N   UNL     1      -5.625   0.256   0.457  1.00  0.00    -0.355 N 
ATOM      5  C   UNL     1      -4.839   0.314   1.568  1.00  0.00     0.239 C 
ATOM      6  O   UNL     1      -5.255  -0.230   2.590  1.00  0.00    -0.273 OA
ATOM      7  H   UNL     1      -6.574   0.505   0.537  1.00  0.00     0.163 HD
BRANCH   5   8
ATOM      8  C   UNL     1      -3.489   1.039   1.449  1.00  0.00     0.222 C 
BRANCH   8   9
ATOM      9  N   UNL     1      -2.331   0.175   1.378  1.00  0.00    -0.304 N 
BRANCH   9  10
ATOM     10  C   UNL     1      -1.737   0.034   0.036  1.00  0.00     0.211 C 
BRANCH  10  11
ATOM     11  C   UNL     1      -0.217   0.034   0.036  1.00  0.00    -0.085 C 
ATOM     12  C   UNL     1       1.087   0.034   0.036  1.00  0.00     0.006 C 
ENDBRANCH  10  11
ENDBRANCH   9  10
BRANCH   9  13
ATOM     13  C   UNL     1      -1.954  -0.701   2.342  1.00  0.00     0.318 C 
ATOM     14  O   UNL     1      -1.233  -1.671   2.070  1.00  0.00    -0.249 OA
ATOM     15  N   UNL     1      -2.305  -0.678   3.627  1.00  0.00    -0.333 N 
ATOM     16  H   UNL     1      -1.988  -1.535   3.993  1.00  0.00     0.165 HD
BRANCH  15  17
ATOM     17  C   UNL     1      -2.943   0.015   4.770  1.00  0.00     0.112 C 
ATOM     18  C   UNL     1      -3.702   1.313   4.674  1.00  0.00     0.056 C 
ATOM     19  C   UNL     1      -1.872   0.435   5.797  1.00  0.00     0.185 C 
ATOM     20  C   UNL     1      -2.602   2.342   4.708  1.00  0.00     0.162 C 
ATOM     21  O   UNL     1      -1.653   1.853   5.660  1.00  0.00    -0.379 OA
ENDBRANCH  15  17
ENDBRANCH   9  13
ENDBRANCH   8   9
ENDBRANCH   5   8
ENDBRANCH   3   4
ENDBRANCH   2   3
ENDBRANCH   1   2
BRANCH   1  22
ATOM     22  C   UNL     1      -7.527  -1.917  -1.323  1.00  0.00     0.002 C 
BRANCH  22  23
ATOM     23  C   UNL     1      -7.312  -1.829  -2.832  1.00  0.00     0.021 C 
BRANCH  23  24
ATOM     24  C   UNL     1      -6.893  -3.147  -3.454  1.00  0.00     0.116 C 
BRANCH  24  25
ATOM     25  N   UNL     1      -7.976  -4.113  -3.399  1.00  0.00    -0.352 N 
ATOM     26  C   UNL     1      -8.621  -4.702  -4.455  1.00  0.00     0.251 C 
ATOM     27  H   UNL     1      -8.282  -4.375  -2.500  1.00  0.00     0.163 HD
ATOM     28  O   UNL     1      -9.701  -5.267  -4.294  1.00  0.00    -0.269 OA
BRANCH  26  29
ATOM     29  C   UNL     1      -7.996  -4.629  -5.789  1.00  0.00     0.039 A 
ATOM     30  C   UNL     1      -8.769  -4.261  -6.889  1.00  0.00     0.014 A 
ATOM     31  C   UNL     1      -6.626  -4.880  -5.930  1.00  0.00     0.014 A 
ATOM     32  C   UNL     1      -8.155  -4.111  -8.133  1.00  0.00     0.010 A 
ATOM     33  C   UNL     1      -6.003  -4.632  -7.144  1.00  0.00     0.010 A 
ATOM     34  C   UNL     1      -6.765  -4.272  -8.265  1.00  0.00    -0.014 A 
BRANCH  34  35
ATOM     35  C   UNL     1      -6.091  -4.093  -9.573  1.00  0.00     0.031 A 
ATOM     36  C   UNL     1      -5.359  -5.249 -10.201  1.00  0.00     0.074 A 
ATOM     37  C   UNL     1      -6.075  -2.879 -10.157  1.00  0.00     0.049 A 
ATOM     38  N   UNL     1      -4.675  -5.282 -11.315  1.00  0.00    -0.248 NA
ATOM     39  C   UNL     1      -5.368  -6.527  -9.468  1.00  0.00     0.031 C 
ATOM     40  C   UNL     1      -6.677  -1.665  -9.603  1.00  0.00     0.029 A 
ATOM     41  N   UNL     1      -5.509  -2.461 -11.335  1.00  0.00    -0.354 N 
ATOM     42  C   UNL     1      -4.145  -6.564 -11.396  1.00  0.00     0.074 A 
ATOM     43  C   UNL     1      -4.550  -7.268 -10.200  1.00  0.00     0.031 C 
ATOM     44  C   UNL     1      -6.457  -0.641 -10.443  1.00  0.00     0.029 A 
ATOM     45  C   UNL     1      -5.669  -1.117 -11.576  1.00  0.00     0.049 A 
ATOM     46  H   UNL     1      -5.033  -3.066 -11.948  1.00  0.00     0.167 HD
ATOM     47  C   UNL     1      -3.411  -7.116 -12.389  1.00  0.00     0.034 A 
ATOM     48  C   UNL     1      -5.223  -0.351 -12.591  1.00  0.00     0.034 A 
ATOM     49  C   UNL     1      -3.048  -6.424 -13.595  1.00  0.00     0.049 A 
ATOM     50  C   UNL     1      -4.445  -1.000 -13.704  1.00  0.00     0.074 A 
ATOM     51  C   UNL     1      -2.390  -6.921 -14.705  1.00  0.00     0.029 A 
ATOM     52  N   UNL     1      -3.299  -5.084 -13.843  1.00  0.00    -0.354 N 
ATOM     53  N   UNL     1      -4.091  -2.255 -13.840  1.00  0.00    -0.248 NA
ATOM     54  C   UNL     1      -4.035  -0.136 -14.820  1.00  0.00     0.031 C 
ATOM     55  C   UNL     1      -2.211  -5.871 -15.611  1.00  0.00     0.029 A 
ATOM     56  C   UNL     1      -2.795  -4.731 -15.082  1.00  0.00     0.049 A 
ATOM     57  H   UNL     1      -3.767  -4.474 -13.229  1.00  0.00     0.167 HD
ATOM     58  C   UNL     1      -3.451  -2.340 -15.071  1.00  0.00     0.074 A 
ATOM     59  C   UNL     1      -3.484  -1.012 -15.649  1.00  0.00     0.031 C 
ATOM     60  C   UNL     1      -2.877  -3.416 -15.664  1.00  0.00     0.034 A 
BRANCH  47  61
ATOM     61  C   UNL     1      -2.986  -8.553 -12.234  1.00  0.00     0.023 A 
ATOM     62  C   UNL     1      -3.949  -9.581 -12.309  1.00  0.00     0.012 A 
ATOM     63  C   UNL     1      -1.628  -8.890 -12.074  1.00  0.00     0.148 A 
ATOM     64  C   UNL     1      -3.572 -10.918 -12.191  1.00  0.00     0.002 A 
ATOM     65  C   UNL     1      -1.254 -10.226 -12.008  1.00  0.00     0.091 A 
ATOM     66  F   UNL     1      -0.731  -7.898 -11.983  1.00  0.00    -0.205 F 
ATOM     67  C   UNL     1      -2.224 -11.241 -12.053  1.00  0.00     0.022 A 
BRANCH  65  68
ATOM     68  S   UNL     1       0.462 -10.749 -11.916  1.00  0.00     0.127 S 
ATOM     69  O   UNL     1       0.529 -11.301 -10.563  1.00  0.00    -0.237 OA
ATOM     70  O   UNL     1       0.536 -11.745 -12.985  1.00  0.00    -0.237 OA
ATOM     71  O   UNL     1       1.261  -9.553 -12.142  1.00  0.00    -0.744 OA
ENDBRANCH  65  68
ENDBRANCH  47  61
BRANCH  48  72
ATOM     72  C   UNL     1      -5.547   1.102 -12.626  1.00  0.00     0.023 A 
ATOM     73  C   UNL     1      -6.443   1.594 -13.595  1.00  0.00     0.012 A 
ATOM     74  C   UNL     1      -4.995   1.994 -11.686  1.00  0.00     0.148 A 
ATOM     75  C   UNL     1      -6.755   2.953 -13.651  1.00  0.00     0.002 A 
ATOM     76  C   UNL     1      -5.355   3.336 -11.710  1.00  0.00     0.091 A 
ATOM     77  F   UNL     1      -4.139   1.508 -10.776  1.00  0.00    -0.205 F 
ATOM     78  C   UNL     1      -6.220   3.821 -12.703  1.00  0.00     0.022 A 
BRANCH  76  79
ATOM     79  S   UNL     1      -4.823   4.499 -10.448  1.00  0.00     0.127 S 
ATOM     80  O   UNL     1      -3.919   5.364 -11.201  1.00  0.00    -0.237 OA
ATOM     81  O   UNL     1      -6.089   5.119 -10.058  1.00  0.00    -0.237 OA
ATOM     82  O   UNL     1      -4.204   3.693  -9.405  1.00  0.00    -0.744 OA
ENDBRANCH  76  79
ENDBRANCH  48  72
BRANCH  60  83
ATOM     83  C   UNL     1      -2.272  -3.222 -17.029  1.00  0.00     0.023 A 
ATOM     84  C   UNL     1      -1.074  -2.494 -17.174  1.00  0.00     0.012 A 
ATOM     85  C   UNL     1      -2.852  -3.832 -18.159  1.00  0.00     0.148 A 
ATOM     86  C   UNL     1      -0.483  -2.347 -18.428  1.00  0.00     0.002 A 
ATOM     87  C   UNL     1      -2.228  -3.727 -19.395  1.00  0.00     0.091 A 
ATOM     88  F   UNL     1      -4.000  -4.507 -18.003  1.00  0.00    -0.205 F 
ATOM     89  C   UNL     1      -1.051  -2.973 -19.535  1.00  0.00     0.022 A 
BRANCH  87  90
ATOM     90  S   UNL     1      -2.831  -4.582 -20.855  1.00  0.00     0.127 S 
ATOM     91  O   UNL     1      -3.331  -3.473 -21.665  1.00  0.00    -0.237 OA
ATOM     92  O   UNL     1      -1.615  -5.213 -21.368  1.00  0.00    -0.237 OA
ATOM     93  O   UNL     1      -3.845  -5.517 -20.385  1.00  0.00    -0.744 OA
ENDBRANCH  87  90
ENDBRANCH  60  83
ENDBRANCH  34  35
ENDBRANCH  26  29
ENDBRANCH  24  25
ENDBRANCH  23  24
ENDBRANCH  22  23
ENDBRANCH   1  22
TORSDOF 21
