REMARK SMILES Cc1noc(C[N@H+]2CCC[C@@H](c3ccc(C(=O)NCCCCCCNC(=O)c4ccc(-c5c6nc(c(-c7cccc(S(=O)(=O)[O-])c7F)c7ccc([nH]7)c(-c7cccc(S(=O)(=O)[O-])c7F)c7nc(c(-c8cccc(S(=O)(=O)[O-])c8F)c8ccc5[nH]8)C=C7)C=C6)cc4)cc3)C2)n1
REMARK SMILES IDX 21 1 20 2 19 3 18 4 16 5 17 6 15 8 12 9 13 10 92 11 14 12
REMARK SMILES IDX 91 13 11 14 7 15 8 16 93 17 9 19 10 20 6 21 5 22 1 23 2 24
REMARK SMILES IDX 3 25 94 26 4 27 22 28 23 29 24 30 25 31 26 32 27 34 28 35
REMARK SMILES IDX 29 36 90 37 30 38 89 39 31 40 32 41 33 42 83 43 34 44 88 45
REMARK SMILES IDX 82 46 84 47 35 48 87 49 81 50 80 51 36 53 68 54 48 55 67 56
REMARK SMILES IDX 49 57 52 58 66 59 85 60 50 61 51 62 65 64 86 65 53 66 37 67
REMARK SMILES IDX 38 68 46 69 39 70 41 71 47 72 40 73 42 74 43 75 44 76 45 77
REMARK SMILES IDX 69 78 70 79 78 80 71 81 73 82 79 83 72 84 74 85 75 86 76 87
REMARK SMILES IDX 77 88 54 89 55 90 63 91 56 92 58 93 64 94 57 95 59 96 60 97
REMARK SMILES IDX 61 98 62 99
REMARK H PARENT 18 7 7 18 25 33 84 52 52 63
REMARK Flexibility Score: inf
ROOT
ATOM      1  C   UNL     1      -4.086  11.083  -3.527  1.00  0.00     0.002 C 
ENDROOT
BRANCH   1   2
ATOM      2  C   UNL     1      -2.945  10.065  -3.409  1.00  0.00     0.021 C 
BRANCH   2   3
ATOM      3  C   UNL     1      -3.080   9.166  -2.179  1.00  0.00     0.116 C 
BRANCH   3   4
ATOM      4  N   UNL     1      -4.078   8.147  -2.436  1.00  0.00    -0.352 N 
ATOM      5  C   UNL     1      -3.963   6.837  -2.816  1.00  0.00     0.251 C 
ATOM      6  O   UNL     1      -5.001   6.203  -3.014  1.00  0.00    -0.269 OA
ATOM      7  H   UNL     1      -5.006   8.452  -2.315  1.00  0.00     0.163 HD
BRANCH   5   8
ATOM      8  C   UNL     1      -2.653   6.138  -2.915  1.00  0.00     0.039 A 
ATOM      9  C   UNL     1      -0.240   4.670  -2.869  1.00  0.00    -0.039 A 
ATOM     10  C   UNL     1      -1.469   4.045  -2.603  1.00  0.00     0.005 A 
ATOM     11  C   UNL     1      -0.247   6.018  -3.239  1.00  0.00     0.005 A 
ATOM     12  C   UNL     1      -2.657   4.774  -2.610  1.00  0.00     0.014 A 
ATOM     13  C   UNL     1      -1.448   6.735  -3.294  1.00  0.00     0.014 A 
BRANCH   9  14
ATOM     14  C   UNL     1       1.076   3.909  -2.794  1.00  0.00     0.074 C 
ATOM     15  N   UNL     1       2.372   2.222  -1.405  1.00  0.00    -0.327 N 
ATOM     16  C   UNL     1       2.430   1.323  -2.565  1.00  0.00     0.262 C 
ATOM     17  C   UNL     1       1.204   3.122  -1.470  1.00  0.00     0.270 C 
ATOM     18  H   UNL     1       3.210   2.801  -1.436  1.00  0.00     0.348 HD
ATOM     19  C   UNL     1       2.452   2.107  -3.877  1.00  0.00     0.062 C 
ATOM     20  C   UNL     1       1.213   2.983  -4.008  1.00  0.00     0.020 C 
BRANCH  15  21
ATOM     21  C   UNL     1       2.389   1.464  -0.122  1.00  0.00     0.364 C 
BRANCH  21  22
ATOM     22  C   UNL     1       1.190   0.597   0.123  1.00  0.00     0.281 A 
ATOM     23  C   UNL     1      -2.204  -0.259   0.211  1.00  0.00     0.093 C 
ATOM     24  C   UNL     1      -0.730  -0.220   0.216  1.00  0.00     0.169 A 
ATOM     25  N   UNL     1       0.033  -1.282  -0.075  1.00  0.00    -0.063 NA
ATOM     26  N   UNL     1      -0.047   0.948   0.405  1.00  0.00    -0.191 NA
ATOM     27  O   UNL     1       1.323  -0.739  -0.137  1.00  0.00    -0.333 OA
ENDBRANCH  21  22
ENDBRANCH  15  21
ENDBRANCH   9  14
ENDBRANCH   5   8
ENDBRANCH   3   4
ENDBRANCH   2   3
ENDBRANCH   1   2
BRANCH   1  28
ATOM     28  C   UNL     1      -4.161  12.085  -2.369  1.00  0.00     0.002 C 
BRANCH  28  29
ATOM     29  C   UNL     1      -2.867  12.863  -2.118  1.00  0.00     0.021 C 
BRANCH  29  30
ATOM     30  C   UNL     1      -2.423  13.715  -3.301  1.00  0.00     0.116 C 
BRANCH  30  31
ATOM     31  N   UNL     1      -3.395  14.758  -3.595  1.00  0.00    -0.352 N 
ATOM     32  C   UNL     1      -3.217  16.119  -3.619  1.00  0.00     0.251 C 
ATOM     33  H   UNL     1      -4.304  14.444  -3.805  1.00  0.00     0.163 HD
ATOM     34  O   UNL     1      -4.186  16.869  -3.624  1.00  0.00    -0.269 OA
BRANCH  32  35
ATOM     35  C   UNL     1      -1.846  16.667  -3.637  1.00  0.00     0.039 A 
ATOM     36  C   UNL     1      -1.529  17.741  -2.803  1.00  0.00     0.014 A 
ATOM     37  C   UNL     1      -0.877  16.115  -4.480  1.00  0.00     0.014 A 
ATOM     38  C   UNL     1      -0.223  18.231  -2.781  1.00  0.00     0.010 A 
ATOM     39  C   UNL     1       0.439  16.552  -4.398  1.00  0.00     0.010 A 
ATOM     40  C   UNL     1       0.778  17.623  -3.558  1.00  0.00    -0.014 A 
BRANCH  40  41
ATOM     41  C   UNL     1       2.185  18.090  -3.509  1.00  0.00     0.031 A 
ATOM     42  C   UNL     1       2.838  18.648  -4.745  1.00  0.00     0.074 A 
ATOM     43  C   UNL     1       2.898  17.934  -2.377  1.00  0.00     0.049 A 
ATOM     44  N   UNL     1       4.070  19.051  -4.916  1.00  0.00    -0.248 NA
ATOM     45  C   UNL     1       2.004  18.739  -5.955  1.00  0.00     0.031 C 
ATOM     46  C   UNL     1       2.396  17.343  -1.135  1.00  0.00     0.029 A 
ATOM     47  N   UNL     1       4.206  18.238  -2.094  1.00  0.00    -0.354 N 
ATOM     48  C   UNL     1       4.168  19.412  -6.254  1.00  0.00     0.074 A 
ATOM     49  C   UNL     1       2.884  19.139  -6.861  1.00  0.00     0.031 C 
ATOM     50  C   UNL     1       3.379  17.340  -0.220  1.00  0.00     0.029 A 
ATOM     51  C   UNL     1       4.589  17.893  -0.819  1.00  0.00     0.049 A 
ATOM     52  H   UNL     1       4.813  18.663  -2.743  1.00  0.00     0.167 HD
ATOM     53  C   UNL     1       5.222  19.952  -6.913  1.00  0.00     0.034 A 
ATOM     54  C   UNL     1       5.782  18.006  -0.204  1.00  0.00     0.034 A 
ATOM     55  C   UNL     1       6.486  20.249  -6.297  1.00  0.00     0.049 A 
ATOM     56  C   UNL     1       6.934  18.618  -0.955  1.00  0.00     0.074 A 
ATOM     57  C   UNL     1       7.592  20.864  -6.855  1.00  0.00     0.029 A 
ATOM     58  N   UNL     1       6.817  19.945  -4.985  1.00  0.00    -0.354 N 
ATOM     59  N   UNL     1       6.965  19.089  -2.178  1.00  0.00    -0.248 NA
ATOM     60  C   UNL     1       8.205  18.747  -0.229  1.00  0.00     0.031 C 
ATOM     61  C   UNL     1       8.603  20.904  -5.889  1.00  0.00     0.029 A 
ATOM     62  C   UNL     1       8.114  20.347  -4.718  1.00  0.00     0.049 A 
ATOM     63  H   UNL     1       6.217  19.508  -4.338  1.00  0.00     0.167 HD
ATOM     64  C   UNL     1       8.244  19.606  -2.355  1.00  0.00     0.074 A 
ATOM     65  C   UNL     1       8.950  19.405  -1.106  1.00  0.00     0.031 C 
ATOM     66  C   UNL     1       8.787  20.186  -3.454  1.00  0.00     0.034 A 
BRANCH  53  67
ATOM     67  C   UNL     1       5.031  20.296  -8.369  1.00  0.00     0.023 A 
ATOM     68  C   UNL     1       4.173  21.357  -8.728  1.00  0.00     0.012 A 
ATOM     69  C   UNL     1       5.724  19.599  -9.378  1.00  0.00     0.148 A 
ATOM     70  C   UNL     1       3.973  21.690 -10.067  1.00  0.00     0.002 A 
ATOM     71  C   UNL     1       5.557  19.969 -10.708  1.00  0.00     0.091 A 
ATOM     72  F   UNL     1       6.519  18.580  -9.023  1.00  0.00    -0.205 F 
ATOM     73  C   UNL     1       4.672  21.003 -11.055  1.00  0.00     0.022 A 
BRANCH  71  74
ATOM     74  S   UNL     1       6.473  19.201 -12.049  1.00  0.00     0.127 S 
ATOM     75  O   UNL     1       5.426  18.428 -12.716  1.00  0.00    -0.237 OA
ATOM     76  O   UNL     1       6.946  20.363 -12.803  1.00  0.00    -0.237 OA
ATOM     77  O   UNL     1       7.525  18.416 -11.419  1.00  0.00    -0.744 OA
ENDBRANCH  71  74
ENDBRANCH  53  67
BRANCH  54  78
ATOM     78  C   UNL     1       5.930  17.593   1.220  1.00  0.00     0.023 A 
ATOM     79  C   UNL     1       6.124  18.581   2.206  1.00  0.00     0.012 A 
ATOM     80  C   UNL     1       5.856  16.241   1.607  1.00  0.00     0.148 A 
ATOM     81  C   UNL     1       6.276  18.228   3.547  1.00  0.00     0.002 A 
ATOM     82  C   UNL     1       5.954  15.901   2.952  1.00  0.00     0.091 A 
ATOM     83  F   UNL     1       5.678  15.317   0.654  1.00  0.00    -0.205 F 
ATOM     84  C   UNL     1       6.182  16.890   3.921  1.00  0.00     0.022 A 
BRANCH  82  85
ATOM     85  S   UNL     1       5.719  14.221   3.542  1.00  0.00     0.127 S 
ATOM     86  O   UNL     1       7.061  13.875   4.002  1.00  0.00    -0.237 OA
ATOM     87  O   UNL     1       4.731  14.411   4.604  1.00  0.00    -0.237 OA
ATOM     88  O   UNL     1       5.231  13.465   2.396  1.00  0.00    -0.744 OA
ENDBRANCH  82  85
ENDBRANCH  54  78
BRANCH  66  89
ATOM     89  C   UNL     1      10.203  20.691  -3.350  1.00  0.00     0.023 A 
ATOM     90  C   UNL     1      11.275  19.778  -3.295  1.00  0.00     0.012 A 
ATOM     91  C   UNL     1      10.472  22.074  -3.383  1.00  0.00     0.148 A 
ATOM     92  C   UNL     1      12.591  20.235  -3.240  1.00  0.00     0.002 A 
ATOM     93  C   UNL     1      11.788  22.520  -3.382  1.00  0.00     0.091 A 
ATOM     94  F   UNL     1       9.438  22.926  -3.417  1.00  0.00    -0.205 F 
ATOM     95  C   UNL     1      12.848  21.603  -3.296  1.00  0.00     0.022 A 
BRANCH  93  96
ATOM     96  S   UNL     1      12.218  24.255  -3.553  1.00  0.00     0.127 S 
ATOM     97  O   UNL     1      12.726  24.569  -2.218  1.00  0.00    -0.237 OA
ATOM     98  O   UNL     1      13.239  24.219  -4.601  1.00  0.00    -0.237 OA
ATOM     99  O   UNL     1      10.989  24.940  -3.929  1.00  0.00    -0.744 OA
ENDBRANCH  93  96
ENDBRANCH  66  89
ENDBRANCH  40  41
ENDBRANCH  32  35
ENDBRANCH  30  31
ENDBRANCH  29  30
ENDBRANCH  28  29
ENDBRANCH   1  28
TORSDOF 19
