REMARK SMILES Cc1cc(Cl)c2c(c1)C=C(C(=O)NCCCCCCNC(=O)c1ccc(-c3c4nc(c(-c5cccc(S(=O)(=O)[O-])c5F)c5ccc([nH]5)c(-c5cccc(S(=O)(=O)[O-])c5F)c5nc(c(-c6cccc(S(=O)(=O)[O-])c6F)c6ccc3[nH]6)C=C5)C=C4)cc1)[C@@H](C(F)(F)F)O2
REMARK SMILES IDX 17 1 16 2 15 3 14 4 13 5 11 6 12 7 10 9 1 10 2 11 3 12 8 13
REMARK SMILES IDX 4 14 7 15 5 16 6 17 9 18 91 19 86 20 87 21 88 22 89 23 90 24
REMARK SMILES IDX 18 25 19 26 20 27 21 28 22 30 23 31 24 32 85 33 25 34 84 35
REMARK SMILES IDX 26 36 27 37 28 38 78 39 29 40 83 41 77 42 79 43 30 44 82 45
REMARK SMILES IDX 76 46 75 47 31 49 63 50 43 51 62 52 44 53 47 54 61 55 80 56
REMARK SMILES IDX 45 57 46 58 60 60 81 61 48 62 32 63 33 64 41 65 34 66 36 67
REMARK SMILES IDX 42 68 35 69 37 70 38 71 39 72 40 73 64 74 65 75 73 76 66 77
REMARK SMILES IDX 68 78 74 79 67 80 69 81 70 82 71 83 72 84 49 85 50 86 58 87
REMARK SMILES IDX 51 88 53 89 59 90 52 91 54 92 55 93 56 94 57 95
REMARK H PARENT 13 8 20 29 79 48 47 59
REMARK Flexibility Score: inf
ROOT
ATOM      1  C   UNL     1       0.514  12.126   1.807  1.00  0.00     0.002 C 
ENDROOT
BRANCH   1   2
ATOM      2  C   UNL     1       1.681  11.202   2.183  1.00  0.00     0.002 C 
BRANCH   2   3
ATOM      3  C   UNL     1       1.279   9.782   2.587  1.00  0.00     0.021 C 
BRANCH   3   4
ATOM      4  C   UNL     1       0.446   9.060   1.534  1.00  0.00     0.116 C 
BRANCH   4   5
ATOM      5  N   UNL     1       1.281   8.438   0.522  1.00  0.00    -0.352 N 
ATOM      6  C   UNL     1       1.491   7.189   0.046  1.00  0.00     0.251 C 
ATOM      7  O   UNL     1       2.311   7.107  -0.876  1.00  0.00    -0.270 OA
ATOM      8  H   UNL     1       1.844   9.100   0.060  1.00  0.00     0.163 HD
BRANCH   6   9
ATOM      9  C   UNL     1       0.822   5.950   0.549  1.00  0.00     0.067 C 
ATOM     10  C   UNL     1       1.004  -0.189  -0.224  1.00  0.00     0.044 C 
ATOM     11  C   UNL     1       0.578   1.106   0.399  1.00  0.00    -0.049 A 
ATOM     12  C   UNL     1      -0.371   1.123   1.427  1.00  0.00     0.028 A 
ATOM     13  C   UNL     1       1.112   2.319  -0.060  1.00  0.00     0.015 A 
ATOM     14  C   UNL     1      -0.767   2.332   1.997  1.00  0.00     0.084 A 
ATOM     15  C   UNL     1       0.716   3.535   0.511  1.00  0.00     0.019 A 
ATOM     16  Cl  UNL     1      -1.924   2.296   3.279  1.00  0.00    -0.080 Cl
ATOM     17  C   UNL     1      -0.230   3.538   1.537  1.00  0.00     0.146 A 
ATOM     18  C   UNL     1       1.317   4.791   0.079  1.00  0.00     0.025 C 
ATOM     19  O   UNL     1      -0.623   4.689   2.154  1.00  0.00    -0.474 OA
ATOM     20  C   UNL     1      -0.354   5.945   1.485  1.00  0.00     0.314 C 
BRANCH  20  21
ATOM     21  C   UNL     1      -1.646   6.445   0.813  1.00  0.00     0.429 C 
ATOM     22  F   UNL     1      -2.567   6.791   1.743  1.00  0.00    -0.167 F 
ATOM     23  F   UNL     1      -1.441   7.544   0.048  1.00  0.00    -0.167 F 
ATOM     24  F   UNL     1      -2.199   5.508   0.010  1.00  0.00    -0.167 F 
ENDBRANCH  20  21
ENDBRANCH   6   9
ENDBRANCH   4   5
ENDBRANCH   3   4
ENDBRANCH   2   3
ENDBRANCH   1   2
BRANCH   1  25
ATOM     25  C   UNL     1      -0.636  12.168   2.817  1.00  0.00     0.021 C 
BRANCH  25  26
ATOM     26  C   UNL     1      -0.224  12.585   4.224  1.00  0.00     0.116 C 
BRANCH  26  27
ATOM     27  N   UNL     1       0.370  13.912   4.238  1.00  0.00    -0.352 N 
ATOM     28  C   UNL     1      -0.033  15.029   4.923  1.00  0.00     0.251 C 
ATOM     29  H   UNL     1       1.172  14.024   3.679  1.00  0.00     0.163 HD
ATOM     30  O   UNL     1       0.444  16.128   4.647  1.00  0.00    -0.269 OA
BRANCH  28  31
ATOM     31  C   UNL     1      -1.048  14.903   5.987  1.00  0.00     0.039 A 
ATOM     32  C   UNL     1      -2.107  15.810   6.026  1.00  0.00     0.014 A 
ATOM     33  C   UNL     1      -0.947  13.887   6.943  1.00  0.00     0.014 A 
ATOM     34  C   UNL     1      -3.094  15.672   7.003  1.00  0.00     0.010 A 
ATOM     35  C   UNL     1      -1.969  13.707   7.868  1.00  0.00     0.010 A 
ATOM     36  C   UNL     1      -3.044  14.606   7.918  1.00  0.00    -0.014 A 
BRANCH  36  37
ATOM     37  C   UNL     1      -4.099  14.429   8.944  1.00  0.00     0.031 A 
ATOM     38  C   UNL     1      -3.758  14.560  10.403  1.00  0.00     0.074 A 
ATOM     39  C   UNL     1      -5.349  14.100   8.564  1.00  0.00     0.049 A 
ATOM     40  N   UNL     1      -4.535  14.419  11.445  1.00  0.00    -0.248 NA
ATOM     41  C   UNL     1      -2.357  14.868  10.740  1.00  0.00     0.031 C 
ATOM     42  C   UNL     1      -5.783  13.887   7.182  1.00  0.00     0.029 A 
ATOM     43  N   UNL     1      -6.482  13.875   9.306  1.00  0.00    -0.354 N 
ATOM     44  C   UNL     1      -3.720  14.602  12.554  1.00  0.00     0.074 A 
ATOM     45  C   UNL     1      -2.377  14.816  12.064  1.00  0.00     0.031 C 
ATOM     46  C   UNL     1      -7.090  13.582   7.173  1.00  0.00     0.029 A 
ATOM     47  C   UNL     1      -7.582  13.546   8.547  1.00  0.00     0.049 A 
ATOM     48  H   UNL     1      -6.505  13.942  10.287  1.00  0.00     0.167 HD
ATOM     49  C   UNL     1      -4.064  14.631  13.863  1.00  0.00     0.034 A 
ATOM     50  C   UNL     1      -8.844  13.252   8.918  1.00  0.00     0.034 A 
ATOM     51  C   UNL     1      -5.409  14.457  14.341  1.00  0.00     0.049 A 
ATOM     52  C   UNL     1      -9.202  13.297  10.380  1.00  0.00     0.074 A 
ATOM     53  C   UNL     1      -5.871  14.532  15.642  1.00  0.00     0.029 A 
ATOM     54  N   UNL     1      -6.505  14.175  13.540  1.00  0.00    -0.354 N 
ATOM     55  N   UNL     1      -8.446  13.610  11.405  1.00  0.00    -0.248 NA
ATOM     56  C   UNL     1     -10.593  12.980  10.737  1.00  0.00     0.031 C 
ATOM     57  C   UNL     1      -7.243  14.269  15.632  1.00  0.00     0.029 A 
ATOM     58  C   UNL     1      -7.642  14.060  14.321  1.00  0.00     0.049 A 
ATOM     59  H   UNL     1      -6.478  14.071  12.562  1.00  0.00     0.167 HD
ATOM     60  C   UNL     1      -9.273  13.557  12.522  1.00  0.00     0.074 A 
ATOM     61  C   UNL     1     -10.595  13.207  12.044  1.00  0.00     0.031 C 
ATOM     62  C   UNL     1      -8.962  13.761  13.826  1.00  0.00     0.034 A 
BRANCH  49  63
ATOM     63  C   UNL     1      -2.986  14.929  14.872  1.00  0.00     0.023 A 
ATOM     64  C   UNL     1      -2.456  16.234  14.949  1.00  0.00     0.012 A 
ATOM     65  C   UNL     1      -2.566  13.957  15.800  1.00  0.00     0.148 A 
ATOM     66  C   UNL     1      -1.507  16.560  15.916  1.00  0.00     0.002 A 
ATOM     67  C   UNL     1      -1.656  14.303  16.793  1.00  0.00     0.091 A 
ATOM     68  F   UNL     1      -3.068  12.718  15.700  1.00  0.00    -0.205 F 
ATOM     69  C   UNL     1      -1.119  15.600  16.846  1.00  0.00     0.022 A 
BRANCH  67  70
ATOM     70  S   UNL     1      -1.153  13.169  18.092  1.00  0.00     0.127 S 
ATOM     71  O   UNL     1       0.262  12.972  17.780  1.00  0.00    -0.237 OA
ATOM     72  O   UNL     1      -1.408  13.954  19.299  1.00  0.00    -0.237 OA
ATOM     73  O   UNL     1      -1.991  11.987  17.943  1.00  0.00    -0.744 OA
ENDBRANCH  67  70
ENDBRANCH  49  63
BRANCH  50  74
ATOM     74  C   UNL     1      -9.878  12.974   7.880  1.00  0.00     0.023 A 
ATOM     75  C   UNL     1     -10.910  13.909   7.669  1.00  0.00     0.012 A 
ATOM     76  C   UNL     1      -9.820  11.823   7.069  1.00  0.00     0.148 A 
ATOM     77  C   UNL     1     -11.880  13.692   6.689  1.00  0.00     0.002 A 
ATOM     78  C   UNL     1     -10.755  11.642   6.056  1.00  0.00     0.091 A 
ATOM     79  F   UNL     1      -8.837  10.940   7.292  1.00  0.00    -0.205 F 
ATOM     80  C   UNL     1     -11.795  12.566   5.875  1.00  0.00     0.022 A 
BRANCH  78  81
ATOM     81  S   UNL     1     -10.645  10.298   4.869  1.00  0.00     0.127 S 
ATOM     82  O   UNL     1     -11.816   9.497   5.215  1.00  0.00    -0.237 OA
ATOM     83  O   UNL     1     -10.742  11.014   3.596  1.00  0.00    -0.237 OA
ATOM     84  O   UNL     1      -9.355   9.666   5.107  1.00  0.00    -0.744 OA
ENDBRANCH  78  81
ENDBRANCH  50  74
BRANCH  62  85
ATOM     85  C   UNL     1     -10.063  13.629  14.847  1.00  0.00     0.023 A 
ATOM     86  C   UNL     1     -10.562  12.352  15.169  1.00  0.00     0.012 A 
ATOM     87  C   UNL     1     -10.512  14.752  15.571  1.00  0.00     0.148 A 
ATOM     88  C   UNL     1     -11.506  12.196  16.182  1.00  0.00     0.002 A 
ATOM     89  C   UNL     1     -11.413  14.581  16.616  1.00  0.00     0.091 A 
ATOM     90  F   UNL     1     -10.034  15.960  15.239  1.00  0.00    -0.205 F 
ATOM     91  C   UNL     1     -11.919  13.306  16.915  1.00  0.00     0.022 A 
BRANCH  89  92
ATOM     92  S   UNL     1     -11.919  15.931  17.688  1.00  0.00     0.127 S 
ATOM     93  O   UNL     1     -13.325  16.092  17.320  1.00  0.00    -0.237 OA
ATOM     94  O   UNL     1     -11.697  15.368  19.019  1.00  0.00    -0.237 OA
ATOM     95  O   UNL     1     -11.057  17.057  17.354  1.00  0.00    -0.744 OA
ENDBRANCH  89  92
ENDBRANCH  62  85
ENDBRANCH  36  37
ENDBRANCH  28  31
ENDBRANCH  26  27
ENDBRANCH  25  26
ENDBRANCH   1  25
TORSDOF 17
