REMARK SMILES O=C(COc1ccccc1Br)Nc1cccc(C(=O)Nc2ccc(C(=O)NCCCCCCNC(=O)c3ccc(-c4c5nc(c(-c6cccc(S(=O)(=O)[O-])c6F)c6ccc([nH]6)c(-c6cccc(S(=O)(=O)[O-])c6F)c6nc(c(-c7cccc(S(=O)(=O)[O-])c7F)c7ccc4[nH]7)C=C6)C=C5)cc3)cc2)c1
REMARK SMILES IDX 29 1 28 2 27 3 25 4 26 5 24 7 21 8 22 9 101 10 23 11 100 12
REMARK SMILES IDX 20 13 18 14 19 15 17 17 13 18 14 19 102 20 15 21 16 22 12 23
REMARK SMILES IDX 1 24 2 25 3 27 4 28 5 29 6 30 10 31 7 32 9 33 11 34 8 35
REMARK SMILES IDX 30 36 31 37 32 38 33 39 34 40 35 41 36 43 37 44 38 45 99 46
REMARK SMILES IDX 39 47 98 48 40 49 41 50 42 51 92 52 43 53 97 54 91 55 93 56
REMARK SMILES IDX 44 57 96 58 90 59 89 60 45 62 77 63 57 64 76 65 58 66 61 67
REMARK SMILES IDX 75 68 94 69 59 70 60 71 74 73 95 74 62 75 46 76 47 77 55 78
REMARK SMILES IDX 48 79 50 80 56 81 49 82 51 83 52 84 53 85 54 86 78 87 79 88
REMARK SMILES IDX 87 89 80 90 82 91 88 92 81 93 83 94 84 95 85 96 86 97 63 98
REMARK SMILES IDX 64 99 72 100 65 101 67 102 73 103 66 104 68 105 69 106
REMARK SMILES IDX 70 107 71 108
REMARK H PARENT 27 6 20 16 12 26 34 42 93 61 61 72
REMARK Flexibility Score: inf
ROOT
ATOM      1  C   UNL     1       4.547  -3.392   2.125  1.00  0.00     0.021 C 
ENDROOT
BRANCH   1   2
ATOM      2  C   UNL     1       3.491  -2.419   1.607  1.00  0.00     0.116 C 
BRANCH   2   3
ATOM      3  N   UNL     1       2.287  -3.138   1.236  1.00  0.00    -0.352 N 
ATOM      4  C   UNL     1       0.964  -3.041   1.584  1.00  0.00     0.251 C 
ATOM      5  O   UNL     1       0.196  -3.854   1.064  1.00  0.00    -0.269 OA
ATOM      6  H   UNL     1       2.458  -3.858   0.587  1.00  0.00     0.163 HD
BRANCH   4   7
ATOM      7  C   UNL     1       0.402  -1.972   2.459  1.00  0.00     0.039 A 
ATOM      8  C   UNL     1      -0.661   0.364   3.579  1.00  0.00     0.041 A 
ATOM      9  C   UNL     1      -1.470  -0.441   2.780  1.00  0.00     0.027 A 
ATOM     10  C   UNL     1       0.594  -0.096   3.981  1.00  0.00     0.027 A 
ATOM     11  C   UNL     1      -0.923  -1.584   2.192  1.00  0.00     0.016 A 
ATOM     12  C   UNL     1       1.102  -1.292   3.456  1.00  0.00     0.016 A 
BRANCH   8  13
ATOM     13  N   UNL     1      -1.114   1.660   3.857  1.00  0.00    -0.322 N 
ATOM     14  C   UNL     1      -0.475   2.880   3.703  1.00  0.00     0.255 C 
ATOM     15  O   UNL     1      -1.024   3.882   4.167  1.00  0.00    -0.269 OA
ATOM     16  H   UNL     1      -2.029   1.712   4.219  1.00  0.00     0.170 HD
BRANCH  14  17
ATOM     17  C   UNL     1       0.777   3.058   2.896  1.00  0.00     0.042 A 
ATOM     18  C   UNL     1       2.386   2.308   1.220  1.00  0.00     0.042 A 
ATOM     19  C   UNL     1       3.133   3.470   1.421  1.00  0.00     0.026 A 
ATOM     20  C   UNL     1       1.190   2.147   1.918  1.00  0.00     0.040 A 
ATOM     21  C   UNL     1       2.674   4.454   2.297  1.00  0.00     0.003 A 
ATOM     22  C   UNL     1       1.508   4.244   3.041  1.00  0.00     0.014 A 
BRANCH  18  23
ATOM     23  N   UNL     1       2.848   1.386   0.262  1.00  0.00    -0.323 N 
ATOM     24  O   UNL     1       1.085  -0.147   0.114  1.00  0.00    -0.271 OA
ATOM     25  C   UNL     1       2.153   0.313  -0.275  1.00  0.00     0.262 C 
ATOM     26  H   UNL     1       3.767   1.518  -0.064  1.00  0.00     0.170 HD
BRANCH  25  27
ATOM     27  C   UNL     1       2.842  -0.283  -1.495  1.00  0.00     0.329 C 
BRANCH  27  28
ATOM     28  O   UNL     1       3.631   0.722  -2.138  1.00  0.00    -0.483 OA
BRANCH  28  29
ATOM     29  C   UNL     1       3.133   1.000  -3.380  1.00  0.00     0.134 A 
ATOM     30  C   UNL     1       3.748   0.351  -4.452  1.00  0.00     0.047 A 
ATOM     31  C   UNL     1       2.107   1.924  -3.610  1.00  0.00     0.060 A 
ATOM     32  C   UNL     1       3.317   0.600  -5.753  1.00  0.00     0.004 A 
ATOM     33  C   UNL     1       1.671   2.158  -4.913  1.00  0.00     0.019 A 
ATOM     34  Br  UNL     1       1.270   2.936  -2.246  1.00  0.00    -0.047 Br
ATOM     35  C   UNL     1       2.275   1.498  -5.982  1.00  0.00     0.001 A 
ENDBRANCH  28  29
ENDBRANCH  27  28
ENDBRANCH  25  27
ENDBRANCH  18  23
ENDBRANCH  14  17
ENDBRANCH   8  13
ENDBRANCH   4   7
ENDBRANCH   2   3
ENDBRANCH   1   2
BRANCH   1  36
ATOM     36  C   UNL     1       5.163  -4.276   1.030  1.00  0.00     0.002 C 
BRANCH  36  37
ATOM     37  C   UNL     1       5.820  -3.527  -0.137  1.00  0.00     0.002 C 
BRANCH  37  38
ATOM     38  C   UNL     1       6.832  -2.451   0.261  1.00  0.00     0.021 C 
BRANCH  38  39
ATOM     39  C   UNL     1       7.957  -2.940   1.163  1.00  0.00     0.116 C 
BRANCH  39  40
ATOM     40  N   UNL     1       8.765  -3.967   0.533  1.00  0.00    -0.352 N 
ATOM     41  C   UNL     1      10.133  -4.100   0.517  1.00  0.00     0.251 C 
ATOM     42  H   UNL     1       8.265  -4.665   0.050  1.00  0.00     0.163 HD
ATOM     43  O   UNL     1      10.656  -4.941  -0.203  1.00  0.00    -0.269 OA
BRANCH  41  44
ATOM     44  C   UNL     1      10.966  -3.213   1.360  1.00  0.00     0.039 A 
ATOM     45  C   UNL     1      12.143  -2.687   0.824  1.00  0.00     0.014 A 
ATOM     46  C   UNL     1      10.599  -2.915   2.675  1.00  0.00     0.014 A 
ATOM     47  C   UNL     1      12.940  -1.843   1.601  1.00  0.00     0.010 A 
ATOM     48  C   UNL     1      11.344  -2.002   3.414  1.00  0.00     0.010 A 
ATOM     49  C   UNL     1      12.541  -1.484   2.899  1.00  0.00    -0.014 A 
BRANCH  49  50
ATOM     50  C   UNL     1      13.389  -0.612   3.749  1.00  0.00     0.031 A 
ATOM     51  C   UNL     1      13.965  -1.147   5.035  1.00  0.00     0.074 A 
ATOM     52  C   UNL     1      13.597   0.672   3.398  1.00  0.00     0.049 A 
ATOM     53  N   UNL     1      14.724  -0.544   5.912  1.00  0.00    -0.248 NA
ATOM     54  C   UNL     1      13.616  -2.530   5.400  1.00  0.00     0.031 C 
ATOM     55  C   UNL     1      13.037   1.327   2.214  1.00  0.00     0.029 A 
ATOM     56  N   UNL     1      14.326   1.659   4.010  1.00  0.00    -0.354 N 
ATOM     57  C   UNL     1      14.904  -1.454   6.948  1.00  0.00     0.074 A 
ATOM     58  C   UNL     1      14.141  -2.634   6.611  1.00  0.00     0.031 C 
ATOM     59  C   UNL     1      13.464   2.599   2.173  1.00  0.00     0.029 A 
ATOM     60  C   UNL     1      14.302   2.860   3.340  1.00  0.00     0.049 A 
ATOM     61  H   UNL     1      14.820   1.522   4.851  1.00  0.00     0.167 HD
ATOM     62  C   UNL     1      15.657  -1.332   8.067  1.00  0.00     0.034 A 
ATOM     63  C   UNL     1      14.893   4.034   3.631  1.00  0.00     0.034 A 
ATOM     64  C   UNL     1      16.450  -0.173   8.374  1.00  0.00     0.049 A 
ATOM     65  C   UNL     1      15.761   4.131   4.857  1.00  0.00     0.074 A 
ATOM     66  C   UNL     1      17.328   0.015   9.427  1.00  0.00     0.029 A 
ATOM     67  N   UNL     1      16.452   1.000   7.636  1.00  0.00    -0.354 N 
ATOM     68  N   UNL     1      16.047   3.207   5.742  1.00  0.00    -0.248 NA
ATOM     69  C   UNL     1      16.420   5.421   5.102  1.00  0.00     0.031 C 
ATOM     70  C   UNL     1      17.828   1.319   9.348  1.00  0.00     0.029 A 
ATOM     71  C   UNL     1      17.301   1.925   8.219  1.00  0.00     0.049 A 
ATOM     72  H   UNL     1      15.926   1.154   6.819  1.00  0.00     0.167 HD
ATOM     73  C   UNL     1      16.959   3.786   6.618  1.00  0.00     0.074 A 
ATOM     74  C   UNL     1      17.183   5.139   6.149  1.00  0.00     0.031 C 
ATOM     75  C   UNL     1      17.554   3.250   7.712  1.00  0.00     0.034 A 
BRANCH  62  76
ATOM     76  C   UNL     1      15.677  -2.494   9.027  1.00  0.00     0.023 A 
ATOM     77  C   UNL     1      16.293  -3.708   8.656  1.00  0.00     0.012 A 
ATOM     78  C   UNL     1      15.111  -2.375  10.311  1.00  0.00     0.148 A 
ATOM     79  C   UNL     1      16.299  -4.798   9.526  1.00  0.00     0.002 A 
ATOM     80  C   UNL     1      15.169  -3.448  11.193  1.00  0.00     0.091 A 
ATOM     81  F   UNL     1      14.510  -1.222  10.641  1.00  0.00    -0.205 F 
ATOM     82  C   UNL     1      15.746  -4.665  10.797  1.00  0.00     0.022 A 
BRANCH  80  83
ATOM     83  S   UNL     1      14.563  -3.344  12.880  1.00  0.00     0.127 S 
ATOM     84  O   UNL     1      13.361  -4.175  12.813  1.00  0.00    -0.237 OA
ATOM     85  O   UNL     1      15.668  -3.931  13.639  1.00  0.00    -0.237 OA
ATOM     86  O   UNL     1      14.334  -1.930  13.139  1.00  0.00    -0.744 OA
ENDBRANCH  80  83
ENDBRANCH  62  76
BRANCH  63  87
ATOM     87  C   UNL     1      14.761   5.188   2.696  1.00  0.00     0.023 A 
ATOM     88  C   UNL     1      15.884   5.604   1.953  1.00  0.00     0.012 A 
ATOM     89  C   UNL     1      13.535   5.857   2.522  1.00  0.00     0.148 A 
ATOM     90  C   UNL     1      15.798   6.688   1.079  1.00  0.00     0.002 A 
ATOM     91  C   UNL     1      13.442   6.901   1.609  1.00  0.00     0.091 A 
ATOM     92  F   UNL     1      12.481   5.448   3.241  1.00  0.00    -0.205 F 
ATOM     93  C   UNL     1      14.576   7.331   0.900  1.00  0.00     0.022 A 
BRANCH  91  94
ATOM     94  S   UNL     1      11.886   7.708   1.218  1.00  0.00     0.127 S 
ATOM     95  O   UNL     1      12.110   9.056   1.732  1.00  0.00    -0.237 OA
ATOM     96  O   UNL     1      11.852   7.601  -0.241  1.00  0.00    -0.237 OA
ATOM     97  O   UNL     1      10.857   6.936   1.901  1.00  0.00    -0.744 OA
ENDBRANCH  91  94
ENDBRANCH  63  87
BRANCH  75  98
ATOM     98  C   UNL     1      18.558   4.098   8.449  1.00  0.00     0.023 A 
ATOM     99  C   UNL     1      18.136   5.213   9.199  1.00  0.00     0.012 A 
ATOM    100  C   UNL     1      19.922   3.742   8.448  1.00  0.00     0.148 A 
ATOM    101  C   UNL     1      19.061   5.986   9.900  1.00  0.00     0.002 A 
ATOM    102  C   UNL     1      20.829   4.483   9.195  1.00  0.00     0.091 A 
ATOM    103  F   UNL     1      20.308   2.689   7.713  1.00  0.00    -0.205 F 
ATOM    104  C   UNL     1      20.404   5.614   9.909  1.00  0.00     0.022 A 
BRANCH 102 105
ATOM    105  S   UNL     1      22.555   4.012   9.348  1.00  0.00     0.127 S 
ATOM    106  O   UNL     1      23.214   5.025   8.525  1.00  0.00    -0.237 OA
ATOM    107  O   UNL     1      22.788   4.149  10.786  1.00  0.00    -0.237 OA
ATOM    108  O   UNL     1      22.645   2.646   8.851  1.00  0.00    -0.744 OA
ENDBRANCH 102 105
ENDBRANCH  75  98
ENDBRANCH  49  50
ENDBRANCH  41  44
ENDBRANCH  39  40
ENDBRANCH  38  39
ENDBRANCH  37  38
ENDBRANCH  36  37
ENDBRANCH   1  36
TORSDOF 22
