REMARK SMILES C[C@@H]1CCCN(C(=O)NC2(CC(=O)NCCCCCCNC(=O)c3ccc(-c4c5nc(c(-c6cccc(S(=O)(=O)[O-])c6F)c6ccc([nH]6)c(-c6cccc(S(=O)(=O)[O-])c6F)c6nc(c(-c7cccc(S(=O)(=O)[O-])c7F)c7ccc4[nH]7)C=C6)C=C5)cc3)CCC2)[C@@H]1C
REMARK SMILES IDX 17 1 16 2 15 3 14 4 12 5 13 6 11 8 10 9 87 10 89 11 88 12
REMARK SMILES IDX 9 13 7 14 8 15 6 17 1 18 2 19 3 20 90 21 4 22 91 23 5 24
REMARK SMILES IDX 18 25 19 26 20 27 21 28 22 29 23 31 24 32 25 33 86 34 26 35
REMARK SMILES IDX 85 36 27 37 28 38 29 39 79 40 30 41 84 42 78 43 80 44 31 45
REMARK SMILES IDX 83 46 77 47 76 48 32 50 64 51 44 52 63 53 45 54 48 55 62 56
REMARK SMILES IDX 81 57 46 58 47 59 61 61 82 62 49 63 33 64 34 65 42 66 35 67
REMARK SMILES IDX 37 68 43 69 36 70 38 71 39 72 40 73 41 74 65 75 66 76 74 77
REMARK SMILES IDX 67 78 69 79 75 80 68 81 70 82 71 83 72 84 73 85 50 86 51 87
REMARK SMILES IDX 59 88 52 89 54 90 60 91 53 92 55 93 56 94 57 95 58 96
REMARK H PARENT 14 7 9 16 21 30 80 49 48 60
REMARK Flexibility Score: inf
ROOT
ATOM      1  C   UNL     1       0.899   8.122  -4.559  1.00  0.00     0.002 C 
ENDROOT
BRANCH   1   2
ATOM      2  C   UNL     1       0.634   6.626  -4.753  1.00  0.00     0.021 C 
BRANCH   2   3
ATOM      3  C   UNL     1       1.177   6.090  -6.082  1.00  0.00     0.116 C 
BRANCH   3   4
ATOM      4  N   UNL     1       2.522   5.587  -5.904  1.00  0.00    -0.356 N 
ATOM      5  C   UNL     1       2.930   4.338  -5.562  1.00  0.00     0.222 C 
ATOM      6  O   UNL     1       4.106   4.184  -5.222  1.00  0.00    -0.275 OA
ATOM      7  H   UNL     1       3.242   6.243  -6.051  1.00  0.00     0.163 HD
BRANCH   5   8
ATOM      8  C   UNL     1       1.988   3.151  -5.610  1.00  0.00     0.128 C 
BRANCH   8   9
ATOM      9  C   UNL     1       1.163   2.828  -4.332  1.00  0.00     0.051 C 
ATOM     10  C   UNL     1       0.552   1.406  -4.443  1.00  0.00     0.029 C 
ATOM     11  C   UNL     1      -0.262   3.422  -4.416  1.00  0.00     0.029 C 
ATOM     12  C   UNL     1      -0.812   2.028  -4.776  1.00  0.00     0.005 C 
BRANCH   9  13
ATOM     13  N   UNL     1       1.994   3.044  -3.121  1.00  0.00    -0.332 N 
ATOM     14  C   UNL     1       2.055   2.850  -1.786  1.00  0.00     0.318 C 
ATOM     15  O   UNL     1       3.201   3.054  -1.364  1.00  0.00    -0.249 OA
ATOM     16  H   UNL     1       2.817   3.507  -3.398  1.00  0.00     0.165 HD
BRANCH  14  17
ATOM     17  N   UNL     1       1.035   2.488  -0.954  1.00  0.00    -0.322 N 
ATOM     18  C   UNL     1       1.579  -0.191   0.498  1.00  0.00     0.010 C 
ATOM     19  C   UNL     1       0.727   0.973   1.019  1.00  0.00     0.008 C 
ATOM     20  C   UNL     1      -0.750   0.789   0.639  1.00  0.00     0.007 C 
ATOM     21  C   UNL     1       1.229   2.359   0.523  1.00  0.00     0.086 C 
ATOM     22  C   UNL     1      -0.976   1.021  -0.846  1.00  0.00     0.022 C 
ATOM     23  C   UNL     1       2.588   2.695   1.149  1.00  0.00     0.031 C 
ATOM     24  C   UNL     1      -0.369   2.342  -1.304  1.00  0.00     0.121 C 
ENDBRANCH  14  17
ENDBRANCH   9  13
ENDBRANCH   8   9
ENDBRANCH   5   8
ENDBRANCH   3   4
ENDBRANCH   2   3
ENDBRANCH   1   2
BRANCH   1  25
ATOM     25  C   UNL     1       0.091   9.026  -5.498  1.00  0.00     0.002 C 
BRANCH  25  26
ATOM     26  C   UNL     1      -1.431   8.896  -5.376  1.00  0.00     0.021 C 
BRANCH  26  27
ATOM     27  C   UNL     1      -1.987   9.235  -3.995  1.00  0.00     0.116 C 
BRANCH  27  28
ATOM     28  N   UNL     1      -1.713  10.620  -3.638  1.00  0.00    -0.352 N 
ATOM     29  C   UNL     1      -2.591  11.652  -3.420  1.00  0.00     0.251 C 
ATOM     30  H   UNL     1      -0.761  10.848  -3.539  1.00  0.00     0.163 HD
ATOM     31  O   UNL     1      -2.183  12.809  -3.404  1.00  0.00    -0.269 OA
BRANCH  29  32
ATOM     32  C   UNL     1      -4.025  11.366  -3.201  1.00  0.00     0.039 A 
ATOM     33  C   UNL     1      -4.983  12.172  -3.820  1.00  0.00     0.014 A 
ATOM     34  C   UNL     1      -4.420  10.325  -2.356  1.00  0.00     0.014 A 
ATOM     35  C   UNL     1      -6.340  11.906  -3.627  1.00  0.00     0.010 A 
ATOM     36  C   UNL     1      -5.771  10.019  -2.219  1.00  0.00     0.010 A 
ATOM     37  C   UNL     1      -6.745  10.813  -2.842  1.00  0.00    -0.014 A 
BRANCH  37  38
ATOM     38  C   UNL     1      -8.180  10.481  -2.661  1.00  0.00     0.031 A 
ATOM     39  C   UNL     1      -8.806  10.547  -1.294  1.00  0.00     0.074 A 
ATOM     40  C   UNL     1      -8.894  10.028  -3.709  1.00  0.00     0.049 A 
ATOM     41  N   UNL     1     -10.022  10.234  -0.929  1.00  0.00    -0.248 NA
ATOM     42  C   UNL     1      -7.944  10.995  -0.188  1.00  0.00     0.031 C 
ATOM     43  C   UNL     1      -8.375   9.838  -5.065  1.00  0.00     0.029 A 
ATOM     44  N   UNL     1     -10.200   9.616  -3.792  1.00  0.00    -0.354 N 
ATOM     45  C   UNL     1     -10.062  10.411   0.449  1.00  0.00     0.074 A 
ATOM     46  C   UNL     1      -8.737  10.825   0.860  1.00  0.00     0.031 C 
ATOM     47  C   UNL     1      -9.351   9.344  -5.843  1.00  0.00     0.029 A 
ATOM     48  C   UNL     1     -10.555   9.159  -5.039  1.00  0.00     0.049 A 
ATOM     49  H   UNL     1     -10.823   9.644  -3.030  1.00  0.00     0.167 HD
ATOM     50  C   UNL     1     -11.112  10.274   1.293  1.00  0.00     0.034 A 
ATOM     51  C   UNL     1     -11.717   8.643  -5.484  1.00  0.00     0.034 A 
ATOM     52  C   UNL     1     -12.438   9.907   0.874  1.00  0.00     0.049 A 
ATOM     53  C   UNL     1     -12.885   8.551  -4.541  1.00  0.00     0.074 A 
ATOM     54  C   UNL     1     -13.591   9.831   1.633  1.00  0.00     0.029 A 
ATOM     55  N   UNL     1     -12.787   9.548  -0.420  1.00  0.00    -0.354 N 
ATOM     56  N   UNL     1     -12.948   8.881  -3.274  1.00  0.00    -0.248 NA
ATOM     57  C   UNL     1     -14.152   8.054  -5.096  1.00  0.00     0.031 C 
ATOM     58  C   UNL     1     -14.635   9.409   0.802  1.00  0.00     0.029 A 
ATOM     59  C   UNL     1     -14.136   9.243  -0.480  1.00  0.00     0.049 A 
ATOM     60  H   UNL     1     -12.166   9.516  -1.183  1.00  0.00     0.167 HD
ATOM     61  C   UNL     1     -14.266   8.663  -2.887  1.00  0.00     0.074 A 
ATOM     62  C   UNL     1     -14.971   8.192  -4.062  1.00  0.00     0.031 C 
ATOM     63  C   UNL     1     -14.836   8.823  -1.667  1.00  0.00     0.034 A 
BRANCH  50  64
ATOM     64  C   UNL     1     -10.879  10.579   2.750  1.00  0.00     0.023 A 
ATOM     65  C   UNL     1     -10.672  11.915   3.154  1.00  0.00     0.012 A 
ATOM     66  C   UNL     1     -10.905   9.561   3.723  1.00  0.00     0.148 A 
ATOM     67  C   UNL     1     -10.453  12.228   4.495  1.00  0.00     0.002 A 
ATOM     68  C   UNL     1     -10.730   9.887   5.064  1.00  0.00     0.091 A 
ATOM     69  F   UNL     1     -11.079   8.294   3.321  1.00  0.00    -0.205 F 
ATOM     70  C   UNL     1     -10.492  11.216   5.450  1.00  0.00     0.022 A 
BRANCH  68  71
ATOM     71  S   UNL     1     -10.840   8.664   6.376  1.00  0.00     0.127 S 
ATOM     72  O   UNL     1      -9.434   8.494   6.740  1.00  0.00    -0.237 OA
ATOM     73  O   UNL     1     -11.650   9.356   7.379  1.00  0.00    -0.237 OA
ATOM     74  O   UNL     1     -11.481   7.499   5.781  1.00  0.00    -0.744 OA
ENDBRANCH  68  71
ENDBRANCH  50  64
BRANCH  51  75
ATOM     75  C   UNL     1     -11.846   8.246  -6.915  1.00  0.00     0.023 A 
ATOM     76  C   UNL     1     -12.628   9.034  -7.781  1.00  0.00     0.012 A 
ATOM     77  C   UNL     1     -11.157   7.132  -7.431  1.00  0.00     0.148 A 
ATOM     78  C   UNL     1     -12.741   8.705  -9.132  1.00  0.00     0.002 A 
ATOM     79  C   UNL     1     -11.230   6.842  -8.789  1.00  0.00     0.091 A 
ATOM     80  F   UNL     1     -10.426   6.391  -6.587  1.00  0.00    -0.205 F 
ATOM     81  C   UNL     1     -12.034   7.618  -9.638  1.00  0.00     0.022 A 
BRANCH  79  82
ATOM     82  S   UNL     1     -10.247   5.546  -9.551  1.00  0.00     0.127 S 
ATOM     83  O   UNL     1     -11.266   4.558  -9.892  1.00  0.00    -0.237 OA
ATOM     84  O   UNL     1      -9.659   6.246 -10.694  1.00  0.00    -0.237 OA
ATOM     85  O   UNL     1      -9.281   5.137  -8.540  1.00  0.00    -0.744 OA
ENDBRANCH  79  82
ENDBRANCH  51  75
BRANCH  63  86
ATOM     86  C   UNL     1     -16.304   8.513  -1.537  1.00  0.00     0.023 A 
ATOM     87  C   UNL     1     -16.739   7.173  -1.550  1.00  0.00     0.012 A 
ATOM     88  C   UNL     1     -17.241   9.542  -1.323  1.00  0.00     0.148 A 
ATOM     89  C   UNL     1     -18.088   6.864  -1.382  1.00  0.00     0.002 A 
ATOM     90  C   UNL     1     -18.577   9.224  -1.109  1.00  0.00     0.091 A 
ATOM     91  F   UNL     1     -16.811  10.812  -1.333  1.00  0.00    -0.205 F 
ATOM     92  C   UNL     1     -19.004   7.887  -1.149  1.00  0.00     0.022 A 
BRANCH  90  93
ATOM     93  S   UNL     1     -19.809  10.469  -0.708  1.00  0.00     0.127 S 
ATOM     94  O   UNL     1     -20.562  10.556  -1.958  1.00  0.00    -0.237 OA
ATOM     95  O   UNL     1     -20.535   9.844   0.399  1.00  0.00    -0.237 OA
ATOM     96  O   UNL     1     -19.064  11.665  -0.340  1.00  0.00    -0.744 OA
ENDBRANCH  90  93
ENDBRANCH  63  86
ENDBRANCH  37  38
ENDBRANCH  29  32
ENDBRANCH  27  28
ENDBRANCH  26  27
ENDBRANCH  25  26
ENDBRANCH   1  25
TORSDOF 19
