REMARK SMILES CN(C(=O)N[C@@H]1C=C[C@@H](C(=O)NCCCCCCNC(=O)c2ccc(-c3c4nc(c(-c5cccc(S(=O)(=O)[O-])c5F)c5ccc([nH]5)c(-c5cccc(S(=O)(=O)[O-])c5F)c5nc(c(-c6cccc(S(=O)(=O)[O-])c6F)c6ccc3[nH]6)C=C5)C=C4)cc2)C1)[C@H]1CCS(=O)(=O)C1
REMARK SMILES IDX 15 1 14 2 13 3 12 4 10 5 11 6 9 8 6 9 7 10 85 11 8 12 5 13
REMARK SMILES IDX 3 14 4 15 2 17 1 18 86 19 87 20 92 21 88 22 89 23 90 24
REMARK SMILES IDX 91 25 16 26 17 27 18 28 19 29 20 30 21 32 22 33 23 34 84 35
REMARK SMILES IDX 24 36 83 37 25 38 26 39 27 40 77 41 28 42 82 43 76 44 78 45
REMARK SMILES IDX 29 46 81 47 75 48 74 49 30 51 62 52 42 53 61 54 43 55 46 56
REMARK SMILES IDX 60 57 79 58 44 59 45 60 59 62 80 63 47 64 31 65 32 66 40 67
REMARK SMILES IDX 33 68 35 69 41 70 34 71 36 72 37 73 38 74 39 75 63 76 64 77
REMARK SMILES IDX 72 78 65 79 67 80 73 81 66 82 68 83 69 84 70 85 71 86 48 87
REMARK SMILES IDX 49 88 57 89 50 90 52 91 58 92 51 93 53 94 54 95 55 96 56 97
REMARK H PARENT 12 7 5 16 19 31 78 50 46 61
REMARK Flexibility Score: inf
ROOT
ATOM      1  C   UNL     1       0.929  -4.611   6.648  1.00  0.00     0.002 C 
ENDROOT
BRANCH   1   2
ATOM      2  C   UNL     1       1.579  -3.340   6.090  1.00  0.00     0.021 C 
BRANCH   2   3
ATOM      3  C   UNL     1       2.984  -3.086   6.633  1.00  0.00     0.116 C 
BRANCH   3   4
ATOM      4  N   UNL     1       3.936  -4.042   6.108  1.00  0.00    -0.356 N 
ATOM      5  C   UNL     1       5.055  -3.897   5.353  1.00  0.00     0.227 C 
ATOM      6  O   UNL     1       5.681  -4.931   5.090  1.00  0.00    -0.274 OA
ATOM      7  H   UNL     1       3.733  -4.976   6.343  1.00  0.00     0.163 HD
BRANCH   5   8
ATOM      8  C   UNL     1       5.561  -2.550   4.823  1.00  0.00     0.103 C 
ATOM      9  C   UNL     1       4.154  -0.547   4.559  1.00  0.00     0.107 C 
ATOM     10  C   UNL     1       5.106  -0.429   5.709  1.00  0.00    -0.006 C 
ATOM     11  C   UNL     1       4.631  -1.822   3.841  1.00  0.00     0.047 C 
ATOM     12  C   UNL     1       5.845  -1.531   5.878  1.00  0.00    -0.016 C 
BRANCH   9  13
ATOM     13  N   UNL     1       4.241   0.651   3.771  1.00  0.00    -0.332 N 
ATOM     14  C   UNL     1       3.507   1.777   3.686  1.00  0.00     0.317 C 
ATOM     15  O   UNL     1       3.828   2.537   2.767  1.00  0.00    -0.249 OA
ATOM     16  H   UNL     1       5.010   0.649   3.156  1.00  0.00     0.165 HD
BRANCH  14  17
ATOM     17  N   UNL     1       2.467   2.080   4.539  1.00  0.00    -0.324 N 
ATOM     18  C   UNL     1       2.098   1.374   5.760  1.00  0.00     0.149 C 
BRANCH  17  19
ATOM     19  C   UNL     1       1.675   3.286   4.186  1.00  0.00     0.102 C 
ATOM     20  C   UNL     1       0.335   3.480   4.932  1.00  0.00     0.042 C 
ATOM     21  C   UNL     1       2.454   4.581   4.433  1.00  0.00     0.162 C 
ATOM     22  C   UNL     1      -0.196   4.861   4.565  1.00  0.00     0.139 C 
ATOM     23  S   UNL     1       1.243   5.870   4.256  1.00  0.00     0.152 S 
ATOM     24  O   UNL     1       1.216   6.291   2.872  1.00  0.00    -0.229 OA
ATOM     25  O   UNL     1       1.418   6.814   5.342  1.00  0.00    -0.229 OA
ENDBRANCH  17  19
ENDBRANCH  14  17
ENDBRANCH   9  13
ENDBRANCH   5   8
ENDBRANCH   3   4
ENDBRANCH   2   3
ENDBRANCH   1   2
BRANCH   1  26
ATOM     26  C   UNL     1       0.810  -4.653   8.176  1.00  0.00     0.002 C 
BRANCH  26  27
ATOM     27  C   UNL     1       0.060  -3.473   8.798  1.00  0.00     0.021 C 
BRANCH  27  28
ATOM     28  C   UNL     1      -1.375  -3.308   8.309  1.00  0.00     0.116 C 
BRANCH  28  29
ATOM     29  N   UNL     1      -2.195  -4.466   8.628  1.00  0.00    -0.352 N 
ATOM     30  C   UNL     1      -3.387  -4.527   9.306  1.00  0.00     0.251 C 
ATOM     31  H   UNL     1      -1.845  -5.330   8.312  1.00  0.00     0.163 HD
ATOM     32  O   UNL     1      -3.834  -5.612   9.664  1.00  0.00    -0.269 OA
BRANCH  30  33
ATOM     33  C   UNL     1      -4.119  -3.280   9.614  1.00  0.00     0.039 A 
ATOM     34  C   UNL     1      -4.664  -3.112  10.889  1.00  0.00     0.014 A 
ATOM     35  C   UNL     1      -4.268  -2.282   8.647  1.00  0.00     0.014 A 
ATOM     36  C   UNL     1      -5.310  -1.916  11.211  1.00  0.00     0.010 A 
ATOM     37  C   UNL     1      -4.839  -1.062   8.995  1.00  0.00     0.010 A 
ATOM     38  C   UNL     1      -5.374  -0.869  10.277  1.00  0.00    -0.014 A 
BRANCH  38  39
ATOM     39  C   UNL     1      -5.987   0.438  10.628  1.00  0.00     0.031 A 
ATOM     40  C   UNL     1      -7.197   0.936   9.883  1.00  0.00     0.074 A 
ATOM     41  C   UNL     1      -5.405   1.216  11.562  1.00  0.00     0.049 A 
ATOM     42  N   UNL     1      -7.844   2.063  10.024  1.00  0.00    -0.248 NA
ATOM     43  C   UNL     1      -7.734   0.066   8.824  1.00  0.00     0.031 C 
ATOM     44  C   UNL     1      -4.190   0.878  12.307  1.00  0.00     0.029 A 
ATOM     45  N   UNL     1      -5.745   2.460  12.032  1.00  0.00    -0.354 N 
ATOM     46  C   UNL     1      -8.834   2.058   9.049  1.00  0.00     0.074 A 
ATOM     47  C   UNL     1      -8.683   0.829   8.302  1.00  0.00     0.031 C 
ATOM     48  C   UNL     1      -3.898   1.879  13.152  1.00  0.00     0.029 A 
ATOM     49  C   UNL     1      -4.879   2.947  12.983  1.00  0.00     0.049 A 
ATOM     50  H   UNL     1      -6.535   2.957  11.718  1.00  0.00     0.167 HD
ATOM     51  C   UNL     1      -9.797   2.981   8.810  1.00  0.00     0.034 A 
ATOM     52  C   UNL     1      -4.871   4.123  13.641  1.00  0.00     0.034 A 
ATOM     53  C   UNL     1      -9.966   4.184   9.579  1.00  0.00     0.049 A 
ATOM     54  C   UNL     1      -5.963   5.121  13.369  1.00  0.00     0.074 A 
ATOM     55  C   UNL     1     -10.969   5.132   9.482  1.00  0.00     0.029 A 
ATOM     56  N   UNL     1      -9.102   4.618  10.572  1.00  0.00    -0.354 N 
ATOM     57  N   UNL     1      -6.986   5.025  12.556  1.00  0.00    -0.248 NA
ATOM     58  C   UNL     1      -5.917   6.378  14.131  1.00  0.00     0.031 C 
ATOM     59  C   UNL     1     -10.685   6.163  10.383  1.00  0.00     0.029 A 
ATOM     60  C   UNL     1      -9.533   5.833  11.078  1.00  0.00     0.049 A 
ATOM     61  H   UNL     1      -8.300   4.134  10.874  1.00  0.00     0.167 HD
ATOM     62  C   UNL     1      -7.729   6.186  12.738  1.00  0.00     0.074 A 
ATOM     63  C   UNL     1      -7.045   6.963  13.752  1.00  0.00     0.031 C 
ATOM     64  C   UNL     1      -8.869   6.577  12.118  1.00  0.00     0.034 A 
BRANCH  51  65
ATOM     65  C   UNL     1     -10.759   2.714   7.681  1.00  0.00     0.023 A 
ATOM     66  C   UNL     1     -11.705   1.674   7.789  1.00  0.00     0.012 A 
ATOM     67  C   UNL     1     -10.756   3.526   6.530  1.00  0.00     0.148 A 
ATOM     68  C   UNL     1     -12.603   1.418   6.753  1.00  0.00     0.002 A 
ATOM     69  C   UNL     1     -11.688   3.298   5.524  1.00  0.00     0.091 A 
ATOM     70  F   UNL     1      -9.836   4.496   6.433  1.00  0.00    -0.205 F 
ATOM     71  C   UNL     1     -12.601   2.236   5.627  1.00  0.00     0.022 A 
BRANCH  69  72
ATOM     72  S   UNL     1     -11.819   4.347   4.072  1.00  0.00     0.127 S 
ATOM     73  O   UNL     1     -11.314   3.462   3.023  1.00  0.00    -0.237 OA
ATOM     74  O   UNL     1     -13.257   4.607   4.011  1.00  0.00    -0.237 OA
ATOM     75  O   UNL     1     -11.000   5.519   4.348  1.00  0.00    -0.744 OA
ENDBRANCH  69  72
ENDBRANCH  51  65
BRANCH  52  76
ATOM     76  C   UNL     1      -3.828   4.396  14.670  1.00  0.00     0.023 A 
ATOM     77  C   UNL     1      -4.198   4.461  16.028  1.00  0.00     0.012 A 
ATOM     78  C   UNL     1      -2.476   4.570  14.318  1.00  0.00     0.148 A 
ATOM     79  C   UNL     1      -3.248   4.732  17.013  1.00  0.00     0.002 A 
ATOM     80  C   UNL     1      -1.525   4.781  15.309  1.00  0.00     0.091 A 
ATOM     81  F   UNL     1      -2.146   4.509  13.020  1.00  0.00    -0.205 F 
ATOM     82  C   UNL     1      -1.911   4.883  16.655  1.00  0.00     0.022 A 
BRANCH  80  83
ATOM     83  S   UNL     1       0.235   4.854  14.956  1.00  0.00     0.127 S 
ATOM     84  O   UNL     1       0.545   6.247  15.267  1.00  0.00    -0.237 OA
ATOM     85  O   UNL     1       0.770   3.876  15.903  1.00  0.00    -0.237 OA
ATOM     86  O   UNL     1       0.374   4.473  13.557  1.00  0.00    -0.744 OA
ENDBRANCH  80  83
ENDBRANCH  52  76
BRANCH  64  87
ATOM     87  C   UNL     1      -9.487   7.884  12.546  1.00  0.00     0.023 A 
ATOM     88  C   UNL     1      -8.866   9.104  12.216  1.00  0.00     0.012 A 
ATOM     89  C   UNL     1     -10.726   7.899  13.218  1.00  0.00     0.148 A 
ATOM     90  C   UNL     1      -9.448  10.318  12.580  1.00  0.00     0.002 A 
ATOM     91  C   UNL     1     -11.328   9.112  13.528  1.00  0.00     0.091 A 
ATOM     92  F   UNL     1     -11.293   6.727  13.539  1.00  0.00    -0.205 F 
ATOM     93  C   UNL     1     -10.684  10.322  13.224  1.00  0.00     0.022 A 
BRANCH  91  94
ATOM     94  S   UNL     1     -12.963   9.216  14.264  1.00  0.00     0.127 S 
ATOM     95  O   UNL     1     -12.654   9.697  15.610  1.00  0.00    -0.237 OA
ATOM     96  O   UNL     1     -13.627  10.195  13.403  1.00  0.00    -0.237 OA
ATOM     97  O   UNL     1     -13.522   7.873  14.197  1.00  0.00    -0.744 OA
ENDBRANCH  91  94
ENDBRANCH  64  87
ENDBRANCH  38  39
ENDBRANCH  30  33
ENDBRANCH  28  29
ENDBRANCH  27  28
ENDBRANCH  26  27
ENDBRANCH   1  26
TORSDOF 19
