REMARK SMILES O=C(NCCCCCCNC(=O)[C@@H]1CSc2ccccc21)c1ccc(-c2c3nc(c(-c4cccc(S(=O)(=O)[O-])c4F)c4ccc([nH]4)c(-c4cccc(S(=O)(=O)[O-])c4F)c4nc(c(-c5cccc(S(=O)(=O)[O-])c5F)c5ccc2[nH]5)C=C4)C=C3)cc1
REMARK SMILES IDX 5 1 4 2 3 3 1 4 2 5 22 7 23 8 84 9 24 10 83 11 25 12 26 13
REMARK SMILES IDX 27 14 77 15 28 16 82 17 76 18 78 19 29 20 81 21 75 22 74 23
REMARK SMILES IDX 30 25 62 26 42 27 61 28 43 29 46 30 60 31 79 32 44 33 45 34
REMARK SMILES IDX 59 36 80 37 47 38 31 39 32 40 40 41 33 42 35 43 41 44 34 45
REMARK SMILES IDX 36 46 37 47 38 48 39 49 63 50 64 51 72 52 65 53 67 54 73 55
REMARK SMILES IDX 66 56 68 57 69 58 70 59 71 60 48 61 49 62 57 63 50 64 52 65
REMARK SMILES IDX 58 66 51 67 53 68 54 69 55 70 56 71 6 72 7 73 8 74 9 75
REMARK SMILES IDX 10 76 11 77 12 79 13 80 14 81 21 82 15 83 16 84 20 85 17 86
REMARK SMILES IDX 19 87 18 88
REMARK H PARENT 3 6 78 24 46 35 10 78
REMARK Flexibility Score: inf
ROOT
ATOM      1  C   UNL     1       9.859  12.597  -4.213  1.00  0.00     0.021 C 
ENDROOT
BRANCH   1   2
ATOM      2  C   UNL     1      10.923  13.603  -3.788  1.00  0.00     0.116 C 
BRANCH   2   3
ATOM      3  N   UNL     1      11.810  13.943  -4.886  1.00  0.00    -0.352 N 
ATOM      4  O   UNL     1      12.716  15.262  -6.468  1.00  0.00    -0.269 OA
ATOM      5  C   UNL     1      12.124  15.177  -5.391  1.00  0.00     0.251 C 
ATOM      6  H   UNL     1      12.247  13.180  -5.330  1.00  0.00     0.163 HD
BRANCH   5   7
ATOM      7  C   UNL     1      11.757  16.404  -4.651  1.00  0.00     0.039 A 
ATOM      8  C   UNL     1      11.276  17.504  -5.365  1.00  0.00     0.014 A 
ATOM      9  C   UNL     1      11.944  16.494  -3.267  1.00  0.00     0.014 A 
ATOM     10  C   UNL     1      10.975  18.690  -4.693  1.00  0.00     0.010 A 
ATOM     11  C   UNL     1      11.580  17.654  -2.589  1.00  0.00     0.010 A 
ATOM     12  C   UNL     1      11.125  18.775  -3.300  1.00  0.00    -0.014 A 
BRANCH  12  13
ATOM     13  C   UNL     1      10.889  20.051  -2.581  1.00  0.00     0.031 A 
ATOM     14  C   UNL     1      12.044  20.759  -1.923  1.00  0.00     0.074 A 
ATOM     15  C   UNL     1       9.645  20.556  -2.486  1.00  0.00     0.049 A 
ATOM     16  N   UNL     1      12.038  21.855  -1.210  1.00  0.00    -0.248 NA
ATOM     17  C   UNL     1      13.377  20.147  -2.067  1.00  0.00     0.031 C 
ATOM     18  C   UNL     1       8.437  19.940  -3.038  1.00  0.00     0.029 A 
ATOM     19  N   UNL     1       9.189  21.700  -1.881  1.00  0.00    -0.354 N 
ATOM     20  C   UNL     1      13.349  22.039  -0.788  1.00  0.00     0.074 A 
ATOM     21  C   UNL     1      14.123  20.931  -1.302  1.00  0.00     0.031 C 
ATOM     22  C   UNL     1       7.380  20.722  -2.760  1.00  0.00     0.029 A 
ATOM     23  C   UNL     1       7.831  21.881  -1.994  1.00  0.00     0.049 A 
ATOM     24  H   UNL     1       9.779  22.332  -1.410  1.00  0.00     0.167 HD
ATOM     25  C   UNL     1      13.872  23.058  -0.069  1.00  0.00     0.034 A 
ATOM     26  C   UNL     1       7.039  22.871  -1.537  1.00  0.00     0.034 A 
ATOM     27  C   UNL     1      13.124  24.200   0.372  1.00  0.00     0.049 A 
ATOM     28  C   UNL     1       7.652  24.018  -0.784  1.00  0.00     0.074 A 
ATOM     29  C   UNL     1      13.586  25.323   1.034  1.00  0.00     0.029 A 
ATOM     30  N   UNL     1      11.763  24.373   0.184  1.00  0.00    -0.354 N 
ATOM     31  N   UNL     1       8.912  24.226  -0.487  1.00  0.00    -0.248 NA
ATOM     32  C   UNL     1       6.743  25.079  -0.324  1.00  0.00     0.031 C 
ATOM     33  C   UNL     1      12.501  26.179   1.246  1.00  0.00     0.029 A 
ATOM     34  C   UNL     1      11.367  25.587   0.715  1.00  0.00     0.049 A 
ATOM     35  H   UNL     1      11.166  23.728  -0.260  1.00  0.00     0.167 HD
ATOM     36  C   UNL     1       8.951  25.446   0.176  1.00  0.00     0.074 A 
ATOM     37  C   UNL     1       7.591  25.942   0.225  1.00  0.00     0.031 C 
ATOM     38  C   UNL     1      10.018  26.088   0.710  1.00  0.00     0.034 A 
BRANCH  25  39
ATOM     39  C   UNL     1      15.346  23.030   0.220  1.00  0.00     0.023 A 
ATOM     40  C   UNL     1      16.250  23.395  -0.797  1.00  0.00     0.012 A 
ATOM     41  C   UNL     1      15.830  22.732   1.508  1.00  0.00     0.148 A 
ATOM     42  C   UNL     1      17.619  23.450  -0.541  1.00  0.00     0.002 A 
ATOM     43  C   UNL     1      17.193  22.819   1.764  1.00  0.00     0.091 A 
ATOM     44  F   UNL     1      14.949  22.373   2.453  1.00  0.00    -0.205 F 
ATOM     45  C   UNL     1      18.088  23.173   0.740  1.00  0.00     0.022 A 
BRANCH  43  46
ATOM     46  S   UNL     1      17.900  22.534   3.391  1.00  0.00     0.127 S 
ATOM     47  O   UNL     1      18.712  21.341   3.154  1.00  0.00    -0.237 OA
ATOM     48  O   UNL     1      18.666  23.761   3.610  1.00  0.00    -0.237 OA
ATOM     49  O   UNL     1      16.774  22.345   4.294  1.00  0.00    -0.744 OA
ENDBRANCH  43  46
ENDBRANCH  25  39
BRANCH  26  50
ATOM     50  C   UNL     1       5.587  22.851  -1.862  1.00  0.00     0.023 A 
ATOM     51  C   UNL     1       5.101  23.706  -2.869  1.00  0.00     0.012 A 
ATOM     52  C   UNL     1       4.707  21.947  -1.237  1.00  0.00     0.148 A 
ATOM     53  C   UNL     1       3.758  23.667  -3.245  1.00  0.00     0.002 A 
ATOM     54  C   UNL     1       3.379  21.887  -1.643  1.00  0.00     0.091 A 
ATOM     55  F   UNL     1       5.196  21.147  -0.279  1.00  0.00    -0.205 F 
ATOM     56  C   UNL     1       2.900  22.752  -2.639  1.00  0.00     0.022 A 
BRANCH  54  57
ATOM     57  S   UNL     1       2.222  20.672  -1.000  1.00  0.00     0.127 S 
ATOM     58  O   UNL     1       1.242  21.521  -0.325  1.00  0.00    -0.237 OA
ATOM     59  O   UNL     1       1.744  20.036  -2.228  1.00  0.00    -0.237 OA
ATOM     60  O   UNL     1       3.000  19.802  -0.131  1.00  0.00    -0.744 OA
ENDBRANCH  54  57
ENDBRANCH  26  50
BRANCH  38  61
ATOM     61  C   UNL     1       9.783  27.404   1.397  1.00  0.00     0.023 A 
ATOM     62  C   UNL     1       9.296  27.410   2.718  1.00  0.00     0.012 A 
ATOM     63  C   UNL     1      10.179  28.613   0.793  1.00  0.00     0.148 A 
ATOM     64  C   UNL     1       9.202  28.604   3.430  1.00  0.00     0.002 A 
ATOM     65  C   UNL     1      10.113  29.796   1.520  1.00  0.00     0.091 A 
ATOM     66  F   UNL     1      10.633  28.578  -0.468  1.00  0.00    -0.205 F 
ATOM     67  C   UNL     1       9.621  29.793   2.836  1.00  0.00     0.022 A 
BRANCH  65  68
ATOM     68  S   UNL     1      10.701  31.365   0.873  1.00  0.00     0.127 S 
ATOM     69  O   UNL     1       9.456  32.120   0.747  1.00  0.00    -0.237 OA
ATOM     70  O   UNL     1      11.589  31.825   1.941  1.00  0.00    -0.237 OA
ATOM     71  O   UNL     1      11.370  31.059  -0.384  1.00  0.00    -0.744 OA
ENDBRANCH  65  68
ENDBRANCH  38  61
ENDBRANCH  12  13
ENDBRANCH   5   7
ENDBRANCH   2   3
ENDBRANCH   1   2
BRANCH   1  72
ATOM     72  C   UNL     1      10.405  11.231  -4.636  1.00  0.00     0.002 C 
BRANCH  72  73
ATOM     73  C   UNL     1      11.257  10.523  -3.580  1.00  0.00     0.002 C 
BRANCH  73  74
ATOM     74  C   UNL     1      10.588  10.358  -2.208  1.00  0.00     0.021 C 
BRANCH  74  75
ATOM     75  C   UNL     1       9.273   9.572  -2.238  1.00  0.00     0.116 C 
BRANCH  75  76
ATOM     76  N   UNL     1       9.510   8.215  -2.688  1.00  0.00    -0.356 N 
ATOM     77  C   UNL     1       9.596   7.041  -2.003  1.00  0.00     0.228 C 
ATOM     78  H   UNL     1       9.629   8.126  -3.661  1.00  0.00     0.163 HD
ATOM     79  O   UNL     1      10.001   6.073  -2.652  1.00  0.00    -0.274 OA
BRANCH  77  80
ATOM     80  C   UNL     1       9.095   6.931  -0.555  1.00  0.00     0.120 C 
ATOM     81  C   UNL     1       9.826   7.868   0.423  1.00  0.00     0.093 C 
ATOM     82  C   UNL     1       9.215   5.523  -0.002  1.00  0.00    -0.021 A 
ATOM     83  S   UNL     1      10.643   6.917   1.733  1.00  0.00    -0.125 SA
ATOM     84  C   UNL     1      10.007   5.390   1.137  1.00  0.00     0.011 A 
ATOM     85  C   UNL     1       8.635   4.389  -0.572  1.00  0.00     0.006 A 
ATOM     86  C   UNL     1      10.255   4.148   1.705  1.00  0.00     0.015 A 
ATOM     87  C   UNL     1       8.888   3.133  -0.015  1.00  0.00     0.000 A 
ATOM     88  C   UNL     1       9.698   3.013   1.118  1.00  0.00     0.001 A 
ENDBRANCH  77  80
ENDBRANCH  75  76
ENDBRANCH  74  75
ENDBRANCH  73  74
ENDBRANCH  72  73
ENDBRANCH   1  72
TORSDOF 16
