REMARK SMILES O=C(C[C@@H](C[NH+]1CCCCC1)C(=O)NCCCCCCNC(=O)c1ccc(-c2c3nc(c(-c4cccc(S(=O)(=O)[O-])c4F)c4ccc([nH]4)c(-c4cccc(S(=O)(=O)[O-])c4F)c4nc(c(-c5cccc(S(=O)(=O)[O-])c5F)c5ccc2[nH]5)C=C4)C=C3)cc1)Nc1ccccc1O
REMARK SMILES IDX 17 1 16 2 15 3 14 4 12 5 13 6 4 8 3 9 2 10 1 11 87 12 88 14
REMARK SMILES IDX 89 15 93 16 90 17 92 18 91 19 94 20 5 22 6 23 7 24 11 25
REMARK SMILES IDX 8 27 10 28 9 29 18 30 19 31 20 32 21 33 22 34 23 36 24 37
REMARK SMILES IDX 25 38 86 39 26 40 85 41 27 42 28 43 29 44 79 45 30 46 84 47
REMARK SMILES IDX 78 48 80 49 31 50 83 51 77 52 76 53 32 55 64 56 44 57 63 58
REMARK SMILES IDX 45 59 48 60 62 61 81 62 46 63 47 64 61 66 82 67 49 68 33 69
REMARK SMILES IDX 34 70 42 71 35 72 37 73 43 74 36 75 38 76 39 77 40 78 41 79
REMARK SMILES IDX 65 80 66 81 74 82 67 83 69 84 75 85 68 86 70 87 71 88 72 89
REMARK SMILES IDX 73 90 50 91 51 92 59 93 52 94 54 95 60 96 53 97 55 98 56 99
REMARK SMILES IDX 57 100 58 101
REMARK H PARENT 14 7 87 13 94 21 6 26 21 35 80 54 48 65
REMARK Flexibility Score: inf
ROOT
ATOM      1  C   UNL     1       6.328   0.244  -5.585  1.00  0.00     0.002 C 
ENDROOT
BRANCH   1   2
ATOM      2  C   UNL     1       5.214  -0.080  -4.583  1.00  0.00     0.021 C 
BRANCH   2   3
ATOM      3  C   UNL     1       5.385   0.510  -3.185  1.00  0.00     0.116 C 
BRANCH   3   4
ATOM      4  N   UNL     1       4.848   1.849  -3.018  1.00  0.00    -0.356 N 
ATOM      5  C   UNL     1       4.313   2.439  -1.907  1.00  0.00     0.229 C 
ATOM      6  O   UNL     1       4.185   3.669  -1.928  1.00  0.00    -0.275 OA
ATOM      7  H   UNL     1       4.872   2.414  -3.823  1.00  0.00     0.163 HD
BRANCH   5   8
ATOM      8  C   UNL     1       3.876   1.655  -0.657  1.00  0.00     0.142 C 
BRANCH   8   9
ATOM      9  C   UNL     1       2.828   0.594  -1.010  1.00  0.00     0.119 C 
BRANCH   9  10
ATOM     10  C   UNL     1       1.811   0.161   0.038  1.00  0.00     0.225 C 
ATOM     11  O   UNL     1       0.634  -0.009  -0.281  1.00  0.00    -0.275 OA
ATOM     12  N   UNL     1       2.315  -0.170   1.269  1.00  0.00    -0.323 N 
ATOM     13  H   UNL     1       3.148   0.288   1.523  1.00  0.00     0.170 HD
BRANCH  12  14
ATOM     14  C   UNL     1       1.803  -1.083   2.228  1.00  0.00     0.083 A 
ATOM     15  C   UNL     1       2.485  -1.105   3.459  1.00  0.00     0.030 A 
ATOM     16  C   UNL     1       0.775  -2.017   2.032  1.00  0.00     0.139 A 
ATOM     17  C   UNL     1       2.150  -2.021   4.461  1.00  0.00     0.002 A 
ATOM     18  C   UNL     1       0.455  -2.945   3.029  1.00  0.00     0.048 A 
ATOM     19  C   UNL     1       1.136  -2.946   4.243  1.00  0.00     0.004 A 
BRANCH  16  20
ATOM     20  O   UNL     1       0.047  -2.156   0.886  1.00  0.00    -0.506 OA
ATOM     21  H   UNL     1       0.194  -1.578   0.164  1.00  0.00     0.293 HD
ENDBRANCH  16  20
ENDBRANCH  12  14
ENDBRANCH   9  10
ENDBRANCH   8   9
BRANCH   8  22
ATOM     22  C   UNL     1       5.103   1.270   0.202  1.00  0.00     0.276 C 
BRANCH  22  23
ATOM     23  N   UNL     1       5.774   0.031  -0.189  1.00  0.00    -0.334 N 
ATOM     24  C   UNL     1       5.343  -1.170   0.543  1.00  0.00     0.262 C 
ATOM     25  C   UNL     1       7.232   0.161  -0.235  1.00  0.00     0.262 C 
ATOM     26  H   UNL     1       5.456  -0.124  -1.145  1.00  0.00     0.348 HD
ATOM     27  C   UNL     1       6.197  -2.411   0.261  1.00  0.00     0.062 C 
ATOM     28  C   UNL     1       7.892  -1.047  -0.917  1.00  0.00     0.062 C 
ATOM     29  C   UNL     1       6.960  -2.252  -1.041  1.00  0.00     0.012 C 
ENDBRANCH  22  23
ENDBRANCH   8  22
ENDBRANCH   5   8
ENDBRANCH   3   4
ENDBRANCH   2   3
ENDBRANCH   1   2
BRANCH   1  30
ATOM     30  C   UNL     1       7.761  -0.123  -5.174  1.00  0.00     0.002 C 
BRANCH  30  31
ATOM     31  C   UNL     1       7.989  -1.550  -4.673  1.00  0.00     0.021 C 
BRANCH  31  32
ATOM     32  C   UNL     1       7.643  -2.680  -5.635  1.00  0.00     0.116 C 
BRANCH  32  33
ATOM     33  N   UNL     1       8.449  -2.657  -6.841  1.00  0.00    -0.352 N 
ATOM     34  C   UNL     1       9.225  -3.638  -7.409  1.00  0.00     0.251 C 
ATOM     35  H   UNL     1       8.438  -1.803  -7.330  1.00  0.00     0.163 HD
ATOM     36  O   UNL     1       9.947  -3.349  -8.362  1.00  0.00    -0.269 OA
BRANCH  34  37
ATOM     37  C   UNL     1       9.223  -5.027  -6.885  1.00  0.00     0.039 A 
ATOM     38  C   UNL     1      10.433  -5.728  -6.850  1.00  0.00     0.014 A 
ATOM     39  C   UNL     1       8.047  -5.663  -6.477  1.00  0.00     0.014 A 
ATOM     40  C   UNL     1      10.471  -7.041  -6.370  1.00  0.00     0.010 A 
ATOM     41  C   UNL     1       8.099  -6.946  -5.928  1.00  0.00     0.010 A 
ATOM     42  C   UNL     1       9.307  -7.656  -5.882  1.00  0.00    -0.014 A 
BRANCH  42  43
ATOM     43  C   UNL     1       9.339  -9.039  -5.333  1.00  0.00     0.031 A 
ATOM     44  C   UNL     1       8.556 -10.142  -5.999  1.00  0.00     0.074 A 
ATOM     45  C   UNL     1      10.014  -9.293  -4.194  1.00  0.00     0.049 A 
ATOM     46  N   UNL     1       8.429 -11.395  -5.643  1.00  0.00    -0.248 NA
ATOM     47  C   UNL     1       7.796  -9.787  -7.210  1.00  0.00     0.031 C 
ATOM     48  C   UNL     1      10.749  -8.299  -3.408  1.00  0.00     0.029 A 
ATOM     49  N   UNL     1      10.170 -10.457  -3.482  1.00  0.00    -0.354 N 
ATOM     50  C   UNL     1       7.550 -11.965  -6.557  1.00  0.00     0.074 A 
ATOM     51  C   UNL     1       7.151 -10.916  -7.468  1.00  0.00     0.031 C 
ATOM     52  C   UNL     1      11.275  -8.895  -2.326  1.00  0.00     0.029 A 
ATOM     53  C   UNL     1      10.896 -10.304  -2.323  1.00  0.00     0.049 A 
ATOM     54  H   UNL     1       9.798 -11.321  -3.774  1.00  0.00     0.167 HD
ATOM     55  C   UNL     1       7.134 -13.251  -6.648  1.00  0.00     0.034 A 
ATOM     56  C   UNL     1      11.213 -11.194  -1.361  1.00  0.00     0.034 A 
ATOM     57  C   UNL     1       7.572 -14.306  -5.774  1.00  0.00     0.049 A 
ATOM     58  C   UNL     1      10.779 -12.628  -1.517  1.00  0.00     0.074 A 
ATOM     59  C   UNL     1       7.283 -15.657  -5.846  1.00  0.00     0.029 A 
ATOM     60  N   UNL     1       8.385 -14.129  -4.666  1.00  0.00    -0.354 N 
ATOM     61  N   UNL     1      10.086 -13.180  -2.483  1.00  0.00    -0.248 NA
ATOM     62  C   UNL     1      11.205 -13.570  -0.471  1.00  0.00     0.031 C 
ATOM     63  C   UNL     1       7.903 -16.295  -4.766  1.00  0.00     0.029 A 
ATOM     64  C   UNL     1       8.601 -15.344  -4.039  1.00  0.00     0.049 A 
ATOM     65  H   UNL     1       8.755 -13.267  -4.368  1.00  0.00     0.167 HD
ATOM     66  C   UNL     1      10.024 -14.536  -2.182  1.00  0.00     0.074 A 
ATOM     67  C   UNL     1      10.770 -14.726  -0.955  1.00  0.00     0.031 C 
ATOM     68  C   UNL     1       9.394 -15.531  -2.852  1.00  0.00     0.034 A 
BRANCH  55  69
ATOM     69  C   UNL     1       6.194 -13.611  -7.770  1.00  0.00     0.023 A 
ATOM     70  C   UNL     1       6.676 -13.659  -9.094  1.00  0.00     0.012 A 
ATOM     71  C   UNL     1       4.859 -13.981  -7.508  1.00  0.00     0.148 A 
ATOM     72  C   UNL     1       5.839 -14.038 -10.142  1.00  0.00     0.002 A 
ATOM     73  C   UNL     1       4.044 -14.401  -8.552  1.00  0.00     0.091 A 
ATOM     74  F   UNL     1       4.413 -13.913  -6.245  1.00  0.00    -0.205 F 
ATOM     75  C   UNL     1       4.529 -14.420  -9.870  1.00  0.00     0.022 A 
BRANCH  73  76
ATOM     76  S   UNL     1       2.366 -14.991  -8.298  1.00  0.00     0.127 S 
ATOM     77  O   UNL     1       1.581 -13.922  -8.914  1.00  0.00    -0.237 OA
ATOM     78  O   UNL     1       2.368 -16.251  -9.041  1.00  0.00    -0.237 OA
ATOM     79  O   UNL     1       2.203 -15.134  -6.858  1.00  0.00    -0.744 OA
ENDBRANCH  73  76
ENDBRANCH  55  69
BRANCH  56  80
ATOM     80  C   UNL     1      12.036 -10.770  -0.193  1.00  0.00     0.023 A 
ATOM     81  C   UNL     1      13.358 -11.241  -0.068  1.00  0.00     0.012 A 
ATOM     82  C   UNL     1      11.526  -9.891   0.782  1.00  0.00     0.148 A 
ATOM     83  C   UNL     1      14.143 -10.876   1.026  1.00  0.00     0.002 A 
ATOM     84  C   UNL     1      12.334  -9.485   1.839  1.00  0.00     0.091 A 
ATOM     85  F   UNL     1      10.262  -9.463   0.655  1.00  0.00    -0.205 F 
ATOM     86  C   UNL     1      13.636  -9.990   1.974  1.00  0.00     0.022 A 
BRANCH  84  87
ATOM     87  S   UNL     1      11.807  -8.244   3.027  1.00  0.00     0.127 S 
ATOM     88  O   UNL     1      11.557  -9.052   4.216  1.00  0.00    -0.237 OA
ATOM     89  O   UNL     1      12.983  -7.377   3.105  1.00  0.00    -0.237 OA
ATOM     90  O   UNL     1      10.637  -7.607   2.433  1.00  0.00    -0.744 OA
ENDBRANCH  84  87
ENDBRANCH  56  80
BRANCH  68  91
ATOM     91  C   UNL     1       9.511 -16.930  -2.305  1.00  0.00     0.023 A 
ATOM     92  C   UNL     1       8.815 -17.286  -1.133  1.00  0.00     0.012 A 
ATOM     93  C   UNL     1      10.248 -17.911  -2.998  1.00  0.00     0.148 A 
ATOM     94  C   UNL     1       8.877 -18.590  -0.641  1.00  0.00     0.002 A 
ATOM     95  C   UNL     1      10.264 -19.219  -2.529  1.00  0.00     0.091 A 
ATOM     96  F   UNL     1      10.918 -17.548  -4.101  1.00  0.00    -0.205 F 
ATOM     97  C   UNL     1       9.590 -19.558  -1.345  1.00  0.00     0.022 A 
BRANCH  95  98
ATOM     98  S   UNL     1      11.075 -20.551  -3.421  1.00  0.00     0.127 S 
ATOM     99  O   UNL     1      12.246 -20.802  -2.583  1.00  0.00    -0.237 OA
ATOM    100  O   UNL     1      10.064 -21.608  -3.389  1.00  0.00    -0.237 OA
ATOM    101  O   UNL     1      11.359 -20.029  -4.751  1.00  0.00    -0.744 OA
ENDBRANCH  95  98
ENDBRANCH  68  91
ENDBRANCH  42  43
ENDBRANCH  34  37
ENDBRANCH  32  33
ENDBRANCH  31  32
ENDBRANCH  30  31
ENDBRANCH   1  30
TORSDOF 22
