REMARK SMILES CCOc1cc(C[NH+]2CCC3(CC2)[C@H](C(=O)NCCCCCCNC(=O)c2ccc(-c4c5nc(c(-c6cccc(S(=O)(=O)[O-])c6F)c6ccc([nH]6)c(-c6cccc(S(=O)(=O)[O-])c6F)c6nc(c(-c7cccc(S(=O)(=O)[O-])c7F)c7ccc4[nH]7)C=C6)C=C5)cc2)CC(=O)N3C)ccc1OC
REMARK SMILES IDX 20 1 19 2 18 3 17 4 15 5 16 6 14 8 8 9 9 10 13 11 10 13
REMARK SMILES IDX 12 14 11 15 93 16 90 17 91 18 94 19 92 20 7 21 6 22 4 23
REMARK SMILES IDX 5 24 97 25 96 26 95 27 3 28 2 29 1 30 98 31 99 32 21 33
REMARK SMILES IDX 22 34 23 35 24 36 25 37 26 39 27 40 28 41 89 42 29 43 88 44
REMARK SMILES IDX 30 45 31 46 32 47 82 48 33 49 87 50 81 51 83 52 34 53 86 54
REMARK SMILES IDX 80 55 79 56 35 58 67 59 47 60 66 61 48 62 51 63 65 64 84 65
REMARK SMILES IDX 49 66 50 67 64 69 85 70 52 71 36 72 37 73 45 74 38 75 40 76
REMARK SMILES IDX 46 77 39 78 41 79 42 80 43 81 44 82 68 83 69 84 77 85 70 86
REMARK SMILES IDX 72 87 78 88 71 89 73 90 74 91 75 92 76 93 53 94 54 95 62 96
REMARK SMILES IDX 55 97 57 98 63 99 56 100 58 101 59 102 60 103 61 104
REMARK H PARENT 17 7 8 12 24 38 83 57 51 68
REMARK Flexibility Score: inf
ROOT
ATOM      1  C   UNL     1       5.123   1.521  -6.458  1.00  0.00     0.002 C 
ENDROOT
BRANCH   1   2
ATOM      2  C   UNL     1       4.172   2.652  -6.061  1.00  0.00     0.021 C 
BRANCH   2   3
ATOM      3  C   UNL     1       2.748   2.220  -5.707  1.00  0.00     0.116 C 
BRANCH   3   4
ATOM      4  N   UNL     1       2.742   1.349  -4.559  1.00  0.00    -0.356 N 
ATOM      5  C   UNL     1       2.160   1.406  -3.348  1.00  0.00     0.226 C 
ATOM      6  O   UNL     1       2.295   0.373  -2.682  1.00  0.00    -0.275 OA
ATOM      7  H   UNL     1       3.280   0.536  -4.690  1.00  0.00     0.163 HD
BRANCH   5   8
ATOM      8  C   UNL     1       1.290   2.541  -2.801  1.00  0.00     0.114 C 
ATOM      9  N   UNL     1       3.468   5.890  -1.240  1.00  0.00    -0.331 N 
ATOM     10  C   UNL     1       3.899   5.467  -2.555  1.00  0.00     0.265 C 
ATOM     11  C   UNL     1       2.023   6.011  -1.152  1.00  0.00     0.265 C 
ATOM     12  H   UNL     1       3.787   6.853  -1.131  1.00  0.00     0.348 HD
ATOM     13  C   UNL     1       3.223   4.199  -3.055  1.00  0.00     0.091 C 
ATOM     14  C   UNL     1       1.201   4.791  -1.590  1.00  0.00     0.091 C 
ATOM     15  C   UNL     1       1.704   4.048  -2.861  1.00  0.00     0.065 C 
ATOM     16  N   UNL     1       0.891   4.504  -4.002  1.00  0.00    -0.339 N 
ATOM     17  C   UNL     1      -0.101   2.454  -3.415  1.00  0.00     0.116 C 
ATOM     18  C   UNL     1      -0.164   3.652  -4.308  1.00  0.00     0.223 C 
ATOM     19  C   UNL     1       0.981   5.799  -4.638  1.00  0.00     0.147 C 
ATOM     20  O   UNL     1      -1.039   3.853  -5.136  1.00  0.00    -0.275 OA
BRANCH   9  21
ATOM     21  C   UNL     1       4.217   5.376  -0.089  1.00  0.00     0.299 C 
BRANCH  21  22
ATOM     22  C   UNL     1       4.168   3.883   0.156  1.00  0.00     0.010 A 
ATOM     23  C   UNL     1       2.847   1.885   0.586  1.00  0.00     0.161 A 
ATOM     24  C   UNL     1       3.014   3.273   0.671  1.00  0.00     0.060 A 
ATOM     25  C   UNL     1       3.908   1.075   0.163  1.00  0.00     0.160 A 
ATOM     26  C   UNL     1       5.120   1.679  -0.185  1.00  0.00     0.051 A 
ATOM     27  C   UNL     1       5.242   3.068  -0.225  1.00  0.00     0.013 A 
BRANCH  23  28
ATOM     28  O   UNL     1       1.599   1.341   0.614  1.00  0.00    -0.490 OA
BRANCH  28  29
ATOM     29  C   UNL     1       0.738   1.589   1.709  1.00  0.00     0.226 C 
ATOM     30  C   UNL     1      -0.279   0.457   1.649  1.00  0.00     0.049 C 
ENDBRANCH  28  29
ENDBRANCH  23  28
BRANCH  25  31
ATOM     31  O   UNL     1       3.926  -0.286   0.008  1.00  0.00    -0.493 OA
ATOM     32  C   UNL     1       2.699  -1.004   0.039  1.00  0.00     0.278 C 
ENDBRANCH  25  31
ENDBRANCH  21  22
ENDBRANCH   9  21
ENDBRANCH   5   8
ENDBRANCH   3   4
ENDBRANCH   2   3
ENDBRANCH   1   2
BRANCH   1  33
ATOM     33  C   UNL     1       4.630   0.619  -7.585  1.00  0.00     0.002 C 
BRANCH  33  34
ATOM     34  C   UNL     1       4.104   1.355  -8.816  1.00  0.00     0.021 C 
BRANCH  34  35
ATOM     35  C   UNL     1       5.023   2.442  -9.355  1.00  0.00     0.116 C 
BRANCH  35  36
ATOM     36  N   UNL     1       6.305   1.917  -9.790  1.00  0.00    -0.352 N 
ATOM     37  C   UNL     1       6.902   2.074 -11.016  1.00  0.00     0.251 C 
ATOM     38  H   UNL     1       6.805   1.386  -9.129  1.00  0.00     0.163 HD
ATOM     39  O   UNL     1       7.916   1.454 -11.311  1.00  0.00    -0.269 OA
BRANCH  37  40
ATOM     40  C   UNL     1       6.265   2.987 -11.984  1.00  0.00     0.039 A 
ATOM     41  C   UNL     1       5.859   2.483 -13.218  1.00  0.00     0.014 A 
ATOM     42  C   UNL     1       5.978   4.306 -11.614  1.00  0.00     0.014 A 
ATOM     43  C   UNL     1       5.105   3.291 -14.069  1.00  0.00     0.010 A 
ATOM     44  C   UNL     1       5.167   5.083 -12.434  1.00  0.00     0.010 A 
ATOM     45  C   UNL     1       4.722   4.583 -13.667  1.00  0.00    -0.014 A 
BRANCH  45  46
ATOM     46  C   UNL     1       3.827   5.411 -14.512  1.00  0.00     0.031 A 
ATOM     47  C   UNL     1       4.319   6.710 -15.086  1.00  0.00     0.074 A 
ATOM     48  C   UNL     1       2.545   5.033 -14.689  1.00  0.00     0.049 A 
ATOM     49  N   UNL     1       3.672   7.587 -15.807  1.00  0.00    -0.248 NA
ATOM     50  C   UNL     1       5.713   7.083 -14.794  1.00  0.00     0.031 C 
ATOM     51  C   UNL     1       1.931   3.834 -14.114  1.00  0.00     0.029 A 
ATOM     52  N   UNL     1       1.521   5.633 -15.378  1.00  0.00    -0.354 N 
ATOM     53  C   UNL     1       4.564   8.628 -16.029  1.00  0.00     0.074 A 
ATOM     54  C   UNL     1       5.790   8.289 -15.340  1.00  0.00     0.031 C 
ATOM     55  C   UNL     1       0.638   3.785 -14.475  1.00  0.00     0.029 A 
ATOM     56  C   UNL     1       0.323   4.963 -15.277  1.00  0.00     0.049 A 
ATOM     57  H   UNL     1       1.633   6.463 -15.895  1.00  0.00     0.167 HD
ATOM     58  C   UNL     1       4.389   9.752 -16.764  1.00  0.00     0.034 A 
ATOM     59  C   UNL     1      -0.896   5.272 -15.762  1.00  0.00     0.034 A 
ATOM     60  C   UNL     1       3.179  10.067 -17.474  1.00  0.00     0.049 A 
ATOM     61  C   UNL     1      -1.058   6.520 -16.587  1.00  0.00     0.074 A 
ATOM     62  C   UNL     1       2.936  11.130 -18.325  1.00  0.00     0.029 A 
ATOM     63  N   UNL     1       2.005   9.334 -17.403  1.00  0.00    -0.354 N 
ATOM     64  N   UNL     1      -0.154   7.404 -16.933  1.00  0.00    -0.248 NA
ATOM     65  C   UNL     1      -2.403   6.800 -17.111  1.00  0.00     0.031 C 
ATOM     66  C   UNL     1       1.603  11.059 -18.742  1.00  0.00     0.029 A 
ATOM     67  C   UNL     1       1.025   9.934 -18.175  1.00  0.00     0.049 A 
ATOM     68  H   UNL     1       1.886   8.508 -16.881  1.00  0.00     0.167 HD
ATOM     69  C   UNL     1      -0.812   8.329 -17.734  1.00  0.00     0.074 A 
ATOM     70  C   UNL     1      -2.185   7.882 -17.846  1.00  0.00     0.031 C 
ATOM     71  C   UNL     1      -0.328   9.457 -18.310  1.00  0.00     0.034 A 
BRANCH  58  72
ATOM     72  C   UNL     1       5.550  10.705 -16.874  1.00  0.00     0.023 A 
ATOM     73  C   UNL     1       6.676  10.344 -17.642  1.00  0.00     0.012 A 
ATOM     74  C   UNL     1       5.501  11.978 -16.275  1.00  0.00     0.148 A 
ATOM     75  C   UNL     1       7.750  11.222 -17.784  1.00  0.00     0.002 A 
ATOM     76  C   UNL     1       6.555  12.865 -16.458  1.00  0.00     0.091 A 
ATOM     77  F   UNL     1       4.431  12.294 -15.531  1.00  0.00    -0.205 F 
ATOM     78  C   UNL     1       7.684  12.485 -17.203  1.00  0.00     0.022 A 
BRANCH  76  79
ATOM     79  S   UNL     1       6.534  14.543 -15.816  1.00  0.00     0.127 S 
ATOM     80  O   UNL     1       7.550  14.469 -14.767  1.00  0.00    -0.237 OA
ATOM     81  O   UNL     1       6.925  15.325 -16.989  1.00  0.00    -0.237 OA
ATOM     82  O   UNL     1       5.175  14.779 -15.352  1.00  0.00    -0.744 OA
ENDBRANCH  76  79
ENDBRANCH  58  72
BRANCH  59  83
ATOM     83  C   UNL     1      -2.049   4.360 -15.517  1.00  0.00     0.023 A 
ATOM     84  C   UNL     1      -2.596   3.629 -16.589  1.00  0.00     0.012 A 
ATOM     85  C   UNL     1      -2.587   4.194 -14.227  1.00  0.00     0.148 A 
ATOM     86  C   UNL     1      -3.678   2.772 -16.386  1.00  0.00     0.002 A 
ATOM     87  C   UNL     1      -3.628   3.296 -14.021  1.00  0.00     0.091 A 
ATOM     88  F   UNL     1      -2.061   4.910 -13.223  1.00  0.00    -0.205 F 
ATOM     89  C   UNL     1      -4.187   2.598 -15.102  1.00  0.00     0.022 A 
BRANCH  87  90
ATOM     90  S   UNL     1      -4.257   2.909 -12.384  1.00  0.00     0.127 S 
ATOM     91  O   UNL     1      -5.584   3.519 -12.423  1.00  0.00    -0.237 OA
ATOM     92  O   UNL     1      -4.249   1.446 -12.399  1.00  0.00    -0.237 OA
ATOM     93  O   UNL     1      -3.311   3.506 -11.452  1.00  0.00    -0.744 OA
ENDBRANCH  87  90
ENDBRANCH  59  83
BRANCH  71  94
ATOM     94  C   UNL     1      -1.281  10.287 -19.129  1.00  0.00     0.023 A 
ATOM     95  C   UNL     1      -2.280  11.043 -18.483  1.00  0.00     0.012 A 
ATOM     96  C   UNL     1      -1.138  10.381 -20.527  1.00  0.00     0.148 A 
ATOM     97  C   UNL     1      -3.141  11.855 -19.218  1.00  0.00     0.002 A 
ATOM     98  C   UNL     1      -1.967  11.232 -21.248  1.00  0.00     0.091 A 
ATOM     99  F   UNL     1      -0.191   9.643 -21.124  1.00  0.00    -0.205 F 
ATOM    100  C   UNL     1      -2.977  11.960 -20.598  1.00  0.00     0.022 A 
BRANCH  98 101
ATOM    101  S   UNL     1      -1.772  11.506 -23.013  1.00  0.00     0.127 S 
ATOM    102  O   UNL     1      -2.976  10.872 -23.548  1.00  0.00    -0.237 OA
ATOM    103  O   UNL     1      -1.761  12.966 -23.099  1.00  0.00    -0.237 OA
ATOM    104  O   UNL     1      -0.517  10.868 -23.384  1.00  0.00    -0.744 OA
ENDBRANCH  98 101
ENDBRANCH  71  94
ENDBRANCH  45  46
ENDBRANCH  37  40
ENDBRANCH  35  36
ENDBRANCH  34  35
ENDBRANCH  33  34
ENDBRANCH   1  33
TORSDOF 21
