REMARK SMILES Cc1cc(C)cc(S(=O)(=O)N2CSC[C@H]2C(=O)NCCCCCCNC(=O)c2ccc(-c3c4nc(c(-c5cccc(S(=O)(=O)[O-])c5F)c5ccc([nH]5)c(-c5cccc(S(=O)(=O)[O-])c5F)c5nc(c(-c6cccc(S(=O)(=O)[O-])c6F)c6ccc3[nH]6)C=C5)C=C4)cc2)c1
REMARK SMILES IDX 22 1 21 2 20 3 19 4 18 5 16 6 17 7 15 9 11 10 12 11 13 12
REMARK SMILES IDX 14 13 8 14 9 15 10 16 7 17 1 18 2 19 3 20 91 21 4 22 5 23
REMARK SMILES IDX 6 24 23 25 24 26 25 27 26 28 27 30 28 31 29 32 90 33 30 34
REMARK SMILES IDX 89 35 31 36 32 37 33 38 83 39 34 40 88 41 82 42 84 43 35 44
REMARK SMILES IDX 87 45 81 46 80 47 36 49 68 50 48 51 67 52 49 53 52 54 66 55
REMARK SMILES IDX 85 56 50 57 51 58 65 60 86 61 53 62 37 63 38 64 46 65 39 66
REMARK SMILES IDX 41 67 47 68 40 69 42 70 43 71 44 72 45 73 69 74 70 75 78 76
REMARK SMILES IDX 71 77 73 78 79 79 72 80 74 81 75 82 76 83 77 84 54 85 55 86
REMARK SMILES IDX 63 87 56 88 58 89 64 90 57 91 59 92 60 93 61 94 62 95
REMARK H PARENT 18 8 25 29 84 48 52 59
REMARK Flexibility Score: inf
ROOT
ATOM      1  C   UNL     1       6.147  -8.391   0.254  1.00  0.00     0.002 C 
ENDROOT
BRANCH   1   2
ATOM      2  C   UNL     1       4.619  -8.498   0.329  1.00  0.00     0.002 C 
BRANCH   2   3
ATOM      3  C   UNL     1       3.894  -7.212   0.722  1.00  0.00     0.021 C 
BRANCH   3   4
ATOM      4  C   UNL     1       4.197  -6.028  -0.182  1.00  0.00     0.116 C 
BRANCH   4   5
ATOM      5  N   UNL     1       3.381  -5.997  -1.374  1.00  0.00    -0.355 N 
ATOM      6  C   UNL     1       2.667  -4.970  -1.921  1.00  0.00     0.239 C 
ATOM      7  O   UNL     1       2.162  -5.176  -3.030  1.00  0.00    -0.273 OA
ATOM      8  H   UNL     1       3.333  -6.848  -1.868  1.00  0.00     0.163 HD
BRANCH   6   9
ATOM      9  C   UNL     1       2.519  -3.601  -1.239  1.00  0.00     0.173 C 
ATOM     10  N   UNL     1       1.707  -3.653   0.001  1.00  0.00    -0.175 NA
ATOM     11  C   UNL     1       2.408  -3.300   1.232  1.00  0.00     0.172 C 
ATOM     12  S   UNL     1       3.997  -2.551   0.789  1.00  0.00    -0.143 SA
ATOM     13  C   UNL     1       3.856  -2.910  -0.985  1.00  0.00     0.101 C 
BRANCH  10  14
ATOM     14  S   UNL     1       0.060  -3.298  -0.090  1.00  0.00     0.244 S 
ATOM     15  O   UNL     1      -0.526  -3.715   1.171  1.00  0.00    -0.207 OA
ATOM     16  O   UNL     1      -0.442  -3.786  -1.349  1.00  0.00    -0.207 OA
BRANCH  14  17
ATOM     17  C   UNL     1      -0.089  -1.516  -0.138  1.00  0.00     0.083 A 
ATOM     18  C   UNL     1       2.128   1.569  -0.148  1.00  0.00     0.044 C 
ATOM     19  C   UNL     1       0.902   0.705  -0.143  1.00  0.00    -0.050 A 
ATOM     20  C   UNL     1      -0.373   1.261  -0.035  1.00  0.00     0.007 A 
ATOM     21  C   UNL     1       1.024  -0.682  -0.229  1.00  0.00     0.025 A 
ATOM     22  C   UNL     1      -1.512   0.441   0.011  1.00  0.00    -0.050 A 
ATOM     23  C   UNL     1      -2.868   1.077   0.103  1.00  0.00     0.044 C 
ATOM     24  C   UNL     1      -1.364  -0.954  -0.022  1.00  0.00     0.025 A 
ENDBRANCH  14  17
ENDBRANCH  10  14
ENDBRANCH   6   9
ENDBRANCH   4   5
ENDBRANCH   3   4
ENDBRANCH   2   3
ENDBRANCH   1   2
BRANCH   1  25
ATOM     25  C   UNL     1       6.835  -7.792   1.486  1.00  0.00     0.021 C 
BRANCH  25  26
ATOM     26  C   UNL     1       6.546  -8.511   2.802  1.00  0.00     0.116 C 
BRANCH  26  27
ATOM     27  N   UNL     1       6.915  -9.914   2.743  1.00  0.00    -0.352 N 
ATOM     28  C   UNL     1       7.694 -10.653   3.594  1.00  0.00     0.251 C 
ATOM     29  H   UNL     1       6.551 -10.410   1.975  1.00  0.00     0.163 HD
ATOM     30  O   UNL     1       8.062 -11.774   3.253  1.00  0.00    -0.269 OA
BRANCH  28  31
ATOM     31  C   UNL     1       8.093 -10.114   4.913  1.00  0.00     0.039 A 
ATOM     32  C   UNL     1       9.382 -10.381   5.382  1.00  0.00     0.014 A 
ATOM     33  C   UNL     1       7.190  -9.408   5.715  1.00  0.00     0.014 A 
ATOM     34  C   UNL     1       9.771  -9.927   6.644  1.00  0.00     0.010 A 
ATOM     35  C   UNL     1       7.602  -8.895   6.943  1.00  0.00     0.010 A 
ATOM     36  C   UNL     1       8.887  -9.173   7.432  1.00  0.00    -0.014 A 
BRANCH  36  37
ATOM     37  C   UNL     1       9.289  -8.697   8.779  1.00  0.00     0.031 A 
ATOM     38  C   UNL     1       8.583  -9.205  10.008  1.00  0.00     0.074 A 
ATOM     39  C   UNL     1      10.251  -7.761   8.893  1.00  0.00     0.049 A 
ATOM     40  N   UNL     1       8.802  -8.912  11.264  1.00  0.00    -0.248 NA
ATOM     41  C   UNL     1       7.467 -10.143   9.800  1.00  0.00     0.031 C 
ATOM     42  C   UNL     1      10.941  -7.120   7.773  1.00  0.00     0.029 A 
ATOM     43  N   UNL     1      10.797  -7.170  10.004  1.00  0.00    -0.354 N 
ATOM     44  C   UNL     1       7.831  -9.593  11.990  1.00  0.00     0.074 A 
ATOM     45  C   UNL     1       7.000 -10.288  11.032  1.00  0.00     0.031 C 
ATOM     46  C   UNL     1      11.822  -6.227   8.253  1.00  0.00     0.029 A 
ATOM     47  C   UNL     1      11.749  -6.222   9.711  1.00  0.00     0.049 A 
ATOM     48  H   UNL     1      10.533  -7.402  10.924  1.00  0.00     0.167 HD
ATOM     49  C   UNL     1       7.665  -9.661  13.332  1.00  0.00     0.034 A 
ATOM     50  C   UNL     1      12.485  -5.441  10.526  1.00  0.00     0.034 A 
ATOM     51  C   UNL     1       8.529  -9.014  14.282  1.00  0.00     0.049 A 
ATOM     52  C   UNL     1      12.343  -5.602  12.015  1.00  0.00     0.074 A 
ATOM     53  C   UNL     1       8.516  -9.108  15.662  1.00  0.00     0.029 A 
ATOM     54  N   UNL     1       9.559  -8.147  13.950  1.00  0.00    -0.354 N 
ATOM     55  N   UNL     1      11.543  -6.395  12.687  1.00  0.00    -0.248 NA
ATOM     56  C   UNL     1      13.239  -4.798  12.859  1.00  0.00     0.031 C 
ATOM     57  C   UNL     1       9.528  -8.283  16.166  1.00  0.00     0.029 A 
ATOM     58  C   UNL     1      10.185  -7.692  15.098  1.00  0.00     0.049 A 
ATOM     59  H   UNL     1       9.809  -7.893  13.032  1.00  0.00     0.167 HD
ATOM     60  C   UNL     1      11.859  -6.210  14.027  1.00  0.00     0.074 A 
ATOM     61  C   UNL     1      12.942  -5.248  14.071  1.00  0.00     0.031 C 
ATOM     62  C   UNL     1      11.295  -6.774  15.124  1.00  0.00     0.034 A 
BRANCH  49  63
ATOM     63  C   UNL     1       6.537 -10.513  13.856  1.00  0.00     0.023 A 
ATOM     64  C   UNL     1       6.622 -11.918  13.757  1.00  0.00     0.012 A 
ATOM     65  C   UNL     1       5.420  -9.933  14.487  1.00  0.00     0.148 A 
ATOM     66  C   UNL     1       5.596 -12.728  14.241  1.00  0.00     0.002 A 
ATOM     67  C   UNL     1       4.423 -10.750  15.008  1.00  0.00     0.091 A 
ATOM     68  F   UNL     1       5.343  -8.596  14.553  1.00  0.00    -0.205 F 
ATOM     69  C   UNL     1       4.503 -12.146  14.876  1.00  0.00     0.022 A 
BRANCH  67  70
ATOM     70  S   UNL     1       3.015 -10.098  15.914  1.00  0.00     0.127 S 
ATOM     71  O   UNL     1       1.935 -10.266  14.942  1.00  0.00    -0.237 OA
ATOM     72  O   UNL     1       2.943 -10.997  17.066  1.00  0.00    -0.237 OA
ATOM     73  O   UNL     1       3.355  -8.720  16.243  1.00  0.00    -0.744 OA
ENDBRANCH  67  70
ENDBRANCH  49  63
BRANCH  50  74
ATOM     74  C   UNL     1      13.482  -4.501   9.942  1.00  0.00     0.023 A 
ATOM     75  C   UNL     1      14.856  -4.784  10.067  1.00  0.00     0.012 A 
ATOM     76  C   UNL     1      13.078  -3.360   9.222  1.00  0.00     0.148 A 
ATOM     77  C   UNL     1      15.811  -3.933   9.511  1.00  0.00     0.002 A 
ATOM     78  C   UNL     1      14.033  -2.546   8.623  1.00  0.00     0.091 A 
ATOM     79  F   UNL     1      11.766  -3.104   9.123  1.00  0.00    -0.205 F 
ATOM     80  C   UNL     1      15.400  -2.821   8.780  1.00  0.00     0.022 A 
BRANCH  78  81
ATOM     81  S   UNL     1      13.591  -1.175   7.551  1.00  0.00     0.127 S 
ATOM     82  O   UNL     1      13.950  -0.023   8.374  1.00  0.00    -0.237 OA
ATOM     83  O   UNL     1      14.460  -1.402   6.395  1.00  0.00    -0.237 OA
ATOM     84  O   UNL     1      12.171  -1.337   7.271  1.00  0.00    -0.744 OA
ENDBRANCH  78  81
ENDBRANCH  50  74
BRANCH  62  85
ATOM     85  C   UNL     1      11.851  -6.389  16.470  1.00  0.00     0.023 A 
ATOM     86  C   UNL     1      11.594  -5.106  16.993  1.00  0.00     0.012 A 
ATOM     87  C   UNL     1      12.570  -7.320  17.245  1.00  0.00     0.148 A 
ATOM     88  C   UNL     1      12.075  -4.744  18.251  1.00  0.00     0.002 A 
ATOM     89  C   UNL     1      13.004  -6.968  18.518  1.00  0.00     0.091 A 
ATOM     90  F   UNL     1      12.823  -8.530  16.724  1.00  0.00    -0.205 F 
ATOM     91  C   UNL     1      12.768  -5.677  19.017  1.00  0.00     0.022 A 
BRANCH  89  92
ATOM     92  S   UNL     1      13.818  -8.141  19.608  1.00  0.00     0.127 S 
ATOM     93  O   UNL     1      15.216  -7.730  19.498  1.00  0.00    -0.237 OA
ATOM     94  O   UNL     1      13.197  -7.852  20.901  1.00  0.00    -0.237 OA
ATOM     95  O   UNL     1      13.506  -9.461  19.075  1.00  0.00    -0.744 OA
ENDBRANCH  89  92
ENDBRANCH  62  85
ENDBRANCH  36  37
ENDBRANCH  28  31
ENDBRANCH  26  27
ENDBRANCH  25  26
ENDBRANCH   1  25
TORSDOF 18
