REMARK SMILES Cc1cc(Cl)ccc1-c1ccc(C(=O)NCCCCCCNC(=O)c2ccc(-c3c4nc(c(-c5cccc(S(=O)(=O)[O-])c5F)c5ccc([nH]5)c(-c5cccc(S(=O)(=O)[O-])c5F)c5nc(c(-c6cccc(S(=O)(=O)[O-])c6F)c6ccc3[nH]6)C=C5)C=C4)cc2)c(Cl)c1
REMARK SMILES IDX 19 1 18 2 17 3 16 4 15 5 13 6 14 7 12 9 9 10 10 11 90 12
REMARK SMILES IDX 11 13 88 14 89 15 8 16 1 17 2 18 3 19 4 20 7 21 5 22 6 23
REMARK SMILES IDX 20 24 21 25 22 26 23 27 24 29 25 30 26 31 87 32 27 33 86 34
REMARK SMILES IDX 28 35 29 36 30 37 80 38 31 39 85 40 79 41 81 42 32 43 84 44
REMARK SMILES IDX 78 45 77 46 33 48 65 49 45 50 64 51 46 52 49 53 63 54 82 55
REMARK SMILES IDX 47 56 48 57 62 59 83 60 50 61 34 62 35 63 43 64 36 65 38 66
REMARK SMILES IDX 44 67 37 68 39 69 40 70 41 71 42 72 66 73 67 74 75 75 68 76
REMARK SMILES IDX 70 77 76 78 69 79 71 80 72 81 73 82 74 83 51 84 52 85 60 86
REMARK SMILES IDX 53 87 55 88 61 89 54 90 56 91 57 92 58 93 59 94
REMARK H PARENT 15 8 22 28 81 47 49 58
REMARK Flexibility Score: inf
ROOT
ATOM      1  C   UNL     1      -9.662  -5.445   3.960  1.00  0.00     0.002 C 
ENDROOT
BRANCH   1   2
ATOM      2  C   UNL     1      -9.595  -3.939   3.688  1.00  0.00     0.002 C 
BRANCH   2   3
ATOM      3  C   UNL     1      -8.204  -3.431   3.304  1.00  0.00     0.021 C 
BRANCH   3   4
ATOM      4  C   UNL     1      -7.680  -3.973   1.967  1.00  0.00     0.116 C 
BRANCH   4   5
ATOM      5  N   UNL     1      -8.056  -3.062   0.905  1.00  0.00    -0.352 N 
ATOM      6  C   UNL     1      -7.392  -2.089   0.210  1.00  0.00     0.252 C 
ATOM      7  O   UNL     1      -8.082  -1.420  -0.567  1.00  0.00    -0.269 OA
ATOM      8  H   UNL     1      -8.993  -3.165   0.622  1.00  0.00     0.163 HD
BRANCH   6   9
ATOM      9  C   UNL     1      -5.919  -1.844   0.218  1.00  0.00     0.058 A 
ATOM     10  C   UNL     1      -3.179  -1.140  -0.152  1.00  0.00    -0.017 A 
ATOM     11  C   UNL     1      -4.071  -1.067  -1.219  1.00  0.00     0.009 A 
ATOM     12  C   UNL     1      -3.665  -1.572   1.087  1.00  0.00     0.030 A 
ATOM     13  C   UNL     1      -5.410  -1.434  -1.038  1.00  0.00     0.016 A 
ATOM     14  C   UNL     1      -5.026  -1.853   1.294  1.00  0.00     0.054 A 
ATOM     15  Cl  UNL     1      -5.449  -1.956   2.958  1.00  0.00    -0.083 Cl
BRANCH  10  16
ATOM     16  C   UNL     1      -1.789  -0.682  -0.247  1.00  0.00    -0.015 A 
ATOM     17  C   UNL     1      -2.462   1.792  -0.060  1.00  0.00     0.045 C 
ATOM     18  C   UNL     1      -1.442   0.686  -0.150  1.00  0.00    -0.042 A 
ATOM     19  C   UNL     1      -0.084   1.053  -0.128  1.00  0.00     0.024 A 
ATOM     20  C   UNL     1       0.915   0.083  -0.178  1.00  0.00     0.041 A 
ATOM     21  C   UNL     1      -0.761  -1.641  -0.316  1.00  0.00     0.010 A 
ATOM     22  Cl  UNL     1       2.567   0.555  -0.102  1.00  0.00    -0.084 Cl
ATOM     23  C   UNL     1       0.583  -1.263  -0.277  1.00  0.00     0.021 A 
ENDBRANCH  10  16
ENDBRANCH   6   9
ENDBRANCH   4   5
ENDBRANCH   3   4
ENDBRANCH   2   3
ENDBRANCH   1   2
BRANCH   1  24
ATOM     24  C   UNL     1      -8.651  -5.959   4.990  1.00  0.00     0.021 C 
BRANCH  24  25
ATOM     25  C   UNL     1      -8.775  -5.314   6.368  1.00  0.00     0.116 C 
BRANCH  25  26
ATOM     26  N   UNL     1     -10.085  -5.565   6.953  1.00  0.00    -0.352 N 
ATOM     27  C   UNL     1     -10.400  -6.239   8.101  1.00  0.00     0.251 C 
ATOM     28  H   UNL     1     -10.850  -5.200   6.453  1.00  0.00     0.163 HD
ATOM     29  O   UNL     1     -11.563  -6.605   8.302  1.00  0.00    -0.269 OA
BRANCH  27  30
ATOM     30  C   UNL     1      -9.352  -6.521   9.100  1.00  0.00     0.039 A 
ATOM     31  C   UNL     1      -9.309  -7.775   9.713  1.00  0.00     0.014 A 
ATOM     32  C   UNL     1      -8.423  -5.534   9.444  1.00  0.00     0.014 A 
ATOM     33  C   UNL     1      -8.305  -8.053  10.643  1.00  0.00     0.010 A 
ATOM     34  C   UNL     1      -7.380  -5.838  10.309  1.00  0.00     0.010 A 
ATOM     35  C   UNL     1      -7.319  -7.094  10.930  1.00  0.00    -0.014 A 
BRANCH  35  36
ATOM     36  C   UNL     1      -6.218  -7.382  11.881  1.00  0.00     0.031 A 
ATOM     37  C   UNL     1      -6.087  -6.589  13.152  1.00  0.00     0.074 A 
ATOM     38  C   UNL     1      -5.290  -8.304  11.559  1.00  0.00     0.049 A 
ATOM     39  N   UNL     1      -5.179  -6.676  14.089  1.00  0.00    -0.248 NA
ATOM     40  C   UNL     1      -7.091  -5.538  13.387  1.00  0.00     0.031 C 
ATOM     41  C   UNL     1      -5.270  -9.086  10.321  1.00  0.00     0.029 A 
ATOM     42  N   UNL     1      -4.176  -8.727  12.238  1.00  0.00    -0.354 N 
ATOM     43  C   UNL     1      -5.482  -5.675  15.004  1.00  0.00     0.074 A 
ATOM     44  C   UNL     1      -6.629  -4.963  14.486  1.00  0.00     0.031 C 
ATOM     45  C   UNL     1      -4.211  -9.910  10.339  1.00  0.00     0.029 A 
ATOM     46  C   UNL     1      -3.461  -9.693  11.572  1.00  0.00     0.049 A 
ATOM     47  H   UNL     1      -3.914  -8.372  13.118  1.00  0.00     0.167 HD
ATOM     48  C   UNL     1      -4.881  -5.393  16.186  1.00  0.00     0.034 A 
ATOM     49  C   UNL     1      -2.329 -10.336  11.920  1.00  0.00     0.034 A 
ATOM     50  C   UNL     1      -3.759  -6.125  16.708  1.00  0.00     0.049 A 
ATOM     51  C   UNL     1      -1.689 -10.019  13.243  1.00  0.00     0.074 A 
ATOM     52  C   UNL     1      -3.126  -5.979  17.929  1.00  0.00     0.029 A 
ATOM     53  N   UNL     1      -3.091  -7.135  16.030  1.00  0.00    -0.354 N 
ATOM     54  N   UNL     1      -2.079  -9.177  14.169  1.00  0.00    -0.248 NA
ATOM     55  C   UNL     1      -0.470 -10.765  13.583  1.00  0.00     0.031 C 
ATOM     56  C   UNL     1      -2.056  -6.881  17.977  1.00  0.00     0.029 A 
ATOM     57  C   UNL     1      -2.043  -7.612  16.799  1.00  0.00     0.049 A 
ATOM     58  H   UNL     1      -3.328  -7.465  15.134  1.00  0.00     0.167 HD
ATOM     59  C   UNL     1      -1.179  -9.319  15.219  1.00  0.00     0.074 A 
ATOM     60  C   UNL     1      -0.232 -10.341  14.817  1.00  0.00     0.031 C 
ATOM     61  C   UNL     1      -1.134  -8.659  16.403  1.00  0.00     0.034 A 
BRANCH  48  62
ATOM     62  C   UNL     1      -5.461  -4.266  17.004  1.00  0.00     0.023 A 
ATOM     63  C   UNL     1      -6.739  -4.411  17.585  1.00  0.00     0.012 A 
ATOM     64  C   UNL     1      -4.745  -3.070  17.209  1.00  0.00     0.148 A 
ATOM     65  C   UNL     1      -7.318  -3.367  18.306  1.00  0.00     0.002 A 
ATOM     66  C   UNL     1      -5.309  -2.053  17.972  1.00  0.00     0.091 A 
ATOM     67  F   UNL     1      -3.542  -2.935  16.634  1.00  0.00    -0.205 F 
ATOM     68  C   UNL     1      -6.600  -2.192  18.506  1.00  0.00     0.022 A 
BRANCH  66  69
ATOM     69  S   UNL     1      -4.427  -0.535  18.354  1.00  0.00     0.127 S 
ATOM     70  O   UNL     1      -5.078   0.419  17.457  1.00  0.00    -0.237 OA
ATOM     71  O   UNL     1      -4.736  -0.345  19.772  1.00  0.00    -0.237 OA
ATOM     72  O   UNL     1      -3.025  -0.809  18.074  1.00  0.00    -0.744 OA
ENDBRANCH  66  69
ENDBRANCH  48  62
BRANCH  49  73
ATOM     73  C   UNL     1      -1.792 -11.413  11.042  1.00  0.00     0.023 A 
ATOM     74  C   UNL     1      -1.896 -12.753  11.464  1.00  0.00     0.012 A 
ATOM     75  C   UNL     1      -1.230 -11.130   9.782  1.00  0.00     0.148 A 
ATOM     76  C   UNL     1      -1.429 -13.791  10.659  1.00  0.00     0.002 A 
ATOM     77  C   UNL     1      -0.814 -12.173   8.962  1.00  0.00     0.091 A 
ATOM     78  F   UNL     1      -1.139  -9.848   9.402  1.00  0.00    -0.205 F 
ATOM     79  C   UNL     1      -0.897 -13.503   9.405  1.00  0.00     0.022 A 
BRANCH  77  80
ATOM     80  S   UNL     1      -0.231 -11.912   7.283  1.00  0.00     0.127 S 
ATOM     81  O   UNL     1       1.162 -12.343   7.379  1.00  0.00    -0.237 OA
ATOM     82  O   UNL     1      -1.102 -12.809   6.522  1.00  0.00    -0.237 OA
ATOM     83  O   UNL     1      -0.433 -10.497   7.008  1.00  0.00    -0.744 OA
ENDBRANCH  77  80
ENDBRANCH  49  73
BRANCH  61  84
ATOM     84  C   UNL     1      -0.043  -9.041  17.371  1.00  0.00     0.023 A 
ATOM     85  C   UNL     1       1.292  -8.681  17.104  1.00  0.00     0.012 A 
ATOM     86  C   UNL     1      -0.354  -9.698  18.578  1.00  0.00     0.148 A 
ATOM     87  C   UNL     1       2.307  -9.002  18.006  1.00  0.00     0.002 A 
ATOM     88  C   UNL     1       0.654  -9.968  19.495  1.00  0.00     0.091 A 
ATOM     89  F   UNL     1      -1.628 -10.050  18.805  1.00  0.00    -0.205 F 
ATOM     90  C   UNL     1       1.986  -9.634  19.205  1.00  0.00     0.022 A 
BRANCH  88  91
ATOM     91  S   UNL     1       0.321 -10.688  21.107  1.00  0.00     0.127 S 
ATOM     92  O   UNL     1       0.859 -12.038  20.948  1.00  0.00    -0.237 OA
ATOM     93  O   UNL     1       1.097  -9.824  21.998  1.00  0.00    -0.237 OA
ATOM     94  O   UNL     1      -1.121 -10.608  21.293  1.00  0.00    -0.744 OA
ENDBRANCH  88  91
ENDBRANCH  61  84
ENDBRANCH  35  36
ENDBRANCH  27  30
ENDBRANCH  25  26
ENDBRANCH  24  25
ENDBRANCH   1  24
TORSDOF 17
