REMARK SMILES CN1C(=O)C[C@@H](C(=O)NCCCCCCNC(=O)c2ccc(-c3c4nc(c(-c5cccc(S(=O)(=O)[O-])c5F)c5ccc([nH]5)c(-c5cccc(S(=O)(=O)[O-])c5F)c5nc(c(-c6cccc(S(=O)(=O)[O-])c6F)c6ccc3[nH]6)C=C5)C=C4)cc2)C12CCN(C(=O)c1ccccc1-n1cccn1)CC2
REMARK SMILES IDX 13 1 12 2 11 3 10 4 9 5 7 6 8 7 6 9 1 10 2 11 3 12 82 13
REMARK SMILES IDX 4 14 5 15 83 16 100 17 84 18 99 19 85 20 86 21 87 22 88 23
REMARK SMILES IDX 89 24 93 25 90 26 92 27 91 28 94 29 95 30 98 31 96 32 97 33
REMARK SMILES IDX 14 34 15 35 16 36 17 37 18 39 19 40 20 41 81 42 21 43 80 44
REMARK SMILES IDX 22 45 23 46 24 47 74 48 25 49 79 50 73 51 75 52 26 53 78 54
REMARK SMILES IDX 72 55 71 56 27 58 59 59 39 60 58 61 40 62 43 63 57 64 76 65
REMARK SMILES IDX 41 66 42 67 56 69 77 70 44 71 28 72 29 73 37 74 30 75 32 76
REMARK SMILES IDX 38 77 31 78 33 79 34 80 35 81 36 82 60 83 61 84 69 85 62 86
REMARK SMILES IDX 64 87 70 88 63 89 65 90 66 91 67 92 68 93 45 94 46 95 54 96
REMARK SMILES IDX 47 97 49 98 55 99 48 100 50 101 51 102 52 103 53 104
REMARK H PARENT 9 8 16 38 75 57 43 68
REMARK Flexibility Score: inf
ROOT
ATOM      1  C   UNL     1      -2.864   3.180   2.324  1.00  0.00     0.002 C 
ENDROOT
BRANCH   1   2
ATOM      2  C   UNL     1      -2.592   2.875   0.851  1.00  0.00     0.002 C 
BRANCH   2   3
ATOM      3  C   UNL     1      -1.585   1.748   0.621  1.00  0.00     0.021 C 
BRANCH   3   4
ATOM      4  C   UNL     1      -2.012   0.393   1.196  1.00  0.00     0.116 C 
BRANCH   4   5
ATOM      5  N   UNL     1      -2.997  -0.306   0.384  1.00  0.00    -0.356 N 
ATOM      6  C   UNL     1      -2.975  -1.465  -0.323  1.00  0.00     0.226 C 
ATOM      7  O   UNL     1      -4.038  -1.783  -0.875  1.00  0.00    -0.275 OA
ATOM      8  H   UNL     1      -3.862   0.161   0.337  1.00  0.00     0.163 HD
BRANCH   6   9
ATOM      9  C   UNL     1      -1.752  -2.371  -0.528  1.00  0.00     0.113 C 
ATOM     10  C   UNL     1       1.466  -0.546  -0.057  1.00  0.00     0.147 C 
ATOM     11  N   UNL     1       0.330  -1.448  -0.054  1.00  0.00    -0.339 N 
ATOM     12  C   UNL     1       0.033  -2.237   1.054  1.00  0.00     0.223 C 
ATOM     13  C   UNL     1      -0.514  -1.754  -1.218  1.00  0.00     0.058 C 
ATOM     14  O   UNL     1       0.657  -2.299   2.095  1.00  0.00    -0.275 OA
ATOM     15  C   UNL     1      -1.243  -2.981   0.777  1.00  0.00     0.116 C 
ATOM     16  C   UNL     1      -0.870  -0.544  -2.099  1.00  0.00     0.051 C 
ATOM     17  C   UNL     1       0.249  -2.790  -2.104  1.00  0.00     0.051 C 
ATOM     18  C   UNL     1      -1.595  -0.930  -3.380  1.00  0.00     0.122 C 
ATOM     19  C   UNL     1      -0.400  -3.056  -3.467  1.00  0.00     0.122 C 
ATOM     20  N   UNL     1      -0.732  -1.808  -4.149  1.00  0.00    -0.338 N 
ATOM     21  C   UNL     1      -0.217  -1.536  -5.415  1.00  0.00     0.256 C 
ATOM     22  O   UNL     1       0.493  -2.316  -6.043  1.00  0.00    -0.269 OA
BRANCH  21  23
ATOM     23  C   UNL     1      -0.579  -0.264  -6.090  1.00  0.00     0.065 A 
ATOM     24  C   UNL     1      -1.472  -0.389  -7.168  1.00  0.00     0.016 A 
ATOM     25  C   UNL     1      -0.172   1.014  -5.675  1.00  0.00     0.077 A 
ATOM     26  C   UNL     1      -1.979   0.744  -7.807  1.00  0.00     0.001 A 
ATOM     27  C   UNL     1      -0.733   2.150  -6.292  1.00  0.00     0.029 A 
ATOM     28  C   UNL     1      -1.620   2.013  -7.360  1.00  0.00     0.002 A 
BRANCH  25  29
ATOM     29  N   UNL     1       0.791   1.232  -4.660  1.00  0.00    -0.240 N 
ATOM     30  C   UNL     1       1.867   0.450  -4.305  1.00  0.00     0.115 A 
ATOM     31  N   UNL     1       0.723   2.352  -3.889  1.00  0.00    -0.177 NA
ATOM     32  C   UNL     1       2.486   1.070  -3.244  1.00  0.00     0.042 A 
ATOM     33  C   UNL     1       1.725   2.227  -3.019  1.00  0.00     0.135 A 
ENDBRANCH  25  29
ENDBRANCH  21  23
ENDBRANCH   6   9
ENDBRANCH   4   5
ENDBRANCH   3   4
ENDBRANCH   2   3
ENDBRANCH   1   2
BRANCH   1  34
ATOM     34  C   UNL     1      -1.609   3.405   3.174  1.00  0.00     0.021 C 
BRANCH  34  35
ATOM     35  C   UNL     1      -0.685   4.505   2.659  1.00  0.00     0.116 C 
BRANCH  35  36
ATOM     36  N   UNL     1      -1.369   5.787   2.591  1.00  0.00    -0.352 N 
ATOM     37  C   UNL     1      -1.092   6.949   3.263  1.00  0.00     0.251 C 
ATOM     38  H   UNL     1      -2.137   5.824   1.978  1.00  0.00     0.163 HD
ATOM     39  O   UNL     1      -1.921   7.854   3.293  1.00  0.00    -0.269 OA
BRANCH  37  40
ATOM     40  C   UNL     1       0.206   7.103   3.951  1.00  0.00     0.039 A 
ATOM     41  C   UNL     1       0.231   7.643   5.238  1.00  0.00     0.014 A 
ATOM     42  C   UNL     1       1.395   6.728   3.318  1.00  0.00     0.014 A 
ATOM     43  C   UNL     1       1.449   7.766   5.909  1.00  0.00     0.010 A 
ATOM     44  C   UNL     1       2.597   6.782   4.017  1.00  0.00     0.010 A 
ATOM     45  C   UNL     1       2.639   7.313   5.315  1.00  0.00    -0.014 A 
BRANCH  45  46
ATOM     46  C   UNL     1       3.933   7.383   6.042  1.00  0.00     0.031 A 
ATOM     47  C   UNL     1       5.062   8.222   5.503  1.00  0.00     0.074 A 
ATOM     48  C   UNL     1       4.117   6.628   7.144  1.00  0.00     0.049 A 
ATOM     49  N   UNL     1       6.273   8.368   5.974  1.00  0.00    -0.248 NA
ATOM     50  C   UNL     1       4.810   8.975   4.263  1.00  0.00     0.031 C 
ATOM     51  C   UNL     1       3.127   5.713   7.718  1.00  0.00     0.029 A 
ATOM     52  N   UNL     1       5.210   6.487   7.963  1.00  0.00    -0.354 N 
ATOM     53  C   UNL     1       6.938   9.188   5.071  1.00  0.00     0.074 A 
ATOM     54  C   UNL     1       6.003   9.497   4.012  1.00  0.00     0.031 C 
ATOM     55  C   UNL     1       3.658   5.104   8.790  1.00  0.00     0.029 A 
ATOM     56  C   UNL     1       5.035   5.556   8.961  1.00  0.00     0.049 A 
ATOM     57  H   UNL     1       6.040   7.003   7.847  1.00  0.00     0.167 HD
ATOM     58  C   UNL     1       8.206   9.657   5.128  1.00  0.00     0.034 A 
ATOM     59  C   UNL     1       5.893   5.102   9.897  1.00  0.00     0.034 A 
ATOM     60  C   UNL     1       9.116   9.391   6.209  1.00  0.00     0.049 A 
ATOM     61  C   UNL     1       7.281   5.682   9.958  1.00  0.00     0.074 A 
ATOM     62  C   UNL     1      10.380   9.915   6.413  1.00  0.00     0.029 A 
ATOM     63  N   UNL     1       8.871   8.516   7.254  1.00  0.00    -0.354 N 
ATOM     64  N   UNL     1       7.827   6.599   9.197  1.00  0.00    -0.248 NA
ATOM     65  C   UNL     1       8.160   5.193  11.030  1.00  0.00     0.031 C 
ATOM     66  C   UNL     1      10.918   9.323   7.558  1.00  0.00     0.029 A 
ATOM     67  C   UNL     1       9.970   8.468   8.094  1.00  0.00     0.049 A 
ATOM     68  H   UNL     1       8.040   8.005   7.381  1.00  0.00     0.167 HD
ATOM     69  C   UNL     1       9.094   6.825   9.723  1.00  0.00     0.074 A 
ATOM     70  C   UNL     1       9.225   5.968  10.881  1.00  0.00     0.031 C 
ATOM     71  C   UNL     1      10.067   7.656   9.278  1.00  0.00     0.034 A 
BRANCH  58  72
ATOM     72  C   UNL     1       8.695  10.542   4.012  1.00  0.00     0.023 A 
ATOM     73  C   UNL     1       8.231  11.868   3.913  1.00  0.00     0.012 A 
ATOM     74  C   UNL     1       9.704  10.092   3.138  1.00  0.00     0.148 A 
ATOM     75  C   UNL     1       8.754  12.731   2.949  1.00  0.00     0.002 A 
ATOM     76  C   UNL     1      10.253  10.970   2.212  1.00  0.00     0.091 A 
ATOM     77  F   UNL     1      10.116   8.820   3.239  1.00  0.00    -0.205 F 
ATOM     78  C   UNL     1       9.773  12.287   2.111  1.00  0.00     0.022 A 
BRANCH  76  79
ATOM     79  S   UNL     1      11.628  10.523   1.147  1.00  0.00     0.127 S 
ATOM     80  O   UNL     1      11.010  10.592  -0.177  1.00  0.00    -0.237 OA
ATOM     81  O   UNL     1      12.589  11.590   1.427  1.00  0.00    -0.237 OA
ATOM     82  O   UNL     1      12.049   9.193   1.564  1.00  0.00    -0.744 OA
ENDBRANCH  76  79
ENDBRANCH  58  72
BRANCH  59  83
ATOM     83  C   UNL     1       5.466   4.059  10.873  1.00  0.00     0.023 A 
ATOM     84  C   UNL     1       5.359   4.382  12.241  1.00  0.00     0.012 A 
ATOM     85  C   UNL     1       5.189   2.743  10.457  1.00  0.00     0.148 A 
ATOM     86  C   UNL     1       5.039   3.401  13.181  1.00  0.00     0.002 A 
ATOM     87  C   UNL     1       4.810   1.786  11.390  1.00  0.00     0.091 A 
ATOM     88  F   UNL     1       5.307   2.450   9.154  1.00  0.00    -0.205 F 
ATOM     89  C   UNL     1       4.757   2.106  12.755  1.00  0.00     0.022 A 
BRANCH  87  90
ATOM     90  S   UNL     1       4.302   0.132  10.911  1.00  0.00     0.127 S 
ATOM     91  O   UNL     1       5.453  -0.665  11.323  1.00  0.00    -0.237 OA
ATOM     92  O   UNL     1       3.096  -0.061  11.719  1.00  0.00    -0.237 OA
ATOM     93  O   UNL     1       4.054   0.202   9.477  1.00  0.00    -0.744 OA
ENDBRANCH  87  90
ENDBRANCH  59  83
BRANCH  71  94
ATOM     94  C   UNL     1      11.344   7.732  10.073  1.00  0.00     0.023 A 
ATOM     95  C   UNL     1      12.245   6.650  10.069  1.00  0.00     0.012 A 
ATOM     96  C   UNL     1      11.681   8.911  10.766  1.00  0.00     0.148 A 
ATOM     97  C   UNL     1      13.445   6.726  10.775  1.00  0.00     0.002 A 
ATOM     98  C   UNL     1      12.903   9.001  11.420  1.00  0.00     0.091 A 
ATOM     99  F   UNL     1      10.802   9.924  10.770  1.00  0.00    -0.205 F 
ATOM    100  C   UNL     1      13.779   7.905  11.439  1.00  0.00     0.022 A 
BRANCH  98 101
ATOM    101  S   UNL     1      13.461  10.513  12.213  1.00  0.00     0.127 S 
ATOM    102  O   UNL     1      13.387  10.152  13.628  1.00  0.00    -0.237 OA
ATOM    103  O   UNL     1      14.821  10.652  11.689  1.00  0.00    -0.237 OA
ATOM    104  O   UNL     1      12.539  11.557  11.787  1.00  0.00    -0.744 OA
ENDBRANCH  98 101
ENDBRANCH  71  94
ENDBRANCH  45  46
ENDBRANCH  37  40
ENDBRANCH  35  36
ENDBRANCH  34  35
ENDBRANCH   1  34
TORSDOF 18
