REMARK SMILES CC(C)Cc1ccc(-c2cc(Cl)cc3c2O[C@H](C(F)(F)F)C(C(=O)NCCCCCCNC(=O)c2ccc(-c4c5nc(c(-c6cccc(S(=O)(=O)[O-])c6F)c6ccc([nH]6)c(-c6cccc(S(=O)(=O)[O-])c6F)c6nc(c(-c7cccc(S(=O)(=O)[O-])c7F)c7ccc4[nH]7)C=C6)C=C5)cc2)=C3)cc1
REMARK SMILES IDX 28 1 27 2 26 3 25 4 23 5 24 6 22 8 9 9 10 10 15 11 11 12
REMARK SMILES IDX 14 13 16 14 12 15 13 16 98 17 17 18 8 19 5 20 6 21 100 22
REMARK SMILES IDX 7 23 99 24 4 25 2 26 1 27 3 28 18 29 19 30 20 31 21 32 29 33
REMARK SMILES IDX 30 34 31 35 32 36 33 37 34 39 35 40 36 41 97 42 37 43 96 44
REMARK SMILES IDX 38 45 39 46 40 47 90 48 41 49 95 50 89 51 91 52 42 53 94 54
REMARK SMILES IDX 88 55 87 56 43 58 75 59 55 60 74 61 56 62 59 63 73 64 92 65
REMARK SMILES IDX 57 66 58 67 72 69 93 70 60 71 44 72 45 73 53 74 46 75 48 76
REMARK SMILES IDX 54 77 47 78 49 79 50 80 51 81 52 82 76 83 77 84 85 85 78 86
REMARK SMILES IDX 80 87 86 88 79 89 81 90 82 91 83 92 84 93 61 94 62 95 70 96
REMARK SMILES IDX 63 97 65 98 71 99 64 100 66 101 67 102 68 103 69 104
REMARK H PARENT 25 7 32 38 91 57 59 68
REMARK Flexibility Score: inf
ROOT
ATOM      1  C   UNL     1      -1.566  13.537   3.923  1.00  0.00     0.002 C 
ENDROOT
BRANCH   1   2
ATOM      2  C   UNL     1      -0.854  12.323   4.545  1.00  0.00     0.021 C 
BRANCH   2   3
ATOM      3  C   UNL     1      -1.770  11.127   4.842  1.00  0.00     0.116 C 
BRANCH   3   4
ATOM      4  N   UNL     1      -2.403  10.685   3.615  1.00  0.00    -0.352 N 
ATOM      5  C   UNL     1      -2.246   9.463   3.051  1.00  0.00     0.251 C 
ATOM      6  O   UNL     1      -1.984   9.364   1.858  1.00  0.00    -0.270 OA
ATOM      7  H   UNL     1      -2.995  11.324   3.155  1.00  0.00     0.163 HD
BRANCH   5   8
ATOM      8  C   UNL     1      -2.580   8.293   3.914  1.00  0.00     0.067 C 
ATOM      9  C   UNL     1      -2.323   5.438   1.055  1.00  0.00     0.026 A 
ATOM     10  C   UNL     1      -3.040   5.921  -0.073  1.00  0.00     0.033 A 
ATOM     11  C   UNL     1      -2.531   6.120   2.266  1.00  0.00     0.135 A 
ATOM     12  C   UNL     1      -4.015   6.910   0.020  1.00  0.00     0.042 A 
ATOM     13  C   UNL     1      -3.610   7.037   2.361  1.00  0.00     0.019 A 
ATOM     14  O   UNL     1      -1.692   5.996   3.368  1.00  0.00    -0.475 OA
ATOM     15  Cl  UNL     1      -4.798   7.471  -1.403  1.00  0.00    -0.084 Cl
ATOM     16  C   UNL     1      -4.359   7.424   1.252  1.00  0.00     0.032 A 
ATOM     17  C   UNL     1      -3.788   7.764   3.635  1.00  0.00     0.025 C 
ATOM     18  C   UNL     1      -1.457   7.285   4.093  1.00  0.00     0.314 C 
BRANCH   9  19
ATOM     19  C   UNL     1      -1.598   4.163   0.817  1.00  0.00    -0.015 A 
ATOM     20  C   UNL     1      -1.116   1.598  -0.335  1.00  0.00    -0.048 A 
ATOM     21  C   UNL     1      -0.594   2.755  -0.921  1.00  0.00     0.004 A 
ATOM     22  C   UNL     1      -1.798   1.724   0.883  1.00  0.00     0.004 A 
ATOM     23  C   UNL     1      -0.801   4.010  -0.336  1.00  0.00     0.009 A 
ATOM     24  C   UNL     1      -2.028   2.988   1.456  1.00  0.00     0.009 A 
BRANCH  20  25
ATOM     25  C   UNL     1      -0.956   0.251  -1.012  1.00  0.00     0.038 C 
BRANCH  25  26
ATOM     26  C   UNL     1       0.516  -0.156  -1.225  1.00  0.00    -0.013 C 
ATOM     27  C   UNL     1       1.271  -0.225   0.103  1.00  0.00     0.008 C 
ATOM     28  C   UNL     1       0.618  -1.501  -1.948  1.00  0.00     0.008 C 
ENDBRANCH  25  26
ENDBRANCH  20  25
ENDBRANCH   9  19
BRANCH  18  29
ATOM     29  C   UNL     1      -1.246   7.079   5.611  1.00  0.00     0.429 C 
ATOM     30  F   UNL     1      -1.672   5.868   6.034  1.00  0.00    -0.167 F 
ATOM     31  F   UNL     1       0.061   7.197   5.944  1.00  0.00    -0.167 F 
ATOM     32  F   UNL     1      -1.910   8.003   6.354  1.00  0.00    -0.167 F 
ENDBRANCH  18  29
ENDBRANCH   5   8
ENDBRANCH   3   4
ENDBRANCH   2   3
ENDBRANCH   1   2
BRANCH   1  33
ATOM     33  C   UNL     1      -2.762  14.059   4.722  1.00  0.00     0.002 C 
BRANCH  33  34
ATOM     34  C   UNL     1      -2.427  14.495   6.148  1.00  0.00     0.021 C 
BRANCH  34  35
ATOM     35  C   UNL     1      -1.322  15.541   6.245  1.00  0.00     0.116 C 
BRANCH  35  36
ATOM     36  N   UNL     1      -1.660  16.771   5.544  1.00  0.00    -0.352 N 
ATOM     37  C   UNL     1      -1.551  18.065   5.983  1.00  0.00     0.251 C 
ATOM     38  H   UNL     1      -2.014  16.658   4.632  1.00  0.00     0.163 HD
ATOM     39  O   UNL     1      -2.041  18.984   5.327  1.00  0.00    -0.269 OA
BRANCH  37  40
ATOM     40  C   UNL     1      -0.862  18.346   7.259  1.00  0.00     0.039 A 
ATOM     41  C   UNL     1      -1.464  19.209   8.177  1.00  0.00     0.014 A 
ATOM     42  C   UNL     1       0.363  17.741   7.556  1.00  0.00     0.014 A 
ATOM     43  C   UNL     1      -0.859  19.426   9.416  1.00  0.00     0.010 A 
ATOM     44  C   UNL     1       0.921  17.896   8.820  1.00  0.00     0.010 A 
ATOM     45  C   UNL     1       0.322  18.747   9.761  1.00  0.00    -0.014 A 
BRANCH  45  46
ATOM     46  C   UNL     1       0.939  18.913  11.102  1.00  0.00     0.031 A 
ATOM     47  C   UNL     1       2.322  19.493  11.234  1.00  0.00     0.074 A 
ATOM     48  C   UNL     1       0.286  18.470  12.194  1.00  0.00     0.049 A 
ATOM     49  N   UNL     1       3.038  19.676  12.313  1.00  0.00    -0.248 NA
ATOM     50  C   UNL     1       3.002  19.895   9.991  1.00  0.00     0.031 C 
ATOM     51  C   UNL     1      -1.024  17.814  12.189  1.00  0.00     0.029 A 
ATOM     52  N   UNL     1       0.645  18.479  13.519  1.00  0.00    -0.354 N 
ATOM     53  C   UNL     1       4.260  20.176  11.880  1.00  0.00     0.074 A 
ATOM     54  C   UNL     1       4.202  20.239  10.436  1.00  0.00     0.031 C 
ATOM     55  C   UNL     1      -1.359  17.488  13.447  1.00  0.00     0.029 A 
ATOM     56  C   UNL     1      -0.277  17.880  14.345  1.00  0.00     0.049 A 
ATOM     57  H   UNL     1       1.484  18.876  13.847  1.00  0.00     0.167 HD
ATOM     58  C   UNL     1       5.324  20.574  12.617  1.00  0.00     0.034 A 
ATOM     59  C   UNL     1      -0.251  17.661  15.675  1.00  0.00     0.034 A 
ATOM     60  C   UNL     1       5.362  20.549  14.054  1.00  0.00     0.049 A 
ATOM     61  C   UNL     1       0.926  18.151  16.473  1.00  0.00     0.074 A 
ATOM     62  C   UNL     1       6.355  21.018  14.895  1.00  0.00     0.029 A 
ATOM     63  N   UNL     1       4.372  20.015  14.863  1.00  0.00    -0.354 N 
ATOM     64  N   UNL     1       2.002  18.774  16.059  1.00  0.00    -0.248 NA
ATOM     65  C   UNL     1       0.876  17.944  17.928  1.00  0.00     0.031 C 
ATOM     66  C   UNL     1       5.981  20.736  16.213  1.00  0.00     0.029 A 
ATOM     67  C   UNL     1       4.736  20.129  16.194  1.00  0.00     0.049 A 
ATOM     68  H   UNL     1       3.533  19.613  14.540  1.00  0.00     0.167 HD
ATOM     69  C   UNL     1       2.738  19.066  17.202  1.00  0.00     0.074 A 
ATOM     70  C   UNL     1       1.973  18.572  18.328  1.00  0.00     0.031 C 
ATOM     71  C   UNL     1       3.943  19.678  17.309  1.00  0.00     0.034 A 
BRANCH  58  72
ATOM     72  C   UNL     1       6.525  21.114  11.885  1.00  0.00     0.023 A 
ATOM     73  C   UNL     1       6.451  22.369  11.248  1.00  0.00     0.012 A 
ATOM     74  C   UNL     1       7.747  20.412  11.887  1.00  0.00     0.148 A 
ATOM     75  C   UNL     1       7.562  22.903  10.597  1.00  0.00     0.002 A 
ATOM     76  C   UNL     1       8.863  20.972  11.278  1.00  0.00     0.091 A 
ATOM     77  F   UNL     1       7.793  19.210  12.480  1.00  0.00    -0.205 F 
ATOM     78  C   UNL     1       8.770  22.210  10.622  1.00  0.00     0.022 A 
BRANCH  76  79
ATOM     79  S   UNL     1      10.484  20.200  11.326  1.00  0.00     0.127 S 
ATOM     80  O   UNL     1      10.672  19.823   9.925  1.00  0.00    -0.237 OA
ATOM     81  O   UNL     1      11.334  21.302  11.779  1.00  0.00    -0.237 OA
ATOM     82  O   UNL     1      10.375  19.090  12.261  1.00  0.00    -0.744 OA
ENDBRANCH  76  79
ENDBRANCH  58  72
BRANCH  59  83
ATOM     83  C   UNL     1      -1.400  16.987  16.343  1.00  0.00     0.023 A 
ATOM     84  C   UNL     1      -2.229  17.722  17.213  1.00  0.00     0.012 A 
ATOM     85  C   UNL     1      -1.684  15.627  16.111  1.00  0.00     0.148 A 
ATOM     86  C   UNL     1      -3.296  17.107  17.869  1.00  0.00     0.002 A 
ATOM     87  C   UNL     1      -2.783  15.035  16.722  1.00  0.00     0.091 A 
ATOM     88  F   UNL     1      -0.877  14.942  15.288  1.00  0.00    -0.205 F 
ATOM     89  C   UNL     1      -3.578  15.767  17.617  1.00  0.00     0.022 A 
BRANCH  87  90
ATOM     90  S   UNL     1      -3.299  13.355  16.353  1.00  0.00     0.127 S 
ATOM     91  O   UNL     1      -2.977  12.662  17.598  1.00  0.00    -0.237 OA
ATOM     92  O   UNL     1      -4.729  13.528  16.095  1.00  0.00    -0.237 OA
ATOM     93  O   UNL     1      -2.524  12.953  15.187  1.00  0.00    -0.744 OA
ENDBRANCH  87  90
ENDBRANCH  59  83
BRANCH  71  94
ATOM     94  C   UNL     1       4.499  19.893  18.693  1.00  0.00     0.023 A 
ATOM     95  C   UNL     1       4.971  18.797  19.443  1.00  0.00     0.012 A 
ATOM     96  C   UNL     1       4.616  21.194  19.221  1.00  0.00     0.148 A 
ATOM     97  C   UNL     1       5.515  18.990  20.712  1.00  0.00     0.002 A 
ATOM     98  C   UNL     1       5.209  21.384  20.463  1.00  0.00     0.091 A 
ATOM     99  F   UNL     1       4.146  22.222  18.499  1.00  0.00    -0.205 F 
ATOM    100  C   UNL     1       5.646  20.282  21.216  1.00  0.00     0.022 A 
BRANCH  98 101
ATOM    101  S   UNL     1       5.510  23.017  21.147  1.00  0.00     0.127 S 
ATOM    102  O   UNL     1       4.532  23.070  22.232  1.00  0.00    -0.237 OA
ATOM    103  O   UNL     1       6.902  22.917  21.585  1.00  0.00    -0.237 OA
ATOM    104  O   UNL     1       5.286  23.957  20.057  1.00  0.00    -0.744 OA
ENDBRANCH  98 101
ENDBRANCH  71  94
ENDBRANCH  45  46
ENDBRANCH  37  40
ENDBRANCH  35  36
ENDBRANCH  34  35
ENDBRANCH  33  34
ENDBRANCH   1  33
TORSDOF 20
