REMARK SMILES O=C(NCCCCCCNC(=O)[C@H](CO)NC(=O)[C@H](CS)NC(=O)c1ccc(F)cc1)c1ccc(-c2c3nc(c(-c4cccc(S(=O)(=O)[O-])c4F)c4ccc([nH]4)c(-c4cccc(S(=O)(=O)[O-])c4F)c4nc(c(-c5cccc(S(=O)(=O)[O-])c5F)c5ccc2[nH]5)C=C4)C=C3)cc1
REMARK SMILES IDX 7 1 6 2 5 3 4 4 3 5 1 6 2 7 32 9 33 10 94 11 34 12 93 13
REMARK SMILES IDX 35 14 36 15 37 16 87 17 38 18 92 19 86 20 88 21 39 22 91 23
REMARK SMILES IDX 85 24 84 25 40 27 72 28 52 29 71 30 53 31 56 32 70 33 89 34
REMARK SMILES IDX 54 35 55 36 69 38 90 39 57 40 41 41 42 42 50 43 43 44 45 45
REMARK SMILES IDX 51 46 44 47 46 48 47 49 48 50 49 51 73 52 74 53 82 54 75 55
REMARK SMILES IDX 77 56 83 57 76 58 78 59 79 60 80 61 81 62 58 63 59 64 67 65
REMARK SMILES IDX 60 66 62 67 68 68 61 69 63 70 64 71 65 72 66 73 8 74 9 75
REMARK SMILES IDX 10 76 11 77 12 79 13 80 16 81 17 82 18 84 19 85 22 86 23 87
REMARK SMILES IDX 24 89 25 90 26 91 31 92 27 93 30 94 28 95 29 96 20 97 21 98
REMARK SMILES IDX 14 100 15 101
REMARK H PARENT 3 8 88 26 56 37 10 78 16 83 22 88 21 99 15 102
REMARK Flexibility Score: inf
ROOT
ATOM      1  C   UNL     1       9.738   5.768   0.743  1.00  0.00     0.002 C 
ENDROOT
BRANCH   1   2
ATOM      2  C   UNL     1       8.652   4.703   0.536  1.00  0.00     0.002 C 
BRANCH   2   3
ATOM      3  C   UNL     1       9.063   3.500  -0.318  1.00  0.00     0.021 C 
BRANCH   3   4
ATOM      4  C   UNL     1      10.221   2.684   0.247  1.00  0.00     0.116 C 
BRANCH   4   5
ATOM      5  N   UNL     1       9.865   2.044   1.503  1.00  0.00    -0.352 N 
ATOM      6  O   UNL     1       9.316   0.340   2.863  1.00  0.00    -0.269 OA
ATOM      7  C   UNL     1       9.876   0.712   1.835  1.00  0.00     0.251 C 
ATOM      8  H   UNL     1       9.573   2.654   2.219  1.00  0.00     0.163 HD
BRANCH   7   9
ATOM      9  C   UNL     1      10.550  -0.268   0.954  1.00  0.00     0.039 A 
ATOM     10  C   UNL     1      11.799   0.016   0.397  1.00  0.00     0.014 A 
ATOM     11  C   UNL     1       9.946  -1.508   0.723  1.00  0.00     0.014 A 
ATOM     12  C   UNL     1      12.392  -0.891  -0.476  1.00  0.00     0.010 A 
ATOM     13  C   UNL     1      10.578  -2.449  -0.096  1.00  0.00     0.010 A 
ATOM     14  C   UNL     1      11.797  -2.141  -0.716  1.00  0.00    -0.014 A 
BRANCH  14  15
ATOM     15  C   UNL     1      12.525  -3.144  -1.533  1.00  0.00     0.031 A 
ATOM     16  C   UNL     1      12.005  -3.602  -2.864  1.00  0.00     0.074 A 
ATOM     17  C   UNL     1      13.683  -3.638  -1.052  1.00  0.00     0.049 A 
ATOM     18  N   UNL     1      12.556  -4.425  -3.717  1.00  0.00    -0.248 NA
ATOM     19  C   UNL     1      10.698  -3.080  -3.294  1.00  0.00     0.031 C 
ATOM     20  C   UNL     1      14.256  -3.301   0.254  1.00  0.00     0.029 A 
ATOM     21  N   UNL     1      14.587  -4.514  -1.595  1.00  0.00    -0.354 N 
ATOM     22  C   UNL     1      11.657  -4.547  -4.769  1.00  0.00     0.074 A 
ATOM     23  C   UNL     1      10.517  -3.717  -4.444  1.00  0.00     0.031 C 
ATOM     24  C   UNL     1      15.430  -3.931   0.395  1.00  0.00     0.029 A 
ATOM     25  C   UNL     1      15.674  -4.752  -0.787  1.00  0.00     0.049 A 
ATOM     26  H   UNL     1      14.469  -4.933  -2.478  1.00  0.00     0.167 HD
ATOM     27  C   UNL     1      11.784  -5.268  -5.908  1.00  0.00     0.034 A 
ATOM     28  C   UNL     1      16.750  -5.540  -0.972  1.00  0.00     0.034 A 
ATOM     29  C   UNL     1      12.941  -6.059  -6.239  1.00  0.00     0.049 A 
ATOM     30  C   UNL     1      16.882  -6.300  -2.259  1.00  0.00     0.074 A 
ATOM     31  C   UNL     1      13.188  -6.773  -7.398  1.00  0.00     0.029 A 
ATOM     32  N   UNL     1      14.039  -6.246  -5.413  1.00  0.00    -0.354 N 
ATOM     33  N   UNL     1      16.081  -6.299  -3.297  1.00  0.00    -0.248 NA
ATOM     34  C   UNL     1      18.072  -7.147  -2.417  1.00  0.00     0.031 C 
ATOM     35  C   UNL     1      14.430  -7.402  -7.269  1.00  0.00     0.029 A 
ATOM     36  C   UNL     1      14.964  -7.068  -6.034  1.00  0.00     0.049 A 
ATOM     37  H   UNL     1      14.146  -5.851  -4.517  1.00  0.00     0.167 HD
ATOM     38  C   UNL     1      16.673  -7.131  -4.237  1.00  0.00     0.074 A 
ATOM     39  C   UNL     1      17.916  -7.599  -3.656  1.00  0.00     0.031 C 
ATOM     40  C   UNL     1      16.218  -7.490  -5.462  1.00  0.00     0.034 A 
BRANCH  27  41
ATOM     41  C   UNL     1      10.671  -5.199  -6.920  1.00  0.00     0.023 A 
ATOM     42  C   UNL     1      10.542  -4.049  -7.724  1.00  0.00     0.012 A 
ATOM     43  C   UNL     1       9.823  -6.301  -7.148  1.00  0.00     0.148 A 
ATOM     44  C   UNL     1       9.577  -3.989  -8.729  1.00  0.00     0.002 A 
ATOM     45  C   UNL     1       8.887  -6.247  -8.175  1.00  0.00     0.091 A 
ATOM     46  F   UNL     1       9.946  -7.377  -6.358  1.00  0.00    -0.205 F 
ATOM     47  C   UNL     1       8.759  -5.091  -8.962  1.00  0.00     0.022 A 
BRANCH  45  48
ATOM     48  S   UNL     1       7.840  -7.645  -8.601  1.00  0.00     0.127 S 
ATOM     49  O   UNL     1       6.546  -7.216  -8.072  1.00  0.00    -0.237 OA
ATOM     50  O   UNL     1       7.924  -7.663 -10.062  1.00  0.00    -0.237 OA
ATOM     51  O   UNL     1       8.434  -8.802  -7.947  1.00  0.00    -0.744 OA
ENDBRANCH  45  48
ENDBRANCH  27  41
BRANCH  28  52
ATOM     52  C   UNL     1      17.812  -5.569   0.073  1.00  0.00     0.023 A 
ATOM     53  C   UNL     1      19.042  -4.932  -0.178  1.00  0.00     0.012 A 
ATOM     54  C   UNL     1      17.569  -6.119   1.347  1.00  0.00     0.148 A 
ATOM     55  C   UNL     1      20.011  -4.842   0.822  1.00  0.00     0.002 A 
ATOM     56  C   UNL     1      18.513  -5.972   2.356  1.00  0.00     0.091 A 
ATOM     57  F   UNL     1      16.398  -6.736   1.558  1.00  0.00    -0.205 F 
ATOM     58  C   UNL     1      19.740  -5.345   2.092  1.00  0.00     0.022 A 
BRANCH  56  59
ATOM     59  S   UNL     1      18.180  -6.442   4.058  1.00  0.00     0.127 S 
ATOM     60  O   UNL     1      19.029  -7.620   4.214  1.00  0.00    -0.237 OA
ATOM     61  O   UNL     1      18.627  -5.257   4.792  1.00  0.00    -0.237 OA
ATOM     62  O   UNL     1      16.745  -6.680   4.125  1.00  0.00    -0.744 OA
ENDBRANCH  56  59
ENDBRANCH  28  52
BRANCH  40  63
ATOM     63  C   UNL     1      17.059  -8.437  -6.274  1.00  0.00     0.023 A 
ATOM     64  C   UNL     1      17.068  -9.806  -5.946  1.00  0.00     0.012 A 
ATOM     65  C   UNL     1      17.741  -7.993  -7.424  1.00  0.00     0.148 A 
ATOM     66  C   UNL     1      17.756 -10.720  -6.742  1.00  0.00     0.002 A 
ATOM     67  C   UNL     1      18.390  -8.915  -8.236  1.00  0.00     0.091 A 
ATOM     68  F   UNL     1      17.734  -6.682  -7.706  1.00  0.00    -0.205 F 
ATOM     69  C   UNL     1      18.405 -10.277  -7.893  1.00  0.00     0.022 A 
BRANCH  67  70
ATOM     70  S   UNL     1      19.171  -8.450  -9.786  1.00  0.00     0.127 S 
ATOM     71  O   UNL     1      20.590  -8.540  -9.443  1.00  0.00    -0.237 OA
ATOM     72  O   UNL     1      18.697  -9.489 -10.700  1.00  0.00    -0.237 OA
ATOM     73  O   UNL     1      18.686  -7.111 -10.092  1.00  0.00    -0.744 OA
ENDBRANCH  67  70
ENDBRANCH  40  63
ENDBRANCH  14  15
ENDBRANCH   7   9
ENDBRANCH   4   5
ENDBRANCH   3   4
ENDBRANCH   2   3
ENDBRANCH   1   2
BRANCH   1  74
ATOM     74  C   UNL     1      10.388   6.296  -0.539  1.00  0.00     0.021 C 
BRANCH  74  75
ATOM     75  C   UNL     1       9.399   6.904  -1.528  1.00  0.00     0.116 C 
BRANCH  75  76
ATOM     76  N   UNL     1       8.997   8.246  -1.164  1.00  0.00    -0.354 N 
ATOM     77  C   UNL     1       9.428   9.432  -1.700  1.00  0.00     0.244 C 
ATOM     78  H   UNL     1       8.331   8.316  -0.442  1.00  0.00     0.163 HD
ATOM     79  O   UNL     1       8.902  10.477  -1.315  1.00  0.00    -0.273 OA
BRANCH  77  80
ATOM     80  C   UNL     1      10.493   9.400  -2.814  1.00  0.00     0.197 C 
BRANCH  80  81
ATOM     81  N   UNL     1       9.838   9.071  -4.096  1.00  0.00    -0.340 N 
ATOM     82  C   UNL     1      10.141   8.252  -5.139  1.00  0.00     0.244 C 
ATOM     83  H   UNL     1       8.990   9.555  -4.226  1.00  0.00     0.164 HD
ATOM     84  O   UNL     1       9.407   8.352  -6.131  1.00  0.00    -0.273 OA
BRANCH  82  85
ATOM     85  C   UNL     1      11.174   7.094  -5.090  1.00  0.00     0.181 C 
BRANCH  85  86
ATOM     86  N   UNL     1      12.203   7.236  -4.066  1.00  0.00    -0.339 N 
ATOM     87  C   UNL     1      13.468   7.744  -4.147  1.00  0.00     0.251 C 
ATOM     88  H   UNL     1      11.944   6.913  -3.172  1.00  0.00     0.164 HD
ATOM     89  O   UNL     1      14.080   8.010  -3.116  1.00  0.00    -0.269 OA
BRANCH  87  90
ATOM     90  C   UNL     1      14.133   7.895  -5.453  1.00  0.00     0.040 A 
ATOM     91  C   UNL     1      13.641   8.741  -6.451  1.00  0.00     0.017 A 
ATOM     92  C   UNL     1      15.310   7.161  -5.657  1.00  0.00     0.017 A 
ATOM     93  C   UNL     1      14.303   8.806  -7.679  1.00  0.00     0.040 A 
ATOM     94  C   UNL     1      15.972   7.238  -6.881  1.00  0.00     0.040 A 
ATOM     95  C   UNL     1      15.457   8.053  -7.883  1.00  0.00     0.123 A 
ATOM     96  F   UNL     1      16.086   8.121  -9.063  1.00  0.00    -0.207 F 
ENDBRANCH  87  90
ENDBRANCH  85  86
BRANCH  85  97
ATOM     97  C   UNL     1      10.373   5.775  -4.993  1.00  0.00     0.101 C 
BRANCH  97  98
ATOM     98  S   UNL     1      11.273   4.376  -4.241  1.00  0.00    -0.177 SA
ATOM     99  H   UNL     1      12.348   4.062  -5.013  1.00  0.00     0.102 HD
ENDBRANCH  97  98
ENDBRANCH  85  97
ENDBRANCH  82  85
ENDBRANCH  80  81
BRANCH  80 100
ATOM    100  C   UNL     1      11.184  10.772  -2.905  1.00  0.00     0.191 C 
BRANCH 100 101
ATOM    101  O   UNL     1      12.271  10.744  -3.835  1.00  0.00    -0.394 OA
ATOM    102  H   UNL     1      12.931  10.097  -3.541  1.00  0.00     0.210 HD
ENDBRANCH 100 101
ENDBRANCH  80 100
ENDBRANCH  77  80
ENDBRANCH  75  76
ENDBRANCH  74  75
ENDBRANCH   1  74
TORSDOF 24
