REMARK SMILES COc1ccc([C@H]2[NH2+][C@@H](C(=O)NCCCCCCNC(=O)c3ccc(-c4c5nc(c(-c6cccc(S(=O)(=O)[O-])c6F)c6ccc([nH]6)c(-c6cccc(S(=O)(=O)[O-])c6F)c6nc(c(-c7cccc(S(=O)(=O)[O-])c7F)c7ccc4[nH]7)C=C6)C=C5)cc3)CC3=c4ccccc4=N[C@H]32)cc1Cn1cc([N+](=O)[O-])cn1
REMARK SMILES IDX 15 1 14 2 13 3 12 4 10 5 11 6 9 8 7 9 8 10 94 11 86 14 93 15
REMARK SMILES IDX 85 16 87 17 92 18 88 19 91 20 89 21 90 22 6 23 3 24 4 25
REMARK SMILES IDX 96 26 5 27 95 28 2 29 1 30 97 31 98 32 99 33 105 34 100 35
REMARK SMILES IDX 104 36 101 37 102 38 103 39 16 40 17 41 18 42 19 43 20 44
REMARK SMILES IDX 21 46 22 47 23 48 84 49 24 50 83 51 25 52 26 53 27 54 77 55
REMARK SMILES IDX 28 56 82 57 76 58 78 59 29 60 81 61 75 62 74 63 30 65 62 66
REMARK SMILES IDX 42 67 61 68 43 69 46 70 60 71 79 72 44 73 45 74 59 76 80 77
REMARK SMILES IDX 47 78 31 79 32 80 40 81 33 82 35 83 41 84 34 85 36 86 37 87
REMARK SMILES IDX 38 88 39 89 63 90 64 91 72 92 65 93 67 94 73 95 66 96 68 97
REMARK SMILES IDX 69 98 70 99 71 100 48 101 49 102 57 103 50 104 52 105 58 106
REMARK SMILES IDX 51 107 53 108 54 109 55 110 56 111
REMARK H PARENT 12 7 8 12 8 13 19 45 78 64 46 75
REMARK Flexibility Score: inf
ROOT
ATOM      1  C   UNL     1       3.074  -7.281  -8.733  1.00  0.00     0.002 C 
ENDROOT
BRANCH   1   2
ATOM      2  C   UNL     1       1.653  -7.236  -8.161  1.00  0.00     0.021 C 
BRANCH   2   3
ATOM      3  C   UNL     1       1.480  -7.955  -6.826  1.00  0.00     0.116 C 
BRANCH   3   4
ATOM      4  N   UNL     1       2.363  -7.399  -5.820  1.00  0.00    -0.351 N 
ATOM      5  C   UNL     1       1.992  -6.427  -4.942  1.00  0.00     0.278 C 
ATOM      6  O   UNL     1       2.631  -5.372  -4.968  1.00  0.00    -0.268 OA
ATOM      7  H   UNL     1       3.284  -7.745  -5.768  1.00  0.00     0.163 HD
BRANCH   5   8
ATOM      8  C   UNL     1       0.772  -6.628  -4.012  1.00  0.00     0.277 C 
ATOM      9  C   UNL     1       1.781  -6.631  -1.652  1.00  0.00     0.243 C 
ATOM     10  N   UNL     1       0.987  -5.910  -2.706  1.00  0.00    -0.327 N 
ATOM     11  C   UNL     1       1.206  -8.128  -1.495  1.00  0.00     0.196 C 
ATOM     12  H   UNL     1       1.472  -5.036  -2.912  1.00  0.00     0.347 HD
ATOM     13  H   UNL     1       0.055  -5.801  -2.307  1.00  0.00     0.347 HD
ATOM     14  C   UNL     1       1.178  -8.768  -2.842  1.00  0.00    -0.024 C 
ATOM     15  N   UNL     1       2.000  -9.084  -0.667  1.00  0.00    -0.270 NA
ATOM     16  C   UNL     1       0.313  -8.083  -3.823  1.00  0.00     0.109 C 
ATOM     17  C   UNL     1       2.041  -9.769  -2.941  1.00  0.00     0.002 A 
ATOM     18  C   UNL     1       2.478  -9.918  -1.547  1.00  0.00     0.066 A 
ATOM     19  C   UNL     1       2.576 -10.568  -3.991  1.00  0.00     0.010 A 
ATOM     20  C   UNL     1       3.466 -10.991  -1.286  1.00  0.00     0.028 A 
ATOM     21  C   UNL     1       3.545 -11.451  -3.696  1.00  0.00     0.001 A 
ATOM     22  C   UNL     1       3.981 -11.667  -2.326  1.00  0.00     0.002 A 
BRANCH   9  23
ATOM     23  C   UNL     1       3.318  -6.440  -1.757  1.00  0.00     0.012 A 
ATOM     24  C   UNL     1       6.142  -6.467  -2.022  1.00  0.00     0.123 A 
ATOM     25  C   UNL     1       5.378  -5.459  -2.616  1.00  0.00     0.047 A 
ATOM     26  C   UNL     1       5.553  -7.359  -1.129  1.00  0.00     0.016 A 
ATOM     27  C   UNL     1       3.981  -5.438  -2.465  1.00  0.00     0.014 A 
ATOM     28  C   UNL     1       4.161  -7.264  -1.001  1.00  0.00     0.019 A 
BRANCH  24  29
ATOM     29  O   UNL     1       7.485  -6.493  -2.287  1.00  0.00    -0.496 OA
ATOM     30  C   UNL     1       7.778  -7.446  -3.314  1.00  0.00     0.278 C 
ENDBRANCH  24  29
BRANCH  26  31
ATOM     31  C   UNL     1       6.323  -8.499  -0.495  1.00  0.00     0.183 C 
BRANCH  31  32
ATOM     32  N   UNL     1       6.067  -8.845   0.916  1.00  0.00    -0.261 N 
ATOM     33  C   UNL     1       4.894  -9.166   1.544  1.00  0.00     0.194 A 
ATOM     34  N   UNL     1       7.141  -9.155   1.694  1.00  0.00    -0.174 NA
ATOM     35  C   UNL     1       5.211  -9.579   2.816  1.00  0.00     0.307 A 
ATOM     36  C   UNL     1       6.609  -9.584   2.844  1.00  0.00     0.220 A 
BRANCH  35  37
ATOM     37  N   UNL     1       4.293  -9.958   3.842  1.00  0.00     0.066 N 
ATOM     38  O   UNL     1       4.781 -10.342   4.912  1.00  0.00    -0.258 OA
ATOM     39  O   UNL     1       3.085  -9.869   3.586  1.00  0.00    -0.258 OA
ENDBRANCH  35  37
ENDBRANCH  31  32
ENDBRANCH  26  31
ENDBRANCH   9  23
ENDBRANCH   5   8
ENDBRANCH   3   4
ENDBRANCH   2   3
ENDBRANCH   1   2
BRANCH   1  40
ATOM     40  C   UNL     1       3.683  -8.680  -8.857  1.00  0.00     0.002 C 
BRANCH  40  41
ATOM     41  C   UNL     1       2.838  -9.685  -9.639  1.00  0.00     0.021 C 
BRANCH  41  42
ATOM     42  C   UNL     1       2.432  -9.223 -11.033  1.00  0.00     0.116 C 
BRANCH  42  43
ATOM     43  N   UNL     1       3.582  -9.006 -11.897  1.00  0.00    -0.352 N 
ATOM     44  C   UNL     1       3.810  -9.499 -13.157  1.00  0.00     0.251 C 
ATOM     45  H   UNL     1       4.289  -8.428 -11.529  1.00  0.00     0.163 HD
ATOM     46  O   UNL     1       4.914  -9.369 -13.682  1.00  0.00    -0.269 OA
BRANCH  44  47
ATOM     47  C   UNL     1       2.725 -10.209 -13.864  1.00  0.00     0.039 A 
ATOM     48  C   UNL     1       2.999 -11.435 -14.474  1.00  0.00     0.014 A 
ATOM     49  C   UNL     1       1.432  -9.678 -13.895  1.00  0.00     0.014 A 
ATOM     50  C   UNL     1       1.961 -12.158 -15.064  1.00  0.00     0.010 A 
ATOM     51  C   UNL     1       0.388 -10.436 -14.412  1.00  0.00     0.010 A 
ATOM     52  C   UNL     1       0.641 -11.681 -15.008  1.00  0.00    -0.014 A 
BRANCH  52  53
ATOM     53  C   UNL     1      -0.492 -12.469 -15.557  1.00  0.00     0.031 A 
ATOM     54  C   UNL     1      -1.324 -11.911 -16.680  1.00  0.00     0.074 A 
ATOM     55  C   UNL     1      -0.832 -13.640 -14.983  1.00  0.00     0.049 A 
ATOM     56  N   UNL     1      -2.399 -12.407 -17.234  1.00  0.00    -0.248 NA
ATOM     57  C   UNL     1      -0.910 -10.610 -17.233  1.00  0.00     0.031 C 
ATOM     58  C   UNL     1      -0.148 -14.254 -13.843  1.00  0.00     0.029 A 
ATOM     59  N   UNL     1      -1.858 -14.509 -15.260  1.00  0.00    -0.354 N 
ATOM     60  C   UNL     1      -2.812 -11.466 -18.169  1.00  0.00     0.074 A 
ATOM     61  C   UNL     1      -1.891 -10.354 -18.086  1.00  0.00     0.031 C 
ATOM     62  C   UNL     1      -0.772 -15.397 -13.518  1.00  0.00     0.029 A 
ATOM     63  C   UNL     1      -1.922 -15.580 -14.398  1.00  0.00     0.049 A 
ATOM     64  H   UNL     1      -2.489 -14.379 -16.005  1.00  0.00     0.167 HD
ATOM     65  C   UNL     1      -3.849 -11.531 -19.038  1.00  0.00     0.034 A 
ATOM     66  C   UNL     1      -2.815 -16.586 -14.313  1.00  0.00     0.034 A 
ATOM     67  C   UNL     1      -4.741 -12.654 -19.142  1.00  0.00     0.049 A 
ATOM     68  C   UNL     1      -3.946 -16.647 -15.304  1.00  0.00     0.074 A 
ATOM     69  C   UNL     1      -5.765 -12.856 -20.049  1.00  0.00     0.029 A 
ATOM     70  N   UNL     1      -4.726 -13.758 -18.303  1.00  0.00    -0.354 N 
ATOM     71  N   UNL     1      -4.229 -15.822 -16.282  1.00  0.00    -0.248 NA
ATOM     72  C   UNL     1      -4.861 -17.793 -15.201  1.00  0.00     0.031 C 
ATOM     73  C   UNL     1      -6.395 -14.064 -19.735  1.00  0.00     0.029 A 
ATOM     74  C   UNL     1      -5.734 -14.636 -18.659  1.00  0.00     0.049 A 
ATOM     75  H   UNL     1      -4.092 -13.896 -17.563  1.00  0.00     0.167 HD
ATOM     76  C   UNL     1      -5.328 -16.369 -16.936  1.00  0.00     0.074 A 
ATOM     77  C   UNL     1      -5.650 -17.603 -16.250  1.00  0.00     0.031 C 
ATOM     78  C   UNL     1      -6.013 -15.887 -18.002  1.00  0.00     0.034 A 
BRANCH  65  79
ATOM     79  C   UNL     1      -4.056 -10.367 -19.972  1.00  0.00     0.023 A 
ATOM     80  C   UNL     1      -3.135 -10.132 -21.013  1.00  0.00     0.012 A 
ATOM     81  C   UNL     1      -5.191  -9.541 -19.855  1.00  0.00     0.148 A 
ATOM     82  C   UNL     1      -3.318  -9.069 -21.897  1.00  0.00     0.002 A 
ATOM     83  C   UNL     1      -5.393  -8.515 -20.770  1.00  0.00     0.091 A 
ATOM     84  F   UNL     1      -6.046  -9.768 -18.847  1.00  0.00    -0.205 F 
ATOM     85  C   UNL     1      -4.452  -8.269 -21.782  1.00  0.00     0.022 A 
BRANCH  83  86
ATOM     86  S   UNL     1      -6.862  -7.482 -20.758  1.00  0.00     0.127 S 
ATOM     87  O   UNL     1      -6.314  -6.196 -20.327  1.00  0.00    -0.237 OA
ATOM     88  O   UNL     1      -7.280  -7.527 -22.159  1.00  0.00    -0.237 OA
ATOM     89  O   UNL     1      -7.788  -8.109 -19.826  1.00  0.00    -0.744 OA
ENDBRANCH  83  86
ENDBRANCH  65  79
BRANCH  66  90
ATOM     90  C   UNL     1      -2.647 -17.643 -13.276  1.00  0.00     0.023 A 
ATOM     91  C   UNL     1      -2.287 -18.948 -13.666  1.00  0.00     0.012 A 
ATOM     92  C   UNL     1      -2.813 -17.357 -11.907  1.00  0.00     0.148 A 
ATOM     93  C   UNL     1      -2.128 -19.956 -12.715  1.00  0.00     0.002 A 
ATOM     94  C   UNL     1      -2.596 -18.351 -10.961  1.00  0.00     0.091 A 
ATOM     95  F   UNL     1      -3.163 -16.111 -11.558  1.00  0.00    -0.205 F 
ATOM     96  C   UNL     1      -2.273 -19.656 -11.363  1.00  0.00     0.022 A 
BRANCH  94  97
ATOM     97  S   UNL     1      -2.627 -18.023  -9.195  1.00  0.00     0.127 S 
ATOM     98  O   UNL     1      -3.813 -18.763  -8.774  1.00  0.00    -0.237 OA
ATOM     99  O   UNL     1      -1.353 -18.599  -8.761  1.00  0.00    -0.237 OA
ATOM    100  O   UNL     1      -2.705 -16.575  -9.063  1.00  0.00    -0.744 OA
ENDBRANCH  94  97
ENDBRANCH  66  90
BRANCH  78 101
ATOM    101  C   UNL     1      -7.155 -16.711 -18.538  1.00  0.00     0.023 A 
ATOM    102  C   UNL     1      -8.362 -16.800 -17.818  1.00  0.00     0.012 A 
ATOM    103  C   UNL     1      -7.057 -17.321 -19.805  1.00  0.00     0.148 A 
ATOM    104  C   UNL     1      -9.446 -17.505 -18.340  1.00  0.00     0.002 A 
ATOM    105  C   UNL     1      -8.158 -17.976 -20.341  1.00  0.00     0.091 A 
ATOM    106  F   UNL     1      -5.893 -17.238 -20.465  1.00  0.00    -0.205 F 
ATOM    107  C   UNL     1      -9.349 -18.080 -19.605  1.00  0.00     0.022 A 
BRANCH 105 108
ATOM    108  S   UNL     1      -8.160 -18.658 -22.003  1.00  0.00     0.127 S 
ATOM    109  O   UNL     1      -8.216 -20.095 -21.734  1.00  0.00    -0.237 OA
ATOM    110  O   UNL     1      -9.387 -18.095 -22.566  1.00  0.00    -0.237 OA
ATOM    111  O   UNL     1      -6.933 -18.192 -22.633  1.00  0.00    -0.744 OA
ENDBRANCH 105 108
ENDBRANCH  78 101
ENDBRANCH  52  53
ENDBRANCH  44  47
ENDBRANCH  42  43
ENDBRANCH  41  42
ENDBRANCH  40  41
ENDBRANCH   1  40
TORSDOF 21
