REMARK SMILES O=C(NCCCCCCNC(=O)[C@@H]1CN(C(=O)C2(Cc3ccccc3)CCC2)CCO1)c1ccc(-c2c3nc(c(-c4cccc(S(=O)(=O)[O-])c4F)c4ccc([nH]4)c(-c4cccc(S(=O)(=O)[O-])c4F)c4nc(c(-c5cccc(S(=O)(=O)[O-])c5F)c5ccc2[nH]5)C=C4)C=C3)cc1
REMARK SMILES IDX 7 1 6 2 5 3 4 4 3 5 1 6 2 7 32 9 33 10 94 11 34 12 93 13
REMARK SMILES IDX 35 14 36 15 37 16 87 17 38 18 92 19 86 20 88 21 39 22 91 23
REMARK SMILES IDX 85 24 84 25 40 27 72 28 52 29 71 30 53 31 56 32 70 33 89 34
REMARK SMILES IDX 54 35 55 36 69 38 90 39 57 40 41 41 42 42 50 43 43 44 45 45
REMARK SMILES IDX 51 46 44 47 46 48 47 49 48 50 49 51 73 52 74 53 82 54 75 55
REMARK SMILES IDX 77 56 83 57 76 58 78 59 79 60 80 61 81 62 58 63 59 64 67 65
REMARK SMILES IDX 60 66 62 67 68 68 61 69 63 70 64 71 65 72 66 73 8 74 9 75
REMARK SMILES IDX 10 76 11 77 12 79 13 80 14 81 31 82 15 83 30 84 29 85 16 86
REMARK SMILES IDX 17 87 18 88 26 89 28 90 27 91 19 92 20 93 21 94 25 95 22 96
REMARK SMILES IDX 24 97 23 98
REMARK H PARENT 3 8 88 26 56 37 10 78
REMARK Flexibility Score: inf
ROOT
ATOM      1  C   UNL     1       4.790   2.185   3.894  1.00  0.00     0.002 C 
ENDROOT
BRANCH   1   2
ATOM      2  C   UNL     1       4.202   2.883   2.664  1.00  0.00     0.002 C 
BRANCH   2   3
ATOM      3  C   UNL     1       4.723   2.365   1.323  1.00  0.00     0.021 C 
BRANCH   3   4
ATOM      4  C   UNL     1       4.486   0.877   1.098  1.00  0.00     0.116 C 
BRANCH   4   5
ATOM      5  N   UNL     1       3.069   0.563   1.040  1.00  0.00    -0.352 N 
ATOM      6  O   UNL     1       1.124   0.057   0.023  1.00  0.00    -0.269 OA
ATOM      7  C   UNL     1       2.348   0.028  -0.000  1.00  0.00     0.251 C 
ATOM      8  H   UNL     1       2.555   0.761   1.856  1.00  0.00     0.163 HD
BRANCH   7   9
ATOM      9  C   UNL     1       3.071  -0.570  -1.143  1.00  0.00     0.039 A 
ATOM     10  C   UNL     1       4.164  -1.412  -0.917  1.00  0.00     0.014 A 
ATOM     11  C   UNL     1       2.644  -0.301  -2.445  1.00  0.00     0.014 A 
ATOM     12  C   UNL     1       4.902  -1.891  -1.992  1.00  0.00     0.010 A 
ATOM     13  C   UNL     1       3.334  -0.858  -3.524  1.00  0.00     0.010 A 
ATOM     14  C   UNL     1       4.474  -1.648  -3.306  1.00  0.00    -0.014 A 
BRANCH  14  15
ATOM     15  C   UNL     1       5.149  -2.346  -4.427  1.00  0.00     0.031 A 
ATOM     16  C   UNL     1       5.865  -1.589  -5.508  1.00  0.00     0.074 A 
ATOM     17  C   UNL     1       5.066  -3.691  -4.475  1.00  0.00     0.049 A 
ATOM     18  N   UNL     1       6.471  -2.057  -6.567  1.00  0.00    -0.248 NA
ATOM     19  C   UNL     1       5.905  -0.122  -5.393  1.00  0.00     0.031 C 
ATOM     20  C   UNL     1       4.354  -4.524  -3.500  1.00  0.00     0.029 A 
ATOM     21  N   UNL     1       5.557  -4.593  -5.382  1.00  0.00    -0.354 N 
ATOM     22  C   UNL     1       6.921  -0.948  -7.273  1.00  0.00     0.074 A 
ATOM     23  C   UNL     1       6.530   0.220  -6.514  1.00  0.00     0.031 C 
ATOM     24  C   UNL     1       4.452  -5.810  -3.861  1.00  0.00     0.029 A 
ATOM     25  C   UNL     1       5.173  -5.889  -5.124  1.00  0.00     0.049 A 
ATOM     26  H   UNL     1       6.128  -4.340  -6.143  1.00  0.00     0.167 HD
ATOM     27  C   UNL     1       7.596  -0.915  -8.446  1.00  0.00     0.034 A 
ATOM     28  C   UNL     1       5.337  -7.013  -5.846  1.00  0.00     0.034 A 
ATOM     29  C   UNL     1       8.001  -2.088  -9.178  1.00  0.00     0.049 A 
ATOM     30  C   UNL     1       6.088  -6.937  -7.143  1.00  0.00     0.074 A 
ATOM     31  C   UNL     1       8.779  -2.158 -10.320  1.00  0.00     0.029 A 
ATOM     32  N   UNL     1       7.636  -3.387  -8.863  1.00  0.00    -0.354 N 
ATOM     33  N   UNL     1       6.655  -5.897  -7.705  1.00  0.00    -0.248 NA
ATOM     34  C   UNL     1       6.242  -8.189  -7.895  1.00  0.00     0.031 C 
ATOM     35  C   UNL     1       8.841  -3.494 -10.726  1.00  0.00     0.029 A 
ATOM     36  C   UNL     1       8.139  -4.262  -9.811  1.00  0.00     0.049 A 
ATOM     37  H   UNL     1       7.098  -3.649  -8.081  1.00  0.00     0.167 HD
ATOM     38  C   UNL     1       7.249  -6.372  -8.866  1.00  0.00     0.074 A 
ATOM     39  C   UNL     1       7.003  -7.799  -8.909  1.00  0.00     0.031 C 
ATOM     40  C   UNL     1       7.921  -5.686  -9.821  1.00  0.00     0.034 A 
BRANCH  27  41
ATOM     41  C   UNL     1       7.960   0.425  -9.028  1.00  0.00     0.023 A 
ATOM     42  C   UNL     1       9.001   1.183  -8.457  1.00  0.00     0.012 A 
ATOM     43  C   UNL     1       7.344   0.877 -10.214  1.00  0.00     0.148 A 
ATOM     44  C   UNL     1       9.412   2.379  -9.047  1.00  0.00     0.002 A 
ATOM     45  C   UNL     1       7.788   2.046 -10.819  1.00  0.00     0.091 A 
ATOM     46  F   UNL     1       6.345   0.148 -10.731  1.00  0.00    -0.205 F 
ATOM     47  C   UNL     1       8.815   2.803 -10.232  1.00  0.00     0.022 A 
BRANCH  45  48
ATOM     48  S   UNL     1       7.142   2.633 -12.389  1.00  0.00     0.127 S 
ATOM     49  O   UNL     1       6.457   3.861 -11.984  1.00  0.00    -0.237 OA
ATOM     50  O   UNL     1       8.366   2.845 -13.162  1.00  0.00    -0.237 OA
ATOM     51  O   UNL     1       6.276   1.576 -12.891  1.00  0.00    -0.744 OA
ENDBRANCH  45  48
ENDBRANCH  27  41
BRANCH  28  52
ATOM     52  C   UNL     1       4.765  -8.300  -5.360  1.00  0.00     0.023 A 
ATOM     53  C   UNL     1       5.623  -9.344  -4.968  1.00  0.00     0.012 A 
ATOM     54  C   UNL     1       3.370  -8.483  -5.269  1.00  0.00     0.148 A 
ATOM     55  C   UNL     1       5.102 -10.562  -4.530  1.00  0.00     0.002 A 
ATOM     56  C   UNL     1       2.860  -9.675  -4.771  1.00  0.00     0.091 A 
ATOM     57  F   UNL     1       2.570  -7.482  -5.659  1.00  0.00    -0.205 F 
ATOM     58  C   UNL     1       3.723 -10.724  -4.422  1.00  0.00     0.022 A 
BRANCH  56  59
ATOM     59  S   UNL     1       1.106  -9.912  -4.466  1.00  0.00     0.127 S 
ATOM     60  O   UNL     1       0.737 -10.826  -5.543  1.00  0.00    -0.237 OA
ATOM     61  O   UNL     1       1.110 -10.504  -3.127  1.00  0.00    -0.237 OA
ATOM     62  O   UNL     1       0.516  -8.582  -4.529  1.00  0.00    -0.744 OA
ENDBRANCH  56  59
ENDBRANCH  28  52
BRANCH  40  63
ATOM     63  C   UNL     1       8.464  -6.467 -10.988  1.00  0.00     0.023 A 
ATOM     64  C   UNL     1       7.582  -6.969 -11.965  1.00  0.00     0.012 A 
ATOM     65  C   UNL     1       9.852  -6.635 -11.155  1.00  0.00     0.148 A 
ATOM     66  C   UNL     1       8.072  -7.651 -13.077  1.00  0.00     0.002 A 
ATOM     67  C   UNL     1      10.336  -7.268 -12.291  1.00  0.00     0.091 A 
ATOM     68  F   UNL     1      10.671  -6.163 -10.204  1.00  0.00    -0.205 F 
ATOM     69  C   UNL     1       9.448  -7.788 -13.247  1.00  0.00     0.022 A 
BRANCH  67  70
ATOM     70  S   UNL     1      12.091  -7.409 -12.646  1.00  0.00     0.127 S 
ATOM     71  O   UNL     1      12.299  -8.853 -12.552  1.00  0.00    -0.237 OA
ATOM     72  O   UNL     1      12.175  -6.867 -14.002  1.00  0.00    -0.237 OA
ATOM     73  O   UNL     1      12.774  -6.619 -11.631  1.00  0.00    -0.744 OA
ENDBRANCH  67  70
ENDBRANCH  40  63
ENDBRANCH  14  15
ENDBRANCH   7   9
ENDBRANCH   4   5
ENDBRANCH   3   4
ENDBRANCH   2   3
ENDBRANCH   1   2
BRANCH   1  74
ATOM     74  C   UNL     1       6.320   2.183   3.959  1.00  0.00     0.021 C 
BRANCH  74  75
ATOM     75  C   UNL     1       6.948   3.573   3.917  1.00  0.00     0.116 C 
BRANCH  75  76
ATOM     76  N   UNL     1       6.659   4.310   5.131  1.00  0.00    -0.354 N 
ATOM     77  C   UNL     1       7.519   4.797   6.076  1.00  0.00     0.250 C 
ATOM     78  H   UNL     1       5.705   4.484   5.300  1.00  0.00     0.163 HD
ATOM     79  O   UNL     1       7.034   5.357   7.061  1.00  0.00    -0.272 OA
BRANCH  77  80
ATOM     80  C   UNL     1       9.030   4.617   5.874  1.00  0.00     0.226 C 
ATOM     81  C   UNL     1       9.434   3.233   6.406  1.00  0.00     0.161 C 
ATOM     82  O   UNL     1       9.774   5.644   6.551  1.00  0.00    -0.365 OA
ATOM     83  N   UNL     1      10.883   3.021   6.298  1.00  0.00    -0.337 N 
ATOM     84  C   UNL     1      11.179   5.479   6.321  1.00  0.00     0.183 C 
ATOM     85  C   UNL     1      11.667   4.130   6.851  1.00  0.00     0.148 C 
BRANCH  83  86
ATOM     86  C   UNL     1      11.480   1.754   6.298  1.00  0.00     0.229 C 
ATOM     87  O   UNL     1      12.435   1.565   7.071  1.00  0.00    -0.274 OA
BRANCH  86  88
ATOM     88  C   UNL     1      10.994   0.627   5.291  1.00  0.00     0.053 C 
ATOM     89  C   UNL     1       9.801  -0.226   5.845  1.00  0.00     0.017 C 
ATOM     90  C   UNL     1      10.082   0.952   4.063  1.00  0.00     0.017 C 
ATOM     91  C   UNL     1       9.195  -0.250   4.434  1.00  0.00     0.002 C 
BRANCH  88  92
ATOM     92  C   UNL     1      12.180  -0.301   4.880  1.00  0.00     0.052 C 
BRANCH  92  93
ATOM     93  C   UNL     1      13.108   0.305   3.844  1.00  0.00    -0.047 A 
ATOM     94  C   UNL     1      13.285  -0.343   2.610  1.00  0.00     0.004 A 
ATOM     95  C   UNL     1      13.857   1.462   4.095  1.00  0.00     0.004 A 
ATOM     96  C   UNL     1      14.175   0.159   1.656  1.00  0.00     0.000 A 
ATOM     97  C   UNL     1      14.736   1.972   3.136  1.00  0.00     0.000 A 
ATOM     98  C   UNL     1      14.897   1.319   1.918  1.00  0.00     0.000 A 
ENDBRANCH  92  93
ENDBRANCH  88  92
ENDBRANCH  86  88
ENDBRANCH  83  86
ENDBRANCH  77  80
ENDBRANCH  75  76
ENDBRANCH  74  75
ENDBRANCH   1  74
TORSDOF 20
