REMARK SMILES CC[C@@H]1CCC[C@@](Cc2cccc(O)c2)(C(=O)NCCCCCCNC(=O)c2ccc(-c3c4nc(c(-c5cccc(S(=O)(=O)[O-])c5F)c5ccc([nH]5)c(-c5cccc(S(=O)(=O)[O-])c5F)c5nc(c(-c6cccc(S(=O)(=O)[O-])c6F)c6ccc3[nH]6)C=C5)C=C4)cc2)C1
REMARK SMILES IDX 21 1 20 2 19 3 18 4 16 5 17 6 7 8 3 9 4 10 91 11 5 12 6 13
REMARK SMILES IDX 2 14 1 15 8 16 9 17 10 18 15 19 11 20 13 21 12 22 14 23
REMARK SMILES IDX 22 25 23 26 24 27 25 28 26 29 27 31 28 32 29 33 90 34 30 35
REMARK SMILES IDX 89 36 31 37 32 38 33 39 83 40 34 41 88 42 82 43 84 44 35 45
REMARK SMILES IDX 87 46 81 47 80 48 36 50 68 51 48 52 67 53 49 54 52 55 66 56
REMARK SMILES IDX 85 57 50 58 51 59 65 61 86 62 53 63 37 64 38 65 46 66 39 67
REMARK SMILES IDX 41 68 47 69 40 70 42 71 43 72 44 73 45 74 69 75 70 76 78 77
REMARK SMILES IDX 71 78 73 79 79 80 72 81 74 82 75 83 76 84 77 85 54 86 55 87
REMARK SMILES IDX 63 88 56 89 58 90 64 91 57 92 59 93 60 94 61 95 62 96
REMARK H PARENT 18 7 14 24 25 30 84 49 52 60
REMARK Flexibility Score: inf
ROOT
ATOM      1  C   UNL     1       4.117   4.512   7.407  1.00  0.00     0.002 C 
ENDROOT
BRANCH   1   2
ATOM      2  C   UNL     1       2.696   4.166   6.952  1.00  0.00     0.021 C 
BRANCH   2   3
ATOM      3  C   UNL     1       2.404   4.485   5.492  1.00  0.00     0.116 C 
BRANCH   3   4
ATOM      4  N   UNL     1       2.965   3.533   4.558  1.00  0.00    -0.356 N 
ATOM      5  C   UNL     1       2.487   3.039   3.384  1.00  0.00     0.226 C 
ATOM      6  O   UNL     1       3.342   2.533   2.645  1.00  0.00    -0.274 OA
ATOM      7  H   UNL     1       3.847   3.180   4.818  1.00  0.00     0.163 HD
BRANCH   5   8
ATOM      8  C   UNL     1       0.994   3.098   2.950  1.00  0.00     0.053 C 
ATOM      9  C   UNL     1       0.919   0.542   2.338  1.00  0.00    -0.010 C 
ATOM     10  C   UNL     1       0.080   0.280   3.599  1.00  0.00     0.003 C 
ATOM     11  C   UNL     1       0.777   1.997   1.843  1.00  0.00     0.020 C 
ATOM     12  C   UNL     1       0.231   1.365   4.654  1.00  0.00     0.001 C 
ATOM     13  C   UNL     1      -0.025   2.747   4.056  1.00  0.00     0.017 C 
BRANCH   9  14
ATOM     14  C   UNL     1       0.523  -0.489   1.258  1.00  0.00     0.000 C 
ATOM     15  C   UNL     1       1.197  -0.287  -0.091  1.00  0.00     0.004 C 
ENDBRANCH   9  14
BRANCH   8  16
ATOM     16  C   UNL     1       0.700   4.453   2.228  1.00  0.00     0.052 C 
BRANCH  16  17
ATOM     17  C   UNL     1       0.773   5.741   3.009  1.00  0.00    -0.043 A 
ATOM     18  C   UNL     1       1.925   6.542   2.963  1.00  0.00     0.004 A 
ATOM     19  C   UNL     1      -0.308   6.165   3.794  1.00  0.00     0.049 A 
ATOM     20  C   UNL     1       2.011   7.712   3.726  1.00  0.00     0.004 A 
ATOM     21  C   UNL     1      -0.212   7.330   4.550  1.00  0.00     0.115 A 
ATOM     22  C   UNL     1       0.942   8.104   4.531  1.00  0.00     0.046 A 
BRANCH  21  23
ATOM     23  O   UNL     1      -1.283   7.672   5.321  1.00  0.00    -0.508 OA
ATOM     24  H   UNL     1      -1.255   8.450   5.844  1.00  0.00     0.293 HD
ENDBRANCH  21  23
ENDBRANCH  16  17
ENDBRANCH   8  16
ENDBRANCH   5   8
ENDBRANCH   3   4
ENDBRANCH   2   3
ENDBRANCH   1   2
BRANCH   1  25
ATOM     25  C   UNL     1       4.603   5.930   7.075  1.00  0.00     0.002 C 
BRANCH  25  26
ATOM     26  C   UNL     1       3.667   7.076   7.474  1.00  0.00     0.021 C 
BRANCH  26  27
ATOM     27  C   UNL     1       3.311   7.144   8.955  1.00  0.00     0.116 C 
BRANCH  27  28
ATOM     28  N   UNL     1       4.485   7.287   9.798  1.00  0.00    -0.352 N 
ATOM     29  C   UNL     1       4.740   8.184  10.801  1.00  0.00     0.251 C 
ATOM     30  H   UNL     1       5.207   6.641   9.622  1.00  0.00     0.163 HD
ATOM     31  O   UNL     1       5.874   8.249  11.280  1.00  0.00    -0.269 OA
BRANCH  29  32
ATOM     32  C   UNL     1       3.678   9.084  11.301  1.00  0.00     0.039 A 
ATOM     33  C   UNL     1       4.006  10.412  11.590  1.00  0.00     0.014 A 
ATOM     34  C   UNL     1       2.375   8.625  11.516  1.00  0.00     0.014 A 
ATOM     35  C   UNL     1       3.020  11.287  12.050  1.00  0.00     0.010 A 
ATOM     36  C   UNL     1       1.377   9.517  11.904  1.00  0.00     0.010 A 
ATOM     37  C   UNL     1       1.691  10.855  12.186  1.00  0.00    -0.014 A 
BRANCH  37  38
ATOM     38  C   UNL     1       0.623  11.797  12.605  1.00  0.00     0.031 A 
ATOM     39  C   UNL     1      -0.128  11.585  13.891  1.00  0.00     0.074 A 
ATOM     40  C   UNL     1       0.276  12.809  11.786  1.00  0.00     0.049 A 
ATOM     41  N   UNL     1      -1.097  12.297  14.406  1.00  0.00    -0.248 NA
ATOM     42  C   UNL     1       0.237  10.404  14.690  1.00  0.00     0.031 C 
ATOM     43  C   UNL     1       0.863  13.065  10.469  1.00  0.00     0.029 A 
ATOM     44  N   UNL     1      -0.669  13.794  11.927  1.00  0.00    -0.354 N 
ATOM     45  C   UNL     1      -1.476  11.640  15.571  1.00  0.00     0.074 A 
ATOM     46  C   UNL     1      -0.661  10.448  15.663  1.00  0.00     0.031 C 
ATOM     47  C   UNL     1       0.266  14.136   9.924  1.00  0.00     0.029 A 
ATOM     48  C   UNL     1      -0.760  14.628  10.839  1.00  0.00     0.049 A 
ATOM     49  H   UNL     1      -1.228  13.893  12.731  1.00  0.00     0.167 HD
ATOM     50  C   UNL     1      -2.393  12.009  16.497  1.00  0.00     0.034 A 
ATOM     51  C   UNL     1      -1.580  15.670  10.598  1.00  0.00     0.034 A 
ATOM     52  C   UNL     1      -3.180  13.211  16.417  1.00  0.00     0.049 A 
ATOM     53  C   UNL     1      -2.556  16.093  11.660  1.00  0.00     0.074 A 
ATOM     54  C   UNL     1      -4.069  13.723  17.345  1.00  0.00     0.029 A 
ATOM     55  N   UNL     1      -3.182  14.085  15.340  1.00  0.00    -0.354 N 
ATOM     56  N   UNL     1      -2.777  15.557  12.835  1.00  0.00    -0.248 NA
ATOM     57  C   UNL     1      -3.364  17.288  11.382  1.00  0.00     0.031 C 
ATOM     58  C   UNL     1      -4.628  14.893  16.818  1.00  0.00     0.029 A 
ATOM     59  C   UNL     1      -4.066  15.126  15.572  1.00  0.00     0.049 A 
ATOM     60  H   UNL     1      -2.635  13.981  14.528  1.00  0.00     0.167 HD
ATOM     61  C   UNL     1      -3.733  16.360  13.447  1.00  0.00     0.074 A 
ATOM     62  C   UNL     1      -4.026  17.436  12.522  1.00  0.00     0.031 C 
ATOM     63  C   UNL     1      -4.325  16.210  14.659  1.00  0.00     0.034 A 
BRANCH  50  64
ATOM     64  C   UNL     1      -2.552  11.123  17.707  1.00  0.00     0.023 A 
ATOM     65  C   UNL     1      -1.514  11.056  18.660  1.00  0.00     0.012 A 
ATOM     66  C   UNL     1      -3.730  10.380  17.920  1.00  0.00     0.148 A 
ATOM     67  C   UNL     1      -1.624  10.231  19.779  1.00  0.00     0.002 A 
ATOM     68  C   UNL     1      -3.852   9.596  19.062  1.00  0.00     0.091 A 
ATOM     69  F   UNL     1      -4.699  10.436  16.996  1.00  0.00    -0.205 F 
ATOM     70  C   UNL     1      -2.795   9.508  19.984  1.00  0.00     0.022 A 
BRANCH  68  71
ATOM     71  S   UNL     1      -5.353   8.690  19.455  1.00  0.00     0.127 S 
ATOM     72  O   UNL     1      -4.958   7.316  19.147  1.00  0.00    -0.237 OA
ATOM     73  O   UNL     1      -5.519   8.970  20.882  1.00  0.00    -0.237 OA
ATOM     74  O   UNL     1      -6.391   9.253  18.605  1.00  0.00    -0.744 OA
ENDBRANCH  68  71
ENDBRANCH  50  64
BRANCH  51  75
ATOM     75  C   UNL     1      -1.455  16.415   9.315  1.00  0.00     0.023 A 
ATOM     76  C   UNL     1      -0.896  17.707   9.312  1.00  0.00     0.012 A 
ATOM     77  C   UNL     1      -1.822  15.820   8.092  1.00  0.00     0.148 A 
ATOM     78  C   UNL     1      -0.722  18.402   8.114  1.00  0.00     0.002 A 
ATOM     79  C   UNL     1      -1.591  16.493   6.899  1.00  0.00     0.091 A 
ATOM     80  F   UNL     1      -2.360  14.593   8.121  1.00  0.00    -0.205 F 
ATOM     81  C   UNL     1      -1.057  17.791   6.908  1.00  0.00     0.022 A 
BRANCH  79  82
ATOM     82  S   UNL     1      -1.849  15.723   5.297  1.00  0.00     0.127 S 
ATOM     83  O   UNL     1      -2.991  16.477   4.783  1.00  0.00    -0.237 OA
ATOM     84  O   UNL     1      -0.578  15.994   4.625  1.00  0.00    -0.237 OA
ATOM     85  O   UNL     1      -2.092  14.314   5.570  1.00  0.00    -0.744 OA
ENDBRANCH  79  82
ENDBRANCH  51  75
BRANCH  63  86
ATOM     86  C   UNL     1      -5.346  17.242  15.064  1.00  0.00     0.023 A 
ATOM     87  C   UNL     1      -6.607  17.264  14.434  1.00  0.00     0.012 A 
ATOM     88  C   UNL     1      -5.081  18.149  16.110  1.00  0.00     0.148 A 
ATOM     89  C   UNL     1      -7.574  18.194  14.813  1.00  0.00     0.002 A 
ATOM     90  C   UNL     1      -6.067  19.040  16.515  1.00  0.00     0.091 A 
ATOM     91  F   UNL     1      -3.869  18.127  16.684  1.00  0.00    -0.205 F 
ATOM     92  C   UNL     1      -7.309  19.073  15.860  1.00  0.00     0.022 A 
BRANCH  90  93
ATOM     93  S   UNL     1      -5.848  20.146  17.914  1.00  0.00     0.127 S 
ATOM     94  O   UNL     1      -5.681  21.437  17.250  1.00  0.00    -0.237 OA
ATOM     95  O   UNL     1      -7.112  19.989  18.636  1.00  0.00    -0.237 OA
ATOM     96  O   UNL     1      -4.679  19.655  18.633  1.00  0.00    -0.744 OA
ENDBRANCH  90  93
ENDBRANCH  63  86
ENDBRANCH  37  38
ENDBRANCH  29  32
ENDBRANCH  27  28
ENDBRANCH  26  27
ENDBRANCH  25  26
ENDBRANCH   1  25
TORSDOF 20
