REMARK SMILES COc1cccc([C@@H]2[NH2+][C@@](C)(C(=O)NCCCCCCNC(=O)c3ccc(-c4c5nc(c(-c6cccc(S(=O)(=O)[O-])c6F)c6ccc([nH]6)c(-c6cccc(S(=O)(=O)[O-])c6F)c6nc(c(-c7cccc(S(=O)(=O)[O-])c7F)c7ccc4[nH]7)C=C6)C=C5)cc3)[C@@H]3C(=O)N(C)C(=O)[C@@H]32)c1O
REMARK SMILES IDX 18 1 17 2 16 3 15 4 14 5 12 6 13 7 10 9 8 10 9 11 94 12
REMARK SMILES IDX 87 15 92 16 11 17 88 18 90 19 93 20 89 21 91 22 7 23 3 24
REMARK SMILES IDX 4 25 95 26 5 27 6 28 2 29 1 30 96 31 19 33 20 34 21 35 22 36
REMARK SMILES IDX 23 38 24 39 25 40 86 41 26 42 85 43 27 44 28 45 29 46 79 47
REMARK SMILES IDX 30 48 84 49 78 50 80 51 31 52 83 53 77 54 76 55 32 57 64 58
REMARK SMILES IDX 44 59 63 60 45 61 48 62 62 63 81 64 46 65 47 66 61 68 82 69
REMARK SMILES IDX 49 70 33 71 34 72 42 73 35 74 37 75 43 76 36 77 38 78 39 79
REMARK SMILES IDX 40 80 41 81 65 82 66 83 74 84 67 85 69 86 75 87 68 88 70 89
REMARK SMILES IDX 71 90 72 91 73 92 50 93 51 94 59 95 52 96 54 97 60 98 53 99
REMARK SMILES IDX 55 100 56 101 57 102 58 103
REMARK H PARENT 14 8 9 13 9 14 96 32 21 37 80 56 48 67
REMARK Flexibility Score: inf
ROOT
ATOM      1  C   UNL     1      -0.583 -10.145   3.870  1.00  0.00     0.002 C 
ENDROOT
BRANCH   1   2
ATOM      2  C   UNL     1      -1.590  -9.181   4.502  1.00  0.00     0.002 C 
BRANCH   2   3
ATOM      3  C   UNL     1      -1.018  -7.860   5.032  1.00  0.00     0.021 C 
BRANCH   3   4
ATOM      4  C   UNL     1      -0.195  -7.052   4.034  1.00  0.00     0.116 C 
BRANCH   4   5
ATOM      5  N   UNL     1      -0.975  -6.705   2.871  1.00  0.00    -0.351 N 
ATOM      6  C   UNL     1      -0.941  -5.614   2.075  1.00  0.00     0.281 C 
ATOM      7  O   UNL     1      -1.882  -5.529   1.273  1.00  0.00    -0.268 OA
ATOM      8  H   UNL     1      -1.645  -7.378   2.614  1.00  0.00     0.163 HD
BRANCH   6   9
ATOM      9  C   UNL     1       0.170  -4.507   2.152  1.00  0.00     0.185 C 
ATOM     10  C   UNL     1      -1.004  -2.487   2.706  1.00  0.00     0.232 C 
ATOM     11  N   UNL     1      -0.133  -3.549   3.259  1.00  0.00    -0.326 N 
ATOM     12  C   UNL     1      -0.989  -2.606   1.164  1.00  0.00     0.161 C 
ATOM     13  H   UNL     1      -0.614  -4.034   4.017  1.00  0.00     0.347 HD
ATOM     14  H   UNL     1       0.728  -3.149   3.632  1.00  0.00     0.347 HD
ATOM     15  C   UNL     1       0.011  -3.710   0.852  1.00  0.00     0.169 C 
ATOM     16  C   UNL     1      -0.480  -1.473   0.311  1.00  0.00     0.239 C 
ATOM     17  C   UNL     1       1.579  -5.085   2.314  1.00  0.00     0.091 C 
ATOM     18  C   UNL     1       1.204  -2.990   0.298  1.00  0.00     0.240 C 
ATOM     19  N   UNL     1       0.825  -1.721  -0.013  1.00  0.00    -0.285 N 
ATOM     20  O   UNL     1      -1.163  -0.526  -0.051  1.00  0.00    -0.274 OA
ATOM     21  O   UNL     1       2.293  -3.494   0.057  1.00  0.00    -0.274 OA
ATOM     22  C   UNL     1       1.754  -0.769  -0.572  1.00  0.00     0.156 C 
BRANCH  10  23
ATOM     23  C   UNL     1      -0.816  -1.115   3.345  1.00  0.00     0.056 A 
ATOM     24  C   UNL     1       0.027   1.157   3.141  1.00  0.00     0.161 A 
ATOM     25  C   UNL     1      -0.945   1.633   4.009  1.00  0.00     0.050 A 
ATOM     26  C   UNL     1       0.177  -0.219   2.953  1.00  0.00     0.166 A 
ATOM     27  C   UNL     1      -1.790   0.721   4.637  1.00  0.00     0.005 A 
ATOM     28  C   UNL     1      -1.752  -0.635   4.277  1.00  0.00     0.014 A 
BRANCH  24  29
ATOM     29  O   UNL     1       0.811   2.054   2.459  1.00  0.00    -0.493 OA
ATOM     30  C   UNL     1       0.190   2.339   1.195  1.00  0.00     0.278 C 
ENDBRANCH  24  29
BRANCH  26  31
ATOM     31  O   UNL     1       1.333  -0.696   2.412  1.00  0.00    -0.504 OA
ATOM     32  H   UNL     1       2.006  -0.101   2.145  1.00  0.00     0.293 HD
ENDBRANCH  26  31
ENDBRANCH  10  23
ENDBRANCH   6   9
ENDBRANCH   4   5
ENDBRANCH   3   4
ENDBRANCH   2   3
ENDBRANCH   1   2
BRANCH   1  33
ATOM     33  C   UNL     1       0.624 -10.501   4.737  1.00  0.00     0.021 C 
BRANCH  33  34
ATOM     34  C   UNL     1       0.297 -10.953   6.155  1.00  0.00     0.116 C 
BRANCH  34  35
ATOM     35  N   UNL     1      -0.566 -12.121   6.192  1.00  0.00    -0.352 N 
ATOM     36  C   UNL     1      -0.470 -13.229   6.997  1.00  0.00     0.251 C 
ATOM     37  H   UNL     1      -1.318 -12.118   5.556  1.00  0.00     0.163 HD
ATOM     38  O   UNL     1      -1.212 -14.190   6.817  1.00  0.00    -0.269 OA
BRANCH  36  39
ATOM     39  C   UNL     1       0.555 -13.265   8.062  1.00  0.00     0.039 A 
ATOM     40  C   UNL     1       1.371 -14.393   8.171  1.00  0.00     0.014 A 
ATOM     41  C   UNL     1       0.725 -12.182   8.929  1.00  0.00     0.014 A 
ATOM     42  C   UNL     1       2.396 -14.413   9.119  1.00  0.00     0.010 A 
ATOM     43  C   UNL     1       1.792 -12.175   9.822  1.00  0.00     0.010 A 
ATOM     44  C   UNL     1       2.633 -13.293   9.933  1.00  0.00    -0.014 A 
BRANCH  44  45
ATOM     45  C   UNL     1       3.757 -13.272  10.903  1.00  0.00     0.031 A 
ATOM     46  C   UNL     1       3.481 -13.162  12.378  1.00  0.00     0.074 A 
ATOM     47  C   UNL     1       5.026 -13.268  10.451  1.00  0.00     0.049 A 
ATOM     48  N   UNL     1       4.328 -13.081  13.371  1.00  0.00    -0.248 NA
ATOM     49  C   UNL     1       2.068 -13.109  12.791  1.00  0.00     0.031 C 
ATOM     50  C   UNL     1       5.423 -13.288   9.041  1.00  0.00     0.029 A 
ATOM     51  N   UNL     1       6.218 -13.219  11.130  1.00  0.00    -0.354 N 
ATOM     52  C   UNL     1       3.557 -12.931  14.517  1.00  0.00     0.074 A 
ATOM     53  C   UNL     1       2.174 -12.897  14.095  1.00  0.00     0.031 C 
ATOM     54  C   UNL     1       6.763 -13.255   8.960  1.00  0.00     0.029 A 
ATOM     55  C   UNL     1       7.321 -13.184  10.307  1.00  0.00     0.049 A 
ATOM     56  H   UNL     1       6.279 -13.209  12.112  1.00  0.00     0.167 HD
ATOM     57  C   UNL     1       3.960 -12.860  15.808  1.00  0.00     0.034 A 
ATOM     58  C   UNL     1       8.632 -13.100  10.604  1.00  0.00     0.034 A 
ATOM     59  C   UNL     1       5.333 -12.942  16.227  1.00  0.00     0.049 A 
ATOM     60  C   UNL     1       9.054 -13.069  12.048  1.00  0.00     0.074 A 
ATOM     61  C   UNL     1       5.838 -12.974  17.515  1.00  0.00     0.029 A 
ATOM     62  N   UNL     1       6.420 -12.999  15.369  1.00  0.00    -0.354 N 
ATOM     63  N   UNL     1       8.307 -13.094  13.126  1.00  0.00    -0.248 NA
ATOM     64  C   UNL     1      10.498 -13.036  12.319  1.00  0.00     0.031 C 
ATOM     65  C   UNL     1       7.234 -13.028  17.435  1.00  0.00     0.029 A 
ATOM     66  C   UNL     1       7.595 -13.057  16.097  1.00  0.00     0.049 A 
ATOM     67  H   UNL     1       6.364 -12.999  14.386  1.00  0.00     0.167 HD
ATOM     68  C   UNL     1       9.189 -13.117  14.200  1.00  0.00     0.074 A 
ATOM     69  C   UNL     1      10.526 -13.124  13.643  1.00  0.00     0.031 C 
ATOM     70  C   UNL     1       8.917 -13.118  15.529  1.00  0.00     0.034 A 
BRANCH  57  71
ATOM     71  C   UNL     1       2.896 -12.741  16.868  1.00  0.00     0.023 A 
ATOM     72  C   UNL     1       2.071 -13.849  17.151  1.00  0.00     0.012 A 
ATOM     73  C   UNL     1       2.749 -11.560  17.622  1.00  0.00     0.148 A 
ATOM     74  C   UNL     1       1.093 -13.773  18.142  1.00  0.00     0.002 A 
ATOM     75  C   UNL     1       1.802 -11.507  18.638  1.00  0.00     0.091 A 
ATOM     76  F   UNL     1       3.527 -10.510  17.324  1.00  0.00    -0.205 F 
ATOM     77  C   UNL     1       0.966 -12.607  18.892  1.00  0.00     0.022 A 
BRANCH  75  78
ATOM     78  S   UNL     1       1.614 -10.080  19.713  1.00  0.00     0.127 S 
ATOM     79  O   UNL     1       0.337  -9.533  19.255  1.00  0.00    -0.237 OA
ATOM     80  O   UNL     1       1.573 -10.696  21.039  1.00  0.00    -0.237 OA
ATOM     81  O   UNL     1       2.777  -9.239  19.470  1.00  0.00    -0.744 OA
ENDBRANCH  75  78
ENDBRANCH  57  71
BRANCH  58  82
ATOM     82  C   UNL     1       9.645 -13.109   9.511  1.00  0.00     0.023 A 
ATOM     83  C   UNL     1      10.467 -14.240   9.340  1.00  0.00     0.012 A 
ATOM     84  C   UNL     1       9.778 -12.024   8.624  1.00  0.00     0.148 A 
ATOM     85  C   UNL     1      11.425 -14.277   8.326  1.00  0.00     0.002 A 
ATOM     86  C   UNL     1      10.696 -12.089   7.582  1.00  0.00     0.091 A 
ATOM     87  F   UNL     1       8.994 -10.952   8.810  1.00  0.00    -0.205 F 
ATOM     88  C   UNL     1      11.533 -13.207   7.442  1.00  0.00     0.022 A 
BRANCH  86  89
ATOM     89  S   UNL     1      10.809 -10.817   6.319  1.00  0.00     0.127 S 
ATOM     90  O   UNL     1      12.081 -10.180   6.649  1.00  0.00    -0.237 OA
ATOM     91  O   UNL     1      10.817 -11.611   5.090  1.00  0.00    -0.237 OA
ATOM     92  O   UNL     1       9.623  -9.989   6.489  1.00  0.00    -0.744 OA
ENDBRANCH  86  89
ENDBRANCH  58  82
BRANCH  70  93
ATOM     93  C   UNL     1      10.083 -13.162  16.481  1.00  0.00     0.023 A 
ATOM     94  C   UNL     1      10.891 -12.020  16.653  1.00  0.00     0.012 A 
ATOM     95  C   UNL     1      10.330 -14.308  17.262  1.00  0.00     0.148 A 
ATOM     96  C   UNL     1      11.946 -12.030  17.565  1.00  0.00     0.002 A 
ATOM     97  C   UNL     1      11.351 -14.293  18.204  1.00  0.00     0.091 A 
ATOM     98  F   UNL     1       9.561 -15.390  17.070  1.00  0.00    -0.205 F 
ATOM     99  C   UNL     1      12.168 -13.160  18.348  1.00  0.00     0.022 A 
BRANCH  97 100
ATOM    100  S   UNL     1      11.647 -15.667  19.324  1.00  0.00     0.127 S 
ATOM    101  O   UNL     1      12.879 -16.235  18.779  1.00  0.00    -0.237 OA
ATOM    102  O   UNL     1      11.806 -14.990  20.611  1.00  0.00    -0.237 OA
ATOM    103  O   UNL     1      10.470 -16.520  19.232  1.00  0.00    -0.744 OA
ENDBRANCH  97 100
ENDBRANCH  70  93
ENDBRANCH  44  45
ENDBRANCH  36  39
ENDBRANCH  34  35
ENDBRANCH  33  34
ENDBRANCH   1  33
TORSDOF 19
