REMARK SMILES COc1ccc(/C=C/c2cc(OC)cc(OC)c2/C=C/C(=O)NCCCCCCNC(=O)c2ccc(-c3c4nc(c(-c5cccc(S(=O)(=O)[O-])c5F)c5ccc([nH]5)c(-c5cccc(S(=O)(=O)[O-])c5F)c5nc(c(-c6cccc(S(=O)(=O)[O-])c6F)c6ccc3[nH]6)C=C5)C=C4)cc2)cc1
REMARK SMILES IDX 26 1 25 2 24 3 23 4 21 5 22 6 20 8 19 9 18 10 9 11 10 12
REMARK SMILES IDX 11 13 15 14 14 15 8 16 7 17 6 18 3 19 4 20 97 21 5 22 96 23
REMARK SMILES IDX 2 24 1 25 12 26 13 27 16 28 17 29 27 30 28 31 29 32 30 33
REMARK SMILES IDX 31 34 32 36 33 37 34 38 95 39 35 40 94 41 36 42 37 43 38 44
REMARK SMILES IDX 88 45 39 46 93 47 87 48 89 49 40 50 92 51 86 52 85 53 41 55
REMARK SMILES IDX 73 56 53 57 72 58 54 59 57 60 71 61 90 62 55 63 56 64 70 66
REMARK SMILES IDX 91 67 58 68 42 69 43 70 51 71 44 72 46 73 52 74 45 75 47 76
REMARK SMILES IDX 48 77 49 78 50 79 74 80 75 81 83 82 76 83 78 84 84 85 77 86
REMARK SMILES IDX 79 87 80 88 81 89 82 90 59 91 60 92 68 93 61 94 63 95 69 96
REMARK SMILES IDX 62 97 64 98 65 99 66 100 67 101
REMARK H PARENT 23 7 30 35 89 54 57 65
REMARK Flexibility Score: inf
ROOT
ATOM      1  C   UNL     1       3.910   0.760  -5.822  1.00  0.00     0.002 C 
ENDROOT
BRANCH   1   2
ATOM      2  C   UNL     1       3.331   2.177  -5.739  1.00  0.00     0.021 C 
BRANCH   2   3
ATOM      3  C   UNL     1       4.173   3.138  -4.909  1.00  0.00     0.116 C 
BRANCH   3   4
ATOM      4  N   UNL     1       5.380   3.520  -5.611  1.00  0.00    -0.353 N 
ATOM      5  C   UNL     1       5.839   4.769  -5.885  1.00  0.00     0.244 C 
ATOM      6  O   UNL     1       6.916   4.937  -6.446  1.00  0.00    -0.270 OA
ATOM      7  H   UNL     1       5.942   2.778  -5.931  1.00  0.00     0.163 HD
BRANCH   5   8
ATOM      8  C   UNL     1       5.045   5.938  -5.455  1.00  0.00     0.072 C 
ATOM      9  C   UNL     1       3.870   6.220  -6.037  1.00  0.00     0.018 C 
BRANCH   9  10
ATOM     10  C   UNL     1       3.142   7.472  -5.778  1.00  0.00     0.024 A 
ATOM     11  C   UNL     1       1.964   7.421  -4.978  1.00  0.00    -0.011 A 
ATOM     12  C   UNL     1       1.205   8.585  -4.764  1.00  0.00     0.055 A 
ATOM     13  C   UNL     1       1.575   9.796  -5.336  1.00  0.00     0.123 A 
ATOM     14  C   UNL     1       3.525   8.713  -6.338  1.00  0.00     0.130 A 
ATOM     15  C   UNL     1       2.738   9.854  -6.093  1.00  0.00     0.093 A 
BRANCH  11  16
ATOM     16  C   UNL     1       1.410   6.189  -4.374  1.00  0.00     0.009 C 
ATOM     17  C   UNL     1       1.944   5.598  -3.292  1.00  0.00     0.009 C 
BRANCH  17  18
ATOM     18  C   UNL     1       1.456   4.365  -2.636  1.00  0.00    -0.025 A 
ATOM     19  C   UNL     1       0.694   1.953  -1.352  1.00  0.00     0.118 A 
ATOM     20  C   UNL     1      -0.133   2.546  -2.307  1.00  0.00     0.047 A 
ATOM     21  C   UNL     1       1.886   2.586  -1.011  1.00  0.00     0.047 A 
ATOM     22  C   UNL     1       0.240   3.741  -2.940  1.00  0.00     0.012 A 
ATOM     23  C   UNL     1       2.263   3.775  -1.651  1.00  0.00     0.012 A 
BRANCH  19  24
ATOM     24  O   UNL     1       0.258   0.750  -0.869  1.00  0.00    -0.497 OA
ATOM     25  C   UNL     1       1.025   0.162   0.174  1.00  0.00     0.278 C 
ENDBRANCH  19  24
ENDBRANCH  17  18
ENDBRANCH  11  16
BRANCH  13  26
ATOM     26  O   UNL     1       0.734  10.847  -5.098  1.00  0.00    -0.497 OA
ATOM     27  C   UNL     1       0.887  11.979  -5.948  1.00  0.00     0.278 C 
ENDBRANCH  13  26
BRANCH  14  28
ATOM     28  O   UNL     1       4.562   9.048  -7.167  1.00  0.00    -0.496 OA
ATOM     29  C   UNL     1       5.539   8.119  -7.593  1.00  0.00     0.278 C 
ENDBRANCH  14  28
ENDBRANCH   9  10
ENDBRANCH   5   8
ENDBRANCH   3   4
ENDBRANCH   2   3
ENDBRANCH   1   2
BRANCH   1  30
ATOM     30  C   UNL     1       4.156   0.077  -4.471  1.00  0.00     0.002 C 
BRANCH  30  31
ATOM     31  C   UNL     1       2.970   0.119  -3.507  1.00  0.00     0.021 C 
BRANCH  31  32
ATOM     32  C   UNL     1       1.719  -0.590  -4.009  1.00  0.00     0.116 C 
BRANCH  32  33
ATOM     33  N   UNL     1       1.902  -2.031  -4.025  1.00  0.00    -0.352 N 
ATOM     34  C   UNL     1       1.219  -3.001  -3.335  1.00  0.00     0.251 C 
ATOM     35  H   UNL     1       2.619  -2.358  -4.615  1.00  0.00     0.163 HD
ATOM     36  O   UNL     1       1.694  -4.132  -3.262  1.00  0.00    -0.269 OA
BRANCH  34  37
ATOM     37  C   UNL     1      -0.075  -2.698  -2.677  1.00  0.00     0.039 A 
ATOM     38  C   UNL     1      -0.359  -3.299  -1.447  1.00  0.00     0.014 A 
ATOM     39  C   UNL     1      -1.031  -1.877  -3.283  1.00  0.00     0.014 A 
ATOM     40  C   UNL     1      -1.580  -3.049  -0.812  1.00  0.00     0.010 A 
ATOM     41  C   UNL     1      -2.215  -1.569  -2.614  1.00  0.00     0.010 A 
ATOM     42  C   UNL     1      -2.513  -2.167  -1.381  1.00  0.00    -0.014 A 
BRANCH  42  43
ATOM     43  C   UNL     1      -3.807  -1.877  -0.706  1.00  0.00     0.031 A 
ATOM     44  C   UNL     1      -5.108  -2.257  -1.361  1.00  0.00     0.074 A 
ATOM     45  C   UNL     1      -3.818  -1.210   0.467  1.00  0.00     0.049 A 
ATOM     46  N   UNL     1      -6.330  -2.058  -0.938  1.00  0.00    -0.248 NA
ATOM     47  C   UNL     1      -5.032  -2.930  -2.669  1.00  0.00     0.031 C 
ATOM     48  C   UNL     1      -2.631  -0.717   1.163  1.00  0.00     0.029 A 
ATOM     49  N   UNL     1      -4.858  -0.805   1.266  1.00  0.00    -0.354 N 
ATOM     50  C   UNL     1      -7.164  -2.542  -1.939  1.00  0.00     0.074 A 
ATOM     51  C   UNL     1      -6.312  -3.024  -3.003  1.00  0.00     0.031 C 
ATOM     52  C   UNL     1      -3.003  -0.071   2.278  1.00  0.00     0.029 A 
ATOM     53  C   UNL     1      -4.459  -0.078   2.365  1.00  0.00     0.049 A 
ATOM     54  H   UNL     1      -5.800  -1.014   1.072  1.00  0.00     0.167 HD
ATOM     55  C   UNL     1      -8.516  -2.602  -1.959  1.00  0.00     0.034 A 
ATOM     56  C   UNL     1      -5.181   0.527   3.328  1.00  0.00     0.034 A 
ATOM     57  C   UNL     1      -9.359  -2.167  -0.878  1.00  0.00     0.049 A 
ATOM     58  C   UNL     1      -6.680   0.400   3.301  1.00  0.00     0.074 A 
ATOM     59  C   UNL     1     -10.733  -2.284  -0.762  1.00  0.00     0.029 A 
ATOM     60  N   UNL     1      -8.914  -1.520   0.264  1.00  0.00    -0.354 N 
ATOM     61  N   UNL     1      -7.439  -0.220   2.430  1.00  0.00    -0.248 NA
ATOM     62  C   UNL     1      -7.422   1.020   4.409  1.00  0.00     0.031 C 
ATOM     63  C   UNL     1     -11.123  -1.678   0.436  1.00  0.00     0.029 A 
ATOM     64  C   UNL     1      -9.988  -1.218   1.083  1.00  0.00     0.049 A 
ATOM     65  H   UNL     1      -7.974  -1.308   0.463  1.00  0.00     0.167 HD
ATOM     66  C   UNL     1      -8.740  -0.098   2.905  1.00  0.00     0.074 A 
ATOM     67  C   UNL     1      -8.664   0.633   4.152  1.00  0.00     0.031 C 
ATOM     68  C   UNL     1      -9.895  -0.540   2.349  1.00  0.00     0.034 A 
BRANCH  55  69
ATOM     69  C   UNL     1      -9.182  -3.203  -3.168  1.00  0.00     0.023 A 
ATOM     70  C   UNL     1      -9.117  -4.594  -3.382  1.00  0.00     0.012 A 
ATOM     71  C   UNL     1      -9.952  -2.404  -4.036  1.00  0.00     0.148 A 
ATOM     72  C   UNL     1      -9.790  -5.179  -4.454  1.00  0.00     0.002 A 
ATOM     73  C   UNL     1     -10.657  -3.000  -5.075  1.00  0.00     0.091 A 
ATOM     74  F   UNL     1      -9.985  -1.080  -3.825  1.00  0.00    -0.205 F 
ATOM     75  C   UNL     1     -10.569  -4.385  -5.291  1.00  0.00     0.022 A 
BRANCH  73  76
ATOM     76  S   UNL     1     -11.755  -2.079  -6.159  1.00  0.00     0.127 S 
ATOM     77  O   UNL     1     -11.060  -2.186  -7.441  1.00  0.00    -0.237 OA
ATOM     78  O   UNL     1     -12.992  -2.853  -6.068  1.00  0.00    -0.237 OA
ATOM     79  O   UNL     1     -11.833  -0.734  -5.607  1.00  0.00    -0.744 OA
ENDBRANCH  73  76
ENDBRANCH  55  69
BRANCH  56  80
ATOM     80  C   UNL     1      -4.500   1.268   4.428  1.00  0.00     0.023 A 
ATOM     81  C   UNL     1      -4.548   0.764   5.743  1.00  0.00     0.012 A 
ATOM     82  C   UNL     1      -3.805   2.468   4.180  1.00  0.00     0.148 A 
ATOM     83  C   UNL     1      -3.959   1.464   6.797  1.00  0.00     0.002 A 
ATOM     84  C   UNL     1      -3.169   3.129   5.225  1.00  0.00     0.091 A 
ATOM     85  F   UNL     1      -3.778   2.940   2.926  1.00  0.00    -0.205 F 
ATOM     86  C   UNL     1      -3.263   2.641   6.537  1.00  0.00     0.022 A 
BRANCH  84  87
ATOM     87  S   UNL     1      -2.138   4.575   4.959  1.00  0.00     0.127 S 
ATOM     88  O   UNL     1      -2.975   5.643   5.499  1.00  0.00    -0.237 OA
ATOM     89  O   UNL     1      -0.954   4.255   5.760  1.00  0.00    -0.237 OA
ATOM     90  O   UNL     1      -1.892   4.622   3.525  1.00  0.00    -0.744 OA
ENDBRANCH  84  87
ENDBRANCH  56  80
BRANCH  68  91
ATOM     91  C   UNL     1     -11.174  -0.289   3.104  1.00  0.00     0.023 A 
ATOM     92  C   UNL     1     -11.700   1.015   3.186  1.00  0.00     0.012 A 
ATOM     93  C   UNL     1     -11.891  -1.362   3.670  1.00  0.00     0.148 A 
ATOM     94  C   UNL     1     -12.901   1.253   3.851  1.00  0.00     0.002 A 
ATOM     95  C   UNL     1     -13.114  -1.124   4.284  1.00  0.00     0.091 A 
ATOM     96  F   UNL     1     -11.365  -2.593   3.596  1.00  0.00    -0.205 F 
ATOM     97  C   UNL     1     -13.614   0.184   4.389  1.00  0.00     0.022 A 
BRANCH  95  98
ATOM     98  S   UNL     1     -14.147  -2.451   4.915  1.00  0.00     0.127 S 
ATOM     99  O   UNL     1     -14.015  -2.270   6.360  1.00  0.00    -0.237 OA
ATOM    100  O   UNL     1     -15.462  -2.103   4.375  1.00  0.00    -0.237 OA
ATOM    101  O   UNL     1     -13.584  -3.686   4.386  1.00  0.00    -0.744 OA
ENDBRANCH  95  98
ENDBRANCH  68  91
ENDBRANCH  42  43
ENDBRANCH  34  37
ENDBRANCH  32  33
ENDBRANCH  31  32
ENDBRANCH  30  31
ENDBRANCH   1  30
TORSDOF 22
