REMARK SMILES O=C(NCCCCCCNC(=O)c1ccc(-c2c3nc(c(-c4cccc(S(=O)(=O)[O-])c4F)c4ccc([nH]4)c(-c4cccc(S(=O)(=O)[O-])c4F)c4nc(c(-c5cccc(S(=O)(=O)[O-])c5F)c5ccc2[nH]5)C=C4)C=C3)cc1)c1ccc(NS(=O)(=O)C2=Cc3ccccc3CC2)cc1
REMARK SMILES IDX 6 1 5 2 4 3 3 4 1 5 2 6 76 8 77 9 95 10 78 11 94 12 79 13
REMARK SMILES IDX 80 14 81 16 82 17 83 18 84 19 85 20 93 21 86 22 92 23 87 24
REMARK SMILES IDX 91 25 88 26 90 27 89 28 7 29 8 30 9 31 10 32 11 33 12 35
REMARK SMILES IDX 13 36 14 37 75 38 15 39 74 40 16 41 17 42 18 43 68 44 19 45
REMARK SMILES IDX 73 46 67 47 69 48 20 49 72 50 66 51 65 52 21 54 53 55 33 56
REMARK SMILES IDX 52 57 34 58 37 59 51 60 70 61 35 62 36 63 50 65 71 66 38 67
REMARK SMILES IDX 22 68 23 69 31 70 24 71 26 72 32 73 25 74 27 75 28 76 29 77
REMARK SMILES IDX 30 78 54 79 55 80 63 81 56 82 58 83 64 84 57 85 59 86 60 87
REMARK SMILES IDX 61 88 62 89 39 90 40 91 48 92 41 93 43 94 49 95 42 96 44 97
REMARK SMILES IDX 45 98 46 99 47 100
REMARK H PARENT 3 7 80 15 10 34 69 53 37 64
REMARK Flexibility Score: inf
ROOT
ATOM      1  C   UNL     1       4.074   0.760  -3.962  1.00  0.00     0.002 C 
ENDROOT
BRANCH   1   2
ATOM      2  C   UNL     1       4.529  -0.177  -2.840  1.00  0.00     0.021 C 
BRANCH   2   3
ATOM      3  C   UNL     1       4.197   0.291  -1.426  1.00  0.00     0.116 C 
BRANCH   3   4
ATOM      4  N   UNL     1       2.764   0.312  -1.181  1.00  0.00    -0.352 N 
ATOM      5  O   UNL     1       0.850  -0.249  -0.124  1.00  0.00    -0.269 OA
ATOM      6  C   UNL     1       2.075  -0.178  -0.102  1.00  0.00     0.251 C 
ATOM      7  H   UNL     1       2.217   0.734  -1.882  1.00  0.00     0.163 HD
BRANCH   6   8
ATOM      8  C   UNL     1       2.811  -0.615   1.105  1.00  0.00     0.039 A 
ATOM      9  C   UNL     1       3.758   0.224   1.696  1.00  0.00     0.016 A 
ATOM     10  C   UNL     1       2.481  -1.831   1.711  1.00  0.00     0.016 A 
ATOM     11  C   UNL     1       4.394  -0.167   2.874  1.00  0.00     0.027 A 
ATOM     12  C   UNL     1       3.135  -2.225   2.886  1.00  0.00     0.027 A 
ATOM     13  C   UNL     1       4.103  -1.397   3.464  1.00  0.00     0.049 A 
BRANCH  13  14
ATOM     14  N   UNL     1       4.633  -1.718   4.753  1.00  0.00    -0.280 N 
ATOM     15  H   UNL     1       4.027  -1.794   5.524  1.00  0.00     0.180 HD
BRANCH  14  16
ATOM     16  S   UNL     1       6.307  -1.969   4.964  1.00  0.00     0.258 S 
ATOM     17  O   UNL     1       6.485  -1.904   6.400  1.00  0.00    -0.202 OA
ATOM     18  O   UNL     1       6.576  -3.225   4.284  1.00  0.00    -0.202 OA
BRANCH  16  19
ATOM     19  C   UNL     1       7.184  -0.665   4.165  1.00  0.00     0.066 C 
ATOM     20  C   UNL     1       7.709   0.284   4.971  1.00  0.00     0.026 C 
ATOM     21  C   UNL     1       8.034  -1.091   2.992  1.00  0.00     0.055 C 
ATOM     22  C   UNL     1       9.124   0.036   5.373  1.00  0.00    -0.021 A 
ATOM     23  C   UNL     1       9.373  -1.655   3.487  1.00  0.00     0.041 C 
ATOM     24  C   UNL     1       9.665   0.752   6.446  1.00  0.00     0.008 A 
ATOM     25  C   UNL     1       9.919  -0.902   4.681  1.00  0.00    -0.040 A 
ATOM     26  C   UNL     1      10.973   0.504   6.863  1.00  0.00     0.001 A 
ATOM     27  C   UNL     1      11.221  -1.159   5.126  1.00  0.00     0.004 A 
ATOM     28  C   UNL     1      11.743  -0.460   6.214  1.00  0.00     0.000 A 
ENDBRANCH  16  19
ENDBRANCH  14  16
ENDBRANCH  13  14
ENDBRANCH   6   8
ENDBRANCH   3   4
ENDBRANCH   2   3
ENDBRANCH   1   2
BRANCH   1  29
ATOM     29  C   UNL     1       4.595   2.198  -3.883  1.00  0.00     0.002 C 
BRANCH  29  30
ATOM     30  C   UNL     1       6.113   2.354  -3.761  1.00  0.00     0.021 C 
BRANCH  30  31
ATOM     31  C   UNL     1       6.943   1.628  -4.816  1.00  0.00     0.116 C 
BRANCH  31  32
ATOM     32  N   UNL     1       6.620   2.040  -6.171  1.00  0.00    -0.352 N 
ATOM     33  C   UNL     1       7.460   2.375  -7.205  1.00  0.00     0.251 C 
ATOM     34  H   UNL     1       5.659   2.085  -6.380  1.00  0.00     0.163 HD
ATOM     35  O   UNL     1       6.992   2.820  -8.249  1.00  0.00    -0.269 OA
BRANCH  33  36
ATOM     36  C   UNL     1       8.926   2.229  -7.055  1.00  0.00     0.039 A 
ATOM     37  C   UNL     1       9.751   3.273  -7.485  1.00  0.00     0.014 A 
ATOM     38  C   UNL     1       9.490   1.072  -6.509  1.00  0.00     0.014 A 
ATOM     39  C   UNL     1      11.135   3.182  -7.315  1.00  0.00     0.010 A 
ATOM     40  C   UNL     1      10.864   1.008  -6.285  1.00  0.00     0.010 A 
ATOM     41  C   UNL     1      11.701   2.061  -6.688  1.00  0.00    -0.014 A 
BRANCH  41  42
ATOM     42  C   UNL     1      13.162   1.977  -6.431  1.00  0.00     0.031 A 
ATOM     43  C   UNL     1      13.994   0.920  -7.104  1.00  0.00     0.074 A 
ATOM     44  C   UNL     1      13.725   2.799  -5.523  1.00  0.00     0.049 A 
ATOM     45  N   UNL     1      15.264   0.649  -6.950  1.00  0.00    -0.248 NA
ATOM     46  C   UNL     1      13.303   0.034  -8.056  1.00  0.00     0.031 C 
ATOM     47  C   UNL     1      13.010   3.811  -4.742  1.00  0.00     0.029 A 
ATOM     48  N   UNL     1      15.020   2.890  -5.078  1.00  0.00    -0.354 N 
ATOM     49  C   UNL     1      15.520  -0.451  -7.759  1.00  0.00     0.074 A 
ATOM     50  C   UNL     1      14.264  -0.820  -8.377  1.00  0.00     0.031 C 
ATOM     51  C   UNL     1      13.874   4.413  -3.908  1.00  0.00     0.029 A 
ATOM     52  C   UNL     1      15.196   3.819  -4.079  1.00  0.00     0.049 A 
ATOM     53  H   UNL     1      15.754   2.343  -5.440  1.00  0.00     0.167 HD
ATOM     54  C   UNL     1      16.697  -1.078  -7.994  1.00  0.00     0.034 A 
ATOM     55  C   UNL     1      16.296   4.151  -3.374  1.00  0.00     0.034 A 
ATOM     56  C   UNL     1      17.953  -0.682  -7.416  1.00  0.00     0.049 A 
ATOM     57  C   UNL     1      17.603   3.479  -3.696  1.00  0.00     0.074 A 
ATOM     58  C   UNL     1      19.212  -1.209  -7.648  1.00  0.00     0.029 A 
ATOM     59  N   UNL     1      18.112   0.341  -6.494  1.00  0.00    -0.354 N 
ATOM     60  N   UNL     1      17.852   2.543  -4.579  1.00  0.00    -0.248 NA
ATOM     61  C   UNL     1      18.789   3.937  -2.956  1.00  0.00     0.031 C 
ATOM     62  C   UNL     1      20.132  -0.505  -6.862  1.00  0.00     0.029 A 
ATOM     63  C   UNL     1      19.447   0.465  -6.149  1.00  0.00     0.049 A 
ATOM     64  H   UNL     1      17.383   0.898  -6.137  1.00  0.00     0.167 HD
ATOM     65  C   UNL     1      19.224   2.321  -4.523  1.00  0.00     0.074 A 
ATOM     66  C   UNL     1      19.756   3.239  -3.537  1.00  0.00     0.031 C 
ATOM     67  C   UNL     1      19.971   1.424  -5.212  1.00  0.00     0.034 A 
BRANCH  54  68
ATOM     68  C   UNL     1      16.696  -2.217  -8.979  1.00  0.00     0.023 A 
ATOM     69  C   UNL     1      16.564  -1.934 -10.354  1.00  0.00     0.012 A 
ATOM     70  C   UNL     1      16.883  -3.549  -8.562  1.00  0.00     0.148 A 
ATOM     71  C   UNL     1      16.587  -2.960 -11.297  1.00  0.00     0.002 A 
ATOM     72  C   UNL     1      16.945  -4.563  -9.512  1.00  0.00     0.091 A 
ATOM     73  F   UNL     1      16.984  -3.802  -7.250  1.00  0.00    -0.205 F 
ATOM     74  C   UNL     1      16.788  -4.272 -10.877  1.00  0.00     0.022 A 
BRANCH  72  75
ATOM     75  S   UNL     1      17.270  -6.276  -9.078  1.00  0.00     0.127 S 
ATOM     76  O   UNL     1      15.953  -6.883  -9.265  1.00  0.00    -0.237 OA
ATOM     77  O   UNL     1      18.267  -6.665 -10.076  1.00  0.00    -0.237 OA
ATOM     78  O   UNL     1      17.762  -6.254  -7.708  1.00  0.00    -0.744 OA
ENDBRANCH  72  75
ENDBRANCH  54  68
BRANCH  55  79
ATOM     79  C   UNL     1      16.217   5.223  -2.342  1.00  0.00     0.023 A 
ATOM     80  C   UNL     1      16.823   6.469  -2.592  1.00  0.00     0.012 A 
ATOM     81  C   UNL     1      15.514   5.031  -1.137  1.00  0.00     0.148 A 
ATOM     82  C   UNL     1      16.755   7.495  -1.649  1.00  0.00     0.002 A 
ATOM     83  C   UNL     1      15.402   6.076  -0.226  1.00  0.00     0.091 A 
ATOM     84  F   UNL     1      14.958   3.833  -0.907  1.00  0.00    -0.205 F 
ATOM     85  C   UNL     1      16.036   7.303  -0.473  1.00  0.00     0.022 A 
BRANCH  83  86
ATOM     86  S   UNL     1      14.374   5.951   1.242  1.00  0.00     0.127 S 
ATOM     87  O   UNL     1      15.368   5.720   2.286  1.00  0.00    -0.237 OA
ATOM     88  O   UNL     1      13.732   7.265   1.282  1.00  0.00    -0.237 OA
ATOM     89  O   UNL     1      13.457   4.851   0.976  1.00  0.00    -0.744 OA
ENDBRANCH  83  86
ENDBRANCH  55  79
BRANCH  67  90
ATOM     90  C   UNL     1      21.453   1.400  -4.947  1.00  0.00     0.023 A 
ATOM     91  C   UNL     1      21.936   0.836  -3.750  1.00  0.00     0.012 A 
ATOM     92  C   UNL     1      22.368   1.863  -5.913  1.00  0.00     0.148 A 
ATOM     93  C   UNL     1      23.307   0.756  -3.507  1.00  0.00     0.002 A 
ATOM     94  C   UNL     1      23.733   1.742  -5.682  1.00  0.00     0.091 A 
ATOM     95  F   UNL     1      21.888   2.417  -7.036  1.00  0.00    -0.205 F 
ATOM     96  C   UNL     1      24.204   1.198  -4.476  1.00  0.00     0.022 A 
BRANCH  94  97
ATOM     97  S   UNL     1      24.958   2.203  -6.913  1.00  0.00     0.127 S 
ATOM     98  O   UNL     1      25.451   3.473  -6.382  1.00  0.00    -0.237 OA
ATOM     99  O   UNL     1      25.914   1.097  -6.834  1.00  0.00    -0.237 OA
ATOM    100  O   UNL     1      24.239   2.286  -8.177  1.00  0.00    -0.744 OA
ENDBRANCH  94  97
ENDBRANCH  67  90
ENDBRANCH  41  42
ENDBRANCH  33  36
ENDBRANCH  31  32
ENDBRANCH  30  31
ENDBRANCH  29  30
ENDBRANCH   1  29
TORSDOF 19
