REMARK SMILES CC[C@@H](C(=O)NCCCCCCNC(=O)c1ccc(-c2c3nc(c(-c4cccc(S(=O)(=O)[O-])c4F)c4ccc([nH]4)c(-c4cccc(S(=O)(=O)[O-])c4F)c4nc(c(-c5cccc(S(=O)(=O)[O-])c5F)c5ccc2[nH]5)C=C4)C=C3)cc1)[N@@H+]1CCc2ccc(N)cc2C1
REMARK SMILES IDX 10 1 9 2 8 3 7 4 6 5 4 6 5 7 3 9 2 10 1 11 79 12 80 13 89 14
REMARK SMILES IDX 81 16 88 17 82 18 87 19 83 20 85 21 84 22 86 23 11 26 12 27
REMARK SMILES IDX 13 28 14 29 15 31 16 32 17 33 78 34 18 35 77 36 19 37 20 38
REMARK SMILES IDX 21 39 71 40 22 41 76 42 70 43 72 44 23 45 75 46 69 47 68 48
REMARK SMILES IDX 24 50 56 51 36 52 55 53 37 54 40 55 54 56 73 57 38 58 39 59
REMARK SMILES IDX 53 61 74 62 41 63 25 64 26 65 34 66 27 67 29 68 35 69 28 70
REMARK SMILES IDX 30 71 31 72 32 73 33 74 57 75 58 76 66 77 59 78 61 79 67 80
REMARK SMILES IDX 60 81 62 82 63 83 64 84 65 85 42 86 43 87 51 88 44 89 46 90
REMARK SMILES IDX 52 91 45 92 47 93 48 94 49 95 50 96
REMARK H PARENT 6 8 79 15 86 24 86 25 13 30 72 49 40 60
REMARK Flexibility Score: inf
ROOT
ATOM      1  C   UNL     1       1.836   3.220  -3.390  1.00  0.00     0.002 C 
ENDROOT
BRANCH   1   2
ATOM      2  C   UNL     1       0.858   2.121  -2.975  1.00  0.00     0.002 C 
BRANCH   2   3
ATOM      3  C   UNL     1       1.455   0.958  -2.180  1.00  0.00     0.021 C 
BRANCH   3   4
ATOM      4  C   UNL     1       2.305   1.334  -0.962  1.00  0.00     0.116 C 
BRANCH   4   5
ATOM      5  N   UNL     1       1.497   1.828   0.140  1.00  0.00    -0.351 N 
ATOM      6  C   UNL     1       1.975   1.760   1.430  1.00  0.00     0.278 C 
ATOM      7  O   UNL     1       2.834   2.571   1.786  1.00  0.00    -0.268 OA
ATOM      8  H   UNL     1       0.607   2.212  -0.035  1.00  0.00     0.163 HD
BRANCH   6   9
ATOM      9  C   UNL     1       1.290   0.765   2.429  1.00  0.00     0.274 C 
BRANCH   9  10
ATOM     10  C   UNL     1       0.596  -0.482   1.815  1.00  0.00     0.072 C 
ATOM     11  C   UNL     1       1.362  -1.285   0.777  1.00  0.00     0.011 C 
ENDBRANCH   9  10
BRANCH   9  12
ATOM     12  N   UNL     1       0.521   1.454   3.554  1.00  0.00    -0.321 N 
ATOM     13  C   UNL     1      -0.721   0.786   3.992  1.00  0.00     0.267 C 
ATOM     14  C   UNL     1       0.202   2.884   3.358  1.00  0.00     0.300 C 
ATOM     15  H   UNL     1       1.227   1.371   4.285  1.00  0.00     0.349 HD
ATOM     16  C   UNL     1      -1.997   1.104   3.167  1.00  0.00     0.097 C 
ATOM     17  C   UNL     1      -0.762   3.059   2.213  1.00  0.00     0.012 A 
ATOM     18  C   UNL     1      -1.763   2.089   2.045  1.00  0.00    -0.033 A 
ATOM     19  C   UNL     1      -0.567   4.052   1.249  1.00  0.00     0.035 A 
ATOM     20  C   UNL     1      -2.446   2.025   0.832  1.00  0.00     0.006 A 
ATOM     21  C   UNL     1      -1.265   4.004   0.044  1.00  0.00     0.032 A 
ATOM     22  C   UNL     1      -2.151   2.945  -0.181  1.00  0.00     0.026 A 
BRANCH  21  23
ATOM     23  N   UNL     1      -0.903   4.859  -0.994  1.00  0.00    -0.399 N 
ATOM     24  H   UNL     1      -1.392   4.831  -1.848  1.00  0.00     0.156 HD
ATOM     25  H   UNL     1      -0.158   5.492  -0.874  1.00  0.00     0.156 HD
ENDBRANCH  21  23
ENDBRANCH   9  12
ENDBRANCH   6   9
ENDBRANCH   4   5
ENDBRANCH   3   4
ENDBRANCH   2   3
ENDBRANCH   1   2
BRANCH   1  26
ATOM     26  C   UNL     1       3.004   2.744  -4.254  1.00  0.00     0.021 C 
BRANCH  26  27
ATOM     27  C   UNL     1       2.598   2.058  -5.553  1.00  0.00     0.116 C 
BRANCH  27  28
ATOM     28  N   UNL     1       1.832   2.926  -6.438  1.00  0.00    -0.352 N 
ATOM     29  C   UNL     1       1.879   2.974  -7.815  1.00  0.00     0.251 C 
ATOM     30  H   UNL     1       1.209   3.550  -6.002  1.00  0.00     0.163 HD
ATOM     31  O   UNL     1       1.274   3.823  -8.443  1.00  0.00    -0.269 OA
BRANCH  29  32
ATOM     32  C   UNL     1       2.718   1.972  -8.503  1.00  0.00     0.039 A 
ATOM     33  C   UNL     1       3.784   2.404  -9.292  1.00  0.00     0.014 A 
ATOM     34  C   UNL     1       2.503   0.612  -8.261  1.00  0.00     0.014 A 
ATOM     35  C   UNL     1       4.684   1.463  -9.793  1.00  0.00     0.010 A 
ATOM     36  C   UNL     1       3.437  -0.314  -8.707  1.00  0.00     0.010 A 
ATOM     37  C   UNL     1       4.537   0.102  -9.474  1.00  0.00    -0.014 A 
BRANCH  37  38
ATOM     38  C   UNL     1       5.537  -0.902  -9.912  1.00  0.00     0.031 A 
ATOM     39  C   UNL     1       5.135  -2.001 -10.855  1.00  0.00     0.074 A 
ATOM     40  C   UNL     1       6.775  -0.881  -9.379  1.00  0.00     0.049 A 
ATOM     41  N   UNL     1       5.848  -2.996 -11.310  1.00  0.00    -0.248 NA
ATOM     42  C   UNL     1       3.738  -2.000 -11.324  1.00  0.00     0.031 C 
ATOM     43  C   UNL     1       7.249   0.076  -8.376  1.00  0.00     0.029 A 
ATOM     44  N   UNL     1       7.851  -1.708  -9.580  1.00  0.00    -0.354 N 
ATOM     45  C   UNL     1       4.983  -3.759 -12.084  1.00  0.00     0.074 A 
ATOM     46  C   UNL     1       3.683  -3.131 -12.013  1.00  0.00     0.031 C 
ATOM     47  C   UNL     1       8.518  -0.220  -8.050  1.00  0.00     0.029 A 
ATOM     48  C   UNL     1       8.942  -1.396  -8.802  1.00  0.00     0.049 A 
ATOM     49  H   UNL     1       7.844  -2.455 -10.222  1.00  0.00     0.167 HD
ATOM     50  C   UNL     1       5.255  -4.865 -12.816  1.00  0.00     0.034 A 
ATOM     51  C   UNL     1      10.145  -1.995  -8.703  1.00  0.00     0.034 A 
ATOM     52  C   UNL     1       6.563  -5.450 -12.927  1.00  0.00     0.049 A 
ATOM     53  C   UNL     1      10.440  -3.183  -9.579  1.00  0.00     0.074 A 
ATOM     54  C   UNL     1       6.970  -6.499 -13.732  1.00  0.00     0.029 A 
ATOM     55  N   UNL     1       7.674  -5.043 -12.206  1.00  0.00    -0.354 N 
ATOM     56  N   UNL     1       9.663  -3.775 -10.453  1.00  0.00    -0.248 NA
ATOM     57  C   UNL     1      11.789  -3.761  -9.486  1.00  0.00     0.031 C 
ATOM     58  C   UNL     1       8.325  -6.739 -13.482  1.00  0.00     0.029 A 
ATOM     59  C   UNL     1       8.765  -5.827 -12.537  1.00  0.00     0.049 A 
ATOM     60  H   UNL     1       7.686  -4.305 -11.555  1.00  0.00     0.167 HD
ATOM     61  C   UNL     1      10.433  -4.775 -11.033  1.00  0.00     0.074 A 
ATOM     62  C   UNL     1      11.748  -4.690 -10.432  1.00  0.00     0.031 C 
ATOM     63  C   UNL     1      10.080  -5.695 -11.965  1.00  0.00     0.034 A 
BRANCH  50  64
ATOM     64  C   UNL     1       4.130  -5.479 -13.605  1.00  0.00     0.023 A 
ATOM     65  C   UNL     1       3.646  -4.818 -14.752  1.00  0.00     0.012 A 
ATOM     66  C   UNL     1       3.599  -6.736 -13.255  1.00  0.00     0.148 A 
ATOM     67  C   UNL     1       2.631  -5.382 -15.523  1.00  0.00     0.002 A 
ATOM     68  C   UNL     1       2.617  -7.312 -14.052  1.00  0.00     0.091 A 
ATOM     69  F   UNL     1       4.057  -7.338 -12.148  1.00  0.00    -0.205 F 
ATOM     70  C   UNL     1       2.125  -6.633 -15.180  1.00  0.00     0.022 A 
BRANCH  68  71
ATOM     71  S   UNL     1       1.952  -8.952 -13.741  1.00  0.00     0.127 S 
ATOM     72  O   UNL     1       0.586  -8.641 -13.322  1.00  0.00    -0.237 OA
ATOM     73  O   UNL     1       2.058  -9.581 -15.058  1.00  0.00    -0.237 OA
ATOM     74  O   UNL     1       2.800  -9.542 -12.715  1.00  0.00    -0.744 OA
ENDBRANCH  68  71
ENDBRANCH  50  64
BRANCH  51  75
ATOM     75  C   UNL     1      11.183  -1.441  -7.786  1.00  0.00     0.023 A 
ATOM     76  C   UNL     1      12.321  -0.813  -8.328  1.00  0.00     0.012 A 
ATOM     77  C   UNL     1      11.038  -1.509  -6.387  1.00  0.00     0.148 A 
ATOM     78  C   UNL     1      13.312  -0.293  -7.494  1.00  0.00     0.002 A 
ATOM     79  C   UNL     1      12.002  -0.940  -5.562  1.00  0.00     0.091 A 
ATOM     80  F   UNL     1       9.956  -2.124  -5.889  1.00  0.00    -0.205 F 
ATOM     81  C   UNL     1      13.148  -0.347  -6.113  1.00  0.00     0.022 A 
BRANCH  79  82
ATOM     82  S   UNL     1      11.799  -0.846  -3.780  1.00  0.00     0.127 S 
ATOM     83  O   UNL     1      12.719  -1.881  -3.318  1.00  0.00    -0.237 OA
ATOM     84  O   UNL     1      12.222   0.527  -3.497  1.00  0.00    -0.237 OA
ATOM     85  O   UNL     1      10.384  -1.094  -3.538  1.00  0.00    -0.744 OA
ENDBRANCH  79  82
ENDBRANCH  51  75
BRANCH  63  86
ATOM     86  C   UNL     1      11.132  -6.676 -12.410  1.00  0.00     0.023 A 
ATOM     87  C   UNL     1      11.523  -7.717 -11.545  1.00  0.00     0.012 A 
ATOM     88  C   UNL     1      11.670  -6.616 -13.710  1.00  0.00     0.148 A 
ATOM     89  C   UNL     1      12.457  -8.666 -11.957  1.00  0.00     0.002 A 
ATOM     90  C   UNL     1      12.564  -7.593 -14.130  1.00  0.00     0.091 A 
ATOM     91  F   UNL     1      11.298  -5.606 -14.511  1.00  0.00    -0.205 F 
ATOM     92  C   UNL     1      12.967  -8.612 -13.252  1.00  0.00     0.022 A 
BRANCH  90  93
ATOM     93  S   UNL     1      13.197  -7.659 -15.810  1.00  0.00     0.127 S 
ATOM     94  O   UNL     1      14.578  -7.218 -15.625  1.00  0.00    -0.237 OA
ATOM     95  O   UNL     1      13.047  -9.075 -16.144  1.00  0.00    -0.237 OA
ATOM     96  O   UNL     1      12.353  -6.763 -16.591  1.00  0.00    -0.744 OA
ENDBRANCH  90  93
ENDBRANCH  63  86
ENDBRANCH  37  38
ENDBRANCH  29  32
ENDBRANCH  27  28
ENDBRANCH  26  27
ENDBRANCH   1  26
TORSDOF 19
