REMARK SMILES NS(=O)(=O)c1ccc(-n2nc(C(=O)NCCCCCCNC(=O)c3ccc(-c4c5nc(c(-c6cccc(S(=O)(=O)[O-])c6F)c6ccc([nH]6)c(-c6cccc(S(=O)(=O)[O-])c6F)c6nc(c(-c7cccc(S(=O)(=O)[O-])c7F)c7ccc4[nH]7)C=C6)C=C5)cc3)cc2-c2cc3ccccc3s2)cc1
REMARK SMILES IDX 17 1 16 2 15 3 14 4 12 5 13 6 11 8 9 9 10 10 88 11 87 12
REMARK SMILES IDX 8 13 5 14 6 15 99 16 7 17 98 18 2 19 3 20 4 21 1 22 89 25
REMARK SMILES IDX 90 26 97 27 91 28 96 29 92 30 95 31 93 32 94 33 18 34 19 35
REMARK SMILES IDX 20 36 21 37 22 38 23 40 24 41 25 42 86 43 26 44 85 45 27 46
REMARK SMILES IDX 28 47 29 48 79 49 30 50 84 51 78 52 80 53 31 54 83 55 77 56
REMARK SMILES IDX 76 57 32 59 64 60 44 61 63 62 45 63 48 64 62 65 81 66 46 67
REMARK SMILES IDX 47 68 61 70 82 71 49 72 33 73 34 74 42 75 35 76 37 77 43 78
REMARK SMILES IDX 36 79 38 80 39 81 40 82 41 83 65 84 66 85 74 86 67 87 69 88
REMARK SMILES IDX 75 89 68 90 70 91 71 92 72 93 73 94 50 95 51 96 59 97 52 98
REMARK SMILES IDX 54 99 60 100 53 101 55 102 56 103 57 104 58 105
REMARK H PARENT 14 7 1 23 1 24 21 39 80 58 48 69
REMARK Flexibility Score: inf
ROOT
ATOM      1  C   UNL     1       2.670  11.770   7.173  1.00  0.00     0.002 C 
ENDROOT
BRANCH   1   2
ATOM      2  C   UNL     1       3.097  10.547   6.346  1.00  0.00     0.021 C 
BRANCH   2   3
ATOM      3  C   UNL     1       2.117   9.374   6.411  1.00  0.00     0.116 C 
BRANCH   3   4
ATOM      4  N   UNL     1       0.941   9.607   5.582  1.00  0.00    -0.351 N 
ATOM      5  C   UNL     1       0.468   8.999   4.432  1.00  0.00     0.271 C 
ATOM      6  O   UNL     1      -0.651   9.354   4.051  1.00  0.00    -0.267 OA
ATOM      7  H   UNL     1       0.371  10.342   5.904  1.00  0.00     0.163 HD
BRANCH   5   8
ATOM      8  C   UNL     1       1.224   7.913   3.779  1.00  0.00     0.151 A 
ATOM      9  N   UNL     1       1.544   5.963   2.930  1.00  0.00    -0.231 N 
ATOM     10  N   UNL     1       0.610   6.947   3.063  1.00  0.00    -0.162 NA
ATOM     11  C   UNL     1       2.697   6.287   3.607  1.00  0.00     0.085 A 
ATOM     12  C   UNL     1       2.606   7.653   3.812  1.00  0.00     0.066 A 
BRANCH   9  13
ATOM     13  C   UNL     1       1.265   4.844   2.111  1.00  0.00     0.065 A 
ATOM     14  C   UNL     1       0.740   2.729   0.375  1.00  0.00     0.082 A 
ATOM     15  C   UNL     1       1.294   2.475   1.635  1.00  0.00     0.024 A 
ATOM     16  C   UNL     1       0.443   4.035  -0.022  1.00  0.00     0.024 A 
ATOM     17  C   UNL     1       1.584   3.539   2.496  1.00  0.00     0.030 A 
ATOM     18  C   UNL     1       0.676   5.089   0.860  1.00  0.00     0.030 A 
BRANCH  14  19
ATOM     19  S   UNL     1       0.416   1.424  -0.769  1.00  0.00     0.238 S 
ATOM     20  O   UNL     1       1.115   1.709  -2.012  1.00  0.00    -0.207 OA
ATOM     21  O   UNL     1      -0.980   1.100  -0.723  1.00  0.00    -0.207 OA
BRANCH  19  22
ATOM     22  N   UNL     1       1.214   0.087  -0.131  1.00  0.00    -0.225 NA
ATOM     23  H   UNL     1       1.072  -0.717  -0.743  1.00  0.00     0.137 HD
ATOM     24  H   UNL     1       0.841  -0.121   0.796  1.00  0.00     0.137 HD
ENDBRANCH  19  22
ENDBRANCH  14  19
ENDBRANCH   9  13
BRANCH  11  25
ATOM     25  C   UNL     1       3.731   5.469   4.172  1.00  0.00     0.054 A 
ATOM     26  C   UNL     1       5.082   5.785   4.169  1.00  0.00     0.031 A 
ATOM     27  S   UNL     1       3.400   4.710   5.697  1.00  0.00    -0.134 S 
ATOM     28  C   UNL     1       5.392   6.303   5.491  1.00  0.00    -0.007 A 
ATOM     29  C   UNL     1       4.462   5.858   6.439  1.00  0.00     0.035 A 
ATOM     30  C   UNL     1       6.357   7.250   5.901  1.00  0.00     0.009 A 
ATOM     31  C   UNL     1       4.438   6.343   7.756  1.00  0.00     0.019 A 
ATOM     32  C   UNL     1       6.302   7.785   7.192  1.00  0.00     0.001 A 
ATOM     33  C   UNL     1       5.348   7.344   8.103  1.00  0.00     0.001 A 
ENDBRANCH  11  25
ENDBRANCH   5   8
ENDBRANCH   3   4
ENDBRANCH   2   3
ENDBRANCH   1   2
BRANCH   1  34
ATOM     34  C   UNL     1       2.464  11.538   8.682  1.00  0.00     0.002 C 
BRANCH  34  35
ATOM     35  C   UNL     1       3.622  10.881   9.449  1.00  0.00     0.021 C 
BRANCH  35  36
ATOM     36  C   UNL     1       4.872  11.741   9.539  1.00  0.00     0.116 C 
BRANCH  36  37
ATOM     37  N   UNL     1       4.696  12.922  10.395  1.00  0.00    -0.352 N 
ATOM     38  C   UNL     1       5.603  13.935  10.657  1.00  0.00     0.251 C 
ATOM     39  H   UNL     1       3.820  13.004  10.838  1.00  0.00     0.163 HD
ATOM     40  O   UNL     1       5.471  14.666  11.633  1.00  0.00    -0.269 OA
BRANCH  38  41
ATOM     41  C   UNL     1       6.734  14.116   9.732  1.00  0.00     0.039 A 
ATOM     42  C   UNL     1       8.029  14.410  10.172  1.00  0.00     0.014 A 
ATOM     43  C   UNL     1       6.470  13.926   8.383  1.00  0.00     0.014 A 
ATOM     44  C   UNL     1       9.067  14.425   9.240  1.00  0.00     0.010 A 
ATOM     45  C   UNL     1       7.508  13.714   7.522  1.00  0.00     0.010 A 
ATOM     46  C   UNL     1       8.795  14.060   7.915  1.00  0.00    -0.014 A 
BRANCH  46  47
ATOM     47  C   UNL     1       9.826  14.019   6.889  1.00  0.00     0.031 A 
ATOM     48  C   UNL     1      10.970  13.104   7.129  1.00  0.00     0.074 A 
ATOM     49  C   UNL     1       9.621  14.585   5.678  1.00  0.00     0.049 A 
ATOM     50  N   UNL     1      12.207  13.436   7.290  1.00  0.00    -0.248 NA
ATOM     51  C   UNL     1      10.713  11.667   7.301  1.00  0.00     0.031 C 
ATOM     52  C   UNL     1       8.407  15.252   5.181  1.00  0.00     0.029 A 
ATOM     53  N   UNL     1      10.392  14.502   4.564  1.00  0.00    -0.354 N 
ATOM     54  C   UNL     1      12.921  12.243   7.371  1.00  0.00     0.074 A 
ATOM     55  C   UNL     1      11.941  11.202   7.551  1.00  0.00     0.031 C 
ATOM     56  C   UNL     1       8.406  15.227   3.832  1.00  0.00     0.029 A 
ATOM     57  C   UNL     1       9.691  14.729   3.385  1.00  0.00     0.049 A 
ATOM     58  H   UNL     1      11.356  14.301   4.589  1.00  0.00     0.167 HD
ATOM     59  C   UNL     1      14.248  12.185   7.067  1.00  0.00     0.034 A 
ATOM     60  C   UNL     1      10.119  14.456   2.132  1.00  0.00     0.034 A 
ATOM     61  C   UNL     1      14.807  13.500   6.882  1.00  0.00     0.049 A 
ATOM     62  C   UNL     1      11.600  14.412   2.183  1.00  0.00     0.074 A 
ATOM     63  C   UNL     1      14.927  14.630   7.665  1.00  0.00     0.029 A 
ATOM     64  N   UNL     1      14.998  13.916   5.585  1.00  0.00    -0.354 N 
ATOM     65  N   UNL     1      12.333  15.453   2.470  1.00  0.00    -0.248 NA
ATOM     66  C   UNL     1      12.248  13.124   2.368  1.00  0.00     0.031 C 
ATOM     67  C   UNL     1      14.686  15.716   6.772  1.00  0.00     0.029 A 
ATOM     68  C   UNL     1      14.499  15.188   5.492  1.00  0.00     0.049 A 
ATOM     69  H   UNL     1      15.414  13.396   4.860  1.00  0.00     0.167 HD
ATOM     70  C   UNL     1      13.324  14.956   3.307  1.00  0.00     0.074 A 
ATOM     71  C   UNL     1      13.299  13.508   3.101  1.00  0.00     0.031 C 
ATOM     72  C   UNL     1      13.856  15.721   4.309  1.00  0.00     0.034 A 
BRANCH  59  73
ATOM     73  C   UNL     1      15.005  10.966   6.606  1.00  0.00     0.023 A 
ATOM     74  C   UNL     1      16.418  11.040   6.608  1.00  0.00     0.012 A 
ATOM     75  C   UNL     1      14.419   9.874   5.932  1.00  0.00     0.148 A 
ATOM     76  C   UNL     1      17.205  10.101   5.934  1.00  0.00     0.002 A 
ATOM     77  C   UNL     1      15.209   8.900   5.329  1.00  0.00     0.091 A 
ATOM     78  F   UNL     1      13.096   9.838   5.749  1.00  0.00    -0.205 F 
ATOM     79  C   UNL     1      16.600   9.024   5.300  1.00  0.00     0.022 A 
BRANCH  77  80
ATOM     80  S   UNL     1      14.480   7.460   4.538  1.00  0.00     0.127 S 
ATOM     81  O   UNL     1      14.611   7.803   3.126  1.00  0.00    -0.237 OA
ATOM     82  O   UNL     1      15.359   6.385   5.000  1.00  0.00    -0.237 OA
ATOM     83  O   UNL     1      13.121   7.384   5.059  1.00  0.00    -0.744 OA
ENDBRANCH  77  80
ENDBRANCH  59  73
BRANCH  60  84
ATOM     84  C   UNL     1       9.322  13.978   0.981  1.00  0.00     0.023 A 
ATOM     85  C   UNL     1       9.832  14.101  -0.324  1.00  0.00     0.012 A 
ATOM     86  C   UNL     1       8.176  13.171   1.177  1.00  0.00     0.148 A 
ATOM     87  C   UNL     1       9.236  13.421  -1.395  1.00  0.00     0.002 A 
ATOM     88  C   UNL     1       7.582  12.507   0.110  1.00  0.00     0.091 A 
ATOM     89  F   UNL     1       7.726  12.972   2.423  1.00  0.00    -0.205 F 
ATOM     90  C   UNL     1       8.115  12.621  -1.179  1.00  0.00     0.022 A 
BRANCH  88  91
ATOM     91  S   UNL     1       6.150  11.443   0.342  1.00  0.00     0.127 S 
ATOM     92  O   UNL     1       5.318  11.789  -0.810  1.00  0.00    -0.237 OA
ATOM     93  O   UNL     1       6.748  10.112   0.292  1.00  0.00    -0.237 OA
ATOM     94  O   UNL     1       5.577  11.827   1.628  1.00  0.00    -0.744 OA
ENDBRANCH  88  91
ENDBRANCH  60  84
BRANCH  72  95
ATOM     95  C   UNL     1      13.501  17.191   4.356  1.00  0.00     0.023 A 
ATOM     96  C   UNL     1      12.173  17.633   4.536  1.00  0.00     0.012 A 
ATOM     97  C   UNL     1      14.538  18.136   4.426  1.00  0.00     0.148 A 
ATOM     98  C   UNL     1      11.881  18.982   4.754  1.00  0.00     0.002 A 
ATOM     99  C   UNL     1      14.249  19.471   4.689  1.00  0.00     0.091 A 
ATOM    100  F   UNL     1      15.799  17.707   4.266  1.00  0.00    -0.205 F 
ATOM    101  C   UNL     1      12.922  19.900   4.844  1.00  0.00     0.022 A 
BRANCH  99 102
ATOM    102  S   UNL     1      15.551  20.678   4.952  1.00  0.00     0.127 S 
ATOM    103  O   UNL     1      15.553  21.405   3.686  1.00  0.00    -0.237 OA
ATOM    104  O   UNL     1      15.048  21.442   6.096  1.00  0.00    -0.237 OA
ATOM    105  O   UNL     1      16.755  19.908   5.239  1.00  0.00    -0.744 OA
ENDBRANCH  99 102
ENDBRANCH  72  95
ENDBRANCH  46  47
ENDBRANCH  38  41
ENDBRANCH  36  37
ENDBRANCH  35  36
ENDBRANCH  34  35
ENDBRANCH   1  34
TORSDOF 20
