REMARK SMILES Cc1ccc(C(=O)NC2CC2)cc1NC(=O)[C@@H]1[C@@H](C(=O)NCCCCCCNC(=O)c2ccc(-c3c4nc(c(-c5cccc(S(=O)(=O)[O-])c5F)c5ccc([nH]5)c(-c5cccc(S(=O)(=O)[O-])c5F)c5nc(c(-c6cccc(S(=O)(=O)[O-])c6F)c6ccc3[nH]6)C=C5)C=C4)cc2)[C@H]2C=C[C@@H]1C2
REMARK SMILES IDX 24 1 23 2 22 3 21 4 19 5 20 6 18 8 17 9 97 10 94 11 96 12
REMARK SMILES IDX 98 13 95 14 15 15 14 16 16 18 13 19 1 20 2 21 3 22 4 23
REMARK SMILES IDX 12 24 5 25 6 26 7 27 8 28 9 30 10 31 11 32 25 33 26 34 27 35
REMARK SMILES IDX 28 36 29 37 30 39 31 40 32 41 93 42 33 43 92 44 34 45 35 46
REMARK SMILES IDX 36 47 86 48 37 49 91 50 85 51 87 52 38 53 90 54 84 55 83 56
REMARK SMILES IDX 39 58 71 59 51 60 70 61 52 62 55 63 69 64 88 65 53 66 54 67
REMARK SMILES IDX 68 69 89 70 56 71 40 72 41 73 49 74 42 75 44 76 50 77 43 78
REMARK SMILES IDX 45 79 46 80 47 81 48 82 72 83 73 84 81 85 74 86 76 87 82 88
REMARK SMILES IDX 75 89 77 90 78 91 79 92 80 93 57 94 58 95 66 96 59 97 61 98
REMARK SMILES IDX 67 99 60 100 62 101 63 102 64 103 65 104
REMARK H PARENT 21 7 14 17 8 29 28 38 87 57 55 68
REMARK Flexibility Score: inf
ROOT
ATOM      1  C   UNL     1      -4.908   9.268  -1.035  1.00  0.00     0.002 C 
ENDROOT
BRANCH   1   2
ATOM      2  C   UNL     1      -3.819   9.069   0.027  1.00  0.00     0.021 C 
BRANCH   2   3
ATOM      3  C   UNL     1      -3.572   7.643   0.510  1.00  0.00     0.116 C 
BRANCH   3   4
ATOM      4  N   UNL     1      -3.052   6.784  -0.526  1.00  0.00    -0.356 N 
ATOM      5  C   UNL     1      -2.125   5.799  -0.489  1.00  0.00     0.224 C 
ATOM      6  O   UNL     1      -1.867   5.267  -1.577  1.00  0.00    -0.275 OA
ATOM      7  H   UNL     1      -3.439   6.942  -1.416  1.00  0.00     0.163 HD
BRANCH   5   8
ATOM      8  C   UNL     1      -1.341   5.397   0.761  1.00  0.00     0.098 C 
ATOM      9  C   UNL     1      -0.953   3.868   0.626  1.00  0.00     0.099 C 
ATOM     10  C   UNL     1      -1.305   3.287   2.020  1.00  0.00     0.025 C 
ATOM     11  C   UNL     1      -1.997   5.412   2.161  1.00  0.00     0.025 C 
ATOM     12  C   UNL     1      -2.813   3.264   2.150  1.00  0.00    -0.027 C 
ATOM     13  C   UNL     1      -1.040   4.484   2.929  1.00  0.00     0.017 C 
ATOM     14  C   UNL     1      -3.229   4.537   2.198  1.00  0.00    -0.027 C 
BRANCH   9  15
ATOM     15  C   UNL     1       0.488   3.598   0.231  1.00  0.00     0.228 C 
ATOM     16  N   UNL     1       0.926   2.338  -0.099  1.00  0.00    -0.326 N 
ATOM     17  H   UNL     1       1.888   2.302  -0.303  1.00  0.00     0.169 HD
ATOM     18  O   UNL     1       1.342   4.489   0.275  1.00  0.00    -0.274 OA
BRANCH  16  19
ATOM     19  C   UNL     1       0.284   1.083  -0.207  1.00  0.00     0.044 A 
ATOM     20  C   UNL     1       2.512  -0.148   0.230  1.00  0.00     0.046 C 
ATOM     21  C   UNL     1       1.018  -0.092   0.041  1.00  0.00    -0.027 A 
ATOM     22  C   UNL     1       0.334  -1.319   0.090  1.00  0.00     0.006 A 
ATOM     23  C   UNL     1      -1.046  -1.385  -0.111  1.00  0.00     0.014 A 
ATOM     24  C   UNL     1      -1.070   0.960  -0.563  1.00  0.00     0.040 A 
ATOM     25  C   UNL     1      -1.776  -0.243  -0.459  1.00  0.00     0.041 A 
BRANCH  25  26
ATOM     26  C   UNL     1      -3.251  -0.425  -0.692  1.00  0.00     0.251 C 
ATOM     27  O   UNL     1      -3.718  -1.567  -0.650  1.00  0.00    -0.269 OA
ATOM     28  N   UNL     1      -4.144   0.604  -0.918  1.00  0.00    -0.349 N 
ATOM     29  H   UNL     1      -5.079   0.316  -1.033  1.00  0.00     0.164 HD
BRANCH  28  30
ATOM     30  C   UNL     1      -3.945   2.003  -1.012  1.00  0.00     0.082 C 
ATOM     31  C   UNL     1      -3.872   2.652  -2.366  1.00  0.00     0.027 C 
ATOM     32  C   UNL     1      -5.009   2.970  -1.443  1.00  0.00     0.027 C 
ENDBRANCH  28  30
ENDBRANCH  25  26
ENDBRANCH  16  19
ENDBRANCH   9  15
ENDBRANCH   5   8
ENDBRANCH   3   4
ENDBRANCH   2   3
ENDBRANCH   1   2
BRANCH   1  33
ATOM     33  C   UNL     1      -6.319   8.742  -0.732  1.00  0.00     0.002 C 
BRANCH  33  34
ATOM     34  C   UNL     1      -6.872   8.969   0.674  1.00  0.00     0.021 C 
BRANCH  34  35
ATOM     35  C   UNL     1      -6.867  10.412   1.153  1.00  0.00     0.116 C 
BRANCH  35  36
ATOM     36  N   UNL     1      -8.139  11.105   1.047  1.00  0.00    -0.352 N 
ATOM     37  C   UNL     1      -8.453  12.390   1.461  1.00  0.00     0.251 C 
ATOM     38  H   UNL     1      -8.871  10.597   0.628  1.00  0.00     0.163 HD
ATOM     39  O   UNL     1      -9.631  12.736   1.505  1.00  0.00    -0.269 OA
BRANCH  37  40
ATOM     40  C   UNL     1      -7.359  13.358   1.735  1.00  0.00     0.039 A 
ATOM     41  C   UNL     1      -7.421  14.615   1.122  1.00  0.00     0.014 A 
ATOM     42  C   UNL     1      -6.191  12.959   2.379  1.00  0.00     0.014 A 
ATOM     43  C   UNL     1      -6.252  15.351   0.935  1.00  0.00     0.010 A 
ATOM     44  C   UNL     1      -5.017  13.625   2.106  1.00  0.00     0.010 A 
ATOM     45  C   UNL     1      -5.044  14.789   1.335  1.00  0.00    -0.014 A 
BRANCH  45  46
ATOM     46  C   UNL     1      -3.737  15.329   1.012  1.00  0.00     0.031 A 
ATOM     47  C   UNL     1      -3.093  16.277   1.934  1.00  0.00     0.074 A 
ATOM     48  C   UNL     1      -3.056  14.834  -0.045  1.00  0.00     0.049 A 
ATOM     49  N   UNL     1      -2.189  17.121   1.575  1.00  0.00    -0.248 NA
ATOM     50  C   UNL     1      -3.446  16.359   3.345  1.00  0.00     0.031 C 
ATOM     51  C   UNL     1      -1.626  14.952  -0.296  1.00  0.00     0.029 A 
ATOM     52  N   UNL     1      -3.569  14.278  -1.219  1.00  0.00    -0.354 N 
ATOM     53  C   UNL     1      -1.655  17.661   2.724  1.00  0.00     0.074 A 
ATOM     54  C   UNL     1      -2.526  17.220   3.790  1.00  0.00     0.031 C 
ATOM     55  C   UNL     1      -1.401  14.751  -1.603  1.00  0.00     0.029 A 
ATOM     56  C   UNL     1      -2.696  14.657  -2.253  1.00  0.00     0.049 A 
ATOM     57  H   UNL     1      -4.382  13.729  -1.305  1.00  0.00     0.167 HD
ATOM     58  C   UNL     1      -0.443  18.280   2.665  1.00  0.00     0.034 A 
ATOM     59  C   UNL     1      -3.075  15.344  -3.369  1.00  0.00     0.034 A 
ATOM     60  C   UNL     1       0.102  18.226   1.303  1.00  0.00     0.049 A 
ATOM     61  C   UNL     1      -2.322  16.648  -3.546  1.00  0.00     0.074 A 
ATOM     62  C   UNL     1       0.989  17.351   0.695  1.00  0.00     0.029 A 
ATOM     63  N   UNL     1      -0.469  18.980   0.289  1.00  0.00    -0.354 N 
ATOM     64  N   UNL     1      -1.528  17.159  -2.647  1.00  0.00    -0.248 NA
ATOM     65  C   UNL     1      -2.422  17.494  -4.730  1.00  0.00     0.031 C 
ATOM     66  C   UNL     1       0.924  17.562  -0.704  1.00  0.00     0.029 A 
ATOM     67  C   UNL     1       0.015  18.577  -0.947  1.00  0.00     0.049 A 
ATOM     68  H   UNL     1      -1.127  19.700   0.427  1.00  0.00     0.167 HD
ATOM     69  C   UNL     1      -1.120  18.412  -3.032  1.00  0.00     0.074 A 
ATOM     70  C   UNL     1      -1.648  18.539  -4.380  1.00  0.00     0.031 C 
ATOM     71  C   UNL     1      -0.434  19.232  -2.172  1.00  0.00     0.034 A 
BRANCH  58  72
ATOM     72  C   UNL     1       0.420  18.627   3.865  1.00  0.00     0.023 A 
ATOM     73  C   UNL     1       1.816  18.715   3.650  1.00  0.00     0.012 A 
ATOM     74  C   UNL     1      -0.014  18.831   5.194  1.00  0.00     0.148 A 
ATOM     75  C   UNL     1       2.734  18.870   4.692  1.00  0.00     0.002 A 
ATOM     76  C   UNL     1       0.904  18.921   6.247  1.00  0.00     0.091 A 
ATOM     77  F   UNL     1      -1.314  19.020   5.444  1.00  0.00    -0.205 F 
ATOM     78  C   UNL     1       2.280  18.933   5.998  1.00  0.00     0.022 A 
BRANCH  76  79
ATOM     79  S   UNL     1       0.400  18.930   7.976  1.00  0.00     0.127 S 
ATOM     80  O   UNL     1       1.248  17.882   8.550  1.00  0.00    -0.237 OA
ATOM     81  O   UNL     1       0.743  20.285   8.400  1.00  0.00    -0.237 OA
ATOM     82  O   UNL     1      -1.022  18.607   7.983  1.00  0.00    -0.744 OA
ENDBRANCH  76  79
ENDBRANCH  58  72
BRANCH  59  83
ATOM     83  C   UNL     1      -4.487  15.091  -3.772  1.00  0.00     0.023 A 
ATOM     84  C   UNL     1      -4.799  13.771  -4.180  1.00  0.00     0.012 A 
ATOM     85  C   UNL     1      -5.526  15.938  -3.354  1.00  0.00     0.148 A 
ATOM     86  C   UNL     1      -6.087  13.260  -4.024  1.00  0.00     0.002 A 
ATOM     87  C   UNL     1      -6.810  15.419  -3.199  1.00  0.00     0.091 A 
ATOM     88  F   UNL     1      -5.231  17.203  -3.027  1.00  0.00    -0.205 F 
ATOM     89  C   UNL     1      -7.082  14.072  -3.493  1.00  0.00     0.022 A 
BRANCH  87  90
ATOM     90  S   UNL     1      -8.131  16.395  -2.468  1.00  0.00     0.127 S 
ATOM     91  O   UNL     1      -8.783  16.941  -3.654  1.00  0.00    -0.237 OA
ATOM     92  O   UNL     1      -8.908  15.384  -1.750  1.00  0.00    -0.237 OA
ATOM     93  O   UNL     1      -7.451  17.348  -1.603  1.00  0.00    -0.744 OA
ENDBRANCH  87  90
ENDBRANCH  59  83
BRANCH  71  94
ATOM     94  C   UNL     1      -0.106  20.710  -2.370  1.00  0.00     0.023 A 
ATOM     95  C   UNL     1      -0.677  21.491  -3.391  1.00  0.00     0.012 A 
ATOM     96  C   UNL     1       0.720  21.408  -1.442  1.00  0.00     0.148 A 
ATOM     97  C   UNL     1      -0.425  22.865  -3.513  1.00  0.00     0.002 A 
ATOM     98  C   UNL     1       0.876  22.791  -1.501  1.00  0.00     0.091 A 
ATOM     99  F   UNL     1       1.398  20.734  -0.503  1.00  0.00    -0.205 F 
ATOM    100  C   UNL     1       0.328  23.521  -2.553  1.00  0.00     0.022 A 
BRANCH  98 101
ATOM    101  S   UNL     1       1.656  23.699  -0.156  1.00  0.00     0.127 S 
ATOM    102  O   UNL     1       3.029  23.831  -0.636  1.00  0.00    -0.237 OA
ATOM    103  O   UNL     1       0.894  24.950  -0.140  1.00  0.00    -0.237 OA
ATOM    104  O   UNL     1       1.461  22.869   1.025  1.00  0.00    -0.744 OA
ENDBRANCH  98 101
ENDBRANCH  71  94
ENDBRANCH  45  46
ENDBRANCH  37  40
ENDBRANCH  35  36
ENDBRANCH  34  35
ENDBRANCH  33  34
ENDBRANCH   1  33
TORSDOF 20
