REMARK SMILES CCCCCC[C@@H](C)N1C[C@H](C(=O)NCCCCCCNC(=O)c2ccc(-c3c4nc(c(-c5cccc(S(=O)(=O)[O-])c5F)c5ccc([nH]5)c(-c5cccc(S(=O)(=O)[O-])c5F)c5nc(c(-c6cccc(S(=O)(=O)[O-])c6F)c6ccc3[nH]6)C=C5)C=C4)cc2)CC1=O
REMARK SMILES IDX 16 1 15 2 14 3 12 4 13 5 11 7 9 8 10 9 88 10 87 11 89 12
REMARK SMILES IDX 7 13 8 14 6 15 5 16 4 17 3 18 2 19 1 20 17 21 18 22 19 23
REMARK SMILES IDX 20 24 21 25 22 26 23 28 24 29 25 30 86 31 26 32 85 33 27 34
REMARK SMILES IDX 28 35 29 36 79 37 30 38 84 39 78 40 80 41 31 42 83 43 77 44
REMARK SMILES IDX 76 45 32 47 64 48 44 49 63 50 45 51 48 52 62 53 81 54 46 55
REMARK SMILES IDX 47 56 61 58 82 59 49 60 33 61 34 62 42 63 35 64 37 65 43 66
REMARK SMILES IDX 36 67 38 68 39 69 40 70 41 71 65 72 66 73 74 74 67 75 69 76
REMARK SMILES IDX 75 77 68 78 70 79 71 80 72 81 73 82 50 83 51 84 59 85 52 86
REMARK SMILES IDX 54 87 60 88 53 89 55 90 56 91 57 92 58 93
REMARK H PARENT 14 6 21 27 80 46 48 57
REMARK Flexibility Score: inf
ROOT
ATOM      1  C   UNL     1      -4.149  -1.639   9.388  1.00  0.00     0.021 C 
ENDROOT
BRANCH   1   2
ATOM      2  C   UNL     1      -3.453  -1.306   8.067  1.00  0.00     0.116 C 
BRANCH   2   3
ATOM      3  N   UNL     1      -4.127  -0.200   7.412  1.00  0.00    -0.356 N 
ATOM      4  C   UNL     1      -3.786   1.117   7.367  1.00  0.00     0.225 C 
ATOM      5  O   UNL     1      -4.635   1.925   6.992  1.00  0.00    -0.275 OA
ATOM      6  H   UNL     1      -4.952  -0.438   6.928  1.00  0.00     0.163 HD
BRANCH   4   7
ATOM      7  C   UNL     1      -2.357   1.516   7.689  1.00  0.00     0.107 C 
ATOM      8  N   UNL     1      -1.627   2.751   5.825  1.00  0.00    -0.339 N 
ATOM      9  C   UNL     1      -1.533   1.428   6.417  1.00  0.00     0.133 C 
ATOM     10  C   UNL     1      -1.966   3.692   6.800  1.00  0.00     0.223 C 
ATOM     11  C   UNL     1      -2.247   2.974   8.094  1.00  0.00     0.115 C 
ATOM     12  O   UNL     1      -1.977   4.911   6.703  1.00  0.00    -0.275 OA
BRANCH   8  13
ATOM     13  C   UNL     1      -1.087   3.048   4.477  1.00  0.00     0.082 C 
ATOM     14  C   UNL     1      -1.411   4.468   3.991  1.00  0.00     0.031 C 
BRANCH  13  15
ATOM     15  C   UNL     1      -1.561   2.007   3.427  1.00  0.00     0.025 C 
BRANCH  15  16
ATOM     16  C   UNL     1      -0.996   2.175   2.008  1.00  0.00     0.002 C 
BRANCH  16  17
ATOM     17  C   UNL     1       0.533   2.121   1.918  1.00  0.00     0.000 C 
BRANCH  17  18
ATOM     18  C   UNL     1       1.152   0.769   2.290  1.00  0.00    -0.000 C 
BRANCH  18  19
ATOM     19  C   UNL     1       0.721  -0.408   1.410  1.00  0.00    -0.003 C 
ATOM     20  C   UNL     1       1.079  -0.227  -0.058  1.00  0.00     0.004 C 
ENDBRANCH  18  19
ENDBRANCH  17  18
ENDBRANCH  16  17
ENDBRANCH  15  16
ENDBRANCH  13  15
ENDBRANCH   8  13
ENDBRANCH   4   7
ENDBRANCH   2   3
ENDBRANCH   1   2
BRANCH   1  21
ATOM     21  C   UNL     1      -5.598  -2.123   9.220  1.00  0.00     0.002 C 
BRANCH  21  22
ATOM     22  C   UNL     1      -5.771  -3.338   8.301  1.00  0.00     0.002 C 
BRANCH  22  23
ATOM     23  C   UNL     1      -4.934  -4.558   8.689  1.00  0.00     0.021 C 
BRANCH  23  24
ATOM     24  C   UNL     1      -5.224  -5.095  10.084  1.00  0.00     0.116 C 
BRANCH  24  25
ATOM     25  N   UNL     1      -6.575  -5.627  10.195  1.00  0.00    -0.352 N 
ATOM     26  C   UNL     1      -6.972  -6.859  10.656  1.00  0.00     0.251 C 
ATOM     27  H   UNL     1      -7.297  -5.026   9.902  1.00  0.00     0.163 HD
ATOM     28  O   UNL     1      -8.131  -7.235  10.511  1.00  0.00    -0.269 OA
BRANCH  26  29
ATOM     29  C   UNL     1      -5.978  -7.733  11.312  1.00  0.00     0.039 A 
ATOM     30  C   UNL     1      -5.872  -9.069  10.919  1.00  0.00     0.014 A 
ATOM     31  C   UNL     1      -5.129  -7.212  12.292  1.00  0.00     0.014 A 
ATOM     32  C   UNL     1      -4.870  -9.872  11.471  1.00  0.00     0.010 A 
ATOM     33  C   UNL     1      -4.085  -7.989  12.778  1.00  0.00     0.010 A 
ATOM     34  C   UNL     1      -3.951  -9.329  12.383  1.00  0.00    -0.014 A 
BRANCH  34  35
ATOM     35  C   UNL     1      -2.850 -10.134  12.969  1.00  0.00     0.031 A 
ATOM     36  C   UNL     1      -2.800 -10.340  14.459  1.00  0.00     0.074 A 
ATOM     37  C   UNL     1      -1.840 -10.570  12.190  1.00  0.00     0.049 A 
ATOM     38  N   UNL     1      -1.855 -10.871  15.189  1.00  0.00    -0.248 NA
ATOM     39  C   UNL     1      -3.954  -9.851  15.234  1.00  0.00     0.031 C 
ATOM     40  C   UNL     1      -1.749 -10.390  10.740  1.00  0.00     0.029 A 
ATOM     41  N   UNL     1      -0.677 -11.223  12.517  1.00  0.00    -0.354 N 
ATOM     42  C   UNL     1      -2.272 -10.728  16.507  1.00  0.00     0.074 A 
ATOM     43  C   UNL     1      -3.543 -10.040  16.479  1.00  0.00     0.031 C 
ATOM     44  C   UNL     1      -0.594 -10.918  10.303  1.00  0.00     0.029 A 
ATOM     45  C   UNL     1       0.158 -11.433  11.444  1.00  0.00     0.049 A 
ATOM     46  H   UNL     1      -0.462 -11.514  13.432  1.00  0.00     0.167 HD
ATOM     47  C   UNL     1      -1.659 -11.147  17.639  1.00  0.00     0.034 A 
ATOM     48  C   UNL     1       1.397 -11.962  11.389  1.00  0.00     0.034 A 
ATOM     49  C   UNL     1      -0.420 -11.874  17.656  1.00  0.00     0.049 A 
ATOM     50  C   UNL     1       2.045 -12.444  12.660  1.00  0.00     0.074 A 
ATOM     51  C   UNL     1       0.235 -12.427  18.741  1.00  0.00     0.029 A 
ATOM     52  N   UNL     1       0.355 -12.141  16.538  1.00  0.00    -0.354 N 
ATOM     53  N   UNL     1       1.577 -12.418  13.884  1.00  0.00    -0.248 NA
ATOM     54  C   UNL     1       3.377 -13.055  12.540  1.00  0.00     0.031 C 
ATOM     55  C   UNL     1       1.427 -12.995  18.284  1.00  0.00     0.029 A 
ATOM     56  C   UNL     1       1.489 -12.840  16.909  1.00  0.00     0.049 A 
ATOM     57  H   UNL     1       0.131 -11.874  15.618  1.00  0.00     0.167 HD
ATOM     58  C   UNL     1       2.530 -13.058  14.670  1.00  0.00     0.074 A 
ATOM     59  C   UNL     1       3.603 -13.458  13.784  1.00  0.00     0.031 C 
ATOM     60  C   UNL     1       2.515 -13.292  16.005  1.00  0.00     0.034 A 
BRANCH  47  61
ATOM     61  C   UNL     1      -2.333 -10.853  18.953  1.00  0.00     0.023 A 
ATOM     62  C   UNL     1      -3.528 -11.517  19.298  1.00  0.00     0.012 A 
ATOM     63  C   UNL     1      -1.752  -9.956  19.872  1.00  0.00     0.148 A 
ATOM     64  C   UNL     1      -4.156 -11.261  20.516  1.00  0.00     0.002 A 
ATOM     65  C   UNL     1      -2.356  -9.746  21.105  1.00  0.00     0.091 A 
ATOM     66  F   UNL     1      -0.627  -9.318  19.518  1.00  0.00    -0.205 F 
ATOM     67  C   UNL     1      -3.565 -10.385  21.423  1.00  0.00     0.022 A 
BRANCH  65  68
ATOM     68  S   UNL     1      -1.627  -8.704  22.373  1.00  0.00     0.127 S 
ATOM     69  O   UNL     1      -2.539  -7.561  22.376  1.00  0.00    -0.237 OA
ATOM     70  O   UNL     1      -1.715  -9.557  23.559  1.00  0.00    -0.237 OA
ATOM     71  O   UNL     1      -0.270  -8.420  21.929  1.00  0.00    -0.744 OA
ENDBRANCH  65  68
ENDBRANCH  47  61
BRANCH  48  72
ATOM     72  C   UNL     1       2.083 -12.124  10.075  1.00  0.00     0.023 A 
ATOM     73  C   UNL     1       2.269 -13.419   9.552  1.00  0.00     0.012 A 
ATOM     74  C   UNL     1       2.531 -11.014   9.334  1.00  0.00     0.148 A 
ATOM     75  C   UNL     1       2.920 -13.608   8.333  1.00  0.00     0.002 A 
ATOM     76  C   UNL     1       3.130 -11.206   8.094  1.00  0.00     0.091 A 
ATOM     77  F   UNL     1       2.349  -9.791   9.851  1.00  0.00    -0.205 F 
ATOM     78  C   UNL     1       3.343 -12.502   7.600  1.00  0.00     0.022 A 
BRANCH  76  79
ATOM     79  S   UNL     1       3.596  -9.841   7.024  1.00  0.00     0.127 S 
ATOM     80  O   UNL     1       5.053  -9.947   7.018  1.00  0.00    -0.237 OA
ATOM     81  O   UNL     1       2.946 -10.211   5.766  1.00  0.00    -0.237 OA
ATOM     82  O   UNL     1       3.054  -8.642   7.651  1.00  0.00    -0.744 OA
ENDBRANCH  76  79
ENDBRANCH  48  72
BRANCH  60  83
ATOM     83  C   UNL     1       3.648 -14.085  16.601  1.00  0.00     0.023 A 
ATOM     84  C   UNL     1       4.917 -13.500  16.768  1.00  0.00     0.012 A 
ATOM     85  C   UNL     1       3.407 -15.379  17.107  1.00  0.00     0.148 A 
ATOM     86  C   UNL     1       5.936 -14.200  17.415  1.00  0.00     0.002 A 
ATOM     87  C   UNL     1       4.410 -16.047  17.797  1.00  0.00     0.091 A 
ATOM     88  F   UNL     1       2.195 -15.921  16.921  1.00  0.00    -0.205 F 
ATOM     89  C   UNL     1       5.678 -15.464  17.942  1.00  0.00     0.022 A 
BRANCH  87  90
ATOM     90  S   UNL     1       4.136 -17.628  18.604  1.00  0.00     0.127 S 
ATOM     91  O   UNL     1       4.965 -18.521  17.796  1.00  0.00    -0.237 OA
ATOM     92  O   UNL     1       4.643 -17.378  19.953  1.00  0.00    -0.237 OA
ATOM     93  O   UNL     1       2.702 -17.877  18.531  1.00  0.00    -0.744 OA
ENDBRANCH  87  90
ENDBRANCH  60  83
ENDBRANCH  34  35
ENDBRANCH  26  29
ENDBRANCH  24  25
ENDBRANCH  23  24
ENDBRANCH  22  23
ENDBRANCH  21  22
ENDBRANCH   1  21
TORSDOF 22
