REMARK SMILES CC(C)(C)N(CC(=O)NCCCCCCNC(=O)c1ccc(-c2c3nc(c(-c4cccc(S(=O)(=O)[O-])c4F)c4ccc([nH]4)c(-c4cccc(S(=O)(=O)[O-])c4F)c4nc(c(-c5cccc(S(=O)(=O)[O-])c5F)c5ccc2[nH]5)C=C4)C=C3)cc1)C(=O)N1CC[C@H](C[NH3+])C1
REMARK SMILES IDX 11 1 10 2 9 3 7 4 8 5 6 7 5 8 2 9 1 10 3 11 4 12 82 13 83 14
REMARK SMILES IDX 84 15 85 16 90 17 86 18 87 19 88 20 89 21 12 25 13 26 14 27
REMARK SMILES IDX 15 28 16 29 17 30 18 32 19 33 20 34 81 35 21 36 80 37 22 38
REMARK SMILES IDX 23 39 24 40 74 41 25 42 79 43 73 44 75 45 26 46 78 47 72 48
REMARK SMILES IDX 71 49 27 51 59 52 39 53 58 54 40 55 43 56 57 57 76 58 41 59
REMARK SMILES IDX 42 60 56 62 77 63 44 64 28 65 29 66 37 67 30 68 32 69 38 70
REMARK SMILES IDX 31 71 33 72 34 73 35 74 36 75 60 76 61 77 69 78 62 79 64 80
REMARK SMILES IDX 70 81 63 82 65 83 66 84 67 85 68 86 45 87 46 88 54 89 47 90
REMARK SMILES IDX 49 91 55 92 48 93 50 94 51 95 52 96 53 97
REMARK H PARENT 9 6 89 22 89 23 89 24 16 31 75 50 43 61
REMARK Flexibility Score: inf
ROOT
ATOM      1  C   UNL     1       3.905  -3.102   0.739  1.00  0.00     0.021 C 
ENDROOT
BRANCH   1   2
ATOM      2  C   UNL     1       3.813  -1.718   0.102  1.00  0.00     0.116 C 
BRANCH   2   3
ATOM      3  N   UNL     1       4.091  -1.700  -1.312  1.00  0.00    -0.355 N 
ATOM      4  C   UNL     1       3.248  -1.493  -2.361  1.00  0.00     0.239 C 
ATOM      5  O   UNL     1       3.779  -1.263  -3.457  1.00  0.00    -0.273 OA
ATOM      6  H   UNL     1       5.031  -1.860  -1.555  1.00  0.00     0.163 HD
BRANCH   4   7
ATOM      7  C   UNL     1       1.711  -1.410  -2.228  1.00  0.00     0.221 C 
BRANCH   7   8
ATOM      8  N   UNL     1       0.962  -2.236  -1.254  1.00  0.00    -0.311 N 
BRANCH   8   9
ATOM      9  C   UNL     1       0.134  -1.551  -0.170  1.00  0.00     0.037 C 
ATOM     10  C   UNL     1       0.442  -0.038   0.028  1.00  0.00     0.034 C 
ATOM     11  C   UNL     1       0.334  -2.221   1.212  1.00  0.00     0.034 C 
ATOM     12  C   UNL     1      -1.372  -1.599  -0.533  1.00  0.00     0.034 C 
ENDBRANCH   8   9
BRANCH   8  13
ATOM     13  C   UNL     1       0.645  -3.577  -1.564  1.00  0.00     0.320 C 
ATOM     14  O   UNL     1      -0.155  -4.247  -0.912  1.00  0.00    -0.248 OA
BRANCH  13  15
ATOM     15  N   UNL     1       1.112  -4.077  -2.759  1.00  0.00    -0.324 N 
ATOM     16  C   UNL     1       2.475  -4.476  -3.031  1.00  0.00     0.122 C 
ATOM     17  C   UNL     1       0.236  -4.892  -3.590  1.00  0.00     0.130 C 
ATOM     18  C   UNL     1       2.450  -4.634  -4.539  1.00  0.00     0.033 C 
ATOM     19  C   UNL     1       1.115  -5.366  -4.763  1.00  0.00     0.065 C 
BRANCH  19  20
ATOM     20  C   UNL     1       0.456  -5.099  -6.116  1.00  0.00     0.264 C 
BRANCH  20  21
ATOM     21  N   UNL     1       1.327  -5.455  -7.233  1.00  0.00    -0.357 N 
ATOM     22  H   UNL     1       2.175  -4.889  -7.197  1.00  0.00     0.344 HD
ATOM     23  H   UNL     1       0.840  -5.281  -8.113  1.00  0.00     0.344 HD
ATOM     24  H   UNL     1       1.574  -6.442  -7.171  1.00  0.00     0.344 HD
ENDBRANCH  20  21
ENDBRANCH  19  20
ENDBRANCH  13  15
ENDBRANCH   8  13
ENDBRANCH   7   8
ENDBRANCH   4   7
ENDBRANCH   2   3
ENDBRANCH   1   2
BRANCH   1  25
ATOM     25  C   UNL     1       5.324  -3.642   0.931  1.00  0.00     0.002 C 
BRANCH  25  26
ATOM     26  C   UNL     1       6.311  -2.704   1.635  1.00  0.00     0.002 C 
BRANCH  26  27
ATOM     27  C   UNL     1       5.844  -2.096   2.964  1.00  0.00     0.021 C 
BRANCH  27  28
ATOM     28  C   UNL     1       5.475  -3.094   4.058  1.00  0.00     0.116 C 
BRANCH  28  29
ATOM     29  N   UNL     1       6.591  -3.949   4.422  1.00  0.00    -0.352 N 
ATOM     30  C   UNL     1       7.193  -4.157   5.638  1.00  0.00     0.251 C 
ATOM     31  H   UNL     1       6.979  -4.461   3.677  1.00  0.00     0.163 HD
ATOM     32  O   UNL     1       8.251  -4.782   5.679  1.00  0.00    -0.269 OA
BRANCH  30  33
ATOM     33  C   UNL     1       6.598  -3.639   6.893  1.00  0.00     0.039 A 
ATOM     34  C   UNL     1       7.455  -3.137   7.878  1.00  0.00     0.014 A 
ATOM     35  C   UNL     1       5.223  -3.699   7.139  1.00  0.00     0.014 A 
ATOM     36  C   UNL     1       6.934  -2.663   9.085  1.00  0.00     0.010 A 
ATOM     37  C   UNL     1       4.698  -3.163   8.317  1.00  0.00     0.010 A 
ATOM     38  C   UNL     1       5.548  -2.653   9.309  1.00  0.00    -0.014 A 
BRANCH  38  39
ATOM     39  C   UNL     1       4.987  -2.100  10.571  1.00  0.00     0.031 A 
ATOM     40  C   UNL     1       4.244  -2.981  11.539  1.00  0.00     0.074 A 
ATOM     41  C   UNL     1       5.091  -0.779  10.817  1.00  0.00     0.049 A 
ATOM     42  N   UNL     1       3.705  -2.669  12.691  1.00  0.00    -0.248 NA
ATOM     43  C   UNL     1       4.057  -4.390  11.155  1.00  0.00     0.031 C 
ATOM     44  C   UNL     1       5.696   0.202   9.914  1.00  0.00     0.029 A 
ATOM     45  N   UNL     1       4.669  -0.029  11.887  1.00  0.00    -0.354 N 
ATOM     46  C   UNL     1       3.089  -3.827  13.151  1.00  0.00     0.074 A 
ATOM     47  C   UNL     1       3.293  -4.841  12.140  1.00  0.00     0.031 C 
ATOM     48  C   UNL     1       5.607   1.422  10.467  1.00  0.00     0.029 A 
ATOM     49  C   UNL     1       4.928   1.315  11.755  1.00  0.00     0.049 A 
ATOM     50  H   UNL     1       4.223  -0.417  12.674  1.00  0.00     0.167 HD
ATOM     51  C   UNL     1       2.439  -4.038  14.322  1.00  0.00     0.034 A 
ATOM     52  C   UNL     1       4.654   2.346  12.578  1.00  0.00     0.034 A 
ATOM     53  C   UNL     1       2.278  -3.041  15.348  1.00  0.00     0.049 A 
ATOM     54  C   UNL     1       4.007   2.072  13.908  1.00  0.00     0.074 A 
ATOM     55  C   UNL     1       1.733  -3.187  16.612  1.00  0.00     0.029 A 
ATOM     56  N   UNL     1       2.653  -1.712  15.227  1.00  0.00    -0.354 N 
ATOM     57  N   UNL     1       3.605   0.929  14.409  1.00  0.00    -0.248 NA
ATOM     58  C   UNL     1       3.820   3.220  14.806  1.00  0.00     0.031 C 
ATOM     59  C   UNL     1       1.761  -1.940  17.247  1.00  0.00     0.029 A 
ATOM     60  C   UNL     1       2.343  -1.023  16.387  1.00  0.00     0.049 A 
ATOM     61  H   UNL     1       3.078  -1.316  14.432  1.00  0.00     0.167 HD
ATOM     62  C   UNL     1       3.144   1.215  15.689  1.00  0.00     0.074 A 
ATOM     63  C   UNL     1       3.345   2.635  15.897  1.00  0.00     0.031 C 
ATOM     64  C   UNL     1       2.587   0.381  16.602  1.00  0.00     0.034 A 
BRANCH  51  65
ATOM     65  C   UNL     1       1.901  -5.422  14.583  1.00  0.00     0.023 A 
ATOM     66  C   UNL     1       2.798  -6.475  14.855  1.00  0.00     0.012 A 
ATOM     67  C   UNL     1       0.515  -5.672  14.616  1.00  0.00     0.148 A 
ATOM     68  C   UNL     1       2.328  -7.762  15.116  1.00  0.00     0.002 A 
ATOM     69  C   UNL     1       0.052  -6.948  14.920  1.00  0.00     0.091 A 
ATOM     70  F   UNL     1      -0.325  -4.665  14.334  1.00  0.00    -0.205 F 
ATOM     71  C   UNL     1       0.957  -7.995  15.159  1.00  0.00     0.022 A 
BRANCH  69  72
ATOM     72  S   UNL     1      -1.697  -7.329  15.077  1.00  0.00     0.127 S 
ATOM     73  O   UNL     1      -1.950  -8.068  13.841  1.00  0.00    -0.237 OA
ATOM     74  O   UNL     1      -1.729  -8.145  16.292  1.00  0.00    -0.237 OA
ATOM     75  O   UNL     1      -2.375  -6.046  15.194  1.00  0.00    -0.744 OA
ENDBRANCH  69  72
ENDBRANCH  51  65
BRANCH  52  76
ATOM     76  C   UNL     1       5.070   3.724  12.194  1.00  0.00     0.023 A 
ATOM     77  C   UNL     1       6.143   4.338  12.869  1.00  0.00     0.012 A 
ATOM     78  C   UNL     1       4.444   4.407  11.133  1.00  0.00     0.148 A 
ATOM     79  C   UNL     1       6.567   5.619  12.513  1.00  0.00     0.002 A 
ATOM     80  C   UNL     1       4.909   5.659  10.746  1.00  0.00     0.091 A 
ATOM     81  F   UNL     1       3.418   3.810  10.511  1.00  0.00    -0.205 F 
ATOM     82  C   UNL     1       5.959   6.274  11.445  1.00  0.00     0.022 A 
BRANCH  80  83
ATOM     83  S   UNL     1       4.279   6.510   9.295  1.00  0.00     0.127 S 
ATOM     84  O   UNL     1       3.500   7.589   9.895  1.00  0.00    -0.237 OA
ATOM     85  O   UNL     1       5.513   6.934   8.632  1.00  0.00    -0.237 OA
ATOM     86  O   UNL     1       3.517   5.511   8.555  1.00  0.00    -0.744 OA
ENDBRANCH  80  83
ENDBRANCH  52  76
BRANCH  64  87
ATOM     87  C   UNL     1       2.169   0.975  17.922  1.00  0.00     0.023 A 
ATOM     88  C   UNL     1       1.042   1.819  17.982  1.00  0.00     0.012 A 
ATOM     89  C   UNL     1       2.857   0.659  19.110  1.00  0.00     0.148 A 
ATOM     90  C   UNL     1       0.630   2.369  19.195  1.00  0.00     0.002 A 
ATOM     91  C   UNL     1       2.413   1.173  20.323  1.00  0.00     0.091 A 
ATOM     92  F   UNL     1       3.942  -0.127  19.034  1.00  0.00    -0.205 F 
ATOM     93  C   UNL     1       1.308   2.038  20.366  1.00  0.00     0.022 A 
BRANCH  91  94
ATOM     94  S   UNL     1       3.173   0.722  21.887  1.00  0.00     0.127 S 
ATOM     95  O   UNL     1       4.004   1.891  22.164  1.00  0.00    -0.237 OA
ATOM     96  O   UNL     1       2.015   0.574  22.770  1.00  0.00    -0.237 OA
ATOM     97  O   UNL     1       3.894  -0.519  21.631  1.00  0.00    -0.744 OA
ENDBRANCH  91  94
ENDBRANCH  64  87
ENDBRANCH  38  39
ENDBRANCH  30  33
ENDBRANCH  28  29
ENDBRANCH  27  28
ENDBRANCH  26  27
ENDBRANCH  25  26
ENDBRANCH   1  25
TORSDOF 22
