REMARK SMILES Cc1ccc(NC(=O)N2CCCC[C@@H]2C(=O)NCCCCCCNC(=O)c2ccc(-c3c4nc(c(-c5cccc(S(=O)(=O)[O-])c5F)c5ccc([nH]5)c(-c5cccc(S(=O)(=O)[O-])c5F)c5nc(c(-c6cccc(S(=O)(=O)[O-])c6F)c6ccc3[nH]6)C=C5)C=C4)cc2)cc1
REMARK SMILES IDX 21 1 20 2 19 3 18 4 17 5 15 6 16 7 14 9 9 10 10 11 11 12
REMARK SMILES IDX 13 13 12 14 7 15 6 16 8 18 5 19 1 20 2 21 3 22 91 23 4 24
REMARK SMILES IDX 90 25 22 26 23 27 24 28 25 29 26 31 27 32 28 33 89 34 29 35
REMARK SMILES IDX 88 36 30 37 31 38 32 39 82 40 33 41 87 42 81 43 83 44 34 45
REMARK SMILES IDX 86 46 80 47 79 48 35 50 67 51 47 52 66 53 48 54 51 55 65 56
REMARK SMILES IDX 84 57 49 58 50 59 64 61 85 62 52 63 36 64 37 65 45 66 38 67
REMARK SMILES IDX 40 68 46 69 39 70 41 71 42 72 43 73 44 74 68 75 69 76 77 77
REMARK SMILES IDX 70 78 72 79 78 80 71 81 73 82 74 83 75 84 76 85 53 86 54 87
REMARK SMILES IDX 62 88 55 89 57 90 63 91 56 92 58 93 59 94 60 95 61 96
REMARK H PARENT 17 8 6 17 24 30 83 49 51 60
REMARK Flexibility Score: inf
ROOT
ATOM      1  C   UNL     1      -6.399  -0.323   4.561  1.00  0.00     0.002 C 
ENDROOT
BRANCH   1   2
ATOM      2  C   UNL     1      -5.351  -1.342   5.035  1.00  0.00     0.002 C 
BRANCH   2   3
ATOM      3  C   UNL     1      -5.006  -2.465   4.047  1.00  0.00     0.021 C 
BRANCH   3   4
ATOM      4  C   UNL     1      -4.575  -1.983   2.662  1.00  0.00     0.116 C 
BRANCH   4   5
ATOM      5  N   UNL     1      -3.288  -1.325   2.736  1.00  0.00    -0.354 N 
ATOM      6  C   UNL     1      -2.110  -1.664   2.142  1.00  0.00     0.242 C 
ATOM      7  O   UNL     1      -1.082  -1.149   2.593  1.00  0.00    -0.273 OA
ATOM      8  H   UNL     1      -3.259  -0.516   3.296  1.00  0.00     0.163 HD
BRANCH   6   9
ATOM      9  C   UNL     1      -2.038  -2.758   1.049  1.00  0.00     0.176 C 
ATOM     10  N   UNL     1      -3.070  -2.654  -0.026  1.00  0.00    -0.313 N 
ATOM     11  C   UNL     1      -3.342  -3.845  -0.825  1.00  0.00     0.122 C 
ATOM     12  C   UNL     1      -3.400  -5.138  -0.033  1.00  0.00     0.022 C 
ATOM     13  C   UNL     1      -2.054  -4.117   1.783  1.00  0.00     0.035 C 
ATOM     14  C   UNL     1      -2.159  -5.295   0.828  1.00  0.00     0.004 C 
BRANCH  10  15
ATOM     15  C   UNL     1      -3.553  -1.472  -0.565  1.00  0.00     0.322 C 
ATOM     16  N   UNL     1      -2.853  -0.314  -0.444  1.00  0.00    -0.308 N 
ATOM     17  H   UNL     1      -3.401   0.484  -0.261  1.00  0.00     0.171 HD
ATOM     18  O   UNL     1      -4.666  -1.416  -1.095  1.00  0.00    -0.248 OA
BRANCH  16  19
ATOM     19  C   UNL     1      -1.474  -0.076  -0.538  1.00  0.00     0.042 A 
ATOM     20  C   UNL     1       2.759   0.450  -0.089  1.00  0.00     0.044 C 
ATOM     21  C   UNL     1       1.292   0.340  -0.375  1.00  0.00    -0.051 A 
ATOM     22  C   UNL     1       0.786  -0.799  -1.006  1.00  0.00     0.005 A 
ATOM     23  C   UNL     1       0.401   1.317   0.084  1.00  0.00     0.005 A 
ATOM     24  C   UNL     1      -0.592  -0.988  -1.116  1.00  0.00     0.026 A 
ATOM     25  C   UNL     1      -0.978   1.119  -0.015  1.00  0.00     0.026 A 
ENDBRANCH  16  19
ENDBRANCH  10  15
ENDBRANCH   6   9
ENDBRANCH   4   5
ENDBRANCH   3   4
ENDBRANCH   2   3
ENDBRANCH   1   2
BRANCH   1  26
ATOM     26  C   UNL     1      -7.637  -0.896   3.868  1.00  0.00     0.021 C 
BRANCH  26  27
ATOM     27  C   UNL     1      -8.435  -1.873   4.718  1.00  0.00     0.116 C 
BRANCH  27  28
ATOM     28  N   UNL     1      -9.652  -1.311   5.276  1.00  0.00    -0.352 N 
ATOM     29  C   UNL     1     -10.602  -1.920   6.074  1.00  0.00     0.251 C 
ATOM     30  H   UNL     1      -9.823  -0.367   5.055  1.00  0.00     0.163 HD
ATOM     31  O   UNL     1     -11.678  -1.354   6.257  1.00  0.00    -0.269 OA
BRANCH  29  32
ATOM     32  C   UNL     1     -10.260  -3.169   6.798  1.00  0.00     0.039 A 
ATOM     33  C   UNL     1     -10.518  -3.207   8.175  1.00  0.00     0.014 A 
ATOM     34  C   UNL     1      -9.491  -4.167   6.205  1.00  0.00     0.014 A 
ATOM     35  C   UNL     1      -9.794  -4.075   8.988  1.00  0.00     0.010 A 
ATOM     36  C   UNL     1      -8.716  -4.974   7.009  1.00  0.00     0.010 A 
ATOM     37  C   UNL     1      -8.813  -4.865   8.399  1.00  0.00    -0.014 A 
BRANCH  37  38
ATOM     38  C   UNL     1      -7.783  -5.575   9.138  1.00  0.00     0.031 A 
ATOM     39  C   UNL     1      -8.004  -6.959   9.576  1.00  0.00     0.074 A 
ATOM     40  C   UNL     1      -6.567  -4.996   9.241  1.00  0.00     0.049 A 
ATOM     41  N   UNL     1      -7.295  -7.566  10.464  1.00  0.00    -0.248 NA
ATOM     42  C   UNL     1      -9.108  -7.756   9.061  1.00  0.00     0.031 C 
ATOM     43  C   UNL     1      -5.299  -5.642   9.544  1.00  0.00     0.029 A 
ATOM     44  N   UNL     1      -6.281  -3.628   9.289  1.00  0.00    -0.354 N 
ATOM     45  C   UNL     1      -7.638  -8.901  10.412  1.00  0.00     0.074 A 
ATOM     46  C   UNL     1      -8.854  -8.933   9.636  1.00  0.00     0.031 C 
ATOM     47  C   UNL     1      -4.446  -4.713  10.004  1.00  0.00     0.029 A 
ATOM     48  C   UNL     1      -5.209  -3.489  10.187  1.00  0.00     0.049 A 
ATOM     49  H   UNL     1      -6.736  -2.909   8.794  1.00  0.00     0.167 HD
ATOM     50  C   UNL     1      -6.747  -9.824  10.877  1.00  0.00     0.034 A 
ATOM     51  C   UNL     1      -5.282  -2.767  11.344  1.00  0.00     0.034 A 
ATOM     52  C   UNL     1      -5.622  -9.161  11.562  1.00  0.00     0.049 A 
ATOM     53  C   UNL     1      -4.982  -3.596  12.580  1.00  0.00     0.074 A 
ATOM     54  C   UNL     1      -4.328  -8.856  11.169  1.00  0.00     0.029 A 
ATOM     55  N   UNL     1      -5.848  -8.451  12.739  1.00  0.00    -0.354 N 
ATOM     56  N   UNL     1      -4.843  -4.893  12.575  1.00  0.00    -0.248 NA
ATOM     57  C   UNL     1      -4.855  -3.036  13.923  1.00  0.00     0.031 C 
ATOM     58  C   UNL     1      -3.820  -7.870  12.058  1.00  0.00     0.029 A 
ATOM     59  C   UNL     1      -4.785  -7.603  13.013  1.00  0.00     0.049 A 
ATOM     60  H   UNL     1      -6.652  -8.540  13.300  1.00  0.00     0.167 HD
ATOM     61  C   UNL     1      -4.764  -5.358  13.860  1.00  0.00     0.074 A 
ATOM     62  C   UNL     1      -4.687  -4.148  14.662  1.00  0.00     0.031 C 
ATOM     63  C   UNL     1      -4.839  -6.693  14.155  1.00  0.00     0.034 A 
BRANCH  50  64
ATOM     64  C   UNL     1      -6.688 -11.290  10.441  1.00  0.00     0.023 A 
ATOM     65  C   UNL     1      -5.483 -11.988  10.695  1.00  0.00     0.012 A 
ATOM     66  C   UNL     1      -7.662 -12.015   9.715  1.00  0.00     0.148 A 
ATOM     67  C   UNL     1      -5.220 -13.264  10.177  1.00  0.00     0.002 A 
ATOM     68  C   UNL     1      -7.390 -13.270   9.159  1.00  0.00     0.091 A 
ATOM     69  F   UNL     1      -8.901 -11.544   9.598  1.00  0.00    -0.205 F 
ATOM     70  C   UNL     1      -6.162 -13.894   9.380  1.00  0.00     0.022 A 
BRANCH  68  71
ATOM     71  S   UNL     1      -8.559 -14.128   8.084  1.00  0.00     0.127 S 
ATOM     72  O   UNL     1      -7.752 -14.375   6.888  1.00  0.00    -0.237 OA
ATOM     73  O   UNL     1      -8.876 -15.325   8.861  1.00  0.00    -0.237 OA
ATOM     74  O   UNL     1      -9.673 -13.212   7.872  1.00  0.00    -0.744 OA
ENDBRANCH  68  71
ENDBRANCH  50  64
BRANCH  51  75
ATOM     75  C   UNL     1      -6.252  -1.633  11.281  1.00  0.00     0.023 A 
ATOM     76  C   UNL     1      -5.980  -0.610  10.341  1.00  0.00     0.012 A 
ATOM     77  C   UNL     1      -7.556  -1.753  11.794  1.00  0.00     0.148 A 
ATOM     78  C   UNL     1      -7.008   0.175   9.818  1.00  0.00     0.002 A 
ATOM     79  C   UNL     1      -8.577  -0.962  11.268  1.00  0.00     0.091 A 
ATOM     80  F   UNL     1      -7.798  -2.688  12.722  1.00  0.00    -0.205 F 
ATOM     81  C   UNL     1      -8.312  -0.028  10.254  1.00  0.00     0.022 A 
BRANCH  79  82
ATOM     82  S   UNL     1     -10.289  -1.198  11.766  1.00  0.00     0.127 S 
ATOM     83  O   UNL     1     -10.412  -0.236  12.856  1.00  0.00    -0.237 OA
ATOM     84  O   UNL     1     -11.025  -0.848  10.552  1.00  0.00    -0.237 OA
ATOM     85  O   UNL     1     -10.375  -2.605  12.129  1.00  0.00    -0.744 OA
ENDBRANCH  79  82
ENDBRANCH  51  75
BRANCH  63  86
ATOM     86  C   UNL     1      -4.989  -7.265  15.551  1.00  0.00     0.023 A 
ATOM     87  C   UNL     1      -5.575  -6.534  16.603  1.00  0.00     0.012 A 
ATOM     88  C   UNL     1      -4.679  -8.624  15.813  1.00  0.00     0.148 A 
ATOM     89  C   UNL     1      -5.780  -7.095  17.869  1.00  0.00     0.002 A 
ATOM     90  C   UNL     1      -4.985  -9.207  17.041  1.00  0.00     0.091 A 
ATOM     91  F   UNL     1      -4.065  -9.361  14.875  1.00  0.00    -0.205 F 
ATOM     92  C   UNL     1      -5.506  -8.438  18.083  1.00  0.00     0.022 A 
BRANCH  90  93
ATOM     93  S   UNL     1      -4.864 -10.987  17.272  1.00  0.00     0.127 S 
ATOM     94  O   UNL     1      -3.505 -11.138  17.787  1.00  0.00    -0.237 OA
ATOM     95  O   UNL     1      -5.919 -11.254  18.253  1.00  0.00    -0.237 OA
ATOM     96  O   UNL     1      -5.122 -11.555  15.955  1.00  0.00    -0.744 OA
ENDBRANCH  90  93
ENDBRANCH  63  86
ENDBRANCH  37  38
ENDBRANCH  29  32
ENDBRANCH  27  28
ENDBRANCH  26  27
ENDBRANCH   1  26
TORSDOF 18
