REMARK SMILES CNc1cc(-c2cncc(SCC(=O)NCCCCCCNC(=O)c3ccc(-c4c5nc(c(-c6cccc(S(=O)(=O)[O-])c6F)c6ccc([nH]6)c(-c6cccc(S(=O)(=O)[O-])c6F)c6nc(c(-c7cccc(S(=O)(=O)[O-])c7F)c7ccc4[nH]7)C=C6)C=C5)cc3)n2)c2cc[nH]c2n1
REMARK SMILES IDX 18 1 17 2 16 3 15 4 13 5 14 6 12 8 11 9 10 10 6 11 7 12
REMARK SMILES IDX 88 13 8 14 9 15 5 16 3 17 4 18 94 19 93 20 89 21 92 22 90 23
REMARK SMILES IDX 91 24 2 26 1 27 19 29 20 30 21 31 22 32 23 33 24 35 25 36
REMARK SMILES IDX 26 37 87 38 27 39 86 40 28 41 29 42 30 43 80 44 31 45 85 46
REMARK SMILES IDX 79 47 81 48 32 49 84 50 78 51 77 52 33 54 65 55 45 56 64 57
REMARK SMILES IDX 46 58 49 59 63 60 82 61 47 62 48 63 62 65 83 66 50 67 34 68
REMARK SMILES IDX 35 69 43 70 36 71 38 72 44 73 37 74 39 75 40 76 41 77 42 78
REMARK SMILES IDX 66 79 67 80 75 81 68 82 70 83 76 84 69 85 71 86 72 87 73 88
REMARK SMILES IDX 74 89 51 90 52 91 60 92 53 93 55 94 61 95 54 96 56 97 57 98
REMARK SMILES IDX 58 99 59 100
REMARK H PARENT 15 7 92 25 2 28 22 34 81 53 49 64
REMARK Flexibility Score: inf
ROOT
ATOM      1  C   UNL     1      -6.652  -8.154   1.601  1.00  0.00     0.002 C 
ENDROOT
BRANCH   1   2
ATOM      2  C   UNL     1      -6.411  -7.283   2.844  1.00  0.00     0.021 C 
BRANCH   2   3
ATOM      3  C   UNL     1      -5.194  -7.702   3.670  1.00  0.00     0.116 C 
BRANCH   3   4
ATOM      4  N   UNL     1      -3.969  -7.494   2.921  1.00  0.00    -0.355 N 
ATOM      5  C   UNL     1      -2.953  -6.606   3.106  1.00  0.00     0.230 C 
ATOM      6  O   UNL     1      -2.000  -6.686   2.324  1.00  0.00    -0.274 OA
ATOM      7  H   UNL     1      -3.853  -8.095   2.150  1.00  0.00     0.163 HD
BRANCH   5   8
ATOM      8  C   UNL     1      -2.900  -5.683   4.308  1.00  0.00     0.176 C 
BRANCH   8   9
ATOM      9  S   UNL     1      -4.314  -4.566   4.528  1.00  0.00    -0.095 SA
BRANCH   9  10
ATOM     10  C   UNL     1      -4.283  -3.580   3.053  1.00  0.00     0.116 A 
ATOM     11  C   UNL     1      -3.278  -2.855   1.113  1.00  0.00     0.091 A 
ATOM     12  C   UNL     1      -4.353  -1.994   0.891  1.00  0.00     0.140 A 
ATOM     13  N   UNL     1      -3.231  -3.658   2.209  1.00  0.00    -0.238 NA
ATOM     14  N   UNL     1      -5.407  -1.897   1.730  1.00  0.00    -0.260 NA
ATOM     15  C   UNL     1      -5.344  -2.710   2.811  1.00  0.00     0.146 A 
BRANCH  11  16
ATOM     16  C   UNL     1      -2.143  -2.901   0.202  1.00  0.00     0.016 A 
ATOM     17  C   UNL     1      -0.238  -1.865  -0.903  1.00  0.00     0.128 A 
ATOM     18  C   UNL     1      -1.286  -1.801   0.012  1.00  0.00     0.058 A 
ATOM     19  N   UNL     1      -0.006  -2.932  -1.688  1.00  0.00    -0.213 NA
ATOM     20  C   UNL     1      -0.824  -3.973  -1.466  1.00  0.00     0.140 A 
ATOM     21  C   UNL     1      -1.879  -4.049  -0.567  1.00  0.00     0.028 A 
ATOM     22  N   UNL     1      -0.730  -5.172  -2.118  1.00  0.00    -0.346 N 
ATOM     23  C   UNL     1      -2.432  -5.355  -0.705  1.00  0.00     0.030 A 
ATOM     24  C   UNL     1      -1.701  -6.025  -1.665  1.00  0.00     0.085 A 
ATOM     25  H   UNL     1      -0.064  -5.389  -2.809  1.00  0.00     0.167 HD
BRANCH  17  26
ATOM     26  N   UNL     1       0.659  -0.834  -1.076  1.00  0.00    -0.373 N 
ATOM     27  C   UNL     1       1.054   0.044  -0.005  1.00  0.00     0.141 C 
ATOM     28  H   UNL     1       1.047  -0.692  -1.970  1.00  0.00     0.161 HD
ENDBRANCH  17  26
ENDBRANCH  11  16
ENDBRANCH   9  10
ENDBRANCH   8   9
ENDBRANCH   5   8
ENDBRANCH   3   4
ENDBRANCH   2   3
ENDBRANCH   1   2
BRANCH   1  29
ATOM     29  C   UNL     1      -6.849  -9.648   1.881  1.00  0.00     0.002 C 
BRANCH  29  30
ATOM     30  C   UNL     1      -7.973  -9.979   2.866  1.00  0.00     0.021 C 
BRANCH  30  31
ATOM     31  C   UNL     1      -9.354  -9.492   2.439  1.00  0.00     0.116 C 
BRANCH  31  32
ATOM     32  N   UNL     1      -9.808 -10.137   1.216  1.00  0.00    -0.352 N 
ATOM     33  C   UNL     1     -10.980 -10.810   0.975  1.00  0.00     0.251 C 
ATOM     34  H   UNL     1      -9.188 -10.082   0.453  1.00  0.00     0.163 HD
ATOM     35  O   UNL     1     -11.113 -11.460  -0.061  1.00  0.00    -0.269 OA
BRANCH  33  36
ATOM     36  C   UNL     1     -12.072 -10.770   1.971  1.00  0.00     0.039 A 
ATOM     37  C   UNL     1     -12.735 -11.954   2.300  1.00  0.00     0.014 A 
ATOM     38  C   UNL     1     -12.440  -9.567   2.580  1.00  0.00     0.014 A 
ATOM     39  C   UNL     1     -13.725 -11.942   3.285  1.00  0.00     0.010 A 
ATOM     40  C   UNL     1     -13.372  -9.571   3.615  1.00  0.00     0.010 A 
ATOM     41  C   UNL     1     -14.029 -10.757   3.976  1.00  0.00    -0.014 A 
BRANCH  41  42
ATOM     42  C   UNL     1     -15.021 -10.741   5.082  1.00  0.00     0.031 A 
ATOM     43  C   UNL     1     -16.270  -9.905   4.970  1.00  0.00     0.074 A 
ATOM     44  C   UNL     1     -14.765 -11.422   6.218  1.00  0.00     0.049 A 
ATOM     45  N   UNL     1     -17.219  -9.719   5.851  1.00  0.00    -0.248 NA
ATOM     46  C   UNL     1     -16.468  -9.164   3.713  1.00  0.00     0.031 C 
ATOM     47  C   UNL     1     -13.562 -12.217   6.476  1.00  0.00     0.029 A 
ATOM     48  N   UNL     1     -15.491 -11.538   7.377  1.00  0.00    -0.354 N 
ATOM     49  C   UNL     1     -18.111  -8.827   5.268  1.00  0.00     0.074 A 
ATOM     50  C   UNL     1     -17.569  -8.474   3.974  1.00  0.00     0.031 C 
ATOM     51  C   UNL     1     -13.638 -12.744   7.708  1.00  0.00     0.029 A 
ATOM     52  C   UNL     1     -14.873 -12.298   8.344  1.00  0.00     0.049 A 
ATOM     53  H   UNL     1     -16.372 -11.117   7.505  1.00  0.00     0.167 HD
ATOM     54  C   UNL     1     -19.292  -8.369   5.748  1.00  0.00     0.034 A 
ATOM     55  C   UNL     1     -15.253 -12.592   9.603  1.00  0.00     0.034 A 
ATOM     56  C   UNL     1     -19.844  -8.744   7.022  1.00  0.00     0.049 A 
ATOM     57  C   UNL     1     -16.570 -12.066  10.109  1.00  0.00     0.074 A 
ATOM     58  C   UNL     1     -21.058  -8.377   7.574  1.00  0.00     0.029 A 
ATOM     59  N   UNL     1     -19.218  -9.567   7.945  1.00  0.00    -0.354 N 
ATOM     60  N   UNL     1     -17.462 -11.334   9.488  1.00  0.00    -0.248 NA
ATOM     61  C   UNL     1     -16.949 -12.438  11.481  1.00  0.00     0.031 C 
ATOM     62  C   UNL     1     -21.155  -8.958   8.842  1.00  0.00     0.029 A 
ATOM     63  C   UNL     1     -20.018  -9.716   9.065  1.00  0.00     0.049 A 
ATOM     64  H   UNL     1     -18.334  -9.984   7.822  1.00  0.00     0.167 HD
ATOM     65  C   UNL     1     -18.526 -11.198  10.373  1.00  0.00     0.074 A 
ATOM     66  C   UNL     1     -18.175 -11.940  11.566  1.00  0.00     0.031 C 
ATOM     67  C   UNL     1     -19.683 -10.509  10.219  1.00  0.00     0.034 A 
BRANCH  54  68
ATOM     68  C   UNL     1     -20.101  -7.453   4.866  1.00  0.00     0.023 A 
ATOM     69  C   UNL     1     -20.724  -7.974   3.713  1.00  0.00     0.012 A 
ATOM     70  C   UNL     1     -20.308  -6.103   5.212  1.00  0.00     0.148 A 
ATOM     71  C   UNL     1     -21.512  -7.160   2.901  1.00  0.00     0.002 A 
ATOM     72  C   UNL     1     -21.134  -5.310   4.423  1.00  0.00     0.091 A 
ATOM     73  F   UNL     1     -19.696  -5.621   6.303  1.00  0.00    -0.205 F 
ATOM     74  C   UNL     1     -21.726  -5.833   3.261  1.00  0.00     0.022 A 
BRANCH  72  75
ATOM     75  S   UNL     1     -21.540  -3.611   4.840  1.00  0.00     0.127 S 
ATOM     76  O   UNL     1     -20.886  -2.877   3.758  1.00  0.00    -0.237 OA
ATOM     77  O   UNL     1     -23.002  -3.621   4.774  1.00  0.00    -0.237 OA
ATOM     78  O   UNL     1     -20.990  -3.378   6.168  1.00  0.00    -0.744 OA
ENDBRANCH  72  75
ENDBRANCH  54  68
BRANCH  55  79
ATOM     79  C   UNL     1     -14.407 -13.468  10.465  1.00  0.00     0.023 A 
ATOM     80  C   UNL     1     -14.882 -14.742  10.834  1.00  0.00     0.012 A 
ATOM     81  C   UNL     1     -13.149 -13.044  10.934  1.00  0.00     0.148 A 
ATOM     82  C   UNL     1     -14.144 -15.556  11.694  1.00  0.00     0.002 A 
ATOM     83  C   UNL     1     -12.392 -13.884  11.742  1.00  0.00     0.091 A 
ATOM     84  F   UNL     1     -12.716 -11.825  10.581  1.00  0.00    -0.205 F 
ATOM     85  C   UNL     1     -12.897 -15.131  12.142  1.00  0.00     0.022 A 
BRANCH  83  86
ATOM     86  S   UNL     1     -10.723 -13.471  12.262  1.00  0.00     0.127 S 
ATOM     87  O   UNL     1     -10.913 -13.187  13.681  1.00  0.00    -0.237 OA
ATOM     88  O   UNL     1     -10.000 -14.710  11.971  1.00  0.00    -0.237 OA
ATOM     89  O   UNL     1     -10.325 -12.339  11.435  1.00  0.00    -0.744 OA
ENDBRANCH  83  86
ENDBRANCH  55  79
BRANCH  67  90
ATOM     90  C   UNL     1     -20.688 -10.570  11.340  1.00  0.00     0.023 A 
ATOM     91  C   UNL     1     -20.435  -9.901  12.554  1.00  0.00     0.012 A 
ATOM     92  C   UNL     1     -21.917 -11.237  11.162  1.00  0.00     0.148 A 
ATOM     93  C   UNL     1     -21.372  -9.927  13.587  1.00  0.00     0.002 A 
ATOM     94  C   UNL     1     -22.868 -11.213  12.174  1.00  0.00     0.091 A 
ATOM     95  F   UNL     1     -22.132 -11.881  10.005  1.00  0.00    -0.205 F 
ATOM     96  C   UNL     1     -22.591 -10.572  13.392  1.00  0.00     0.022 A 
BRANCH  94  97
ATOM     97  S   UNL     1     -24.503 -11.929  11.979  1.00  0.00     0.127 S 
ATOM     98  O   UNL     1     -24.433 -13.080  12.877  1.00  0.00    -0.237 OA
ATOM     99  O   UNL     1     -25.371 -10.845  12.442  1.00  0.00    -0.237 OA
ATOM    100  O   UNL     1     -24.637 -12.249  10.564  1.00  0.00    -0.744 OA
ENDBRANCH  94  97
ENDBRANCH  67  90
ENDBRANCH  41  42
ENDBRANCH  33  36
ENDBRANCH  31  32
ENDBRANCH  30  31
ENDBRANCH  29  30
ENDBRANCH   1  29
TORSDOF 20
