REMARK SMILES COc1cc(/C=C2/CCc3cc(OC(C)(C)C(=O)NCCCCCCNC(=O)c4ccc(-c5c6nc(c(-c7cccc(S(=O)(=O)[O-])c7F)c7ccc([nH]7)c(-c7cccc(S(=O)(=O)[O-])c7F)c7nc(c(-c8cccc(S(=O)(=O)[O-])c8F)c8ccc5[nH]8)C=C7)C=C6)cc4)ccc3C2=O)cc(OC)c1O
REMARK SMILES IDX 22 1 21 2 20 3 19 4 17 5 18 6 14 8 15 9 16 10 13 11 12 12
REMARK SMILES IDX 6 13 7 14 8 15 95 16 9 17 94 18 96 19 10 20 93 21 11 22
REMARK SMILES IDX 92 23 5 24 3 25 4 26 101 27 98 28 97 29 2 30 1 31 102 32
REMARK SMILES IDX 99 34 100 35 23 36 24 37 25 38 26 39 27 40 28 42 29 43 30 44
REMARK SMILES IDX 91 45 31 46 90 47 32 48 33 49 34 50 84 51 35 52 89 53 83 54
REMARK SMILES IDX 85 55 36 56 88 57 82 58 81 59 37 61 69 62 49 63 68 64 50 65
REMARK SMILES IDX 53 66 67 67 86 68 51 69 52 70 66 72 87 73 54 74 38 75 39 76
REMARK SMILES IDX 47 77 40 78 42 79 48 80 41 81 43 82 44 83 45 84 46 85 70 86
REMARK SMILES IDX 71 87 79 88 72 89 74 90 80 91 73 92 75 93 76 94 77 95 78 96
REMARK SMILES IDX 55 97 56 98 64 99 57 100 59 101 65 102 58 103 60 104 61 105
REMARK SMILES IDX 62 106 63 107
REMARK H PARENT 19 7 102 33 26 41 85 60 53 71
REMARK Flexibility Score: inf
ROOT
ATOM      1  C   UNL     1       3.791  -2.228   0.310  1.00  0.00     0.002 C 
ENDROOT
BRANCH   1   2
ATOM      2  C   UNL     1       3.076  -2.178  -1.038  1.00  0.00     0.021 C 
BRANCH   2   3
ATOM      3  C   UNL     1       3.925  -2.465  -2.276  1.00  0.00     0.116 C 
BRANCH   3   4
ATOM      4  N   UNL     1       4.282  -3.873  -2.498  1.00  0.00    -0.353 N 
ATOM      5  C   UNL     1       4.136  -4.676  -3.632  1.00  0.00     0.263 C 
ATOM      6  O   UNL     1       4.674  -5.787  -3.615  1.00  0.00    -0.270 OA
ATOM      7  H   UNL     1       4.690  -4.324  -1.724  1.00  0.00     0.163 HD
BRANCH   5   8
ATOM      8  C   UNL     1       3.158  -4.233  -4.784  1.00  0.00     0.181 C 
ATOM      9  C   UNL     1       3.710  -2.928  -5.382  1.00  0.00     0.067 C 
ATOM     10  C   UNL     1       1.859  -4.214  -3.924  1.00  0.00     0.067 C 
BRANCH   8  11
ATOM     11  O   UNL     1       3.088  -5.151  -5.944  1.00  0.00    -0.478 OA
BRANCH  11  12
ATOM     12  C   UNL     1       1.941  -5.016  -6.727  1.00  0.00     0.121 A 
ATOM     13  C   UNL     1      -2.651  -2.255  -4.880  1.00  0.00     0.016 C 
ATOM     14  C   UNL     1      -1.870  -2.332  -5.978  1.00  0.00     0.001 C 
ATOM     15  C   UNL     1      -1.814  -1.891  -7.443  1.00  0.00     0.044 C 
ATOM     16  C   UNL     1      -0.661  -3.077  -5.737  1.00  0.00     0.189 C 
ATOM     17  C   UNL     1      -0.336  -2.166  -8.146  1.00  0.00     0.041 C 
ATOM     18  C   UNL     1      -0.528  -4.143  -6.780  1.00  0.00     0.026 A 
ATOM     19  O   UNL     1       0.263  -2.531  -5.147  1.00  0.00    -0.289 OA
ATOM     20  C   UNL     1       0.297  -3.500  -7.684  1.00  0.00    -0.033 A 
ATOM     21  C   UNL     1      -0.347  -5.454  -6.366  1.00  0.00     0.016 A 
ATOM     22  C   UNL     1       1.641  -3.889  -7.557  1.00  0.00     0.051 A 
ATOM     23  C   UNL     1       0.945  -5.932  -6.385  1.00  0.00     0.047 A 
BRANCH  13  24
ATOM     24  C   UNL     1      -2.077  -2.442  -3.495  1.00  0.00    -0.018 A 
ATOM     25  C   UNL     1      -0.974  -1.232  -1.646  1.00  0.00     0.165 A 
ATOM     26  C   UNL     1      -1.635  -1.261  -2.886  1.00  0.00     0.058 A 
ATOM     27  C   UNL     1      -0.719  -2.439  -0.984  1.00  0.00     0.200 A 
ATOM     28  C   UNL     1      -1.083  -3.657  -1.594  1.00  0.00     0.165 A 
ATOM     29  C   UNL     1      -1.775  -3.647  -2.837  1.00  0.00     0.058 A 
BRANCH  25  30
ATOM     30  O   UNL     1      -0.679   0.054  -1.297  1.00  0.00    -0.493 OA
ATOM     31  C   UNL     1      -0.123   0.396  -0.047  1.00  0.00     0.278 C 
ENDBRANCH  25  30
BRANCH  27  32
ATOM     32  O   UNL     1      -0.137  -2.472   0.254  1.00  0.00    -0.502 OA
ATOM     33  H   UNL     1       0.112  -1.673   0.676  1.00  0.00     0.293 HD
ENDBRANCH  27  32
BRANCH  28  34
ATOM     34  O   UNL     1      -0.829  -4.924  -1.106  1.00  0.00    -0.493 OA
ATOM     35  C   UNL     1       0.225  -5.092  -0.156  1.00  0.00     0.278 C 
ENDBRANCH  28  34
ENDBRANCH  13  24
ENDBRANCH  11  12
ENDBRANCH   8  11
ENDBRANCH   5   8
ENDBRANCH   3   4
ENDBRANCH   2   3
ENDBRANCH   1   2
BRANCH   1  36
ATOM     36  C   UNL     1       4.939  -1.227   0.483  1.00  0.00     0.002 C 
BRANCH  36  37
ATOM     37  C   UNL     1       4.573   0.255   0.333  1.00  0.00     0.021 C 
BRANCH  37  38
ATOM     38  C   UNL     1       3.577   0.793   1.359  1.00  0.00     0.116 C 
BRANCH  38  39
ATOM     39  N   UNL     1       4.098   0.782   2.716  1.00  0.00    -0.352 N 
ATOM     40  C   UNL     1       4.323   1.824   3.590  1.00  0.00     0.251 C 
ATOM     41  H   UNL     1       4.324  -0.110   3.067  1.00  0.00     0.163 HD
ATOM     42  O   UNL     1       4.897   1.617   4.648  1.00  0.00    -0.269 OA
BRANCH  40  43
ATOM     43  C   UNL     1       3.902   3.198   3.232  1.00  0.00     0.039 A 
ATOM     44  C   UNL     1       4.827   4.236   3.370  1.00  0.00     0.014 A 
ATOM     45  C   UNL     1       2.613   3.466   2.764  1.00  0.00     0.014 A 
ATOM     46  C   UNL     1       4.490   5.527   2.954  1.00  0.00     0.010 A 
ATOM     47  C   UNL     1       2.299   4.741   2.292  1.00  0.00     0.010 A 
ATOM     48  C   UNL     1       3.240   5.781   2.366  1.00  0.00    -0.014 A 
BRANCH  48  49
ATOM     49  C   UNL     1       2.930   7.104   1.764  1.00  0.00     0.031 A 
ATOM     50  C   UNL     1       1.821   7.959   2.310  1.00  0.00     0.074 A 
ATOM     51  C   UNL     1       3.597   7.496   0.658  1.00  0.00     0.049 A 
ATOM     52  N   UNL     1       1.365   9.101   1.864  1.00  0.00    -0.248 NA
ATOM     53  C   UNL     1       1.120   7.459   3.504  1.00  0.00     0.031 C 
ATOM     54  C   UNL     1       4.654   6.730  -0.006  1.00  0.00     0.029 A 
ATOM     55  N   UNL     1       3.464   8.619  -0.122  1.00  0.00    -0.354 N 
ATOM     56  C   UNL     1       0.310   9.444   2.699  1.00  0.00     0.074 A 
ATOM     57  C   UNL     1       0.176   8.376   3.667  1.00  0.00     0.031 C 
ATOM     58  C   UNL     1       5.070   7.401  -1.091  1.00  0.00     0.029 A 
ATOM     59  C   UNL     1       4.282   8.621  -1.228  1.00  0.00     0.049 A 
ATOM     60  H   UNL     1       2.842   9.352   0.090  1.00  0.00     0.167 HD
ATOM     61  C   UNL     1      -0.464  10.557   2.676  1.00  0.00     0.034 A 
ATOM     62  C   UNL     1       4.373   9.492  -2.253  1.00  0.00     0.034 A 
ATOM     63  C   UNL     1      -0.314  11.628   1.727  1.00  0.00     0.049 A 
ATOM     64  C   UNL     1       3.491  10.711  -2.260  1.00  0.00     0.074 A 
ATOM     65  C   UNL     1      -0.995  12.832   1.676  1.00  0.00     0.029 A 
ATOM     66  N   UNL     1       0.560  11.619   0.651  1.00  0.00    -0.354 N 
ATOM     67  N   UNL     1       2.609  11.096  -1.371  1.00  0.00    -0.248 NA
ATOM     68  C   UNL     1       3.634  11.630  -3.400  1.00  0.00     0.031 C 
ATOM     69  C   UNL     1      -0.562  13.533   0.546  1.00  0.00     0.029 A 
ATOM     70  C   UNL     1       0.415  12.782  -0.087  1.00  0.00     0.049 A 
ATOM     71  H   UNL     1       1.190  10.893   0.441  1.00  0.00     0.167 HD
ATOM     72  C   UNL     1       2.110  12.310  -1.829  1.00  0.00     0.074 A 
ATOM     73  C   UNL     1       2.811  12.612  -3.060  1.00  0.00     0.031 C 
ATOM     74  C   UNL     1       1.144  13.094  -1.290  1.00  0.00     0.034 A 
BRANCH  61  75
ATOM     75  C   UNL     1      -1.527  10.697   3.735  1.00  0.00     0.023 A 
ATOM     76  C   UNL     1      -1.152  10.958   5.069  1.00  0.00     0.012 A 
ATOM     77  C   UNL     1      -2.894  10.646   3.400  1.00  0.00     0.148 A 
ATOM     78  C   UNL     1      -2.119  11.136   6.057  1.00  0.00     0.002 A 
ATOM     79  C   UNL     1      -3.853  10.868   4.381  1.00  0.00     0.091 A 
ATOM     80  F   UNL     1      -3.231  10.380   2.130  1.00  0.00    -0.205 F 
ATOM     81  C   UNL     1      -3.467  11.102   5.712  1.00  0.00     0.022 A 
BRANCH  79  82
ATOM     82  S   UNL     1      -5.613  10.924   4.027  1.00  0.00     0.127 S 
ATOM     83  O   UNL     1      -6.088   9.720   4.708  1.00  0.00    -0.237 OA
ATOM     84  O   UNL     1      -6.013  12.181   4.659  1.00  0.00    -0.237 OA
ATOM     85  O   UNL     1      -5.733  10.906   2.576  1.00  0.00    -0.744 OA
ENDBRANCH  79  82
ENDBRANCH  61  75
BRANCH  62  86
ATOM     86  C   UNL     1       5.353   9.255  -3.352  1.00  0.00     0.023 A 
ATOM     87  C   UNL     1       6.455  10.120  -3.498  1.00  0.00     0.012 A 
ATOM     88  C   UNL     1       5.206   8.174  -4.243  1.00  0.00     0.148 A 
ATOM     89  C   UNL     1       7.374   9.932  -4.532  1.00  0.00     0.002 A 
ATOM     90  C   UNL     1       6.156   7.958  -5.234  1.00  0.00     0.091 A 
ATOM     91  F   UNL     1       4.143   7.371  -4.096  1.00  0.00    -0.205 F 
ATOM     92  C   UNL     1       7.230   8.848  -5.393  1.00  0.00     0.022 A 
BRANCH  90  93
ATOM     93  S   UNL     1       6.124   6.513  -6.300  1.00  0.00     0.127 S 
ATOM     94  O   UNL     1       5.785   7.103  -7.593  1.00  0.00    -0.237 OA
ATOM     95  O   UNL     1       7.498   6.024  -6.185  1.00  0.00    -0.237 OA
ATOM     96  O   UNL     1       5.121   5.624  -5.728  1.00  0.00    -0.744 OA
ENDBRANCH  90  93
ENDBRANCH  62  86
BRANCH  74  97
ATOM     97  C   UNL     1       0.791  14.367  -2.014  1.00  0.00     0.023 A 
ATOM     98  C   UNL     1       0.077  14.306  -3.227  1.00  0.00     0.012 A 
ATOM     99  C   UNL     1       1.097  15.624  -1.455  1.00  0.00     0.148 A 
ATOM    100  C   UNL     1      -0.301  15.474  -3.888  1.00  0.00     0.002 A 
ATOM    101  C   UNL     1       0.673  16.784  -2.093  1.00  0.00     0.091 A 
ATOM    102  F   UNL     1       1.789  15.662  -0.307  1.00  0.00    -0.205 F 
ATOM    103  C   UNL     1      -0.015  16.711  -3.316  1.00  0.00     0.022 A 
BRANCH 101 104
ATOM    104  S   UNL     1       0.912  18.420  -1.391  1.00  0.00     0.127 S 
ATOM    105  O   UNL     1       1.853  19.016  -2.339  1.00  0.00    -0.237 OA
ATOM    106  O   UNL     1      -0.440  18.976  -1.441  1.00  0.00    -0.237 OA
ATOM    107  O   UNL     1       1.435  18.211  -0.048  1.00  0.00    -0.744 OA
ENDBRANCH 101 104
ENDBRANCH  74  97
ENDBRANCH  48  49
ENDBRANCH  40  43
ENDBRANCH  38  39
ENDBRANCH  37  38
ENDBRANCH  36  37
ENDBRANCH   1  36
TORSDOF 22
