REMARK SMILES C[C@H](C(=O)NCCCCCCNC(=O)c1ccc(-c2c3nc(c(-c4cccc(S(=O)(=O)[O-])c4F)c4ccc([nH]4)c(-c4cccc(S(=O)(=O)[O-])c4F)c4nc(c(-c5cccc(S(=O)(=O)[O-])c5F)c5ccc2[nH]5)C=C4)C=C3)cc1)N1CCc2ccccc21
REMARK SMILES IDX 9 1 8 2 7 3 6 4 5 5 3 6 4 7 2 9 1 10 78 11 79 12 86 13 80 14
REMARK SMILES IDX 81 15 85 16 82 17 84 18 83 19 10 20 11 21 12 22 13 23 14 25
REMARK SMILES IDX 15 26 16 27 77 28 17 29 76 30 18 31 19 32 20 33 70 34 21 35
REMARK SMILES IDX 75 36 69 37 71 38 22 39 74 40 68 41 67 42 23 44 55 45 35 46
REMARK SMILES IDX 54 47 36 48 39 49 53 50 72 51 37 52 38 53 52 55 73 56 40 57
REMARK SMILES IDX 24 58 25 59 33 60 26 61 28 62 34 63 27 64 29 65 30 66 31 67
REMARK SMILES IDX 32 68 56 69 57 70 65 71 58 72 60 73 66 74 59 75 61 76 62 77
REMARK SMILES IDX 63 78 64 79 41 80 42 81 50 82 43 83 45 84 51 85 44 86 46 87
REMARK SMILES IDX 47 88 48 89 49 90
REMARK H PARENT 5 8 12 24 71 43 39 54
REMARK Flexibility Score: inf
ROOT
ATOM      1  C   UNL     1      -0.258   5.416   0.531  1.00  0.00     0.002 C 
ENDROOT
BRANCH   1   2
ATOM      2  C   UNL     1       0.744   4.376   1.044  1.00  0.00     0.002 C 
BRANCH   2   3
ATOM      3  C   UNL     1       0.128   3.014   1.380  1.00  0.00     0.021 C 
BRANCH   3   4
ATOM      4  C   UNL     1      -0.343   2.247   0.145  1.00  0.00     0.116 C 
BRANCH   4   5
ATOM      5  N   UNL     1       0.778   1.616  -0.521  1.00  0.00    -0.354 N 
ATOM      6  C   UNL     1       1.251   0.343  -0.367  1.00  0.00     0.242 C 
ATOM      7  O   UNL     1       2.305   0.067  -0.954  1.00  0.00    -0.273 OA
ATOM      8  H   UNL     1       1.262   2.178  -1.168  1.00  0.00     0.163 HD
BRANCH   6   9
ATOM      9  C   UNL     1       0.425  -0.729   0.386  1.00  0.00     0.168 C 
ATOM     10  C   UNL     1       1.200  -2.052   0.473  1.00  0.00     0.042 C 
BRANCH   9  11
ATOM     11  N   UNL     1      -0.064  -0.321   1.720  1.00  0.00    -0.359 N 
ATOM     12  C   UNL     1      -1.383  -0.817   2.163  1.00  0.00     0.122 C 
ATOM     13  C   UNL     1       0.753  -0.337   2.851  1.00  0.00     0.041 A 
ATOM     14  C   UNL     1      -1.395  -0.844   3.699  1.00  0.00     0.059 C 
ATOM     15  C   UNL     1       0.061  -0.730   3.999  1.00  0.00    -0.023 A 
ATOM     16  C   UNL     1       2.104  -0.050   2.932  1.00  0.00     0.026 A 
ATOM     17  C   UNL     1       0.704  -0.948   5.206  1.00  0.00     0.006 A 
ATOM     18  C   UNL     1       2.770  -0.249   4.144  1.00  0.00     0.002 A 
ATOM     19  C   UNL     1       2.079  -0.723   5.267  1.00  0.00     0.000 A 
ENDBRANCH   9  11
ENDBRANCH   6   9
ENDBRANCH   4   5
ENDBRANCH   3   4
ENDBRANCH   2   3
ENDBRANCH   1   2
BRANCH   1  20
ATOM     20  C   UNL     1      -1.432   5.699   1.473  1.00  0.00     0.021 C 
BRANCH  20  21
ATOM     21  C   UNL     1      -1.022   6.096   2.889  1.00  0.00     0.116 C 
BRANCH  21  22
ATOM     22  N   UNL     1      -0.210   7.305   2.885  1.00  0.00    -0.352 N 
ATOM     23  C   UNL     1      -0.505   8.541   3.402  1.00  0.00     0.251 C 
ATOM     24  H   UNL     1       0.672   7.224   2.454  1.00  0.00     0.163 HD
ATOM     25  O   UNL     1       0.154   9.524   3.079  1.00  0.00    -0.269 OA
BRANCH  23  26
ATOM     26  C   UNL     1      -1.625   8.673   4.355  1.00  0.00     0.039 A 
ATOM     27  C   UNL     1      -2.555   9.700   4.182  1.00  0.00     0.014 A 
ATOM     28  C   UNL     1      -1.743   7.778   5.423  1.00  0.00     0.014 A 
ATOM     29  C   UNL     1      -3.634   9.804   5.062  1.00  0.00     0.010 A 
ATOM     30  C   UNL     1      -2.855   7.842   6.255  1.00  0.00     0.010 A 
ATOM     31  C   UNL     1      -3.803   8.863   6.093  1.00  0.00    -0.014 A 
BRANCH  31  32
ATOM     32  C   UNL     1      -4.961   8.933   7.017  1.00  0.00     0.031 A 
ATOM     33  C   UNL     1      -4.740   9.185   8.484  1.00  0.00     0.074 A 
ATOM     34  C   UNL     1      -6.200   8.685   6.550  1.00  0.00     0.049 A 
ATOM     35  N   UNL     1      -5.615   9.229   9.453  1.00  0.00    -0.248 NA
ATOM     36  C   UNL     1      -3.349   9.387   8.924  1.00  0.00     0.031 C 
ATOM     37  C   UNL     1      -6.530   8.351   5.163  1.00  0.00     0.029 A 
ATOM     38  N   UNL     1      -7.410   8.650   7.196  1.00  0.00    -0.354 N 
ATOM     39  C   UNL     1      -4.883   9.428  10.618  1.00  0.00     0.074 A 
ATOM     40  C   UNL     1      -3.488   9.461  10.239  1.00  0.00     0.031 C 
ATOM     41  C   UNL     1      -7.854   8.150   5.062  1.00  0.00     0.029 A 
ATOM     42  C   UNL     1      -8.463   8.314   6.378  1.00  0.00     0.049 A 
ATOM     43  H   UNL     1      -7.514   8.848   8.155  1.00  0.00     0.167 HD
ATOM     44  C   UNL     1      -5.333   9.601  11.883  1.00  0.00     0.034 A 
ATOM     45  C   UNL     1      -9.771   8.153   6.659  1.00  0.00     0.034 A 
ATOM     46  C   UNL     1      -6.724   9.613  12.246  1.00  0.00     0.049 A 
ATOM     47  C   UNL     1     -10.249   8.393   8.065  1.00  0.00     0.074 A 
ATOM     48  C   UNL     1      -7.288   9.866  13.483  1.00  0.00     0.029 A 
ATOM     49  N   UNL     1      -7.770   9.356  11.373  1.00  0.00    -0.354 N 
ATOM     50  N   UNL     1      -9.557   8.738   9.124  1.00  0.00    -0.248 NA
ATOM     51  C   UNL     1     -11.692   8.259   8.309  1.00  0.00     0.031 C 
ATOM     52  C   UNL     1      -8.677   9.742  13.363  1.00  0.00     0.029 A 
ATOM     53  C   UNL     1      -8.977   9.437  12.045  1.00  0.00     0.049 A 
ATOM     54  H   UNL     1      -7.669   9.147  10.416  1.00  0.00     0.167 HD
ATOM     55  C   UNL     1     -10.482   8.899  10.149  1.00  0.00     0.074 A 
ATOM     56  C   UNL     1     -11.787   8.633   9.578  1.00  0.00     0.031 C 
ATOM     57  C   UNL     1     -10.271   9.223  11.448  1.00  0.00     0.034 A 
BRANCH  44  58
ATOM     58  C   UNL     1      -4.311   9.850  12.962  1.00  0.00     0.023 A 
ATOM     59  C   UNL     1      -3.625  11.082  12.998  1.00  0.00     0.012 A 
ATOM     60  C   UNL     1      -4.069   8.896  13.970  1.00  0.00     0.148 A 
ATOM     61  C   UNL     1      -2.691  11.348  13.997  1.00  0.00     0.002 A 
ATOM     62  C   UNL     1      -3.168   9.186  14.989  1.00  0.00     0.091 A 
ATOM     63  F   UNL     1      -4.713   7.722  13.909  1.00  0.00    -0.205 F 
ATOM     64  C   UNL     1      -2.470  10.405  14.998  1.00  0.00     0.022 A 
BRANCH  62  65
ATOM     65  S   UNL     1      -2.873   8.073  16.368  1.00  0.00     0.127 S 
ATOM     66  O   UNL     1      -1.517   7.605  16.084  1.00  0.00    -0.237 OA
ATOM     67  O   UNL     1      -2.978   8.973  17.518  1.00  0.00    -0.237 OA
ATOM     68  O   UNL     1      -3.913   7.057  16.294  1.00  0.00    -0.744 OA
ENDBRANCH  62  65
ENDBRANCH  44  58
BRANCH  45  69
ATOM     69  C   UNL     1     -10.731   7.819   5.569  1.00  0.00     0.023 A 
ATOM     70  C   UNL     1     -11.654   8.793   5.141  1.00  0.00     0.012 A 
ATOM     71  C   UNL     1     -10.717   6.561   4.936  1.00  0.00     0.148 A 
ATOM     72  C   UNL     1     -12.568   8.510   4.125  1.00  0.00     0.002 A 
ATOM     73  C   UNL     1     -11.594   6.304   3.888  1.00  0.00     0.091 A 
ATOM     74  F   UNL     1      -9.839   5.643   5.364  1.00  0.00    -0.205 F 
ATOM     75  C   UNL     1     -12.531   7.271   3.492  1.00  0.00     0.022 A 
BRANCH  73  76
ATOM     76  S   UNL     1     -11.530   4.785   2.930  1.00  0.00     0.127 S 
ATOM     77  O   UNL     1     -12.748   4.106   3.364  1.00  0.00    -0.237 OA
ATOM     78  O   UNL     1     -11.562   5.292   1.557  1.00  0.00    -0.237 OA
ATOM     79  O   UNL     1     -10.278   4.140   3.300  1.00  0.00    -0.744 OA
ENDBRANCH  73  76
ENDBRANCH  45  69
BRANCH  57  80
ATOM     80  C   UNL     1     -11.477   9.347  12.342  1.00  0.00     0.023 A 
ATOM     81  C   UNL     1     -12.169   8.190  12.750  1.00  0.00     0.012 A 
ATOM     82  C   UNL     1     -11.875  10.603  12.840  1.00  0.00     0.148 A 
ATOM     83  C   UNL     1     -13.258   8.284  13.615  1.00  0.00     0.002 A 
ATOM     84  C   UNL     1     -12.931  10.684  13.740  1.00  0.00     0.091 A 
ATOM     85  F   UNL     1     -11.215  11.695  12.425  1.00  0.00    -0.205 F 
ATOM     86  C   UNL     1     -13.631   9.528  14.119  1.00  0.00     0.022 A 
BRANCH  84  87
ATOM     87  S   UNL     1     -13.417  12.230  14.516  1.00  0.00     0.127 S 
ATOM     88  O   UNL     1     -14.677  12.521  13.834  1.00  0.00    -0.237 OA
ATOM     89  O   UNL     1     -13.559  11.842  15.920  1.00  0.00    -0.237 OA
ATOM     90  O   UNL     1     -12.334  13.168  14.256  1.00  0.00    -0.744 OA
ENDBRANCH  84  87
ENDBRANCH  57  80
ENDBRANCH  31  32
ENDBRANCH  23  26
ENDBRANCH  21  22
ENDBRANCH  20  21
ENDBRANCH   1  20
TORSDOF 17
