REMARK SMILES Cc1ccc(/C=C/C(=O)N[C@@H](CO)C(=O)NCCCCCCNC(=O)c2ccc(-c3c4nc(c(-c5cccc(S(=O)(=O)[O-])c5F)c5ccc([nH]5)c(-c5cccc(S(=O)(=O)[O-])c5F)c5nc(c(-c6cccc(S(=O)(=O)[O-])c6F)c6ccc3[nH]6)C=C5)C=C4)cc2)o1
REMARK SMILES IDX 19 1 18 2 17 3 16 4 14 5 15 6 11 8 10 9 8 10 9 11 7 13 6 14
REMARK SMILES IDX 5 15 1 16 2 17 3 18 89 19 4 20 12 21 13 22 20 24 21 25 22 26
REMARK SMILES IDX 23 27 24 28 25 30 26 31 27 32 88 33 28 34 87 35 29 36 30 37
REMARK SMILES IDX 31 38 81 39 32 40 86 41 80 42 82 43 33 44 85 45 79 46 78 47
REMARK SMILES IDX 34 49 66 50 46 51 65 52 47 53 50 54 64 55 83 56 48 57 49 58
REMARK SMILES IDX 63 60 84 61 51 62 35 63 36 64 44 65 37 66 39 67 45 68 38 69
REMARK SMILES IDX 40 70 41 71 42 72 43 73 67 74 68 75 76 76 69 77 71 78 77 79
REMARK SMILES IDX 70 80 72 81 73 82 74 83 75 84 52 85 53 86 61 87 54 88 56 89
REMARK SMILES IDX 62 90 55 91 57 92 58 93 59 94 60 95
REMARK H PARENT 16 7 10 12 13 23 23 29 82 48 50 59
REMARK Flexibility Score: inf
ROOT
ATOM      1  C   UNL     1      -9.052   4.466  -2.571  1.00  0.00     0.002 C 
ENDROOT
BRANCH   1   2
ATOM      2  C   UNL     1      -7.961   4.792  -1.549  1.00  0.00     0.021 C 
BRANCH   2   3
ATOM      3  C   UNL     1      -7.610   3.661  -0.587  1.00  0.00     0.116 C 
BRANCH   3   4
ATOM      4  N   UNL     1      -6.975   2.538  -1.250  1.00  0.00    -0.354 N 
ATOM      5  C   UNL     1      -5.953   1.736  -0.839  1.00  0.00     0.244 C 
ATOM      6  O   UNL     1      -5.696   0.742  -1.530  1.00  0.00    -0.273 OA
ATOM      7  H   UNL     1      -7.341   2.322  -2.138  1.00  0.00     0.163 HD
BRANCH   5   8
ATOM      8  C   UNL     1      -5.131   2.017   0.435  1.00  0.00     0.197 C 
BRANCH   8   9
ATOM      9  N   UNL     1      -4.454   3.314   0.346  1.00  0.00    -0.339 N 
ATOM     10  C   UNL     1      -3.157   3.649   0.128  1.00  0.00     0.244 C 
ATOM     11  O   UNL     1      -2.864   4.835  -0.004  1.00  0.00    -0.270 OA
ATOM     12  H   UNL     1      -5.052   4.087   0.466  1.00  0.00     0.164 HD
BRANCH  10  13
ATOM     13  C   UNL     1      -2.075   2.646   0.181  1.00  0.00     0.075 C 
ATOM     14  C   UNL     1      -2.076   1.470  -0.459  1.00  0.00     0.053 C 
BRANCH  14  15
ATOM     15  C   UNL     1      -1.003   0.558  -0.283  1.00  0.00     0.127 A 
ATOM     16  C   UNL     1       2.527  -0.009   0.064  1.00  0.00     0.087 C 
ATOM     17  C   UNL     1       1.067  -0.201  -0.027  1.00  0.00     0.101 A 
ATOM     18  C   UNL     1       0.257  -1.311  -0.033  1.00  0.00     0.046 A 
ATOM     19  O   UNL     1       0.317   0.927  -0.145  1.00  0.00    -0.462 OA
ATOM     20  C   UNL     1      -1.060  -0.828  -0.209  1.00  0.00     0.050 A 
ENDBRANCH  14  15
ENDBRANCH  10  13
ENDBRANCH   8   9
BRANCH   8  21
ATOM     21  C   UNL     1      -5.907   1.779   1.737  1.00  0.00     0.191 C 
BRANCH  21  22
ATOM     22  O   UNL     1      -6.758   2.850   2.118  1.00  0.00    -0.394 OA
ATOM     23  H   UNL     1      -6.225   3.643   2.285  1.00  0.00     0.210 HD
ENDBRANCH  21  22
ENDBRANCH   8  21
ENDBRANCH   5   8
ENDBRANCH   3   4
ENDBRANCH   2   3
ENDBRANCH   1   2
BRANCH   1  24
ATOM     24  C   UNL     1     -10.362   3.925  -1.993  1.00  0.00     0.002 C 
BRANCH  24  25
ATOM     25  C   UNL     1     -11.003   4.767  -0.886  1.00  0.00     0.021 C 
BRANCH  25  26
ATOM     26  C   UNL     1     -11.246   6.233  -1.230  1.00  0.00     0.116 C 
BRANCH  26  27
ATOM     27  N   UNL     1     -12.092   6.397  -2.399  1.00  0.00    -0.352 N 
ATOM     28  C   UNL     1     -13.160   7.235  -2.592  1.00  0.00     0.251 C 
ATOM     29  H   UNL     1     -11.864   5.822  -3.165  1.00  0.00     0.163 HD
ATOM     30  O   UNL     1     -13.846   7.114  -3.604  1.00  0.00    -0.269 OA
BRANCH  28  31
ATOM     31  C   UNL     1     -13.502   8.266  -1.586  1.00  0.00     0.039 A 
ATOM     32  C   UNL     1     -14.849   8.471  -1.276  1.00  0.00     0.014 A 
ATOM     33  C   UNL     1     -12.519   9.051  -0.975  1.00  0.00     0.014 A 
ATOM     34  C   UNL     1     -15.206   9.438  -0.333  1.00  0.00     0.010 A 
ATOM     35  C   UNL     1     -12.872   9.966   0.018  1.00  0.00     0.010 A 
ATOM     36  C   UNL     1     -14.220  10.182   0.337  1.00  0.00    -0.014 A 
BRANCH  36  37
ATOM     37  C   UNL     1     -14.604  11.177   1.373  1.00  0.00     0.031 A 
ATOM     38  C   UNL     1     -14.320  12.643   1.177  1.00  0.00     0.074 A 
ATOM     39  C   UNL     1     -15.169  10.750   2.521  1.00  0.00     0.049 A 
ATOM     40  N   UNL     1     -14.632  13.651   1.952  1.00  0.00    -0.248 NA
ATOM     41  C   UNL     1     -13.568  13.031  -0.028  1.00  0.00     0.031 C 
ATOM     42  C   UNL     1     -15.396   9.348   2.881  1.00  0.00     0.029 A 
ATOM     43  N   UNL     1     -15.638  11.450   3.604  1.00  0.00    -0.354 N 
ATOM     44  C   UNL     1     -14.084  14.780   1.353  1.00  0.00     0.074 A 
ATOM     45  C   UNL     1     -13.398  14.333   0.161  1.00  0.00     0.031 C 
ATOM     46  C   UNL     1     -15.965   9.293   4.096  1.00  0.00     0.029 A 
ATOM     47  C   UNL     1     -16.134  10.649   4.607  1.00  0.00     0.049 A 
ATOM     48  H   UNL     1     -15.621  12.433   3.659  1.00  0.00     0.167 HD
ATOM     49  C   UNL     1     -14.169  16.073   1.744  1.00  0.00     0.034 A 
ATOM     50  C   UNL     1     -16.670  10.971   5.801  1.00  0.00     0.034 A 
ATOM     51  C   UNL     1     -14.904  16.521   2.897  1.00  0.00     0.049 A 
ATOM     52  C   UNL     1     -16.843  12.424   6.154  1.00  0.00     0.074 A 
ATOM     53  C   UNL     1     -15.154  17.820   3.305  1.00  0.00     0.029 A 
ATOM     54  N   UNL     1     -15.499  15.688   3.829  1.00  0.00    -0.354 N 
ATOM     55  N   UNL     1     -16.506  13.487   5.466  1.00  0.00    -0.248 NA
ATOM     56  C   UNL     1     -17.519  12.721   7.425  1.00  0.00     0.031 C 
ATOM     57  C   UNL     1     -15.881  17.771   4.499  1.00  0.00     0.029 A 
ATOM     58  C   UNL     1     -16.106  16.443   4.819  1.00  0.00     0.049 A 
ATOM     59  H   UNL     1     -15.492  14.704   3.794  1.00  0.00     0.167 HD
ATOM     60  C   UNL     1     -16.956  14.576   6.204  1.00  0.00     0.074 A 
ATOM     61  C   UNL     1     -17.623  14.041   7.372  1.00  0.00     0.031 C 
ATOM     62  C   UNL     1     -16.813  15.900   5.949  1.00  0.00     0.034 A 
BRANCH  49  63
ATOM     63  C   UNL     1     -13.498  17.120   0.893  1.00  0.00     0.023 A 
ATOM     64  C   UNL     1     -14.061  17.472  -0.350  1.00  0.00     0.012 A 
ATOM     65  C   UNL     1     -12.377  17.827   1.370  1.00  0.00     0.148 A 
ATOM     66  C   UNL     1     -13.506  18.497  -1.115  1.00  0.00     0.002 A 
ATOM     67  C   UNL     1     -11.856  18.877   0.623  1.00  0.00     0.091 A 
ATOM     68  F   UNL     1     -11.846  17.464   2.547  1.00  0.00    -0.205 F 
ATOM     69  C   UNL     1     -12.414  19.207  -0.624  1.00  0.00     0.022 A 
BRANCH  67  70
ATOM     70  S   UNL     1     -10.504  19.908   1.202  1.00  0.00     0.127 S 
ATOM     71  O   UNL     1      -9.443  19.563   0.257  1.00  0.00    -0.237 OA
ATOM     72  O   UNL     1     -11.054  21.254   1.037  1.00  0.00    -0.237 OA
ATOM     73  O   UNL     1     -10.258  19.514   2.583  1.00  0.00    -0.744 OA
ENDBRANCH  67  70
ENDBRANCH  49  63
BRANCH  50  74
ATOM     74  C   UNL     1     -17.149   9.901   6.721  1.00  0.00     0.023 A 
ATOM     75  C   UNL     1     -18.529   9.751   6.958  1.00  0.00     0.012 A 
ATOM     76  C   UNL     1     -16.246   9.031   7.361  1.00  0.00     0.148 A 
ATOM     77  C   UNL     1     -18.998   8.787   7.851  1.00  0.00     0.002 A 
ATOM     78  C   UNL     1     -16.724   8.034   8.204  1.00  0.00     0.091 A 
ATOM     79  F   UNL     1     -14.934   9.196   7.138  1.00  0.00    -0.205 F 
ATOM     80  C   UNL     1     -18.097   7.923   8.467  1.00  0.00     0.022 A 
BRANCH  78  81
ATOM     81  S   UNL     1     -15.637   6.796   8.921  1.00  0.00     0.127 S 
ATOM     82  O   UNL     1     -15.481   7.288  10.287  1.00  0.00    -0.237 OA
ATOM     83  O   UNL     1     -16.433   5.575   8.792  1.00  0.00    -0.237 OA
ATOM     84  O   UNL     1     -14.438   6.812   8.093  1.00  0.00    -0.744 OA
ENDBRANCH  78  81
ENDBRANCH  50  74
BRANCH  62  85
ATOM     85  C   UNL     1     -17.414  16.865   6.937  1.00  0.00     0.023 A 
ATOM     86  C   UNL     1     -16.840  17.008   8.216  1.00  0.00     0.012 A 
ATOM     87  C   UNL     1     -18.523  17.660   6.587  1.00  0.00     0.148 A 
ATOM     88  C   UNL     1     -17.389  17.888   9.148  1.00  0.00     0.002 A 
ATOM     89  C   UNL     1     -19.033  18.573   7.502  1.00  0.00     0.091 A 
ATOM     90  F   UNL     1     -19.071  17.500   5.373  1.00  0.00    -0.205 F 
ATOM     91  C   UNL     1     -18.479  18.677   8.787  1.00  0.00     0.022 A 
BRANCH  89  92
ATOM     92  S   UNL     1     -20.371  19.695   7.080  1.00  0.00     0.127 S 
ATOM     93  O   UNL     1     -21.522  19.031   7.687  1.00  0.00    -0.237 OA
ATOM     94  O   UNL     1     -19.964  20.935   7.742  1.00  0.00    -0.237 OA
ATOM     95  O   UNL     1     -20.378  19.769   5.625  1.00  0.00    -0.744 OA
ENDBRANCH  89  92
ENDBRANCH  62  85
ENDBRANCH  36  37
ENDBRANCH  28  31
ENDBRANCH  26  27
ENDBRANCH  25  26
ENDBRANCH  24  25
ENDBRANCH   1  24
TORSDOF 21
