REMARK SMILES CC(C)(O)C#Cc1ccc(C(=O)N[C@@H](CC2=c3ccccc3=NC2)C(=O)NCCCCCCNC(=O)c2ccc(-c3c4nc(c(-c5cccc(S(=O)(=O)[O-])c5F)c5ccc([nH]5)c(-c5cccc(S(=O)(=O)[O-])c5F)c5nc(c(-c6cccc(S(=O)(=O)[O-])c6F)c6ccc3[nH]6)C=C5)C=C4)cc2)s1
REMARK SMILES IDX 29 1 28 2 27 3 25 4 26 5 14 7 13 8 11 9 12 10 10 12 7 13
REMARK SMILES IDX 8 14 100 15 9 16 6 17 5 18 2 19 1 20 3 21 4 22 15 24 16 25
REMARK SMILES IDX 17 26 24 27 18 28 22 29 23 30 19 31 21 32 20 33 30 34 31 35
REMARK SMILES IDX 32 36 33 37 34 38 35 39 36 41 37 42 38 43 99 44 39 45 98 46
REMARK SMILES IDX 40 47 41 48 42 49 92 50 43 51 97 52 91 53 93 54 44 55 96 56
REMARK SMILES IDX 90 57 89 58 45 60 77 61 57 62 76 63 58 64 61 65 75 66 94 67
REMARK SMILES IDX 59 68 60 69 74 71 95 72 62 73 46 74 47 75 55 76 48 77 50 78
REMARK SMILES IDX 56 79 49 80 51 81 52 82 53 83 54 84 78 85 79 86 87 87 80 88
REMARK SMILES IDX 82 89 88 90 81 91 83 92 84 93 85 94 86 95 63 96 64 97 72 98
REMARK SMILES IDX 65 99 67 100 73 101 66 102 68 103 69 104 70 105 71 106
REMARK H PARENT 27 6 13 11 4 23 34 40 93 59 61 70
REMARK Flexibility Score: inf
ROOT
ATOM      1  C   UNL     1       8.877   6.125  -6.658  1.00  0.00     0.021 C 
ENDROOT
BRANCH   1   2
ATOM      2  C   UNL     1       7.873   5.012  -6.870  1.00  0.00     0.116 C 
BRANCH   2   3
ATOM      3  N   UNL     1       7.690   4.157  -5.728  1.00  0.00    -0.354 N 
ATOM      4  C   UNL     1       6.536   3.636  -5.233  1.00  0.00     0.242 C 
ATOM      5  O   UNL     1       6.641   2.708  -4.423  1.00  0.00    -0.273 OA
ATOM      6  H   UNL     1       8.510   3.918  -5.239  1.00  0.00     0.163 HD
BRANCH   4   7
ATOM      7  C   UNL     1       5.134   4.131  -5.668  1.00  0.00     0.175 C 
BRANCH   7   8
ATOM      8  N   UNL     1       4.947   5.587  -5.514  1.00  0.00    -0.339 N 
ATOM      9  C   UNL     1       3.994   6.347  -4.887  1.00  0.00     0.262 C 
ATOM     10  O   UNL     1       4.167   7.575  -4.932  1.00  0.00    -0.268 OA
ATOM     11  H   UNL     1       5.651   6.120  -5.949  1.00  0.00     0.164 HD
BRANCH   9  12
ATOM     12  C   UNL     1       2.915   5.765  -4.129  1.00  0.00     0.093 A 
ATOM     13  C   UNL     1       1.748   4.077  -2.881  1.00  0.00     0.078 A 
ATOM     14  C   UNL     1       1.580   5.307  -2.285  1.00  0.00     0.030 A 
ATOM     15  S   UNL     1       2.164   4.279  -4.513  1.00  0.00    -0.121 S 
ATOM     16  C   UNL     1       2.248   6.318  -3.045  1.00  0.00     0.027 A 
BRANCH  13  17
ATOM     17  C   UNL     1       1.503   2.806  -2.320  1.00  0.00    -0.053 C 
ATOM     18  C   UNL     1       1.069   1.653  -1.892  1.00  0.00    -0.063 C 
BRANCH  18  19
ATOM     19  C   UNL     1       0.562   0.310  -1.394  1.00  0.00     0.120 C 
ATOM     20  C   UNL     1       1.050   0.071   0.033  1.00  0.00     0.056 C 
ATOM     21  C   UNL     1       1.031  -0.799  -2.333  1.00  0.00     0.056 C 
BRANCH  19  22
ATOM     22  O   UNL     1      -0.863   0.348  -1.387  1.00  0.00    -0.378 OA
ATOM     23  H   UNL     1      -1.207  -0.502  -1.071  1.00  0.00     0.212 HD
ENDBRANCH  19  22
ENDBRANCH  18  19
ENDBRANCH  13  17
ENDBRANCH   9  12
ENDBRANCH   7   8
BRANCH   7  24
ATOM     24  C   UNL     1       4.593   3.563  -7.017  1.00  0.00     0.068 C 
BRANCH  24  25
ATOM     25  C   UNL     1       5.165   4.071  -8.310  1.00  0.00    -0.037 C 
ATOM     26  C   UNL     1       5.156   5.304  -8.819  1.00  0.00     0.001 A 
ATOM     27  C   UNL     1       5.975   3.155  -9.187  1.00  0.00     0.174 C 
ATOM     28  C   UNL     1       4.601   6.560  -8.427  1.00  0.00     0.010 A 
ATOM     29  C   UNL     1       6.178   5.217  -9.877  1.00  0.00     0.065 A 
ATOM     30  N   UNL     1       6.670   4.048 -10.142  1.00  0.00    -0.280 NA
ATOM     31  C   UNL     1       5.112   7.687  -8.948  1.00  0.00     0.001 A 
ATOM     32  C   UNL     1       6.653   6.498 -10.444  1.00  0.00     0.028 A 
ATOM     33  C   UNL     1       6.167   7.648  -9.946  1.00  0.00     0.002 A 
ENDBRANCH  24  25
ENDBRANCH   7  24
ENDBRANCH   4   7
ENDBRANCH   2   3
ENDBRANCH   1   2
BRANCH   1  34
ATOM     34  C   UNL     1      10.332   5.671  -6.708  1.00  0.00     0.002 C 
BRANCH  34  35
ATOM     35  C   UNL     1      10.742   4.901  -7.969  1.00  0.00     0.002 C 
BRANCH  35  36
ATOM     36  C   UNL     1      10.385   5.554  -9.309  1.00  0.00     0.021 C 
BRANCH  36  37
ATOM     37  C   UNL     1      10.839   7.004  -9.468  1.00  0.00     0.116 C 
BRANCH  37  38
ATOM     38  N   UNL     1      12.250   7.205  -9.223  1.00  0.00    -0.352 N 
ATOM     39  C   UNL     1      13.386   7.095  -9.973  1.00  0.00     0.251 C 
ATOM     40  H   UNL     1      12.435   7.487  -8.298  1.00  0.00     0.163 HD
ATOM     41  O   UNL     1      14.427   7.460  -9.419  1.00  0.00    -0.269 OA
BRANCH  39  42
ATOM     42  C   UNL     1      13.460   6.524 -11.346  1.00  0.00     0.039 A 
ATOM     43  C   UNL     1      12.372   6.124 -12.117  1.00  0.00     0.014 A 
ATOM     44  C   UNL     1      14.757   6.332 -11.867  1.00  0.00     0.014 A 
ATOM     45  C   UNL     1      12.573   5.455 -13.318  1.00  0.00     0.010 A 
ATOM     46  C   UNL     1      14.964   5.686 -13.083  1.00  0.00     0.010 A 
ATOM     47  C   UNL     1      13.869   5.208 -13.788  1.00  0.00    -0.014 A 
BRANCH  47  48
ATOM     48  C   UNL     1      13.992   4.554 -15.088  1.00  0.00     0.031 A 
ATOM     49  C   UNL     1      13.291   5.271 -16.188  1.00  0.00     0.074 A 
ATOM     50  C   UNL     1      14.677   3.419 -15.331  1.00  0.00     0.049 A 
ATOM     51  N   UNL     1      12.181   4.932 -16.759  1.00  0.00    -0.248 NA
ATOM     52  C   UNL     1      13.794   6.594 -16.581  1.00  0.00     0.031 C 
ATOM     53  C   UNL     1      15.617   2.715 -14.458  1.00  0.00     0.029 A 
ATOM     54  N   UNL     1      14.727   2.691 -16.485  1.00  0.00    -0.354 N 
ATOM     55  C   UNL     1      11.964   5.886 -17.748  1.00  0.00     0.074 A 
ATOM     56  C   UNL     1      12.886   6.962 -17.488  1.00  0.00     0.031 C 
ATOM     57  C   UNL     1      16.304   1.801 -15.185  1.00  0.00     0.029 A 
ATOM     58  C   UNL     1      15.749   1.748 -16.525  1.00  0.00     0.049 A 
ATOM     59  H   UNL     1      14.092   2.823 -17.226  1.00  0.00     0.167 HD
ATOM     60  C   UNL     1      11.201   5.617 -18.841  1.00  0.00     0.034 A 
ATOM     61  C   UNL     1      16.122   1.017 -17.606  1.00  0.00     0.034 A 
ATOM     62  C   UNL     1      10.386   4.447 -18.659  1.00  0.00     0.049 A 
ATOM     63  C   UNL     1      14.941   0.955 -18.496  1.00  0.00     0.074 A 
ATOM     64  C   UNL     1       9.378   4.072 -17.795  1.00  0.00     0.029 A 
ATOM     65  N   UNL     1      10.841   3.292 -19.242  1.00  0.00    -0.354 N 
ATOM     66  N   UNL     1      13.837   0.331 -18.197  1.00  0.00    -0.248 NA
ATOM     67  C   UNL     1      14.853   1.897 -19.599  1.00  0.00     0.031 C 
ATOM     68  C   UNL     1       9.586   2.680 -17.567  1.00  0.00     0.029 A 
ATOM     69  C   UNL     1      10.681   2.279 -18.337  1.00  0.00     0.049 A 
ATOM     70  H   UNL     1      11.214   3.207 -20.149  1.00  0.00     0.167 HD
ATOM     71  C   UNL     1      12.839   1.109 -18.762  1.00  0.00     0.074 A 
ATOM     72  C   UNL     1      13.526   1.978 -19.712  1.00  0.00     0.031 C 
ATOM     73  C   UNL     1      11.597   1.169 -18.202  1.00  0.00     0.034 A 
BRANCH  60  74
ATOM     74  C   UNL     1      11.469   6.176 -20.216  1.00  0.00     0.023 A 
ATOM     75  C   UNL     1      10.477   6.001 -21.207  1.00  0.00     0.012 A 
ATOM     76  C   UNL     1      12.746   6.598 -20.649  1.00  0.00     0.148 A 
ATOM     77  C   UNL     1      10.754   6.212 -22.562  1.00  0.00     0.002 A 
ATOM     78  C   UNL     1      12.995   6.878 -21.987  1.00  0.00     0.091 A 
ATOM     79  F   UNL     1      13.771   6.599 -19.791  1.00  0.00    -0.205 F 
ATOM     80  C   UNL     1      12.009   6.662 -22.952  1.00  0.00     0.022 A 
BRANCH  78  81
ATOM     81  S   UNL     1      14.592   7.486 -22.538  1.00  0.00     0.127 S 
ATOM     82  O   UNL     1      15.135   6.309 -23.210  1.00  0.00    -0.237 OA
ATOM     83  O   UNL     1      14.203   8.584 -23.423  1.00  0.00    -0.237 OA
ATOM     84  O   UNL     1      15.284   7.912 -21.328  1.00  0.00    -0.744 OA
ENDBRANCH  78  81
ENDBRANCH  60  74
BRANCH  61  85
ATOM     85  C   UNL     1      17.460   0.572 -18.076  1.00  0.00     0.023 A 
ATOM     86  C   UNL     1      17.536  -0.326 -19.166  1.00  0.00     0.012 A 
ATOM     87  C   UNL     1      18.639   1.252 -17.703  1.00  0.00     0.148 A 
ATOM     88  C   UNL     1      18.714  -0.478 -19.907  1.00  0.00     0.002 A 
ATOM     89  C   UNL     1      19.813   1.089 -18.436  1.00  0.00     0.091 A 
ATOM     90  F   UNL     1      18.589   2.131 -16.694  1.00  0.00    -0.205 F 
ATOM     91  C   UNL     1      19.848   0.243 -19.552  1.00  0.00     0.022 A 
BRANCH  89  92
ATOM     92  S   UNL     1      21.318   1.992 -18.041  1.00  0.00     0.127 S 
ATOM     93  O   UNL     1      22.342   0.954 -18.172  1.00  0.00    -0.237 OA
ATOM     94  O   UNL     1      21.344   3.012 -19.085  1.00  0.00    -0.237 OA
ATOM     95  O   UNL     1      21.137   2.479 -16.679  1.00  0.00    -0.744 OA
ENDBRANCH  89  92
ENDBRANCH  61  85
BRANCH  73  96
ATOM     96  C   UNL     1      11.242   0.150 -17.152  1.00  0.00     0.023 A 
ATOM     97  C   UNL     1      11.818   0.168 -15.864  1.00  0.00     0.012 A 
ATOM     98  C   UNL     1      10.152  -0.697 -17.405  1.00  0.00     0.148 A 
ATOM     99  C   UNL     1      11.307  -0.642 -14.847  1.00  0.00     0.002 A 
ATOM    100  C   UNL     1       9.621  -1.470 -16.381  1.00  0.00     0.091 A 
ATOM    101  F   UNL     1       9.617  -0.684 -18.635  1.00  0.00    -0.205 F 
ATOM    102  C   UNL     1      10.198  -1.448 -15.100  1.00  0.00     0.022 A 
BRANCH 100 103
ATOM    103  S   UNL     1       8.129  -2.441 -16.601  1.00  0.00     0.127 S 
ATOM    104  O   UNL     1       8.611  -3.802 -16.372  1.00  0.00    -0.237 OA
ATOM    105  O   UNL     1       7.261  -1.915 -15.547  1.00  0.00    -0.237 OA
ATOM    106  O   UNL     1       7.663  -2.173 -17.956  1.00  0.00    -0.744 OA
ENDBRANCH 100 103
ENDBRANCH  73  96
ENDBRANCH  47  48
ENDBRANCH  39  42
ENDBRANCH  37  38
ENDBRANCH  36  37
ENDBRANCH  35  36
ENDBRANCH  34  35
ENDBRANCH   1  34
TORSDOF 23
