REMARK SMILES O=C(/C=C/C(=O)Nc1ccc2[nH]ncc2c1)NCCCCCCNC(=O)c1ccc(-c2c3nc(c(-c4cccc(S(=O)(=O)[O-])c4F)c4ccc([nH]4)c(-c4cccc(S(=O)(=O)[O-])c4F)c4nc(c(-c5cccc(S(=O)(=O)[O-])c5F)c5ccc2[nH]5)C=C4)C=C3)cc1
REMARK SMILES IDX 21 1 20 2 19 3 18 4 17 5 1 6 2 7 3 9 4 10 5 11 6 12 7 13
REMARK SMILES IDX 8 15 9 16 16 17 10 18 15 19 11 20 14 21 12 22 13 23 22 25
REMARK SMILES IDX 23 26 24 27 25 28 26 30 27 31 28 32 89 33 29 34 88 35 30 36
REMARK SMILES IDX 31 37 32 38 82 39 33 40 87 41 81 42 83 43 34 44 86 45 80 46
REMARK SMILES IDX 79 47 35 49 67 50 47 51 66 52 48 53 51 54 65 55 84 56 49 57
REMARK SMILES IDX 50 58 64 60 85 61 52 62 36 63 37 64 45 65 38 66 40 67 46 68
REMARK SMILES IDX 39 69 41 70 42 71 43 72 44 73 68 74 69 75 77 76 70 77 72 78
REMARK SMILES IDX 78 79 71 80 73 81 74 82 75 83 76 84 53 85 54 86 62 87 55 88
REMARK SMILES IDX 57 89 63 90 56 91 58 92 59 93 60 94 61 95
REMARK H PARENT 17 8 7 14 12 24 24 29 83 48 51 59
REMARK Flexibility Score: inf
ROOT
ATOM      1  C   UNL     1       4.592   2.490   3.583  1.00  0.00     0.002 C 
ENDROOT
BRANCH   1   2
ATOM      2  C   UNL     1       4.079   1.048   3.649  1.00  0.00     0.002 C 
BRANCH   2   3
ATOM      3  C   UNL     1       2.572   0.887   3.399  1.00  0.00     0.021 C 
BRANCH   3   4
ATOM      4  C   UNL     1       2.107   1.449   2.054  1.00  0.00     0.116 C 
BRANCH   4   5
ATOM      5  N   UNL     1       2.800   0.788   0.967  1.00  0.00    -0.353 N 
ATOM      6  O   UNL     1       1.109  -0.698   0.514  1.00  0.00    -0.270 OA
ATOM      7  C   UNL     1       2.259  -0.294   0.342  1.00  0.00     0.244 C 
ATOM      8  H   UNL     1       3.677   1.127   0.676  1.00  0.00     0.163 HD
BRANCH   7   9
ATOM      9  C   UNL     1       3.159  -1.052  -0.547  1.00  0.00     0.077 C 
ATOM     10  C   UNL     1       4.187  -0.549  -1.248  1.00  0.00     0.077 C 
BRANCH  10  11
ATOM     11  C   UNL     1       4.906  -1.401  -2.229  1.00  0.00     0.248 C 
ATOM     12  O   UNL     1       6.133  -1.451  -2.190  1.00  0.00    -0.270 OA
ATOM     13  N   UNL     1       4.197  -2.165  -3.122  1.00  0.00    -0.322 N 
ATOM     14  H   UNL     1       4.721  -2.837  -3.615  1.00  0.00     0.170 HD
BRANCH  13  15
ATOM     15  C   UNL     1       2.824  -2.119  -3.430  1.00  0.00     0.042 A 
ATOM     16  C   UNL     1       2.100  -0.920  -3.424  1.00  0.00     0.028 A 
ATOM     17  C   UNL     1       2.173  -3.340  -3.649  1.00  0.00     0.038 A 
ATOM     18  C   UNL     1       0.703  -0.910  -3.470  1.00  0.00     0.030 A 
ATOM     19  C   UNL     1       0.766  -3.350  -3.663  1.00  0.00     0.022 A 
ATOM     20  C   UNL     1       0.072  -2.151  -3.546  1.00  0.00     0.065 A 
ATOM     21  C   UNL     1      -0.244  -4.334  -3.725  1.00  0.00     0.143 A 
ATOM     22  N   UNL     1      -1.252  -2.501  -3.502  1.00  0.00    -0.278 N 
ATOM     23  N   UNL     1      -1.475  -3.821  -3.646  1.00  0.00    -0.183 NA
ATOM     24  H   UNL     1      -1.976  -1.846  -3.375  1.00  0.00     0.190 HD
ENDBRANCH  13  15
ENDBRANCH  10  11
ENDBRANCH   7   9
ENDBRANCH   4   5
ENDBRANCH   3   4
ENDBRANCH   2   3
ENDBRANCH   1   2
BRANCH   1  25
ATOM     25  C   UNL     1       3.916   3.457   4.557  1.00  0.00     0.021 C 
BRANCH  25  26
ATOM     26  C   UNL     1       4.016   3.056   6.025  1.00  0.00     0.116 C 
BRANCH  26  27
ATOM     27  N   UNL     1       5.395   2.985   6.482  1.00  0.00    -0.352 N 
ATOM     28  C   UNL     1       5.971   3.538   7.597  1.00  0.00     0.251 C 
ATOM     29  H   UNL     1       6.003   2.464   5.909  1.00  0.00     0.163 HD
ATOM     30  O   UNL     1       7.195   3.521   7.724  1.00  0.00    -0.269 OA
BRANCH  28  31
ATOM     31  C   UNL     1       5.128   4.170   8.634  1.00  0.00     0.039 A 
ATOM     32  C   UNL     1       5.537   5.387   9.186  1.00  0.00     0.014 A 
ATOM     33  C   UNL     1       3.944   3.567   9.071  1.00  0.00     0.014 A 
ATOM     34  C   UNL     1       4.734   6.022  10.135  1.00  0.00     0.010 A 
ATOM     35  C   UNL     1       3.109   4.238   9.960  1.00  0.00     0.010 A 
ATOM     36  C   UNL     1       3.498   5.468  10.509  1.00  0.00    -0.014 A 
BRANCH  36  37
ATOM     37  C   UNL     1       2.600   6.182  11.453  1.00  0.00     0.031 A 
ATOM     38  C   UNL     1       2.247   5.582  12.787  1.00  0.00     0.074 A 
ATOM     39  C   UNL     1       2.046   7.353  11.077  1.00  0.00     0.049 A 
ATOM     40  N   UNL     1       1.505   6.079  13.742  1.00  0.00    -0.248 NA
ATOM     41  C   UNL     1       2.772   4.238  13.076  1.00  0.00     0.031 C 
ATOM     42  C   UNL     1       2.236   7.997   9.775  1.00  0.00     0.029 A 
ATOM     43  N   UNL     1       1.202   8.202  11.747  1.00  0.00    -0.354 N 
ATOM     44  C   UNL     1       1.443   5.100  14.727  1.00  0.00     0.074 A 
ATOM     45  C   UNL     1       2.196   3.966  14.238  1.00  0.00     0.031 C 
ATOM     46  C   UNL     1       1.553   9.152   9.753  1.00  0.00     0.029 A 
ATOM     47  C   UNL     1       0.856   9.319  11.024  1.00  0.00     0.049 A 
ATOM     48  H   UNL     1       0.876   8.028  12.659  1.00  0.00     0.167 HD
ATOM     49  C   UNL     1       0.838   5.149  15.938  1.00  0.00     0.034 A 
ATOM     50  C   UNL     1       0.072  10.365  11.350  1.00  0.00     0.034 A 
ATOM     51  C   UNL     1       0.123   6.294  16.437  1.00  0.00     0.049 A 
ATOM     52  C   UNL     1      -0.547  10.416  12.720  1.00  0.00     0.074 A 
ATOM     53  C   UNL     1      -0.428   6.486  17.692  1.00  0.00     0.029 A 
ATOM     54  N   UNL     1      -0.155   7.436  15.701  1.00  0.00    -0.354 N 
ATOM     55  N   UNL     1      -0.437   9.563  13.709  1.00  0.00    -0.248 NA
ATOM     56  C   UNL     1      -1.367  11.595  13.031  1.00  0.00     0.031 C 
ATOM     57  C   UNL     1      -1.071   7.730  17.702  1.00  0.00     0.029 A 
ATOM     58  C   UNL     1      -0.890   8.327  16.465  1.00  0.00     0.049 A 
ATOM     59  H   UNL     1       0.128   7.590  14.771  1.00  0.00     0.167 HD
ATOM     60  C   UNL     1      -1.144  10.117  14.771  1.00  0.00     0.074 A 
ATOM     61  C   UNL     1      -1.654  11.392  14.309  1.00  0.00     0.031 C 
ATOM     62  C   UNL     1      -1.362   9.611  16.010  1.00  0.00     0.034 A 
BRANCH  49  63
ATOM     63  C   UNL     1       0.956   3.937  16.828  1.00  0.00     0.023 A 
ATOM     64  C   UNL     1       2.201   3.609  17.405  1.00  0.00     0.012 A 
ATOM     65  C   UNL     1      -0.171   3.147  17.129  1.00  0.00     0.148 A 
ATOM     66  C   UNL     1       2.332   2.493  18.230  1.00  0.00     0.002 A 
ATOM     67  C   UNL     1      -0.043   2.064  17.992  1.00  0.00     0.091 A 
ATOM     68  F   UNL     1      -1.343   3.458  16.556  1.00  0.00    -0.205 F 
ATOM     69  C   UNL     1       1.209   1.727  18.532  1.00  0.00     0.022 A 
BRANCH  67  70
ATOM     70  S   UNL     1      -1.447   1.067  18.506  1.00  0.00     0.127 S 
ATOM     71  O   UNL     1      -1.222  -0.167  17.756  1.00  0.00    -0.237 OA
ATOM     72  O   UNL     1      -1.232   0.952  19.949  1.00  0.00    -0.237 OA
ATOM     73  O   UNL     1      -2.633   1.823  18.130  1.00  0.00    -0.744 OA
ENDBRANCH  67  70
ENDBRANCH  49  63
BRANCH  50  74
ATOM     74  C   UNL     1      -0.095  11.495  10.393  1.00  0.00     0.023 A 
ATOM     75  C   UNL     1       0.503  12.737  10.686  1.00  0.00     0.012 A 
ATOM     76  C   UNL     1      -0.809  11.344   9.189  1.00  0.00     0.148 A 
ATOM     77  C   UNL     1       0.368  13.816   9.813  1.00  0.00     0.002 A 
ATOM     78  C   UNL     1      -0.894  12.407   8.298  1.00  0.00     0.091 A 
ATOM     79  F   UNL     1      -1.378  10.157   8.934  1.00  0.00    -0.205 F 
ATOM     80  C   UNL     1      -0.321  13.649   8.615  1.00  0.00     0.022 A 
BRANCH  78  81
ATOM     81  S   UNL     1      -1.648  12.249   6.675  1.00  0.00     0.127 S 
ATOM     82  O   UNL     1      -2.832  13.093   6.812  1.00  0.00    -0.237 OA
ATOM     83  O   UNL     1      -0.603  12.789   5.805  1.00  0.00    -0.237 OA
ATOM     84  O   UNL     1      -1.903  10.826   6.495  1.00  0.00    -0.744 OA
ENDBRANCH  78  81
ENDBRANCH  50  74
BRANCH  62  85
ATOM     85  C   UNL     1      -2.171  10.448  16.968  1.00  0.00     0.023 A 
ATOM     86  C   UNL     1      -3.552  10.629  16.749  1.00  0.00     0.012 A 
ATOM     87  C   UNL     1      -1.573  11.023  18.106  1.00  0.00     0.148 A 
ATOM     88  C   UNL     1      -4.314  11.406  17.621  1.00  0.00     0.002 A 
ATOM     89  C   UNL     1      -2.350  11.752  19.000  1.00  0.00     0.091 A 
ATOM     90  F   UNL     1      -0.255  10.859  18.290  1.00  0.00    -0.205 F 
ATOM     91  C   UNL     1      -3.716  11.958  18.751  1.00  0.00     0.022 A 
BRANCH  89  92
ATOM     92  S   UNL     1      -1.682  12.414  20.531  1.00  0.00     0.127 S 
ATOM     93  O   UNL     1      -1.560  13.836  20.213  1.00  0.00    -0.237 OA
ATOM     94  O   UNL     1      -2.735  12.094  21.495  1.00  0.00    -0.237 OA
ATOM     95  O   UNL     1      -0.427  11.710  20.755  1.00  0.00    -0.744 OA
ENDBRANCH  89  92
ENDBRANCH  62  85
ENDBRANCH  36  37
ENDBRANCH  28  31
ENDBRANCH  26  27
ENDBRANCH  25  26
ENDBRANCH   1  25
TORSDOF 18
