REMARK SMILES O=C(NCCCCCCNC(=O)c1ccc(-c2c3nc(c(-c4cccc(S(=O)(=O)[O-])c4F)c4ccc([nH]4)c(-c4cccc(S(=O)(=O)[O-])c4F)c4nc(c(-c5cccc(S(=O)(=O)[O-])c5F)c5ccc2[nH]5)C=C4)C=C3)cc1)c1ccc(C[C@H]2SC(=O)N(c3ccccc3)C2=O)cc1
REMARK SMILES IDX 6 1 5 2 4 3 3 4 1 5 2 6 76 8 77 9 95 10 78 11 94 12 79 13
REMARK SMILES IDX 80 14 81 15 82 16 92 17 83 18 85 19 93 20 84 21 86 22 87 23
REMARK SMILES IDX 91 24 88 25 90 26 89 27 7 28 8 29 9 30 10 31 11 32 12 34
REMARK SMILES IDX 13 35 14 36 75 37 15 38 74 39 16 40 17 41 18 42 68 43 19 44
REMARK SMILES IDX 73 45 67 46 69 47 20 48 72 49 66 50 65 51 21 53 53 54 33 55
REMARK SMILES IDX 52 56 34 57 37 58 51 59 70 60 35 61 36 62 50 64 71 65 38 66
REMARK SMILES IDX 22 67 23 68 31 69 24 70 26 71 32 72 25 73 27 74 28 75 29 76
REMARK SMILES IDX 30 77 54 78 55 79 63 80 56 81 58 82 64 83 57 84 59 85 60 86
REMARK SMILES IDX 61 87 62 88 39 89 40 90 48 91 41 92 43 93 49 94 42 95 44 96
REMARK SMILES IDX 45 97 46 98 47 99
REMARK H PARENT 3 7 10 33 69 52 37 63
REMARK Flexibility Score: inf
ROOT
ATOM      1  C   UNL     1       6.471   8.729  -3.674  1.00  0.00     0.002 C 
ENDROOT
BRANCH   1   2
ATOM      2  C   UNL     1       6.373   7.774  -2.481  1.00  0.00     0.021 C 
BRANCH   2   3
ATOM      3  C   UNL     1       7.596   7.764  -1.566  1.00  0.00     0.116 C 
BRANCH   3   4
ATOM      4  N   UNL     1       7.803   9.050  -0.914  1.00  0.00    -0.352 N 
ATOM      5  O   UNL     1       7.845  10.500   0.824  1.00  0.00    -0.269 OA
ATOM      6  C   UNL     1       7.828   9.340   0.428  1.00  0.00     0.251 C 
ATOM      7  H   UNL     1       7.943   9.815  -1.517  1.00  0.00     0.163 HD
BRANCH   6   8
ATOM      8  C   UNL     1       7.807   8.228   1.399  1.00  0.00     0.039 A 
ATOM      9  C   UNL     1       8.775   7.223   1.338  1.00  0.00     0.014 A 
ATOM     10  C   UNL     1       6.786   8.171   2.348  1.00  0.00     0.014 A 
ATOM     11  C   UNL     1       8.659   6.107   2.162  1.00  0.00     0.004 A 
ATOM     12  C   UNL     1       6.667   7.045   3.166  1.00  0.00     0.004 A 
ATOM     13  C   UNL     1       7.580   5.985   3.051  1.00  0.00    -0.046 A 
BRANCH  13  14
ATOM     14  C   UNL     1       7.386   4.706   3.836  1.00  0.00     0.060 C 
BRANCH  14  15
ATOM     15  C   UNL     1       6.599   3.612   3.087  1.00  0.00     0.151 C 
ATOM     16  S   UNL     1       7.459   2.983   1.623  1.00  0.00    -0.050 SA
ATOM     17  C   UNL     1       6.456   2.404   3.993  1.00  0.00     0.248 C 
ATOM     18  C   UNL     1       8.033   1.561   2.465  1.00  0.00     0.293 C 
ATOM     19  N   UNL     1       7.324   1.383   3.633  1.00  0.00    -0.240 N 
ATOM     20  O   UNL     1       5.726   2.440   4.982  1.00  0.00    -0.273 OA
ATOM     21  O   UNL     1       8.920   0.876   1.993  1.00  0.00    -0.261 OA
BRANCH  19  22
ATOM     22  C   UNL     1       7.496   0.219   4.436  1.00  0.00     0.053 A 
ATOM     23  C   UNL     1       6.397  -0.398   5.052  1.00  0.00     0.027 A 
ATOM     24  C   UNL     1       8.767  -0.345   4.624  1.00  0.00     0.027 A 
ATOM     25  C   UNL     1       6.564  -1.553   5.821  1.00  0.00     0.002 A 
ATOM     26  C   UNL     1       8.938  -1.480   5.423  1.00  0.00     0.002 A 
ATOM     27  C   UNL     1       7.835  -2.087   6.015  1.00  0.00     0.000 A 
ENDBRANCH  19  22
ENDBRANCH  14  15
ENDBRANCH  13  14
ENDBRANCH   6   8
ENDBRANCH   3   4
ENDBRANCH   2   3
ENDBRANCH   1   2
BRANCH   1  28
ATOM     28  C   UNL     1       7.689   8.525  -4.579  1.00  0.00     0.002 C 
BRANCH  28  29
ATOM     29  C   UNL     1       7.858   7.111  -5.141  1.00  0.00     0.021 C 
BRANCH  29  30
ATOM     30  C   UNL     1       6.667   6.587  -5.934  1.00  0.00     0.116 C 
BRANCH  30  31
ATOM     31  N   UNL     1       6.386   7.396  -7.111  1.00  0.00    -0.352 N 
ATOM     32  C   UNL     1       6.254   7.010  -8.422  1.00  0.00     0.251 C 
ATOM     33  H   UNL     1       6.275   8.360  -6.942  1.00  0.00     0.163 HD
ATOM     34  O   UNL     1       6.196   7.859  -9.308  1.00  0.00    -0.269 OA
BRANCH  32  35
ATOM     35  C   UNL     1       6.202   5.572  -8.767  1.00  0.00     0.039 A 
ATOM     36  C   UNL     1       6.952   5.109  -9.850  1.00  0.00     0.014 A 
ATOM     37  C   UNL     1       5.418   4.685  -8.025  1.00  0.00     0.014 A 
ATOM     38  C   UNL     1       6.961   3.745 -10.153  1.00  0.00     0.010 A 
ATOM     39  C   UNL     1       5.492   3.318  -8.277  1.00  0.00     0.010 A 
ATOM     40  C   UNL     1       6.258   2.833  -9.348  1.00  0.00    -0.014 A 
BRANCH  40  41
ATOM     41  C   UNL     1       6.325   1.370  -9.603  1.00  0.00     0.031 A 
ATOM     42  C   UNL     1       5.080   0.599  -9.952  1.00  0.00     0.074 A 
ATOM     43  C   UNL     1       7.495   0.720  -9.440  1.00  0.00     0.049 A 
ATOM     44  N   UNL     1       4.939  -0.682 -10.172  1.00  0.00    -0.248 NA
ATOM     45  C   UNL     1       3.824   1.362 -10.040  1.00  0.00     0.031 C 
ATOM     46  C   UNL     1       8.758   1.340  -9.036  1.00  0.00     0.029 A 
ATOM     47  N   UNL     1       7.808  -0.611  -9.573  1.00  0.00    -0.354 N 
ATOM     48  C   UNL     1       3.580  -0.886 -10.381  1.00  0.00     0.074 A 
ATOM     49  C   UNL     1       2.934   0.400 -10.234  1.00  0.00     0.031 C 
ATOM     50  C   UNL     1       9.711   0.397  -8.970  1.00  0.00     0.029 A 
ATOM     51  C   UNL     1       9.122  -0.900  -9.288  1.00  0.00     0.049 A 
ATOM     52  H   UNL     1       7.153  -1.293  -9.847  1.00  0.00     0.167 HD
ATOM     53  C   UNL     1       2.930  -2.034 -10.688  1.00  0.00     0.034 A 
ATOM     54  C   UNL     1       9.778  -2.077  -9.275  1.00  0.00     0.034 A 
ATOM     55  C   UNL     1       3.581  -3.304 -10.868  1.00  0.00     0.049 A 
ATOM     56  C   UNL     1       9.036  -3.333  -9.641  1.00  0.00     0.074 A 
ATOM     57  C   UNL     1       3.026  -4.503 -11.279  1.00  0.00     0.029 A 
ATOM     58  N   UNL     1       4.924  -3.548 -10.627  1.00  0.00    -0.354 N 
ATOM     59  N   UNL     1       7.782  -3.478  -9.998  1.00  0.00    -0.248 NA
ATOM     60  C   UNL     1       9.806  -4.585  -9.636  1.00  0.00     0.031 C 
ATOM     61  C   UNL     1       4.024  -5.482 -11.241  1.00  0.00     0.029 A 
ATOM     62  C   UNL     1       5.212  -4.883 -10.855  1.00  0.00     0.049 A 
ATOM     63  H   UNL     1       5.577  -2.871 -10.336  1.00  0.00     0.167 HD
ATOM     64  C   UNL     1       7.625  -4.826 -10.298  1.00  0.00     0.074 A 
ATOM     65  C   UNL     1       8.916  -5.452 -10.099  1.00  0.00     0.031 C 
ATOM     66  C   UNL     1       6.510  -5.487 -10.697  1.00  0.00     0.034 A 
BRANCH  53  67
ATOM     67  C   UNL     1       1.436  -1.968 -10.874  1.00  0.00     0.023 A 
ATOM     68  C   UNL     1       0.892  -1.300 -11.990  1.00  0.00     0.012 A 
ATOM     69  C   UNL     1       0.570  -2.614  -9.969  1.00  0.00     0.148 A 
ATOM     70  C   UNL     1      -0.488  -1.240 -12.181  1.00  0.00     0.002 A 
ATOM     71  C   UNL     1      -0.801  -2.594 -10.193  1.00  0.00     0.091 A 
ATOM     72  F   UNL     1       1.102  -3.228  -8.902  1.00  0.00    -0.205 F 
ATOM     73  C   UNL     1      -1.333  -1.895 -11.289  1.00  0.00     0.022 A 
BRANCH  71  74
ATOM     74  S   UNL     1      -1.966  -3.478  -9.150  1.00  0.00     0.127 S 
ATOM     75  O   UNL     1      -2.651  -2.377  -8.474  1.00  0.00    -0.237 OA
ATOM     76  O   UNL     1      -2.780  -4.190 -10.136  1.00  0.00    -0.237 OA
ATOM     77  O   UNL     1      -1.165  -4.337  -8.290  1.00  0.00    -0.744 OA
ENDBRANCH  71  74
ENDBRANCH  53  67
BRANCH  54  78
ATOM     78  C   UNL     1      11.236  -2.116  -8.966  1.00  0.00     0.023 A 
ATOM     79  C   UNL     1      12.150  -2.436  -9.989  1.00  0.00     0.012 A 
ATOM     80  C   UNL     1      11.723  -1.824  -7.677  1.00  0.00     0.148 A 
ATOM     81  C   UNL     1      13.519  -2.499  -9.727  1.00  0.00     0.002 A 
ATOM     82  C   UNL     1      13.092  -1.832  -7.437  1.00  0.00     0.091 A 
ATOM     83  F   UNL     1      10.836  -1.528  -6.716  1.00  0.00    -0.205 F 
ATOM     84  C   UNL     1      13.990  -2.188  -8.454  1.00  0.00     0.022 A 
BRANCH  82  85
ATOM     85  S   UNL     1      13.800  -1.324  -5.867  1.00  0.00     0.127 S 
ATOM     86  O   UNL     1      14.367  -2.577  -5.375  1.00  0.00    -0.237 OA
ATOM     87  O   UNL     1      14.784  -0.327  -6.291  1.00  0.00    -0.237 OA
ATOM     88  O   UNL     1      12.693  -0.784  -5.090  1.00  0.00    -0.744 OA
ENDBRANCH  82  85
ENDBRANCH  54  78
BRANCH  66  89
ATOM     89  C   UNL     1       6.636  -6.960 -10.994  1.00  0.00     0.023 A 
ATOM     90  C   UNL     1       6.833  -7.881  -9.946  1.00  0.00     0.012 A 
ATOM     91  C   UNL     1       6.488  -7.436 -12.312  1.00  0.00     0.148 A 
ATOM     92  C   UNL     1       6.917  -9.248 -10.209  1.00  0.00     0.002 A 
ATOM     93  C   UNL     1       6.517  -8.803 -12.560  1.00  0.00     0.091 A 
ATOM     94  F   UNL     1       6.319  -6.544 -13.299  1.00  0.00    -0.205 F 
ATOM     95  C   UNL     1       6.747  -9.709 -11.513  1.00  0.00     0.022 A 
BRANCH  93  96
ATOM     96  S   UNL     1       6.205  -9.494 -14.188  1.00  0.00     0.127 S 
ATOM     97  O   UNL     1       7.527 -10.000 -14.555  1.00  0.00    -0.237 OA
ATOM     98  O   UNL     1       5.214 -10.531 -13.899  1.00  0.00    -0.237 OA
ATOM     99  O   UNL     1       5.711  -8.395 -15.006  1.00  0.00    -0.744 OA
ENDBRANCH  93  96
ENDBRANCH  66  89
ENDBRANCH  40  41
ENDBRANCH  32  35
ENDBRANCH  30  31
ENDBRANCH  29  30
ENDBRANCH  28  29
ENDBRANCH   1  28
TORSDOF 19
