REMARK SMILES C[C@@H](CC(=O)NCCCCCCNC(=O)c1ccc(-c2c3nc(c(-c4cccc(S(=O)(=O)[O-])c4F)c4ccc([nH]4)c(-c4cccc(S(=O)(=O)[O-])c4F)c4nc(c(-c5cccc(S(=O)(=O)[O-])c5F)c5ccc2[nH]5)C=C4)C=C3)cc1)N1C(=O)CCCC1=O
REMARK SMILES IDX 10 1 9 2 8 3 7 4 6 5 4 6 5 7 3 9 2 10 1 11 79 12 80 13 85 14
REMARK SMILES IDX 81 15 82 16 84 17 86 18 83 19 11 20 12 21 13 22 14 23 15 25
REMARK SMILES IDX 16 26 17 27 78 28 18 29 77 30 19 31 20 32 21 33 71 34 22 35
REMARK SMILES IDX 76 36 70 37 72 38 23 39 75 40 69 41 68 42 24 44 56 45 36 46
REMARK SMILES IDX 55 47 37 48 40 49 54 50 73 51 38 52 39 53 53 55 74 56 41 57
REMARK SMILES IDX 25 58 26 59 34 60 27 61 29 62 35 63 28 64 30 65 31 66 32 67
REMARK SMILES IDX 33 68 57 69 58 70 66 71 59 72 61 73 67 74 60 75 62 76 63 77
REMARK SMILES IDX 64 78 65 79 42 80 43 81 51 82 44 83 46 84 52 85 45 86 47 87
REMARK SMILES IDX 48 88 49 89 50 90
REMARK H PARENT 6 8 13 24 72 43 40 54
REMARK Flexibility Score: inf
ROOT
ATOM      1  C   UNL     1       2.063   4.809   1.601  1.00  0.00     0.002 C 
ENDROOT
BRANCH   1   2
ATOM      2  C   UNL     1       0.891   3.893   1.253  1.00  0.00     0.002 C 
BRANCH   2   3
ATOM      3  C   UNL     1       1.307   2.570   0.607  1.00  0.00     0.021 C 
BRANCH   3   4
ATOM      4  C   UNL     1       2.011   1.596   1.552  1.00  0.00     0.116 C 
BRANCH   4   5
ATOM      5  N   UNL     1       1.108   1.084   2.565  1.00  0.00    -0.356 N 
ATOM      6  C   UNL     1       0.544  -0.147   2.693  1.00  0.00     0.222 C 
ATOM      7  O   UNL     1      -0.308  -0.321   3.569  1.00  0.00    -0.275 OA
ATOM      8  H   UNL     1       0.865   1.728   3.269  1.00  0.00     0.163 HD
BRANCH   6   9
ATOM      9  C   UNL     1       1.002  -1.301   1.831  1.00  0.00     0.125 C 
BRANCH   9  10
ATOM     10  C   UNL     1       0.274  -1.560   0.500  1.00  0.00     0.099 C 
ATOM     11  C   UNL     1       0.844  -0.806  -0.705  1.00  0.00     0.032 C 
BRANCH  10  12
ATOM     12  N   UNL     1      -1.206  -1.537   0.558  1.00  0.00    -0.279 N 
ATOM     13  C   UNL     1      -1.855  -2.771   0.651  1.00  0.00     0.229 C 
ATOM     14  C   UNL     1      -1.873  -0.313   0.573  1.00  0.00     0.229 C 
ATOM     15  O   UNL     1      -1.268  -3.851   0.739  1.00  0.00    -0.274 OA
ATOM     16  C   UNL     1      -3.363  -2.741   0.709  1.00  0.00     0.101 C 
ATOM     17  C   UNL     1      -3.379  -0.316   0.478  1.00  0.00     0.101 C 
ATOM     18  O   UNL     1      -1.312   0.774   0.695  1.00  0.00    -0.274 OA
ATOM     19  C   UNL     1      -3.902  -1.598  -0.117  1.00  0.00     0.020 C 
ENDBRANCH  10  12
ENDBRANCH   9  10
ENDBRANCH   6   9
ENDBRANCH   4   5
ENDBRANCH   3   4
ENDBRANCH   2   3
ENDBRANCH   1   2
BRANCH   1  20
ATOM     20  C   UNL     1       3.016   5.091   0.436  1.00  0.00     0.021 C 
BRANCH  20  21
ATOM     21  C   UNL     1       2.335   5.617  -0.825  1.00  0.00     0.116 C 
BRANCH  21  22
ATOM     22  N   UNL     1       1.711   6.911  -0.594  1.00  0.00    -0.352 N 
ATOM     23  C   UNL     1       1.988   8.110  -1.196  1.00  0.00     0.251 C 
ATOM     24  H   UNL     1       0.997   6.927   0.084  1.00  0.00     0.163 HD
ATOM     25  O   UNL     1       1.558   9.160  -0.718  1.00  0.00    -0.269 OA
BRANCH  23  26
ATOM     26  C   UNL     1       2.813   8.132  -2.420  1.00  0.00     0.039 A 
ATOM     27  C   UNL     1       3.864   9.044  -2.518  1.00  0.00     0.014 A 
ATOM     28  C   UNL     1       2.547   7.242  -3.465  1.00  0.00     0.014 A 
ATOM     29  C   UNL     1       4.681   9.033  -3.651  1.00  0.00     0.010 A 
ATOM     30  C   UNL     1       3.406   7.183  -4.558  1.00  0.00     0.010 A 
ATOM     31  C   UNL     1       4.474   8.086  -4.668  1.00  0.00    -0.014 A 
BRANCH  31  32
ATOM     32  C   UNL     1       5.367   8.024  -5.854  1.00  0.00     0.031 A 
ATOM     33  C   UNL     1       4.816   8.283  -7.230  1.00  0.00     0.074 A 
ATOM     34  C   UNL     1       6.655   7.659  -5.699  1.00  0.00     0.049 A 
ATOM     35  N   UNL     1       5.426   8.228  -8.386  1.00  0.00    -0.248 NA
ATOM     36  C   UNL     1       3.386   8.623  -7.325  1.00  0.00     0.031 C 
ATOM     37  C   UNL     1       7.287   7.309  -4.425  1.00  0.00     0.029 A 
ATOM     38  N   UNL     1       7.658   7.497  -6.622  1.00  0.00    -0.354 N 
ATOM     39  C   UNL     1       4.454   8.493  -9.343  1.00  0.00     0.074 A 
ATOM     40  C   UNL     1       3.205   8.673  -8.637  1.00  0.00     0.031 C 
ATOM     41  C   UNL     1       8.570   6.980  -4.646  1.00  0.00     0.029 A 
ATOM     42  C   UNL     1       8.844   7.063  -6.077  1.00  0.00     0.049 A 
ATOM     43  H   UNL     1       7.539   7.676  -7.583  1.00  0.00     0.167 HD
ATOM     44  C   UNL     1       4.593   8.607 -10.685  1.00  0.00     0.034 A 
ATOM     45  C   UNL     1      10.017   6.756  -6.666  1.00  0.00     0.034 A 
ATOM     46  C   UNL     1       5.845   8.464 -11.379  1.00  0.00     0.049 A 
ATOM     47  C   UNL     1      10.150   6.918  -8.156  1.00  0.00     0.074 A 
ATOM     48  C   UNL     1       6.105   8.641 -12.726  1.00  0.00     0.029 A 
ATOM     49  N   UNL     1       7.043   8.100 -10.784  1.00  0.00    -0.354 N 
ATOM     50  N   UNL     1       9.257   7.321  -9.026  1.00  0.00    -0.248 NA
ATOM     51  C   UNL     1      11.465   6.619  -8.742  1.00  0.00     0.031 C 
ATOM     52  C   UNL     1       7.456   8.355 -12.951  1.00  0.00     0.029 A 
ATOM     53  C   UNL     1       8.044   8.036 -11.738  1.00  0.00     0.049 A 
ATOM     54  H   UNL     1       7.163   7.915  -9.825  1.00  0.00     0.167 HD
ATOM     55  C   UNL     1       9.909   7.362 -10.253  1.00  0.00     0.074 A 
ATOM     56  C   UNL     1      11.280   6.962 -10.009  1.00  0.00     0.031 C 
ATOM     57  C   UNL     1       9.416   7.688 -11.473  1.00  0.00     0.034 A 
BRANCH  44  58
ATOM     58  C   UNL     1       3.367   8.950 -11.492  1.00  0.00     0.023 A 
ATOM     59  C   UNL     1       2.810  10.242 -11.398  1.00  0.00     0.012 A 
ATOM     60  C   UNL     1       2.805   8.019 -12.388  1.00  0.00     0.148 A 
ATOM     61  C   UNL     1       1.694  10.592 -12.156  1.00  0.00     0.002 A 
ATOM     62  C   UNL     1       1.721   8.391 -13.176  1.00  0.00     0.091 A 
ATOM     63  F   UNL     1       3.336   6.790 -12.450  1.00  0.00    -0.205 F 
ATOM     64  C   UNL     1       1.157   9.672 -13.052  1.00  0.00     0.022 A 
BRANCH  62  65
ATOM     65  S   UNL     1       1.007   7.308 -14.418  1.00  0.00     0.127 S 
ATOM     66  O   UNL     1      -0.299   7.008 -13.832  1.00  0.00    -0.237 OA
ATOM     67  O   UNL     1       0.962   8.178 -15.594  1.00  0.00    -0.237 OA
ATOM     68  O   UNL     1       1.913   6.174 -14.534  1.00  0.00    -0.744 OA
ENDBRANCH  62  65
ENDBRANCH  44  58
BRANCH  45  69
ATOM     69  C   UNL     1      11.177   6.318  -5.838  1.00  0.00     0.023 A 
ATOM     70  C   UNL     1      12.293   7.166  -5.705  1.00  0.00     0.012 A 
ATOM     71  C   UNL     1      11.175   5.077  -5.173  1.00  0.00     0.148 A 
ATOM     72  C   UNL     1      13.402   6.771  -4.956  1.00  0.00     0.002 A 
ATOM     73  C   UNL     1      12.258   4.713  -4.382  1.00  0.00     0.091 A 
ATOM     74  F   UNL     1      10.108   4.279  -5.320  1.00  0.00    -0.205 F 
ATOM     75  C   UNL     1      13.381   5.550  -4.287  1.00  0.00     0.022 A 
BRANCH  73  76
ATOM     76  S   UNL     1      12.262   3.221  -3.382  1.00  0.00     0.127 S 
ATOM     77  O   UNL     1      13.244   2.396  -4.080  1.00  0.00    -0.237 OA
ATOM     78  O   UNL     1      12.697   3.731  -2.081  1.00  0.00    -0.237 OA
ATOM     79  O   UNL     1      10.891   2.730  -3.404  1.00  0.00    -0.744 OA
ENDBRANCH  73  76
ENDBRANCH  45  69
BRANCH  57  80
ATOM     80  C   UNL     1      10.370   7.673 -12.640  1.00  0.00     0.023 A 
ATOM     81  C   UNL     1      10.842   6.447 -13.149  1.00  0.00     0.012 A 
ATOM     82  C   UNL     1      10.738   8.875 -13.277  1.00  0.00     0.148 A 
ATOM     83  C   UNL     1      11.694   6.420 -14.252  1.00  0.00     0.002 A 
ATOM     84  C   UNL     1      11.544   8.837 -14.407  1.00  0.00     0.091 A 
ATOM     85  F   UNL     1      10.292  10.032 -12.766  1.00  0.00    -0.205 F 
ATOM     86  C   UNL     1      12.035   7.612 -14.888  1.00  0.00     0.022 A 
BRANCH  84  87
ATOM     87  S   UNL     1      11.954  10.310 -15.350  1.00  0.00     0.127 S 
ATOM     88  O   UNL     1      13.373  10.475 -15.042  1.00  0.00    -0.237 OA
ATOM     89  O   UNL     1      11.671   9.888 -16.722  1.00  0.00    -0.237 OA
ATOM     90  O   UNL     1      11.081  11.363 -14.850  1.00  0.00    -0.744 OA
ENDBRANCH  84  87
ENDBRANCH  57  80
ENDBRANCH  31  32
ENDBRANCH  23  26
ENDBRANCH  21  22
ENDBRANCH  20  21
ENDBRANCH   1  20
TORSDOF 18
