REMARK SMILES Cc1cc(NC(=O)COc2cc(C)c(Cl)c(C)c2)cc(C(=O)NCCCCCCNC(=O)c2ccc(-c3c4nc(c(-c5cccc(S(=O)(=O)[O-])c5F)c5ccc([nH]5)c(-c5cccc(S(=O)(=O)[O-])c5F)c5nc(c(-c6cccc(S(=O)(=O)[O-])c6F)c6ccc3[nH]6)C=C5)C=C4)cc2)c1O
REMARK SMILES IDX 26 1 25 2 24 3 23 4 21 5 22 6 20 8 1 9 2 10 3 11 96 12 4 13
REMARK SMILES IDX 19 14 97 15 5 17 6 18 7 20 8 21 9 22 10 23 11 24 18 25 12 26
REMARK SMILES IDX 16 27 13 28 14 29 17 30 15 31 27 32 28 33 29 34 30 35 31 36
REMARK SMILES IDX 32 38 33 39 34 40 95 41 35 42 94 43 36 44 37 45 38 46 88 47
REMARK SMILES IDX 39 48 93 49 87 50 89 51 40 52 92 53 86 54 85 55 41 57 73 58
REMARK SMILES IDX 53 59 72 60 54 61 57 62 71 63 90 64 55 65 56 66 70 68 91 69
REMARK SMILES IDX 58 70 42 71 43 72 51 73 44 74 46 75 52 76 45 77 47 78 48 79
REMARK SMILES IDX 49 80 50 81 74 82 75 83 83 84 76 85 78 86 84 87 77 88 79 89
REMARK SMILES IDX 80 90 81 91 82 92 59 93 60 94 68 95 61 96 63 97 69 98 62 99
REMARK SMILES IDX 64 100 65 101 66 102 67 103
REMARK H PARENT 23 7 97 16 5 19 30 37 89 56 57 67
REMARK Flexibility Score: inf
ROOT
ATOM      1  C   UNL     1       3.765   5.809  -0.824  1.00  0.00     0.002 C 
ENDROOT
BRANCH   1   2
ATOM      2  C   UNL     1       3.348   4.346  -0.968  1.00  0.00     0.021 C 
BRANCH   2   3
ATOM      3  C   UNL     1       2.778   3.705   0.291  1.00  0.00     0.116 C 
BRANCH   3   4
ATOM      4  N   UNL     1       1.331   3.751   0.368  1.00  0.00    -0.352 N 
ATOM      5  C   UNL     1       0.307   2.833   0.443  1.00  0.00     0.255 C 
ATOM      6  O   UNL     1      -0.799   3.338   0.654  1.00  0.00    -0.269 OA
ATOM      7  H   UNL     1       0.993   4.676   0.366  1.00  0.00     0.163 HD
BRANCH   5   8
ATOM      8  C   UNL     1       0.443   1.335   0.293  1.00  0.00     0.083 A 
ATOM      9  C   UNL     1      -1.839  -1.730  -0.258  1.00  0.00     0.048 C 
ATOM     10  C   UNL     1      -0.628  -0.860  -0.061  1.00  0.00    -0.006 A 
ATOM     11  C   UNL     1       0.623  -1.473   0.062  1.00  0.00     0.033 A 
ATOM     12  C   UNL     1      -0.699   0.547   0.004  1.00  0.00     0.131 A 
ATOM     13  C   UNL     1       1.774  -0.720   0.288  1.00  0.00     0.042 A 
ATOM     14  C   UNL     1       1.649   0.652   0.502  1.00  0.00     0.043 A 
BRANCH  12  15
ATOM     15  O   UNL     1      -1.903   1.156  -0.234  1.00  0.00    -0.507 OA
ATOM     16  H   UNL     1      -2.661   0.638  -0.426  1.00  0.00     0.293 HD
ENDBRANCH  12  15
BRANCH  13  17
ATOM     17  N   UNL     1       2.985  -1.425   0.330  1.00  0.00    -0.323 N 
ATOM     18  C   UNL     1       4.287  -1.068   0.136  1.00  0.00     0.262 C 
ATOM     19  H   UNL     1       2.871  -2.380   0.544  1.00  0.00     0.170 HD
ATOM     20  O   UNL     1       5.132  -1.958   0.291  1.00  0.00    -0.271 OA
BRANCH  18  21
ATOM     21  C   UNL     1       4.726   0.331  -0.304  1.00  0.00     0.329 C 
BRANCH  21  22
ATOM     22  O   UNL     1       4.006   0.960  -1.357  1.00  0.00    -0.484 OA
BRANCH  22  23
ATOM     23  C   UNL     1       4.411   0.680  -2.632  1.00  0.00     0.120 A 
ATOM     24  C   UNL     1       4.877  -0.559  -3.060  1.00  0.00     0.051 A 
ATOM     25  C   UNL     1       4.279   1.717  -3.558  1.00  0.00     0.051 A 
ATOM     26  C   UNL     1       5.224  -0.771  -4.406  1.00  0.00    -0.029 A 
ATOM     27  C   UNL     1       4.650   1.550  -4.902  1.00  0.00    -0.029 A 
ATOM     28  C   UNL     1       5.697  -2.137  -4.823  1.00  0.00     0.046 C 
ATOM     29  C   UNL     1       5.115   0.292  -5.322  1.00  0.00     0.047 A 
ATOM     30  C   UNL     1       4.542   2.719  -5.844  1.00  0.00     0.046 C 
ATOM     31  Cl  UNL     1       5.537   0.044  -6.986  1.00  0.00    -0.084 Cl
ENDBRANCH  22  23
ENDBRANCH  21  22
ENDBRANCH  18  21
ENDBRANCH  13  17
ENDBRANCH   5   8
ENDBRANCH   3   4
ENDBRANCH   2   3
ENDBRANCH   1   2
BRANCH   1  32
ATOM     32  C   UNL     1       4.792   6.103   0.279  1.00  0.00     0.002 C 
BRANCH  32  33
ATOM     33  C   UNL     1       6.054   5.231   0.282  1.00  0.00     0.021 C 
BRANCH  33  34
ATOM     34  C   UNL     1       6.884   5.273  -1.000  1.00  0.00     0.116 C 
BRANCH  34  35
ATOM     35  N   UNL     1       7.312   6.623  -1.328  1.00  0.00    -0.352 N 
ATOM     36  C   UNL     1       8.571   7.163  -1.403  1.00  0.00     0.251 C 
ATOM     37  H   UNL     1       6.580   7.251  -1.528  1.00  0.00     0.163 HD
ATOM     38  O   UNL     1       8.700   8.383  -1.469  1.00  0.00    -0.269 OA
BRANCH  36  39
ATOM     39  C   UNL     1       9.770   6.295  -1.402  1.00  0.00     0.039 A 
ATOM     40  C   UNL     1      10.889   6.694  -0.664  1.00  0.00     0.014 A 
ATOM     41  C   UNL     1       9.821   5.127  -2.167  1.00  0.00     0.014 A 
ATOM     42  C   UNL     1      12.039   5.898  -0.654  1.00  0.00     0.010 A 
ATOM     43  C   UNL     1      10.944   4.302  -2.105  1.00  0.00     0.010 A 
ATOM     44  C   UNL     1      12.067   4.682  -1.355  1.00  0.00    -0.014 A 
BRANCH  44  45
ATOM     45  C   UNL     1      13.256   3.791  -1.307  1.00  0.00     0.031 A 
ATOM     46  C   UNL     1      14.042   3.499  -2.559  1.00  0.00     0.074 A 
ATOM     47  C   UNL     1      13.577   3.173  -0.153  1.00  0.00     0.049 A 
ATOM     48  N   UNL     1      15.064   2.699  -2.722  1.00  0.00    -0.248 NA
ATOM     49  C   UNL     1      13.610   4.176  -3.793  1.00  0.00     0.031 C 
ATOM     50  C   UNL     1      12.849   3.314   1.111  1.00  0.00     0.029 A 
ATOM     51  N   UNL     1      14.577   2.280   0.140  1.00  0.00    -0.354 N 
ATOM     52  C   UNL     1      15.372   2.745  -4.077  1.00  0.00     0.074 A 
ATOM     53  C   UNL     1      14.413   3.633  -4.697  1.00  0.00     0.031 C 
ATOM     54  C   UNL     1      13.424   2.532   2.039  1.00  0.00     0.029 A 
ATOM     55  C   UNL     1      14.541   1.815   1.434  1.00  0.00     0.049 A 
ATOM     56  H   UNL     1      15.256   1.998  -0.515  1.00  0.00     0.167 HD
ATOM     57  C   UNL     1      16.378   2.126  -4.741  1.00  0.00     0.034 A 
ATOM     58  C   UNL     1      15.315   0.906   2.061  1.00  0.00     0.034 A 
ATOM     59  C   UNL     1      17.360   1.283  -4.113  1.00  0.00     0.049 A 
ATOM     60  C   UNL     1      16.453   0.270   1.309  1.00  0.00     0.074 A 
ATOM     61  C   UNL     1      18.471   0.687  -4.683  1.00  0.00     0.029 A 
ATOM     62  N   UNL     1      17.349   0.913  -2.778  1.00  0.00    -0.354 N 
ATOM     63  N   UNL     1      16.827   0.456   0.067  1.00  0.00    -0.248 NA
ATOM     64  C   UNL     1      17.300  -0.672   2.056  1.00  0.00     0.031 C 
ATOM     65  C   UNL     1      19.122  -0.061  -3.696  1.00  0.00     0.029 A 
ATOM     66  C   UNL     1      18.429   0.090  -2.506  1.00  0.00     0.049 A 
ATOM     67  H   UNL     1      16.673   1.193  -2.119  1.00  0.00     0.167 HD
ATOM     68  C   UNL     1      17.972  -0.314  -0.106  1.00  0.00     0.074 A 
ATOM     69  C   UNL     1      18.242  -0.951   1.166  1.00  0.00     0.031 C 
ATOM     70  C   UNL     1      18.723  -0.489  -1.221  1.00  0.00     0.034 A 
BRANCH  57  71
ATOM     71  C   UNL     1      16.509   2.380  -6.220  1.00  0.00     0.023 A 
ATOM     72  C   UNL     1      16.973   3.633  -6.670  1.00  0.00     0.012 A 
ATOM     73  C   UNL     1      16.255   1.360  -7.159  1.00  0.00     0.148 A 
ATOM     74  C   UNL     1      17.154   3.878  -8.030  1.00  0.00     0.002 A 
ATOM     75  C   UNL     1      16.479   1.597  -8.510  1.00  0.00     0.091 A 
ATOM     76  F   UNL     1      15.798   0.181  -6.714  1.00  0.00    -0.205 F 
ATOM     77  C   UNL     1      16.919   2.858  -8.948  1.00  0.00     0.022 A 
BRANCH  75  78
ATOM     78  S   UNL     1      16.284   0.327  -9.766  1.00  0.00     0.127 S 
ATOM     79  O   UNL     1      15.105   0.805 -10.488  1.00  0.00    -0.237 OA
ATOM     80  O   UNL     1      17.539   0.434 -10.509  1.00  0.00    -0.237 OA
ATOM     81  O   UNL     1      16.108  -0.927  -9.046  1.00  0.00    -0.744 OA
ENDBRANCH  75  78
ENDBRANCH  57  71
BRANCH  58  82
ATOM     82  C   UNL     1      15.081   0.592   3.500  1.00  0.00     0.023 A 
ATOM     83  C   UNL     1      16.023   1.012   4.460  1.00  0.00     0.012 A 
ATOM     84  C   UNL     1      13.930  -0.099   3.925  1.00  0.00     0.148 A 
ATOM     85  C   UNL     1      15.842   0.716   5.811  1.00  0.00     0.002 A 
ATOM     86  C   UNL     1      13.728  -0.341   5.279  1.00  0.00     0.091 A 
ATOM     87  F   UNL     1      13.051  -0.503   2.996  1.00  0.00    -0.205 F 
ATOM     88  C   UNL     1      14.691   0.049   6.222  1.00  0.00     0.022 A 
BRANCH  86  89
ATOM     89  S   UNL     1      12.211  -1.072   5.906  1.00  0.00     0.127 S 
ATOM     90  O   UNL     1      12.646  -2.424   6.240  1.00  0.00    -0.237 OA
ATOM     91  O   UNL     1      11.913  -0.217   7.055  1.00  0.00    -0.237 OA
ATOM     92  O   UNL     1      11.248  -0.961   4.816  1.00  0.00    -0.744 OA
ENDBRANCH  86  89
ENDBRANCH  58  82
BRANCH  70  93
ATOM     93  C   UNL     1      19.937  -1.374  -1.116  1.00  0.00     0.023 A 
ATOM     94  C   UNL     1      19.779  -2.770  -1.015  1.00  0.00     0.012 A 
ATOM     95  C   UNL     1      21.233  -0.828  -1.197  1.00  0.00     0.148 A 
ATOM     96  C   UNL     1      20.894  -3.607  -0.965  1.00  0.00     0.002 A 
ATOM     97  C   UNL     1      22.338  -1.671  -1.195  1.00  0.00     0.091 A 
ATOM     98  F   UNL     1      21.362   0.505  -1.274  1.00  0.00    -0.205 F 
ATOM     99  C   UNL     1      22.171  -3.059  -1.067  1.00  0.00     0.022 A 
BRANCH  97 100
ATOM    100  S   UNL     1      24.013  -1.062  -1.420  1.00  0.00     0.127 S 
ATOM    101  O   UNL     1      24.562  -1.196  -0.071  1.00  0.00    -0.237 OA
ATOM    102  O   UNL     1      24.558  -2.004  -2.397  1.00  0.00    -0.237 OA
ATOM    103  O   UNL     1      23.880   0.304  -1.909  1.00  0.00    -0.744 OA
ENDBRANCH  97 100
ENDBRANCH  70  93
ENDBRANCH  44  45
ENDBRANCH  36  39
ENDBRANCH  34  35
ENDBRANCH  33  34
ENDBRANCH  32  33
ENDBRANCH   1  32
TORSDOF 21
