REMARK SMILES C#CCN(CC(=O)NCCCCCCNC(=O)c1ccc(-c2c3nc(c(-c4cccc(S(=O)(=O)[O-])c4F)c4ccc([nH]4)c(-c4cccc(S(=O)(=O)[O-])c4F)c4nc(c(-c5cccc(S(=O)(=O)[O-])c5F)c5ccc2[nH]5)C=C4)C=C3)cc1)C(=O)c1cc([N+](=O)[O-])c(F)cc1F
REMARK SMILES IDX 11 1 10 2 9 3 8 4 6 5 7 6 5 8 4 9 3 10 2 11 1 12 81 13 82 14
REMARK SMILES IDX 83 15 84 16 92 17 85 18 91 19 93 20 89 21 90 22 86 23 87 24
REMARK SMILES IDX 88 25 12 26 13 27 14 28 15 29 16 30 17 32 18 33 19 34 80 35
REMARK SMILES IDX 20 36 79 37 21 38 22 39 23 40 73 41 24 42 78 43 72 44 74 45
REMARK SMILES IDX 25 46 77 47 71 48 70 49 26 51 58 52 38 53 57 54 39 55 42 56
REMARK SMILES IDX 56 57 75 58 40 59 41 60 55 62 76 63 43 64 27 65 28 66 36 67
REMARK SMILES IDX 29 68 31 69 37 70 30 71 32 72 33 73 34 74 35 75 59 76 60 77
REMARK SMILES IDX 68 78 61 79 63 80 69 81 62 82 64 83 65 84 66 85 67 86 44 87
REMARK SMILES IDX 45 88 53 89 46 90 48 91 54 92 47 93 49 94 50 95 51 96 52 97
REMARK H PARENT 8 7 15 31 74 50 42 61
REMARK Flexibility Score: inf
ROOT
ATOM      1  C   UNL     1      -6.387   1.950   0.876  1.00  0.00     0.002 C 
ENDROOT
BRANCH   1   2
ATOM      2  C   UNL     1      -5.061   1.190   0.758  1.00  0.00     0.021 C 
BRANCH   2   3
ATOM      3  C   UNL     1      -5.150  -0.168   0.057  1.00  0.00     0.116 C 
BRANCH   3   4
ATOM      4  N   UNL     1      -5.403  -0.071  -1.365  1.00  0.00    -0.355 N 
ATOM      5  C   UNL     1      -4.555  -0.112  -2.429  1.00  0.00     0.239 C 
ATOM      6  O   UNL     1      -5.062  -0.170  -3.555  1.00  0.00    -0.273 OA
ATOM      7  H   UNL     1      -6.351   0.044  -1.603  1.00  0.00     0.163 HD
BRANCH   5   8
ATOM      8  C   UNL     1      -3.025  -0.218  -2.284  1.00  0.00     0.220 C 
BRANCH   8   9
ATOM      9  N   UNL     1      -2.372   0.637  -1.291  1.00  0.00    -0.318 N 
BRANCH   9  10
ATOM     10  C   UNL     1      -1.825  -0.013  -0.099  1.00  0.00     0.210 C 
BRANCH  10  11
ATOM     11  C   UNL     1      -0.305  -0.013  -0.099  1.00  0.00    -0.085 C 
ATOM     12  C   UNL     1       0.998  -0.013  -0.099  1.00  0.00     0.006 C 
ENDBRANCH  10  11
ENDBRANCH   9  10
BRANCH   9  13
ATOM     13  C   UNL     1      -2.158   2.009  -1.447  1.00  0.00     0.258 C 
ATOM     14  O   UNL     1      -1.607   2.717  -0.607  1.00  0.00    -0.269 OA
BRANCH  13  15
ATOM     15  C   UNL     1      -2.542   2.692  -2.699  1.00  0.00     0.082 A 
ATOM     16  C   UNL     1      -1.532   3.209  -3.523  1.00  0.00     0.105 A 
ATOM     17  C   UNL     1      -3.877   2.958  -2.996  1.00  0.00     0.139 A 
ATOM     18  C   UNL     1      -1.886   3.930  -4.679  1.00  0.00     0.305 A 
ATOM     19  C   UNL     1      -4.228   3.624  -4.166  1.00  0.00     0.086 A 
ATOM     20  F   UNL     1      -4.852   2.615  -2.149  1.00  0.00    -0.206 F 
ATOM     21  C   UNL     1      -3.231   4.106  -5.010  1.00  0.00     0.203 A 
ATOM     22  F   UNL     1      -3.619   4.747  -6.120  1.00  0.00    -0.199 F 
BRANCH  18  23
ATOM     23  N   UNL     1      -0.838   4.524  -5.510  1.00  0.00     0.065 N 
ATOM     24  O   UNL     1       0.337   4.274  -5.205  1.00  0.00    -0.258 OA
ATOM     25  O   UNL     1      -1.168   5.245  -6.460  1.00  0.00    -0.258 OA
ENDBRANCH  18  23
ENDBRANCH  13  15
ENDBRANCH   9  13
ENDBRANCH   8   9
ENDBRANCH   5   8
ENDBRANCH   3   4
ENDBRANCH   2   3
ENDBRANCH   1   2
BRANCH   1  26
ATOM     26  C   UNL     1      -7.531   1.184   1.544  1.00  0.00     0.002 C 
BRANCH  26  27
ATOM     27  C   UNL     1      -7.211   0.577   2.914  1.00  0.00     0.021 C 
BRANCH  27  28
ATOM     28  C   UNL     1      -6.842   1.583   4.002  1.00  0.00     0.116 C 
BRANCH  28  29
ATOM     29  N   UNL     1      -7.947   2.473   4.317  1.00  0.00    -0.352 N 
ATOM     30  C   UNL     1      -8.558   2.731   5.519  1.00  0.00     0.251 C 
ATOM     31  H   UNL     1      -8.314   2.969   3.550  1.00  0.00     0.163 HD
ATOM     32  O   UNL     1      -9.611   3.365   5.533  1.00  0.00    -0.269 OA
BRANCH  30  33
ATOM     33  C   UNL     1      -7.973   2.248   6.793  1.00  0.00     0.039 A 
ATOM     34  C   UNL     1      -8.834   1.763   7.783  1.00  0.00     0.014 A 
ATOM     35  C   UNL     1      -6.599   2.318   7.041  1.00  0.00     0.014 A 
ATOM     36  C   UNL     1      -8.315   1.310   8.999  1.00  0.00     0.010 A 
ATOM     37  C   UNL     1      -6.077   1.804   8.229  1.00  0.00     0.010 A 
ATOM     38  C   UNL     1      -6.929   1.307   9.226  1.00  0.00    -0.014 A 
BRANCH  38  39
ATOM     39  C   UNL     1      -6.366   0.776  10.496  1.00  0.00     0.031 A 
ATOM     40  C   UNL     1      -5.624   1.676  11.447  1.00  0.00     0.074 A 
ATOM     41  C   UNL     1      -6.462  -0.542  10.761  1.00  0.00     0.049 A 
ATOM     42  N   UNL     1      -5.075   1.383  12.599  1.00  0.00    -0.248 NA
ATOM     43  C   UNL     1      -5.451   3.080  11.043  1.00  0.00     0.031 C 
ATOM     44  C   UNL     1      -7.066  -1.539   9.875  1.00  0.00     0.029 A 
ATOM     45  N   UNL     1      -6.031  -1.274  11.840  1.00  0.00    -0.354 N 
ATOM     46  C   UNL     1      -4.463   2.551  13.039  1.00  0.00     0.074 A 
ATOM     47  C   UNL     1      -4.682   3.550  12.015  1.00  0.00     0.031 C 
ATOM     48  C   UNL     1      -6.968  -2.751  10.445  1.00  0.00     0.029 A 
ATOM     49  C   UNL     1      -6.283  -2.621  11.728  1.00  0.00     0.049 A 
ATOM     50  H   UNL     1      -5.584  -0.872  12.620  1.00  0.00     0.167 HD
ATOM     51  C   UNL     1      -3.807   2.783  14.202  1.00  0.00     0.034 A 
ATOM     52  C   UNL     1      -5.999  -3.639  12.565  1.00  0.00     0.034 A 
ATOM     53  C   UNL     1      -3.635   1.802  15.241  1.00  0.00     0.049 A 
ATOM     54  C   UNL     1      -5.346  -3.341  13.887  1.00  0.00     0.074 A 
ATOM     55  C   UNL     1      -3.082   1.969  16.499  1.00  0.00     0.029 A 
ATOM     56  N   UNL     1      -4.004   0.470  15.142  1.00  0.00    -0.354 N 
ATOM     57  N   UNL     1      -4.948  -2.189  14.368  1.00  0.00    -0.248 NA
ATOM     58  C   UNL     1      -5.146  -4.475  14.800  1.00  0.00     0.031 C 
ATOM     59  C   UNL     1      -3.103   0.732  17.154  1.00  0.00     0.029 A 
ATOM     60  C   UNL     1      -3.686  -0.200  16.311  1.00  0.00     0.049 A 
ATOM     61  H   UNL     1      -4.431   0.060  14.355  1.00  0.00     0.167 HD
ATOM     62  C   UNL     1      -4.478  -2.452  15.650  1.00  0.00     0.074 A 
ATOM     63  C   UNL     1      -4.668  -3.870  15.880  1.00  0.00     0.031 C 
ATOM     64  C   UNL     1      -3.922  -1.601  16.548  1.00  0.00     0.034 A 
BRANCH  51  65
ATOM     65  C   UNL     1      -3.278   4.174  14.441  1.00  0.00     0.023 A 
ATOM     66  C   UNL     1      -4.182   5.223  14.709  1.00  0.00     0.012 A 
ATOM     67  C   UNL     1      -1.894   4.436  14.456  1.00  0.00     0.148 A 
ATOM     68  C   UNL     1      -3.721   6.516  14.950  1.00  0.00     0.002 A 
ATOM     69  C   UNL     1      -1.440   5.720  14.741  1.00  0.00     0.091 A 
ATOM     70  F   UNL     1      -1.049   3.434  14.177  1.00  0.00    -0.205 F 
ATOM     71  C   UNL     1      -2.351   6.762  14.976  1.00  0.00     0.022 A 
BRANCH  69  72
ATOM     72  S   UNL     1       0.308   6.115  14.875  1.00  0.00     0.127 S 
ATOM     73  O   UNL     1       0.542   6.841  13.625  1.00  0.00    -0.237 OA
ATOM     74  O   UNL     1       0.344   6.952  16.077  1.00  0.00    -0.237 OA
ATOM     75  O   UNL     1       0.996   4.843  15.003  1.00  0.00    -0.744 OA
ENDBRANCH  69  72
ENDBRANCH  51  65
BRANCH  52  76
ATOM     76  C   UNL     1      -6.412  -5.024  12.205  1.00  0.00     0.023 A 
ATOM     77  C   UNL     1      -7.478  -5.631  12.897  1.00  0.00     0.012 A 
ATOM     78  C   UNL     1      -5.790  -5.723  11.152  1.00  0.00     0.148 A 
ATOM     79  C   UNL     1      -7.899  -6.919  12.566  1.00  0.00     0.002 A 
ATOM     80  C   UNL     1      -6.252  -6.983  10.790  1.00  0.00     0.091 A 
ATOM     81  F   UNL     1      -4.769  -5.133  10.514  1.00  0.00    -0.205 F 
ATOM     82  C   UNL     1      -7.295  -7.590  11.506  1.00  0.00     0.022 A 
BRANCH  80  83
ATOM     83  S   UNL     1      -5.627  -7.856   9.349  1.00  0.00     0.127 S 
ATOM     84  O   UNL     1      -4.827  -8.913   9.962  1.00  0.00    -0.237 OA
ATOM     85  O   UNL     1      -6.862  -8.310   8.709  1.00  0.00    -0.237 OA
ATOM     86  O   UNL     1      -4.888  -6.863   8.581  1.00  0.00    -0.744 OA
ENDBRANCH  80  83
ENDBRANCH  52  76
BRANCH  64  87
ATOM     87  C   UNL     1      -3.492  -2.174  17.874  1.00  0.00     0.023 A 
ATOM     88  C   UNL     1      -2.355  -3.003  17.940  1.00  0.00     0.012 A 
ATOM     89  C   UNL     1      -4.178  -1.847  19.060  1.00  0.00     0.148 A 
ATOM     90  C   UNL     1      -1.929  -3.529  19.160  1.00  0.00     0.002 A 
ATOM     91  C   UNL     1      -3.721  -2.337  20.278  1.00  0.00     0.091 A 
ATOM     92  F   UNL     1      -5.271  -1.075  18.978  1.00  0.00    -0.205 F 
ATOM     93  C   UNL     1      -2.605  -3.187  20.329  1.00  0.00     0.022 A 
BRANCH  91  94
ATOM     94  S   UNL     1      -4.479  -1.870  21.839  1.00  0.00     0.127 S 
ATOM     95  O   UNL     1      -5.299  -3.042  22.136  1.00  0.00    -0.237 OA
ATOM     96  O   UNL     1      -3.319  -1.700  22.715  1.00  0.00    -0.237 OA
ATOM     97  O   UNL     1      -5.210  -0.639  21.569  1.00  0.00    -0.744 OA
ENDBRANCH  91  94
ENDBRANCH  64  87
ENDBRANCH  38  39
ENDBRANCH  30  33
ENDBRANCH  28  29
ENDBRANCH  27  28
ENDBRANCH  26  27
ENDBRANCH   1  26
TORSDOF 22
