REMARK SMILES C[C@@](NC(=O)CCOC1CC[NH2+]CC1)(C(=O)NCCCCCCNC(=O)c1ccc(-c2c3nc(c(-c4cccc(S(=O)(=O)[O-])c4F)c4ccc([nH]4)c(-c4cccc(S(=O)(=O)[O-])c4F)c4nc(c(-c5cccc(S(=O)(=O)[O-])c5F)c5ccc2[nH]5)C=C4)C=C3)cc1)C(F)(F)F
REMARK SMILES IDX 19 1 18 2 17 3 15 4 16 5 2 7 1 8 3 9 4 10 5 12 6 13 7 14
REMARK SMILES IDX 8 15 9 16 10 17 14 18 11 19 13 20 12 21 90 24 91 25 92 26
REMARK SMILES IDX 93 27 20 28 21 29 22 30 23 31 24 32 25 33 26 35 27 36 28 37
REMARK SMILES IDX 89 38 29 39 88 40 30 41 31 42 32 43 82 44 33 45 87 46 81 47
REMARK SMILES IDX 83 48 34 49 86 50 80 51 79 52 35 54 67 55 47 56 66 57 48 58
REMARK SMILES IDX 51 59 65 60 84 61 49 62 50 63 64 65 85 66 52 67 36 68 37 69
REMARK SMILES IDX 45 70 38 71 40 72 46 73 39 74 41 75 42 76 43 77 44 78 68 79
REMARK SMILES IDX 69 80 77 81 70 82 72 83 78 84 71 85 73 86 74 87 75 88 76 89
REMARK SMILES IDX 53 90 54 91 62 92 55 93 57 94 63 95 56 96 58 97 59 98 60 99
REMARK SMILES IDX 61 100
REMARK H PARENT 17 6 3 11 12 22 12 23 24 34 83 53 51 64
REMARK Flexibility Score: inf
ROOT
ATOM      1  C   UNL     1      -2.536   1.773   1.500  1.00  0.00     0.021 C 
ENDROOT
BRANCH   1   2
ATOM      2  C   UNL     1      -1.861   0.433   1.207  1.00  0.00     0.116 C 
BRANCH   2   3
ATOM      3  N   UNL     1      -2.697  -0.562   0.543  1.00  0.00    -0.354 N 
ATOM      4  C   UNL     1      -2.403  -1.723  -0.132  1.00  0.00     0.254 C 
ATOM      5  O   UNL     1      -3.324  -2.548  -0.147  1.00  0.00    -0.272 OA
ATOM      6  H   UNL     1      -3.660  -0.362   0.586  1.00  0.00     0.163 HD
BRANCH   4   7
ATOM      7  C   UNL     1      -1.021  -2.056  -0.761  1.00  0.00     0.212 C 
ATOM      8  C   UNL     1      -0.364  -0.802  -1.337  1.00  0.00     0.056 C 
BRANCH   7   9
ATOM      9  N   UNL     1      -0.033  -2.909  -0.005  1.00  0.00    -0.334 N 
ATOM     10  C   UNL     1       0.093  -3.360   1.264  1.00  0.00     0.223 C 
ATOM     11  H   UNL     1       0.706  -3.215  -0.580  1.00  0.00     0.164 HD
ATOM     12  O   UNL     1       0.867  -4.301   1.459  1.00  0.00    -0.275 OA
BRANCH  10  13
ATOM     13  C   UNL     1      -0.564  -2.668   2.415  1.00  0.00     0.128 C 
BRANCH  13  14
ATOM     14  C   UNL     1       0.409  -1.600   2.902  1.00  0.00     0.170 C 
BRANCH  14  15
ATOM     15  O   UNL     1       0.788  -0.742   1.811  1.00  0.00    -0.377 OA
BRANCH  15  16
ATOM     16  C   UNL     1       2.144  -0.280   1.877  1.00  0.00     0.129 C 
ATOM     17  C   UNL     1       2.162   1.234   1.688  1.00  0.00     0.093 C 
ATOM     18  C   UNL     1       3.026  -1.002   0.849  1.00  0.00     0.093 C 
ATOM     19  C   UNL     1       2.038   1.674   0.236  1.00  0.00     0.263 C 
ATOM     20  C   UNL     1       3.030  -0.408  -0.560  1.00  0.00     0.263 C 
ATOM     21  N   UNL     1       3.041   1.048  -0.617  1.00  0.00    -0.346 N 
ATOM     22  H   UNL     1       3.962   1.375  -0.324  1.00  0.00     0.346 HD
ATOM     23  H   UNL     1       2.823   1.312  -1.578  1.00  0.00     0.346 HD
ENDBRANCH  15  16
ENDBRANCH  14  15
ENDBRANCH  13  14
ENDBRANCH  10  13
ENDBRANCH   7   9
BRANCH   7  24
ATOM     24  C   UNL     1      -1.375  -2.916  -2.015  1.00  0.00     0.420 C 
ATOM     25  F   UNL     1      -2.161  -2.270  -2.902  1.00  0.00    -0.168 F 
ATOM     26  F   UNL     1      -0.216  -3.220  -2.681  1.00  0.00    -0.168 F 
ATOM     27  F   UNL     1      -1.935  -4.108  -1.719  1.00  0.00    -0.168 F 
ENDBRANCH   7  24
ENDBRANCH   4   7
ENDBRANCH   2   3
ENDBRANCH   1   2
BRANCH   1  28
ATOM     28  C   UNL     1      -3.816   1.713   2.336  1.00  0.00     0.002 C 
BRANCH  28  29
ATOM     29  C   UNL     1      -3.748   0.904   3.634  1.00  0.00     0.002 C 
BRANCH  29  30
ATOM     30  C   UNL     1      -2.775   1.406   4.704  1.00  0.00     0.021 C 
BRANCH  30  31
ATOM     31  C   UNL     1      -2.912   2.872   5.106  1.00  0.00     0.116 C 
BRANCH  31  32
ATOM     32  N   UNL     1      -4.278   3.255   5.420  1.00  0.00    -0.352 N 
ATOM     33  C   UNL     1      -4.771   4.019   6.450  1.00  0.00     0.251 C 
ATOM     34  H   UNL     1      -4.958   2.913   4.796  1.00  0.00     0.163 HD
ATOM     35  O   UNL     1      -5.982   4.130   6.590  1.00  0.00    -0.269 OA
BRANCH  33  36
ATOM     36  C   UNL     1      -3.851   4.689   7.397  1.00  0.00     0.039 A 
ATOM     37  C   UNL     1      -4.178   4.688   8.756  1.00  0.00     0.014 A 
ATOM     38  C   UNL     1      -2.697   5.343   6.957  1.00  0.00     0.014 A 
ATOM     39  C   UNL     1      -3.328   5.308   9.675  1.00  0.00     0.010 A 
ATOM     40  C   UNL     1      -1.812   5.890   7.882  1.00  0.00     0.010 A 
ATOM     41  C   UNL     1      -2.127   5.896   9.249  1.00  0.00    -0.014 A 
BRANCH  41  42
ATOM     42  C   UNL     1      -1.207   6.545  10.219  1.00  0.00     0.031 A 
ATOM     43  C   UNL     1      -0.920   8.020  10.117  1.00  0.00     0.074 A 
ATOM     44  C   UNL     1      -0.592   5.799  11.159  1.00  0.00     0.049 A 
ATOM     45  N   UNL     1      -0.118   8.757  10.842  1.00  0.00    -0.248 NA
ATOM     46  C   UNL     1      -1.602   8.762   9.042  1.00  0.00     0.031 C 
ATOM     47  C   UNL     1      -0.730   4.349  11.312  1.00  0.00     0.029 A 
ATOM     48  N   UNL     1       0.290   6.154  12.148  1.00  0.00    -0.354 N 
ATOM     49  C   UNL     1      -0.185  10.037  10.303  1.00  0.00     0.074 A 
ATOM     50  C   UNL     1      -1.062   9.966   9.156  1.00  0.00     0.031 C 
ATOM     51  C   UNL     1       0.038   3.939  12.335  1.00  0.00     0.029 A 
ATOM     52  C   UNL     1       0.743   5.088  12.892  1.00  0.00     0.049 A 
ATOM     53  H   UNL     1       0.572   7.083  12.311  1.00  0.00     0.167 HD
ATOM     54  C   UNL     1       0.398  11.177  10.743  1.00  0.00     0.034 A 
ATOM     55  C   UNL     1       1.634   5.043  13.902  1.00  0.00     0.034 A 
ATOM     56  C   UNL     1       1.246  11.249  11.902  1.00  0.00     0.049 A 
ATOM     57  C   UNL     1       2.245   6.330  14.389  1.00  0.00     0.074 A 
ATOM     58  C   UNL     1       1.852  12.361  12.459  1.00  0.00     0.029 A 
ATOM     59  N   UNL     1       1.608  10.163  12.684  1.00  0.00    -0.354 N 
ATOM     60  N   UNL     1       2.068   7.549  13.943  1.00  0.00    -0.248 NA
ATOM     61  C   UNL     1       3.142   6.240  15.550  1.00  0.00     0.031 C 
ATOM     62  C   UNL     1       2.594  11.945  13.569  1.00  0.00     0.029 A 
ATOM     63  C   UNL     1       2.420  10.579  13.725  1.00  0.00     0.049 A 
ATOM     64  H   UNL     1       1.327   9.233  12.524  1.00  0.00     0.167 HD
ATOM     65  C   UNL     1       2.792   8.376  14.795  1.00  0.00     0.074 A 
ATOM     66  C   UNL     1       3.391   7.519  15.797  1.00  0.00     0.031 C 
ATOM     67  C   UNL     1       2.956   9.721  14.748  1.00  0.00     0.034 A 
BRANCH  54  68
ATOM     68  C   UNL     1       0.085  12.454  10.004  1.00  0.00     0.023 A 
ATOM     69  C   UNL     1      -1.209  13.008  10.099  1.00  0.00     0.012 A 
ATOM     70  C   UNL     1       1.074  13.137   9.270  1.00  0.00     0.148 A 
ATOM     71  C   UNL     1      -1.524  14.199   9.447  1.00  0.00     0.002 A 
ATOM     72  C   UNL     1       0.766  14.349   8.663  1.00  0.00     0.091 A 
ATOM     73  F   UNL     1       2.294  12.588   9.177  1.00  0.00    -0.205 F 
ATOM     74  C   UNL     1      -0.535  14.874   8.739  1.00  0.00     0.022 A 
BRANCH  72  75
ATOM     75  S   UNL     1       1.986  15.339   7.792  1.00  0.00     0.127 S 
ATOM     76  O   UNL     1       1.499  15.263   6.415  1.00  0.00    -0.237 OA
ATOM     77  O   UNL     1       1.823  16.649   8.424  1.00  0.00    -0.237 OA
ATOM     78  O   UNL     1       3.271  14.700   8.032  1.00  0.00    -0.744 OA
ENDBRANCH  72  75
ENDBRANCH  54  68
BRANCH  55  79
ATOM     79  C   UNL     1       1.968   3.745  14.555  1.00  0.00     0.023 A 
ATOM     80  C   UNL     1       1.576   3.509  15.888  1.00  0.00     0.012 A 
ATOM     81  C   UNL     1       2.679   2.745  13.864  1.00  0.00     0.148 A 
ATOM     82  C   UNL     1       1.931   2.325  16.536  1.00  0.00     0.002 A 
ATOM     83  C   UNL     1       2.976   1.543  14.495  1.00  0.00     0.091 A 
ATOM     84  F   UNL     1       3.051   2.989  12.599  1.00  0.00    -0.205 F 
ATOM     85  C   UNL     1       2.624   1.340  15.838  1.00  0.00     0.022 A 
BRANCH  83  86
ATOM     86  S   UNL     1       3.746   0.172  13.629  1.00  0.00     0.127 S 
ATOM     87  O   UNL     1       5.097   0.188  14.184  1.00  0.00    -0.237 OA
ATOM     88  O   UNL     1       2.918  -0.958  14.052  1.00  0.00    -0.237 OA
ATOM     89  O   UNL     1       3.637   0.494  12.212  1.00  0.00    -0.744 OA
ENDBRANCH  83  86
ENDBRANCH  55  79
BRANCH  67  90
ATOM     90  C   UNL     1       3.759  10.363  15.849  1.00  0.00     0.023 A 
ATOM     91  C   UNL     1       5.153  10.173  15.915  1.00  0.00     0.012 A 
ATOM     92  C   UNL     1       3.130  11.203  16.790  1.00  0.00     0.148 A 
ATOM     93  C   UNL     1       5.902  10.772  16.928  1.00  0.00     0.002 A 
ATOM     94  C   UNL     1       3.890  11.841  17.761  1.00  0.00     0.091 A 
ATOM     95  F   UNL     1       1.799  11.356  16.721  1.00  0.00    -0.205 F 
ATOM     96  C   UNL     1       5.273  11.614  17.842  1.00  0.00     0.022 A 
BRANCH  94  97
ATOM     97  S   UNL     1       3.179  13.020  18.914  1.00  0.00     0.127 S 
ATOM     98  O   UNL     1       3.186  12.258  20.162  1.00  0.00    -0.237 OA
ATOM     99  O   UNL     1       4.144  14.120  18.866  1.00  0.00    -0.237 OA
ATOM    100  O   UNL     1       1.861  13.350  18.389  1.00  0.00    -0.744 OA
ENDBRANCH  94  97
ENDBRANCH  67  90
ENDBRANCH  41  42
ENDBRANCH  33  36
ENDBRANCH  31  32
ENDBRANCH  30  31
ENDBRANCH  29  30
ENDBRANCH  28  29
ENDBRANCH   1  28
TORSDOF 22
