REMARK SMILES O=C(NCCCCCCNC(=O)c1cc(S(=O)(=O)NNC(=O)[C@H]2C=C(c3ccccc3)N=N2)ccc1F)c1ccc(-c2c3nc(c(-c4cccc(S(=O)(=O)[O-])c4F)c4ccc([nH]4)c(-c4cccc(S(=O)(=O)[O-])c4F)c4nc(c(-c5cccc(S(=O)(=O)[O-])c5F)c5ccc2[nH]5)C=C4)C=C3)cc1
REMARK SMILES IDX 7 1 6 2 5 3 4 4 3 5 1 6 2 7 38 9 39 10 100 11 40 12 99 13
REMARK SMILES IDX 41 14 42 15 43 16 93 17 44 18 98 19 92 20 94 21 45 22 97 23
REMARK SMILES IDX 91 24 90 25 46 27 78 28 58 29 77 30 59 31 62 32 76 33 95 34
REMARK SMILES IDX 60 35 61 36 75 38 96 39 63 40 47 41 48 42 56 43 49 44 51 45
REMARK SMILES IDX 57 46 50 47 52 48 53 49 54 50 55 51 79 52 80 53 88 54 81 55
REMARK SMILES IDX 83 56 89 57 82 58 84 59 85 60 86 61 87 62 64 63 65 64 73 65
REMARK SMILES IDX 66 66 68 67 74 68 67 69 69 70 70 71 71 72 72 73 8 74 9 75
REMARK SMILES IDX 10 76 11 77 12 79 13 80 14 81 36 82 15 83 35 84 37 85 34 86
REMARK SMILES IDX 16 87 17 88 18 89 19 90 20 92 21 93 22 95 23 96 24 97 33 98
REMARK SMILES IDX 25 99 32 100 26 101 27 102 31 103 28 104 30 105 29 106
REMARK H PARENT 3 8 94 26 62 37 10 78 19 91 20 94
REMARK Flexibility Score: inf
ROOT
ATOM      1  C   UNL     1      17.702   3.240  18.892  1.00  0.00     0.002 C 
ENDROOT
BRANCH   1   2
ATOM      2  C   UNL     1      16.625   3.455  19.962  1.00  0.00     0.002 C 
BRANCH   2   3
ATOM      3  C   UNL     1      15.436   2.487  19.919  1.00  0.00     0.021 C 
BRANCH   3   4
ATOM      4  C   UNL     1      15.818   1.008  19.904  1.00  0.00     0.116 C 
BRANCH   4   5
ATOM      5  N   UNL     1      16.550   0.580  21.076  1.00  0.00    -0.352 N 
ATOM      6  O   UNL     1      17.135  -0.040  23.112  1.00  0.00    -0.269 OA
ATOM      7  C   UNL     1      16.212   0.315  22.375  1.00  0.00     0.251 C 
ATOM      8  H   UNL     1      17.510   0.449  20.898  1.00  0.00     0.163 HD
BRANCH   7   9
ATOM      9  C   UNL     1      14.843   0.456  22.947  1.00  0.00     0.039 A 
ATOM     10  C   UNL     1      13.661   0.493  22.207  1.00  0.00     0.014 A 
ATOM     11  C   UNL     1      14.754   0.504  24.351  1.00  0.00     0.014 A 
ATOM     12  C   UNL     1      12.427   0.620  22.843  1.00  0.00     0.010 A 
ATOM     13  C   UNL     1      13.520   0.604  24.994  1.00  0.00     0.010 A 
ATOM     14  C   UNL     1      12.352   0.675  24.236  1.00  0.00    -0.014 A 
BRANCH  14  15
ATOM     15  C   UNL     1      11.019   0.686  24.840  1.00  0.00     0.031 A 
ATOM     16  C   UNL     1      10.182  -0.537  24.639  1.00  0.00     0.074 A 
ATOM     17  C   UNL     1      10.576   1.641  25.680  1.00  0.00     0.049 A 
ATOM     18  N   UNL     1       8.996  -0.628  24.122  1.00  0.00    -0.248 NA
ATOM     19  C   UNL     1      10.761  -1.827  25.039  1.00  0.00     0.031 C 
ATOM     20  C   UNL     1      11.354   2.713  26.303  1.00  0.00     0.029 A 
ATOM     21  N   UNL     1       9.348   1.752  26.272  1.00  0.00    -0.354 N 
ATOM     22  C   UNL     1       8.602  -1.959  24.293  1.00  0.00     0.074 A 
ATOM     23  C   UNL     1       9.764  -2.668  24.764  1.00  0.00     0.031 C 
ATOM     24  C   UNL     1      10.664   3.193  27.361  1.00  0.00     0.029 A 
ATOM     25  C   UNL     1       9.354   2.564  27.396  1.00  0.00     0.049 A 
ATOM     26  H   UNL     1       8.541   1.300  25.934  1.00  0.00     0.167 HD
ATOM     27  C   UNL     1       7.306  -2.363  24.188  1.00  0.00     0.034 A 
ATOM     28  C   UNL     1       8.387   2.645  28.338  1.00  0.00     0.034 A 
ATOM     29  C   UNL     1       6.477  -1.381  23.547  1.00  0.00     0.049 A 
ATOM     30  C   UNL     1       7.129   2.121  27.765  1.00  0.00     0.074 A 
ATOM     31  C   UNL     1       6.424  -0.777  22.309  1.00  0.00     0.029 A 
ATOM     32  N   UNL     1       5.607  -0.684  24.346  1.00  0.00    -0.354 N 
ATOM     33  N   UNL     1       6.442   2.708  26.826  1.00  0.00    -0.248 NA
ATOM     34  C   UNL     1       6.739   0.752  28.063  1.00  0.00     0.031 C 
ATOM     35  C   UNL     1       5.854   0.508  22.543  1.00  0.00     0.029 A 
ATOM     36  C   UNL     1       5.608   0.613  23.914  1.00  0.00     0.049 A 
ATOM     37  H   UNL     1       5.079  -1.050  25.092  1.00  0.00     0.167 HD
ATOM     38  C   UNL     1       5.823   1.672  26.143  1.00  0.00     0.074 A 
ATOM     39  C   UNL     1       5.907   0.528  27.044  1.00  0.00     0.031 C 
ATOM     40  C   UNL     1       5.572   1.756  24.803  1.00  0.00     0.034 A 
BRANCH  27  41
ATOM     41  C   UNL     1       6.678  -3.542  24.905  1.00  0.00     0.023 A 
ATOM     42  C   UNL     1       5.368  -3.918  24.516  1.00  0.00     0.012 A 
ATOM     43  C   UNL     1       7.175  -4.116  26.095  1.00  0.00     0.148 A 
ATOM     44  C   UNL     1       4.577  -4.770  25.295  1.00  0.00     0.002 A 
ATOM     45  C   UNL     1       6.415  -5.031  26.821  1.00  0.00     0.091 A 
ATOM     46  F   UNL     1       8.334  -3.692  26.611  1.00  0.00    -0.205 F 
ATOM     47  C   UNL     1       5.105  -5.336  26.446  1.00  0.00     0.022 A 
BRANCH  45  48
ATOM     48  S   UNL     1       7.096  -5.853  28.266  1.00  0.00     0.127 S 
ATOM     49  O   UNL     1       6.638  -4.984  29.345  1.00  0.00    -0.237 OA
ATOM     50  O   UNL     1       6.449  -7.165  28.213  1.00  0.00    -0.237 OA
ATOM     51  O   UNL     1       8.533  -5.893  28.022  1.00  0.00    -0.744 OA
ENDBRANCH  45  48
ENDBRANCH  27  41
BRANCH  28  52
ATOM     52  C   UNL     1       8.510   2.958  29.779  1.00  0.00     0.023 A 
ATOM     53  C   UNL     1       7.389   3.443  30.480  1.00  0.00     0.012 A 
ATOM     54  C   UNL     1       9.637   2.543  30.523  1.00  0.00     0.148 A 
ATOM     55  C   UNL     1       7.380   3.490  31.878  1.00  0.00     0.002 A 
ATOM     56  C   UNL     1       9.629   2.607  31.913  1.00  0.00     0.091 A 
ATOM     57  F   UNL     1      10.676   1.998  29.876  1.00  0.00    -0.205 F 
ATOM     58  C   UNL     1       8.497   3.069  32.595  1.00  0.00     0.022 A 
BRANCH  56  59
ATOM     59  S   UNL     1      11.037   2.076  32.896  1.00  0.00     0.127 S 
ATOM     60  O   UNL     1      11.114   3.125  33.914  1.00  0.00    -0.237 OA
ATOM     61  O   UNL     1      10.590   0.777  33.389  1.00  0.00    -0.237 OA
ATOM     62  O   UNL     1      12.169   2.057  31.977  1.00  0.00    -0.744 OA
ENDBRANCH  56  59
ENDBRANCH  28  52
BRANCH  40  63
ATOM     63  C   UNL     1       5.638   3.108  24.136  1.00  0.00     0.023 A 
ATOM     64  C   UNL     1       6.828   3.863  24.119  1.00  0.00     0.012 A 
ATOM     65  C   UNL     1       4.558   3.526  23.336  1.00  0.00     0.148 A 
ATOM     66  C   UNL     1       6.933   5.020  23.346  1.00  0.00     0.002 A 
ATOM     67  C   UNL     1       4.685   4.648  22.524  1.00  0.00     0.091 A 
ATOM     68  F   UNL     1       3.432   2.795  23.352  1.00  0.00    -0.205 F 
ATOM     69  C   UNL     1       5.868   5.404  22.536  1.00  0.00     0.022 A 
BRANCH  67  70
ATOM     70  S   UNL     1       3.416   5.102  21.337  1.00  0.00     0.127 S 
ATOM     71  O   UNL     1       2.749   6.214  22.010  1.00  0.00    -0.237 OA
ATOM     72  O   UNL     1       4.202   5.481  20.161  1.00  0.00    -0.237 OA
ATOM     73  O   UNL     1       2.607   3.904  21.145  1.00  0.00    -0.744 OA
ENDBRANCH  67  70
ENDBRANCH  40  63
ENDBRANCH  14  15
ENDBRANCH   7   9
ENDBRANCH   4   5
ENDBRANCH   3   4
ENDBRANCH   2   3
ENDBRANCH   1   2
BRANCH   1  74
ATOM     74  C   UNL     1      17.199   3.177  17.448  1.00  0.00     0.021 C 
BRANCH  74  75
ATOM     75  C   UNL     1      16.465   4.424  16.968  1.00  0.00     0.116 C 
BRANCH  75  76
ATOM     76  N   UNL     1      17.354   5.566  16.830  1.00  0.00    -0.352 N 
ATOM     77  C   UNL     1      17.564   6.369  15.738  1.00  0.00     0.254 C 
ATOM     78  H   UNL     1      17.878   5.795  17.631  1.00  0.00     0.163 HD
ATOM     79  O   UNL     1      18.438   7.231  15.750  1.00  0.00    -0.269 OA
BRANCH  77  80
ATOM     80  C   UNL     1      16.791   6.154  14.504  1.00  0.00     0.076 A 
ATOM     81  C   UNL     1      17.488   5.996  13.304  1.00  0.00     0.038 A 
ATOM     82  C   UNL     1      15.398   6.131  14.502  1.00  0.00     0.136 A 
ATOM     83  C   UNL     1      16.779   5.737  12.125  1.00  0.00     0.085 A 
ATOM     84  C   UNL     1      14.694   5.841  13.335  1.00  0.00     0.041 A 
ATOM     85  F   UNL     1      14.704   6.363  15.625  1.00  0.00    -0.206 F 
ATOM     86  C   UNL     1      15.385   5.618  12.142  1.00  0.00     0.025 A 
BRANCH  83  87
ATOM     87  S   UNL     1      17.717   5.695  10.624  1.00  0.00     0.257 S 
ATOM     88  O   UNL     1      18.427   6.957  10.539  1.00  0.00    -0.205 OA
ATOM     89  O   UNL     1      18.395   4.424  10.578  1.00  0.00    -0.205 OA
BRANCH  87  90
ATOM     90  N   UNL     1      16.580   5.692   9.368  1.00  0.00    -0.123 NA
ATOM     91  H   UNL     1      15.941   4.919   9.552  1.00  0.00     0.167 HD
BRANCH  90  92
ATOM     92  N   UNL     1      15.764   6.857   9.123  1.00  0.00    -0.275 N 
ATOM     93  C   UNL     1      15.427   7.345   7.885  1.00  0.00     0.265 C 
ATOM     94  H   UNL     1      15.421   7.342   9.908  1.00  0.00     0.186 HD
ATOM     95  O   UNL     1      14.577   8.241   7.824  1.00  0.00    -0.271 OA
BRANCH  93  96
ATOM     96  C   UNL     1      16.226   6.954   6.642  1.00  0.00     0.244 C 
ATOM     97  C   UNL     1      17.512   7.695   6.644  1.00  0.00     0.042 C 
ATOM     98  N   UNL     1      16.667   5.533   6.651  1.00  0.00    -0.171 NA
ATOM     99  C   UNL     1      18.457   6.755   6.679  1.00  0.00     0.091 C 
ATOM    100  N   UNL     1      17.934   5.484   6.644  1.00  0.00    -0.155 NA
BRANCH  99 101
ATOM    101  C   UNL     1      19.891   7.020   6.791  1.00  0.00     0.002 A 
ATOM    102  C   UNL     1      20.791   6.451   5.882  1.00  0.00     0.010 A 
ATOM    103  C   UNL     1      20.390   7.830   7.823  1.00  0.00     0.010 A 
ATOM    104  C   UNL     1      22.161   6.703   5.992  1.00  0.00     0.001 A 
ATOM    105  C   UNL     1      21.760   8.071   7.939  1.00  0.00     0.001 A 
ATOM    106  C   UNL     1      22.645   7.511   7.020  1.00  0.00     0.000 A 
ENDBRANCH  99 101
ENDBRANCH  93  96
ENDBRANCH  90  92
ENDBRANCH  87  90
ENDBRANCH  83  87
ENDBRANCH  77  80
ENDBRANCH  75  76
ENDBRANCH  74  75
ENDBRANCH   1  74
TORSDOF 21
