REMARK SMILES COc1cc([C@H]2CC(c3ccc(S(C)(=O)=O)cc3)=NN2c2ccc(C(=O)NCCCCCCNC(=O)c3ccc(-c4c5nc(c(-c6cccc(S(=O)(=O)[O-])c6F)c6ccc([nH]6)c(-c6cccc(S(=O)(=O)[O-])c6F)c6nc(c(-c7cccc(S(=O)(=O)[O-])c7F)c7ccc4[nH]7)C=C6)C=C5)cc3)cc2)cc(OC)c1OC
REMARK SMILES IDX 30 1 29 2 28 3 27 4 25 5 26 6 24 8 21 9 22 10 101 11 23 12
REMARK SMILES IDX 100 13 20 14 6 15 7 16 8 17 19 18 5 19 3 20 4 21 106 22
REMARK SMILES IDX 103 23 102 24 2 25 1 26 107 27 108 28 104 29 105 30 9 31
REMARK SMILES IDX 10 32 18 33 11 34 17 35 12 36 13 37 14 38 15 39 16 40 31 41
REMARK SMILES IDX 32 42 33 43 34 44 35 45 36 47 37 48 38 49 99 50 39 51 98 52
REMARK SMILES IDX 40 53 41 54 42 55 92 56 43 57 97 58 91 59 93 60 44 61 96 62
REMARK SMILES IDX 90 63 89 64 45 66 77 67 57 68 76 69 58 70 61 71 75 72 94 73
REMARK SMILES IDX 59 74 60 75 74 77 95 78 62 79 46 80 47 81 55 82 48 83 50 84
REMARK SMILES IDX 56 85 49 86 51 87 52 88 53 89 54 90 78 91 79 92 87 93 80 94
REMARK SMILES IDX 82 95 88 96 81 97 83 98 84 99 85 100 86 101 63 102 64 103
REMARK SMILES IDX 72 104 65 105 67 106 73 107 66 108 68 109 69 110 70 111
REMARK SMILES IDX 71 112
REMARK H PARENT 27 7 34 46 93 65 61 76
REMARK Flexibility Score: inf
ROOT
ATOM      1  C   UNL     1      -1.471   4.850   8.653  1.00  0.00     0.002 C 
ENDROOT
BRANCH   1   2
ATOM      2  C   UNL     1      -1.509   3.425   8.082  1.00  0.00     0.021 C 
BRANCH   2   3
ATOM      3  C   UNL     1      -0.435   3.178   7.021  1.00  0.00     0.116 C 
BRANCH   3   4
ATOM      4  N   UNL     1       0.847   2.965   7.664  1.00  0.00    -0.352 N 
ATOM      5  C   UNL     1       1.559   1.830   7.944  1.00  0.00     0.251 C 
ATOM      6  O   UNL     1       2.628   1.962   8.542  1.00  0.00    -0.269 OA
ATOM      7  H   UNL     1       1.289   3.795   7.956  1.00  0.00     0.163 HD
BRANCH   5   8
ATOM      8  C   UNL     1       1.137   0.473   7.500  1.00  0.00     0.039 A 
ATOM      9  C   UNL     1       0.547  -2.111   6.526  1.00  0.00     0.060 A 
ATOM     10  C   UNL     1       1.865  -1.733   6.796  1.00  0.00     0.029 A 
ATOM     11  C   UNL     1      -0.476  -1.206   6.808  1.00  0.00     0.029 A 
ATOM     12  C   UNL     1       2.162  -0.451   7.258  1.00  0.00     0.016 A 
ATOM     13  C   UNL     1      -0.187   0.059   7.333  1.00  0.00     0.016 A 
BRANCH   9  14
ATOM     14  N   UNL     1       0.285  -3.368   6.016  1.00  0.00    -0.257 N 
ATOM     15  C   UNL     1      -0.325  -3.635   4.712  1.00  0.00     0.144 C 
ATOM     16  C   UNL     1      -0.502  -5.167   4.749  1.00  0.00     0.091 C 
ATOM     17  C   UNL     1      -0.044  -5.454   6.155  1.00  0.00     0.071 C 
ATOM     18  N   UNL     1       0.390  -4.440   6.832  1.00  0.00    -0.176 NA
BRANCH  15  19
ATOM     19  C   UNL     1       0.570  -3.108   3.598  1.00  0.00    -0.015 A 
ATOM     20  C   UNL     1       1.107  -1.389   1.939  1.00  0.00     0.164 A 
ATOM     21  C   UNL     1       0.213  -1.968   2.862  1.00  0.00     0.056 A 
ATOM     22  C   UNL     1       2.395  -1.921   1.738  1.00  0.00     0.203 A 
ATOM     23  C   UNL     1       2.751  -3.072   2.470  1.00  0.00     0.164 A 
ATOM     24  C   UNL     1       1.841  -3.651   3.372  1.00  0.00     0.056 A 
BRANCH  20  25
ATOM     25  O   UNL     1       0.726  -0.204   1.359  1.00  0.00    -0.493 OA
ATOM     26  C   UNL     1      -0.225  -0.396   0.309  1.00  0.00     0.278 C 
ENDBRANCH  20  25
BRANCH  22  27
ATOM     27  O   UNL     1       3.357  -1.420   0.904  1.00  0.00    -0.490 OA
ATOM     28  C   UNL     1       3.071  -0.356   0.014  1.00  0.00     0.278 C 
ENDBRANCH  22  27
BRANCH  23  29
ATOM     29  O   UNL     1       3.934  -3.772   2.429  1.00  0.00    -0.493 OA
ATOM     30  C   UNL     1       5.095  -3.101   1.963  1.00  0.00     0.278 C 
ENDBRANCH  23  29
ENDBRANCH  15  19
BRANCH  17  31
ATOM     31  C   UNL     1      -0.117  -6.793   6.753  1.00  0.00    -0.002 A 
ATOM     32  C   UNL     1      -0.800  -6.937   7.967  1.00  0.00     0.011 A 
ATOM     33  C   UNL     1       0.556  -7.871   6.178  1.00  0.00     0.011 A 
ATOM     34  C   UNL     1      -0.826  -8.175   8.608  1.00  0.00     0.021 A 
ATOM     35  C   UNL     1       0.554  -9.107   6.833  1.00  0.00     0.021 A 
ATOM     36  C   UNL     1      -0.133  -9.251   8.045  1.00  0.00     0.067 A 
BRANCH  36  37
ATOM     37  S   UNL     1      -0.133 -10.818   8.886  1.00  0.00     0.175 S 
ATOM     38  C   UNL     1       0.602 -10.478  10.464  1.00  0.00     0.163 C 
ATOM     39  O   UNL     1      -1.524 -11.180   9.100  1.00  0.00    -0.224 OA
ATOM     40  O   UNL     1       0.764 -11.702   8.173  1.00  0.00    -0.224 OA
ENDBRANCH  36  37
ENDBRANCH  17  31
ENDBRANCH   9  14
ENDBRANCH   5   8
ENDBRANCH   3   4
ENDBRANCH   2   3
ENDBRANCH   1   2
BRANCH   1  41
ATOM     41  C   UNL     1      -1.784   5.954   7.635  1.00  0.00     0.002 C 
BRANCH  41  42
ATOM     42  C   UNL     1      -3.123   5.798   6.909  1.00  0.00     0.021 C 
BRANCH  42  43
ATOM     43  C   UNL     1      -4.340   5.814   7.828  1.00  0.00     0.116 C 
BRANCH  43  44
ATOM     44  N   UNL     1      -4.501   7.107   8.477  1.00  0.00    -0.352 N 
ATOM     45  C   UNL     1      -5.592   7.940   8.482  1.00  0.00     0.251 C 
ATOM     46  H   UNL     1      -3.720   7.428   8.983  1.00  0.00     0.163 HD
ATOM     47  O   UNL     1      -5.484   9.095   8.881  1.00  0.00    -0.269 OA
BRANCH  45  48
ATOM     48  C   UNL     1      -6.895   7.439   7.997  1.00  0.00     0.039 A 
ATOM     49  C   UNL     1      -7.654   8.236   7.136  1.00  0.00     0.014 A 
ATOM     50  C   UNL     1      -7.369   6.188   8.403  1.00  0.00     0.014 A 
ATOM     51  C   UNL     1      -8.870   7.758   6.644  1.00  0.00     0.010 A 
ATOM     52  C   UNL     1      -8.548   5.687   7.861  1.00  0.00     0.010 A 
ATOM     53  C   UNL     1      -9.316   6.470   6.985  1.00  0.00    -0.014 A 
BRANCH  53  54
ATOM     54  C   UNL     1     -10.584   5.920   6.443  1.00  0.00     0.031 A 
ATOM     55  C   UNL     1     -11.721   5.593   7.372  1.00  0.00     0.074 A 
ATOM     56  C   UNL     1     -10.674   5.624   5.132  1.00  0.00     0.049 A 
ATOM     57  N   UNL     1     -12.871   5.032   7.103  1.00  0.00    -0.248 NA
ATOM     58  C   UNL     1     -11.529   5.910   8.798  1.00  0.00     0.031 C 
ATOM     59  C   UNL     1      -9.611   5.822   4.145  1.00  0.00     0.029 A 
ATOM     60  N   UNL     1     -11.697   5.062   4.410  1.00  0.00    -0.354 N 
ATOM     61  C   UNL     1     -13.521   4.893   8.323  1.00  0.00     0.074 A 
ATOM     62  C   UNL     1     -12.625   5.399   9.339  1.00  0.00     0.031 C 
ATOM     63  C   UNL     1     -10.035   5.386   2.948  1.00  0.00     0.029 A 
ATOM     64  C   UNL     1     -11.388   4.854   3.085  1.00  0.00     0.049 A 
ATOM     65  H   UNL     1     -12.570   4.830   4.802  1.00  0.00     0.167 HD
ATOM     66  C   UNL     1     -14.763   4.414   8.573  1.00  0.00     0.034 A 
ATOM     67  C   UNL     1     -12.110   4.293   2.096  1.00  0.00     0.034 A 
ATOM     68  C   UNL     1     -15.670   3.962   7.553  1.00  0.00     0.049 A 
ATOM     69  C   UNL     1     -13.508   3.820   2.390  1.00  0.00     0.074 A 
ATOM     70  C   UNL     1     -16.982   3.547   7.692  1.00  0.00     0.029 A 
ATOM     71  N   UNL     1     -15.359   3.864   6.206  1.00  0.00    -0.354 N 
ATOM     72  N   UNL     1     -14.165   3.845   3.524  1.00  0.00    -0.248 NA
ATOM     73  C   UNL     1     -14.279   3.278   1.262  1.00  0.00     0.031 C 
ATOM     74  C   UNL     1     -17.461   3.184   6.429  1.00  0.00     0.029 A 
ATOM     75  C   UNL     1     -16.452   3.391   5.501  1.00  0.00     0.049 A 
ATOM     76  H   UNL     1     -14.489   4.097   5.809  1.00  0.00     0.167 HD
ATOM     77  C   UNL     1     -15.436   3.359   3.240  1.00  0.00     0.074 A 
ATOM     78  C   UNL     1     -15.463   3.064   1.822  1.00  0.00     0.031 C 
ATOM     79  C   UNL     1     -16.482   3.159   4.080  1.00  0.00     0.034 A 
BRANCH  66  80
ATOM     80  C   UNL     1     -15.238   4.412  10.002  1.00  0.00     0.023 A 
ATOM     81  C   UNL     1     -15.557   5.634  10.629  1.00  0.00     0.012 A 
ATOM     82  C   UNL     1     -15.424   3.206  10.706  1.00  0.00     0.148 A 
ATOM     83  C   UNL     1     -16.021   5.660  11.943  1.00  0.00     0.002 A 
ATOM     84  C   UNL     1     -15.927   3.237  12.002  1.00  0.00     0.091 A 
ATOM     85  F   UNL     1     -15.094   2.055  10.103  1.00  0.00    -0.205 F 
ATOM     86  C   UNL     1     -16.215   4.463  12.625  1.00  0.00     0.022 A 
BRANCH  84  87
ATOM     87  S   UNL     1     -16.286   1.745  12.936  1.00  0.00     0.127 S 
ATOM     88  O   UNL     1     -15.208   1.749  13.924  1.00  0.00    -0.237 OA
ATOM     89  O   UNL     1     -17.613   2.033  13.481  1.00  0.00    -0.237 OA
ATOM     90  O   UNL     1     -16.251   0.653  11.974  1.00  0.00    -0.744 OA
ENDBRANCH  84  87
ENDBRANCH  66  80
BRANCH  67  91
ATOM     91  C   UNL     1     -11.548   4.218   0.717  1.00  0.00     0.023 A 
ATOM     92  C   UNL     1     -12.080   5.050  -0.288  1.00  0.00     0.012 A 
ATOM     93  C   UNL     1     -10.474   3.363   0.405  1.00  0.00     0.148 A 
ATOM     94  C   UNL     1     -11.573   5.008  -1.587  1.00  0.00     0.002 A 
ATOM     95  C   UNL     1      -9.938   3.366  -0.879  1.00  0.00     0.091 A 
ATOM     96  F   UNL     1      -9.989   2.571   1.371  1.00  0.00    -0.205 F 
ATOM     97  C   UNL     1     -10.496   4.175  -1.880  1.00  0.00     0.022 A 
BRANCH  95  98
ATOM     98  S   UNL     1      -8.469   2.424  -1.308  1.00  0.00     0.127 S 
ATOM     99  O   UNL     1      -9.029   1.351  -2.126  1.00  0.00    -0.237 OA
ATOM    100  O   UNL     1      -7.678   3.410  -2.044  1.00  0.00    -0.237 OA
ATOM    101  O   UNL     1      -7.881   2.014  -0.040  1.00  0.00    -0.744 OA
ENDBRANCH  95  98
ENDBRANCH  67  91
BRANCH  79 102
ATOM    102  C   UNL     1     -17.762   2.628   3.491  1.00  0.00     0.023 A 
ATOM    103  C   UNL     1     -17.846   1.276   3.106  1.00  0.00     0.012 A 
ATOM    104  C   UNL     1     -18.905   3.447   3.401  1.00  0.00     0.148 A 
ATOM    105  C   UNL     1     -19.041   0.754   2.613  1.00  0.00     0.002 A 
ATOM    106  C   UNL     1     -20.105   2.908   2.953  1.00  0.00     0.091 A 
ATOM    107  F   UNL     1     -18.798   4.736   3.754  1.00  0.00    -0.205 F 
ATOM    108  C   UNL     1     -20.172   1.564   2.549  1.00  0.00     0.022 A 
BRANCH 106 109
ATOM    109  S   UNL     1     -21.633   3.852   2.929  1.00  0.00     0.127 S 
ATOM    110  O   UNL     1     -21.805   4.102   1.499  1.00  0.00    -0.237 OA
ATOM    111  O   UNL     1     -22.592   2.907   3.503  1.00  0.00    -0.237 OA
ATOM    112  O   UNL     1     -21.387   5.032   3.746  1.00  0.00    -0.744 OA
ENDBRANCH 106 109
ENDBRANCH  79 102
ENDBRANCH  53  54
ENDBRANCH  45  48
ENDBRANCH  43  44
ENDBRANCH  42  43
ENDBRANCH  41  42
ENDBRANCH   1  41
TORSDOF 23
