REMARK SMILES CCc1sc(NC(=O)[C@H]2CC(C)=C(C)C[C@H]2C(=O)NCCCCCCNC(=O)c2ccc(-c3c4nc(c(-c5cccc(S(=O)(=O)[O-])c5F)c5ccc([nH]5)c(-c5cccc(S(=O)(=O)[O-])c5F)c5nc(c(-c6cccc(S(=O)(=O)[O-])c6F)c6ccc3[nH]6)C=C5)C=C4)cc2)nc1-c1ccccc1
REMARK SMILES IDX 22 1 21 2 20 3 19 4 17 5 18 6 16 8 9 9 10 10 11 11 15 12
REMARK SMILES IDX 12 13 13 14 14 15 7 16 6 17 8 19 5 20 3 21 4 22 93 23 92 24
REMARK SMILES IDX 2 25 1 26 94 27 95 28 99 29 96 30 98 31 97 32 23 33 24 34
REMARK SMILES IDX 25 35 26 36 27 37 28 39 29 40 30 41 91 42 31 43 90 44 32 45
REMARK SMILES IDX 33 46 34 47 84 48 35 49 89 50 83 51 85 52 36 53 88 54 82 55
REMARK SMILES IDX 81 56 37 58 69 59 49 60 68 61 50 62 53 63 67 64 86 65 51 66
REMARK SMILES IDX 52 67 66 69 87 70 54 71 38 72 39 73 47 74 40 75 42 76 48 77
REMARK SMILES IDX 41 78 43 79 44 80 45 81 46 82 70 83 71 84 79 85 72 86 74 87
REMARK SMILES IDX 80 88 73 89 75 90 76 91 77 92 78 93 55 94 56 95 64 96 57 97
REMARK SMILES IDX 59 98 65 99 58 100 60 101 61 102 62 103 63 104
REMARK H PARENT 19 7 6 18 26 38 85 57 53 68
REMARK Flexibility Score: inf
ROOT
ATOM      1  C   UNL     1       3.892  -1.370  10.948  1.00  0.00     0.002 C 
ENDROOT
BRANCH   1   2
ATOM      2  C   UNL     1       4.094  -2.226   9.698  1.00  0.00     0.021 C 
BRANCH   2   3
ATOM      3  C   UNL     1       2.950  -3.191   9.411  1.00  0.00     0.116 C 
BRANCH   3   4
ATOM      4  N   UNL     1       1.740  -2.505   9.008  1.00  0.00    -0.356 N 
ATOM      5  C   UNL     1       1.095  -2.429   7.821  1.00  0.00     0.224 C 
ATOM      6  O   UNL     1       0.089  -1.710   7.779  1.00  0.00    -0.275 OA
ATOM      7  H   UNL     1       1.306  -2.000   9.732  1.00  0.00     0.163 HD
BRANCH   5   8
ATOM      8  C   UNL     1       1.531  -3.172   6.555  1.00  0.00     0.095 C 
ATOM      9  C   UNL     1       2.711  -2.571   5.774  1.00  0.00     0.095 C 
ATOM     10  C   UNL     1       4.067  -3.245   6.048  1.00  0.00     0.045 C 
ATOM     11  C   UNL     1       4.038  -4.725   6.353  1.00  0.00    -0.074 C 
ATOM     12  C   UNL     1       1.554  -4.698   6.718  1.00  0.00     0.045 C 
ATOM     13  C   UNL     1       5.410  -5.357   6.377  1.00  0.00     0.039 C 
ATOM     14  C   UNL     1       2.900  -5.380   6.664  1.00  0.00    -0.074 C 
ATOM     15  C   UNL     1       2.884  -6.832   7.078  1.00  0.00     0.039 C 
BRANCH   9  16
ATOM     16  C   UNL     1       2.824  -1.063   6.005  1.00  0.00     0.230 C 
ATOM     17  N   UNL     1       2.144  -0.106   5.341  1.00  0.00    -0.302 N 
ATOM     18  H   UNL     1       2.146   0.751   5.826  1.00  0.00     0.172 HD
ATOM     19  O   UNL     1       3.554  -0.627   6.904  1.00  0.00    -0.274 OA
BRANCH  17  20
ATOM     20  C   UNL     1       1.456  -0.026   4.170  1.00  0.00     0.190 A 
ATOM     21  C   UNL     1       0.565  -0.250   1.933  1.00  0.00     0.034 A 
ATOM     22  S   UNL     1       1.191  -1.324   3.120  1.00  0.00    -0.101 S 
ATOM     23  C   UNL     1       0.524   1.027   2.470  1.00  0.00     0.087 A 
ATOM     24  N   UNL     1       1.038   1.142   3.747  1.00  0.00    -0.220 NA
BRANCH  21  25
ATOM     25  C   UNL     1       0.208  -0.764   0.573  1.00  0.00     0.046 C 
ATOM     26  C   UNL     1       1.106  -0.187  -0.513  1.00  0.00     0.010 C 
ENDBRANCH  21  25
BRANCH  23  27
ATOM     27  C   UNL     1       0.090   2.207   1.746  1.00  0.00     0.001 A 
ATOM     28  C   UNL     1      -1.215   2.312   1.254  1.00  0.00     0.010 A 
ATOM     29  C   UNL     1       1.000   3.247   1.517  1.00  0.00     0.010 A 
ATOM     30  C   UNL     1      -1.595   3.429   0.509  1.00  0.00     0.001 A 
ATOM     31  C   UNL     1       0.620   4.361   0.768  1.00  0.00     0.001 A 
ATOM     32  C   UNL     1      -0.675   4.448   0.259  1.00  0.00     0.000 A 
ENDBRANCH  23  27
ENDBRANCH  17  20
ENDBRANCH   9  16
ENDBRANCH   5   8
ENDBRANCH   3   4
ENDBRANCH   2   3
ENDBRANCH   1   2
BRANCH   1  33
ATOM     33  C   UNL     1       3.878  -2.164  12.256  1.00  0.00     0.002 C 
BRANCH  33  34
ATOM     34  C   UNL     1       5.087  -3.082  12.462  1.00  0.00     0.021 C 
BRANCH  34  35
ATOM     35  C   UNL     1       6.442  -2.396  12.312  1.00  0.00     0.116 C 
BRANCH  35  36
ATOM     36  N   UNL     1       6.623  -1.341  13.295  1.00  0.00    -0.352 N 
ATOM     37  C   UNL     1       7.674  -1.154  14.157  1.00  0.00     0.251 C 
ATOM     38  H   UNL     1       5.900  -0.676  13.350  1.00  0.00     0.163 HD
ATOM     39  O   UNL     1       7.598  -0.341  15.070  1.00  0.00    -0.269 OA
BRANCH  37  40
ATOM     40  C   UNL     1       8.898  -1.959  13.973  1.00  0.00     0.039 A 
ATOM     41  C   UNL     1       9.424  -2.654  15.064  1.00  0.00     0.014 A 
ATOM     42  C   UNL     1       9.509  -2.034  12.718  1.00  0.00     0.014 A 
ATOM     43  C   UNL     1      10.551  -3.458  14.886  1.00  0.00     0.010 A 
ATOM     44  C   UNL     1      10.598  -2.879  12.531  1.00  0.00     0.010 A 
ATOM     45  C   UNL     1      11.136  -3.589  13.616  1.00  0.00    -0.014 A 
BRANCH  45  46
ATOM     46  C   UNL     1      12.316  -4.461  13.402  1.00  0.00     0.031 A 
ATOM     47  C   UNL     1      13.638  -3.858  13.013  1.00  0.00     0.074 A 
ATOM     48  C   UNL     1      12.176  -5.799  13.475  1.00  0.00     0.049 A 
ATOM     49  N   UNL     1      14.769  -4.457  12.744  1.00  0.00    -0.248 NA
ATOM     50  C   UNL     1      13.690  -2.392  12.883  1.00  0.00     0.031 C 
ATOM     51  C   UNL     1      10.924  -6.503  13.758  1.00  0.00     0.029 A 
ATOM     52  N   UNL     1      13.089  -6.806  13.287  1.00  0.00    -0.354 N 
ATOM     53  C   UNL     1      15.653  -3.450  12.378  1.00  0.00     0.074 A 
ATOM     54  C   UNL     1      14.921  -2.204  12.431  1.00  0.00     0.031 C 
ATOM     55  C   UNL     1      11.147  -7.827  13.721  1.00  0.00     0.029 A 
ATOM     56  C   UNL     1      12.550  -8.066  13.396  1.00  0.00     0.049 A 
ATOM     57  H   UNL     1      14.040  -6.641  13.093  1.00  0.00     0.167 HD
ATOM     58  C   UNL     1      16.965  -3.550  12.059  1.00  0.00     0.034 A 
ATOM     59  C   UNL     1      13.123  -9.277  13.250  1.00  0.00     0.034 A 
ATOM     60  C   UNL     1      17.702  -4.784  12.064  1.00  0.00     0.049 A 
ATOM     61  C   UNL     1      14.598  -9.357  12.962  1.00  0.00     0.074 A 
ATOM     62  C   UNL     1      19.056  -4.979  11.857  1.00  0.00     0.029 A 
ATOM     63  N   UNL     1      17.146  -6.034  12.286  1.00  0.00    -0.354 N 
ATOM     64  N   UNL     1      15.459  -8.382  12.795  1.00  0.00    -0.248 NA
ATOM     65  C   UNL     1      15.189 -10.700  12.883  1.00  0.00     0.031 C 
ATOM     66  C   UNL     1      19.317  -6.351  11.943  1.00  0.00     0.029 A 
ATOM     67  C   UNL     1      18.128  -7.008  12.215  1.00  0.00     0.049 A 
ATOM     68  H   UNL     1      16.194  -6.205  12.466  1.00  0.00     0.167 HD
ATOM     69  C   UNL     1      16.696  -8.991  12.623  1.00  0.00     0.074 A 
ATOM     70  C   UNL     1      16.477 -10.419  12.729  1.00  0.00     0.031 C 
ATOM     71  C   UNL     1      17.902  -8.421  12.380  1.00  0.00     0.034 A 
BRANCH  58  72
ATOM     72  C   UNL     1      17.707  -2.278  11.743  1.00  0.00     0.023 A 
ATOM     73  C   UNL     1      18.018  -1.383  12.787  1.00  0.00     0.012 A 
ATOM     74  C   UNL     1      18.145  -1.994  10.435  1.00  0.00     0.148 A 
ATOM     75  C   UNL     1      18.727  -0.210  12.530  1.00  0.00     0.002 A 
ATOM     76  C   UNL     1      18.886  -0.842  10.193  1.00  0.00     0.091 A 
ATOM     77  F   UNL     1      17.818  -2.844   9.451  1.00  0.00    -0.205 F 
ATOM     78  C   UNL     1      19.169   0.054  11.236  1.00  0.00     0.022 A 
BRANCH  76  79
ATOM     79  S   UNL     1      19.564  -0.452   8.576  1.00  0.00     0.127 S 
ATOM     80  O   UNL     1      18.688   0.636   8.143  1.00  0.00    -0.237 OA
ATOM     81  O   UNL     1      20.930  -0.039   8.904  1.00  0.00    -0.237 OA
ATOM     82  O   UNL     1      19.474  -1.679   7.798  1.00  0.00    -0.744 OA
ENDBRANCH  76  79
ENDBRANCH  58  72
BRANCH  59  83
ATOM     83  C   UNL     1      12.312 -10.510  13.459  1.00  0.00     0.023 A 
ATOM     84  C   UNL     1      12.526 -11.287  14.614  1.00  0.00     0.012 A 
ATOM     85  C   UNL     1      11.308 -10.893  12.549  1.00  0.00     0.148 A 
ATOM     86  C   UNL     1      11.774 -12.439  14.845  1.00  0.00     0.002 A 
ATOM     87  C   UNL     1      10.527 -12.013  12.812  1.00  0.00     0.091 A 
ATOM     88  F   UNL     1      11.129 -10.150  11.448  1.00  0.00    -0.205 F 
ATOM     89  C   UNL     1      10.768 -12.796  13.951  1.00  0.00     0.022 A 
BRANCH  87  90
ATOM     90  S   UNL     1       9.125 -12.464  11.783  1.00  0.00     0.127 S 
ATOM     91  O   UNL     1       9.652 -13.606  11.041  1.00  0.00    -0.237 OA
ATOM     92  O   UNL     1       8.105 -12.794  12.780  1.00  0.00    -0.237 OA
ATOM     93  O   UNL     1       8.823 -11.276  10.995  1.00  0.00    -0.744 OA
ENDBRANCH  87  90
ENDBRANCH  59  83
BRANCH  71  94
ATOM     94  C   UNL     1      19.090  -9.334  12.234  1.00  0.00     0.023 A 
ATOM     95  C   UNL     1      19.243 -10.092  11.057  1.00  0.00     0.012 A 
ATOM     96  C   UNL     1      20.092  -9.380  13.223  1.00  0.00     0.148 A 
ATOM     97  C   UNL     1      20.363 -10.902  10.876  1.00  0.00     0.002 A 
ATOM     98  C   UNL     1      21.227 -10.155  13.017  1.00  0.00     0.091 A 
ATOM     99  F   UNL     1      19.918  -8.667  14.346  1.00  0.00    -0.205 F 
ATOM    100  C   UNL     1      21.359 -10.924  11.849  1.00  0.00     0.022 A 
BRANCH  98 101
ATOM    101  S   UNL     1      22.601 -10.170  14.175  1.00  0.00     0.127 S 
ATOM    102  O   UNL     1      22.412 -11.454  14.846  1.00  0.00    -0.237 OA
ATOM    103  O   UNL     1      23.762 -10.111  13.286  1.00  0.00    -0.237 OA
ATOM    104  O   UNL     1      22.426  -8.991  15.013  1.00  0.00    -0.744 OA
ENDBRANCH  98 101
ENDBRANCH  71  94
ENDBRANCH  45  46
ENDBRANCH  37  40
ENDBRANCH  35  36
ENDBRANCH  34  35
ENDBRANCH  33  34
ENDBRANCH   1  33
TORSDOF 20
