REMARK SMILES C[NH+]1CCC([N@@H+](CC(=O)NCCCCCCNC(=O)c2ccc(-c3c4nc(c(-c5cccc(S(=O)(=O)[O-])c5F)c5ccc([nH]5)c(-c5cccc(S(=O)(=O)[O-])c5F)c5nc(c(-c6cccc(S(=O)(=O)[O-])c6F)c6ccc3[nH]6)C=C5)C=C4)cc2)C(C)(C)C)CC1
REMARK SMILES IDX 14 1 13 2 12 3 11 4 10 5 8 6 9 7 7 9 6 10 5 12 1 13 2 14
REMARK SMILES IDX 3 15 88 16 4 18 87 19 83 20 84 21 85 22 86 23 15 24 16 25
REMARK SMILES IDX 17 26 18 27 19 29 20 30 21 31 82 32 22 33 81 34 23 35 24 36
REMARK SMILES IDX 25 37 75 38 26 39 80 40 74 41 76 42 27 43 79 44 73 45 72 46
REMARK SMILES IDX 28 48 60 49 40 50 59 51 41 52 44 53 58 54 77 55 42 56 43 57
REMARK SMILES IDX 57 59 78 60 45 61 29 62 30 63 38 64 31 65 33 66 39 67 32 68
REMARK SMILES IDX 34 69 35 70 36 71 37 72 61 73 62 74 70 75 63 76 65 77 71 78
REMARK SMILES IDX 64 79 66 80 67 81 68 82 69 83 46 84 47 85 55 86 48 87 50 88
REMARK SMILES IDX 56 89 49 90 51 91 52 92 53 93 54 94
REMARK H PARENT 10 8 6 11 2 17 17 28 76 47 44 58
REMARK Flexibility Score: inf
ROOT
ATOM      1  C   UNL     1      -1.803   3.933  -2.080  1.00  0.00     0.002 C 
ENDROOT
BRANCH   1   2
ATOM      2  C   UNL     1      -0.542   3.465  -1.339  1.00  0.00     0.002 C 
BRANCH   2   3
ATOM      3  C   UNL     1       0.289   2.424  -2.104  1.00  0.00     0.021 C 
BRANCH   3   4
ATOM      4  C   UNL     1       1.804   2.634  -2.060  1.00  0.00     0.116 C 
BRANCH   4   5
ATOM      5  N   UNL     1       2.345   2.983  -0.760  1.00  0.00    -0.351 N 
ATOM      6  C   UNL     1       3.320   2.369  -0.027  1.00  0.00     0.275 C 
ATOM      7  O   UNL     1       3.945   3.077   0.769  1.00  0.00    -0.269 OA
ATOM      8  H   UNL     1       1.950   3.783  -0.344  1.00  0.00     0.163 HD
BRANCH   6   9
ATOM      9  C   UNL     1       3.618   0.875  -0.188  1.00  0.00     0.364 C 
BRANCH   9  10
ATOM     10  N   UNL     1       2.967   0.015   0.833  1.00  0.00    -0.320 N 
ATOM     11  H   UNL     1       3.317  -0.937   0.725  1.00  0.00     0.349 HD
BRANCH  10  12
ATOM     12  C   UNL     1       1.533  -0.204   0.555  1.00  0.00     0.196 C 
ATOM     13  C   UNL     1      -2.593  -1.389   0.461  1.00  0.00     0.332 C 
ATOM     14  N   UNL     1      -1.206  -1.189   0.887  1.00  0.00    -0.337 N 
ATOM     15  C   UNL     1      -0.909   0.240   1.007  1.00  0.00     0.268 C 
ATOM     16  C   UNL     1      -0.288  -1.849  -0.054  1.00  0.00     0.268 C 
ATOM     17  H   UNL     1      -1.076  -1.612   1.806  1.00  0.00     0.347 HD
ATOM     18  C   UNL     1       0.525   0.483   1.480  1.00  0.00     0.126 C 
ATOM     19  C   UNL     1       1.172  -1.692   0.386  1.00  0.00     0.126 C 
ENDBRANCH  10  12
BRANCH  10  20
ATOM     20  C   UNL     1       3.545  -0.046   2.201  1.00  0.00     0.090 C 
ATOM     21  C   UNL     1       3.136   1.106   3.149  1.00  0.00     0.078 C 
ATOM     22  C   UNL     1       3.163  -1.367   2.912  1.00  0.00     0.078 C 
ATOM     23  C   UNL     1       5.096  -0.062   2.140  1.00  0.00     0.078 C 
ENDBRANCH  10  20
ENDBRANCH   9  10
ENDBRANCH   6   9
ENDBRANCH   4   5
ENDBRANCH   3   4
ENDBRANCH   2   3
ENDBRANCH   1   2
BRANCH   1  24
ATOM     24  C   UNL     1      -2.753   2.835  -2.569  1.00  0.00     0.021 C 
BRANCH  24  25
ATOM     25  C   UNL     1      -3.500   2.108  -1.456  1.00  0.00     0.116 C 
BRANCH  25  26
ATOM     26  N   UNL     1      -4.658   2.858  -0.991  1.00  0.00    -0.352 N 
ATOM     27  C   UNL     1      -5.990   2.689  -1.296  1.00  0.00     0.251 C 
ATOM     28  H   UNL     1      -4.460   3.593  -0.367  1.00  0.00     0.163 HD
ATOM     29  O   UNL     1      -6.809   3.538  -0.969  1.00  0.00    -0.269 OA
BRANCH  27  30
ATOM     30  C   UNL     1      -6.429   1.489  -2.044  1.00  0.00     0.039 A 
ATOM     31  C   UNL     1      -7.238   1.648  -3.174  1.00  0.00     0.014 A 
ATOM     32  C   UNL     1      -6.056   0.211  -1.623  1.00  0.00     0.014 A 
ATOM     33  C   UNL     1      -7.609   0.528  -3.925  1.00  0.00     0.010 A 
ATOM     34  C   UNL     1      -6.373  -0.896  -2.407  1.00  0.00     0.010 A 
ATOM     35  C   UNL     1      -7.152  -0.750  -3.567  1.00  0.00    -0.014 A 
BRANCH  35  36
ATOM     36  C   UNL     1      -7.462  -1.952  -4.386  1.00  0.00     0.031 A 
ATOM     37  C   UNL     1      -8.278  -3.072  -3.799  1.00  0.00     0.074 A 
ATOM     38  C   UNL     1      -6.912  -2.092  -5.608  1.00  0.00     0.049 A 
ATOM     39  N   UNL     1      -8.538  -4.252  -4.298  1.00  0.00    -0.248 NA
ATOM     40  C   UNL     1      -8.852  -2.843  -2.463  1.00  0.00     0.031 C 
ATOM     41  C   UNL     1      -6.051  -1.108  -6.266  1.00  0.00     0.029 A 
ATOM     42  N   UNL     1      -6.961  -3.138  -6.498  1.00  0.00    -0.354 N 
ATOM     43  C   UNL     1      -9.262  -4.925  -3.321  1.00  0.00     0.074 A 
ATOM     44  C   UNL     1      -9.384  -4.027  -2.192  1.00  0.00     0.031 C 
ATOM     45  C   UNL     1      -5.640  -1.602  -7.444  1.00  0.00     0.029 A 
ATOM     46  C   UNL     1      -6.178  -2.949  -7.614  1.00  0.00     0.049 A 
ATOM     47  H   UNL     1      -7.505  -3.946  -6.352  1.00  0.00     0.167 HD
ATOM     48  C   UNL     1      -9.797  -6.169  -3.365  1.00  0.00     0.034 A 
ATOM     49  C   UNL     1      -5.906  -3.772  -8.647  1.00  0.00     0.034 A 
ATOM     50  C   UNL     1      -9.720  -7.040  -4.506  1.00  0.00     0.049 A 
ATOM     51  C   UNL     1      -6.548  -5.132  -8.694  1.00  0.00     0.074 A 
ATOM     52  C   UNL     1     -10.308  -8.280  -4.681  1.00  0.00     0.029 A 
ATOM     53  N   UNL     1      -9.008  -6.768  -5.663  1.00  0.00    -0.354 N 
ATOM     54  N   UNL     1      -7.353  -5.693  -7.825  1.00  0.00    -0.248 NA
ATOM     55  C   UNL     1      -6.274  -5.961  -9.878  1.00  0.00     0.031 C 
ATOM     56  C   UNL     1      -9.936  -8.767  -5.938  1.00  0.00     0.029 A 
ATOM     57  C   UNL     1      -9.136  -7.818  -6.555  1.00  0.00     0.049 A 
ATOM     58  H   UNL     1      -8.488  -5.948  -5.827  1.00  0.00     0.167 HD
ATOM     59  C   UNL     1      -7.716  -6.918  -8.374  1.00  0.00     0.074 A 
ATOM     60  C   UNL     1      -7.048  -7.016  -9.656  1.00  0.00     0.031 C 
ATOM     61  C   UNL     1      -8.522  -7.877  -7.857  1.00  0.00     0.034 A 
BRANCH  48  62
ATOM     62  C   UNL     1     -10.556  -6.646  -2.155  1.00  0.00     0.023 A 
ATOM     63  C   UNL     1     -11.818  -6.090  -1.861  1.00  0.00     0.012 A 
ATOM     64  C   UNL     1     -10.048  -7.675  -1.339  1.00  0.00     0.148 A 
ATOM     65  C   UNL     1     -12.545  -6.523  -0.753  1.00  0.00     0.002 A 
ATOM     66  C   UNL     1     -10.798  -8.133  -0.262  1.00  0.00     0.091 A 
ATOM     67  F   UNL     1      -8.836  -8.176  -1.619  1.00  0.00    -0.205 F 
ATOM     68  C   UNL     1     -12.040  -7.550   0.040  1.00  0.00     0.022 A 
BRANCH  66  69
ATOM     69  S   UNL     1     -10.265  -9.506   0.767  1.00  0.00     0.127 S 
ATOM     70  O   UNL     1      -9.815  -8.814   1.973  1.00  0.00    -0.237 OA
ATOM     71  O   UNL     1     -11.502 -10.271   0.929  1.00  0.00    -0.237 OA
ATOM     72  O   UNL     1      -9.228 -10.191   0.008  1.00  0.00    -0.744 OA
ENDBRANCH  66  69
ENDBRANCH  48  62
BRANCH  49  73
ATOM     73  C   UNL     1      -5.026  -3.299  -9.753  1.00  0.00     0.023 A 
ATOM     74  C   UNL     1      -5.594  -3.002 -11.007  1.00  0.00     0.012 A 
ATOM     75  C   UNL     1      -3.647  -3.093  -9.557  1.00  0.00     0.148 A 
ATOM     76  C   UNL     1      -4.800  -2.532 -12.054  1.00  0.00     0.002 A 
ATOM     77  C   UNL     1      -2.871  -2.572 -10.587  1.00  0.00     0.091 A 
ATOM     78  F   UNL     1      -3.124  -3.391  -8.359  1.00  0.00    -0.205 F 
ATOM     79  C   UNL     1      -3.443  -2.307 -11.841  1.00  0.00     0.022 A 
BRANCH  77  80
ATOM     80  S   UNL     1      -1.147  -2.121 -10.363  1.00  0.00     0.127 S 
ATOM     81  O   UNL     1      -0.466  -3.126 -11.175  1.00  0.00    -0.237 OA
ATOM     82  O   UNL     1      -1.117  -0.764 -10.908  1.00  0.00    -0.237 OA
ATOM     83  O   UNL     1      -0.902  -2.196  -8.929  1.00  0.00    -0.744 OA
ENDBRANCH  77  80
ENDBRANCH  49  73
BRANCH  61  84
ATOM     84  C   UNL     1      -8.785  -9.106  -8.686  1.00  0.00     0.023 A 
ATOM     85  C   UNL     1      -7.791 -10.095  -8.812  1.00  0.00     0.012 A 
ATOM     86  C   UNL     1     -10.060  -9.330  -9.245  1.00  0.00     0.148 A 
ATOM     87  C   UNL     1      -8.056 -11.282  -9.495  1.00  0.00     0.002 A 
ATOM     88  C   UNL     1     -10.331 -10.533  -9.884  1.00  0.00     0.091 A 
ATOM     89  F   UNL     1     -10.986  -8.366  -9.129  1.00  0.00    -0.205 F 
ATOM     90  C   UNL     1      -9.328 -11.507 -10.018  1.00  0.00     0.022 A 
BRANCH  88  91
ATOM     91  S   UNL     1     -11.966 -10.950 -10.501  1.00  0.00     0.127 S 
ATOM     92  O   UNL     1     -11.765 -10.881 -11.947  1.00  0.00    -0.237 OA
ATOM     93  O   UNL     1     -12.161 -12.302  -9.976  1.00  0.00    -0.237 OA
ATOM     94  O   UNL     1     -12.871  -9.951  -9.948  1.00  0.00    -0.744 OA
ENDBRANCH  88  91
ENDBRANCH  61  84
ENDBRANCH  35  36
ENDBRANCH  27  30
ENDBRANCH  25  26
ENDBRANCH  24  25
ENDBRANCH   1  24
TORSDOF 19
