REMARK SMILES O=C(NCCCCCCNC(=O)[C@@H]1[NH2+]CCc2[nH]c(-c3ccc(N4CC[NH2+]CC4)cc3)nc21)c1ccc(-c2c3nc(c(-c4cccc(S(=O)(=O)[O-])c4F)c4ccc([nH]4)c(-c4cccc(S(=O)(=O)[O-])c4F)c4nc(c(-c5cccc(S(=O)(=O)[O-])c5F)c5ccc2[nH]5)C=C4)C=C3)cc1
REMARK SMILES IDX 6 1 5 2 4 3 3 4 1 5 2 6 34 8 35 9 96 10 36 11 95 12 37 13
REMARK SMILES IDX 38 14 39 15 89 16 40 17 94 18 88 19 90 20 41 21 93 22 87 23
REMARK SMILES IDX 86 24 42 26 74 27 54 28 73 29 55 30 58 31 72 32 91 33 56 34
REMARK SMILES IDX 57 35 71 37 92 38 59 39 43 40 44 41 52 42 45 43 47 44 53 45
REMARK SMILES IDX 46 46 48 47 49 48 50 49 51 50 75 51 76 52 84 53 77 54 79 55
REMARK SMILES IDX 85 56 78 57 80 58 81 59 82 60 83 61 60 62 61 63 69 64 62 65
REMARK SMILES IDX 64 66 70 67 63 68 65 69 66 70 67 71 68 72 7 73 8 74 9 75
REMARK SMILES IDX 10 76 11 77 12 79 13 80 14 81 33 82 15 83 17 86 32 87 16 88
REMARK SMILES IDX 18 89 19 90 20 92 21 93 31 94 22 95 30 96 23 97 24 98 25 99
REMARK SMILES IDX 29 100 26 101 28 102 27 103
REMARK H PARENT 3 7 90 25 58 36 10 78 14 84 14 85 18 91 27 104 27 105
REMARK Flexibility Score: inf
ROOT
ATOM      1  C   UNL     1       4.095  -2.531  -2.603  1.00  0.00     0.002 C 
ENDROOT
BRANCH   1   2
ATOM      2  C   UNL     1       4.676  -1.979  -1.297  1.00  0.00     0.021 C 
BRANCH   2   3
ATOM      3  C   UNL     1       4.643  -0.454  -1.194  1.00  0.00     0.116 C 
BRANCH   3   4
ATOM      4  N   UNL     1       3.316   0.114  -1.292  1.00  0.00    -0.352 N 
ATOM      5  O   UNL     1       1.286   0.859  -0.845  1.00  0.00    -0.269 OA
ATOM      6  C   UNL     1       2.263   0.234  -0.427  1.00  0.00     0.251 C 
ATOM      7  H   UNL     1       3.130   0.501  -2.177  1.00  0.00     0.163 HD
BRANCH   6   8
ATOM      8  C   UNL     1       2.205  -0.394   0.920  1.00  0.00     0.039 A 
ATOM      9  C   UNL     1       3.298  -0.920   1.613  1.00  0.00     0.014 A 
ATOM     10  C   UNL     1       0.929  -0.480   1.505  1.00  0.00     0.014 A 
ATOM     11  C   UNL     1       3.114  -1.622   2.795  1.00  0.00     0.010 A 
ATOM     12  C   UNL     1       0.743  -1.149   2.706  1.00  0.00     0.010 A 
ATOM     13  C   UNL     1       1.833  -1.760   3.322  1.00  0.00    -0.014 A 
BRANCH  13  14
ATOM     14  C   UNL     1       1.694  -2.465   4.589  1.00  0.00     0.031 A 
ATOM     15  C   UNL     1       2.300  -1.780   5.769  1.00  0.00     0.074 A 
ATOM     16  C   UNL     1       0.938  -3.573   4.705  1.00  0.00     0.049 A 
ATOM     17  N   UNL     1       3.180  -2.233   6.604  1.00  0.00    -0.248 NA
ATOM     18  C   UNL     1       1.944  -0.368   5.982  1.00  0.00     0.031 C 
ATOM     19  C   UNL     1       0.060  -4.157   3.687  1.00  0.00     0.029 A 
ATOM     20  N   UNL     1       0.662  -4.311   5.817  1.00  0.00    -0.354 N 
ATOM     21  C   UNL     1       3.326  -1.236   7.572  1.00  0.00     0.074 A 
ATOM     22  C   UNL     1       2.673  -0.064   7.054  1.00  0.00     0.031 C 
ATOM     23  C   UNL     1      -0.839  -4.962   4.293  1.00  0.00     0.029 A 
ATOM     24  C   UNL     1      -0.514  -5.043   5.706  1.00  0.00     0.049 A 
ATOM     25  H   UNL     1       1.237  -4.324   6.616  1.00  0.00     0.167 HD
ATOM     26  C   UNL     1       3.772  -1.503   8.831  1.00  0.00     0.034 A 
ATOM     27  C   UNL     1      -1.232  -5.575   6.724  1.00  0.00     0.034 A 
ATOM     28  C   UNL     1       4.458  -2.762   8.909  1.00  0.00     0.049 A 
ATOM     29  C   UNL     1      -0.345  -5.667   7.904  1.00  0.00     0.074 A 
ATOM     30  C   UNL     1       5.576  -3.314   8.318  1.00  0.00     0.029 A 
ATOM     31  N   UNL     1       3.788  -3.810   9.489  1.00  0.00    -0.354 N 
ATOM     32  N   UNL     1       0.688  -6.458   7.974  1.00  0.00    -0.248 NA
ATOM     33  C   UNL     1      -0.367  -4.579   8.868  1.00  0.00     0.031 C 
ATOM     34  C   UNL     1       5.261  -4.696   8.157  1.00  0.00     0.029 A 
ATOM     35  C   UNL     1       3.987  -4.902   8.690  1.00  0.00     0.049 A 
ATOM     36  H   UNL     1       3.263  -3.781  10.322  1.00  0.00     0.167 HD
ATOM     37  C   UNL     1       1.641  -5.726   8.668  1.00  0.00     0.074 A 
ATOM     38  C   UNL     1       0.897  -4.635   9.294  1.00  0.00     0.031 C 
ATOM     39  C   UNL     1       2.976  -5.902   8.434  1.00  0.00     0.034 A 
BRANCH  26  40
ATOM     40  C   UNL     1       3.285  -0.798  10.079  1.00  0.00     0.023 A 
ATOM     41  C   UNL     1       3.961  -1.072  11.290  1.00  0.00     0.012 A 
ATOM     42  C   UNL     1       2.045  -0.126  10.178  1.00  0.00     0.148 A 
ATOM     43  C   UNL     1       3.403  -0.750  12.533  1.00  0.00     0.002 A 
ATOM     44  C   UNL     1       1.534   0.264  11.412  1.00  0.00     0.091 A 
ATOM     45  F   UNL     1       1.274   0.024   9.097  1.00  0.00    -0.205 F 
ATOM     46  C   UNL     1       2.191  -0.076  12.594  1.00  0.00     0.022 A 
BRANCH  44  47
ATOM     47  S   UNL     1      -0.003   1.188  11.527  1.00  0.00     0.127 S 
ATOM     48  O   UNL     1      -0.945   0.133  11.911  1.00  0.00    -0.237 OA
ATOM     49  O   UNL     1       0.305   2.151  12.590  1.00  0.00    -0.237 OA
ATOM     50  O   UNL     1      -0.193   1.784  10.221  1.00  0.00    -0.744 OA
ENDBRANCH  44  47
ENDBRANCH  26  40
BRANCH  27  51
ATOM     51  C   UNL     1      -2.701  -5.730   6.824  1.00  0.00     0.023 A 
ATOM     52  C   UNL     1      -3.249  -6.673   7.714  1.00  0.00     0.012 A 
ATOM     53  C   UNL     1      -3.571  -4.783   6.236  1.00  0.00     0.148 A 
ATOM     54  C   UNL     1      -4.616  -6.665   8.018  1.00  0.00     0.002 A 
ATOM     55  C   UNL     1      -4.931  -4.790   6.527  1.00  0.00     0.091 A 
ATOM     56  F   UNL     1      -3.051  -3.820   5.463  1.00  0.00    -0.205 F 
ATOM     57  C   UNL     1      -5.456  -5.723   7.428  1.00  0.00     0.022 A 
BRANCH  55  58
ATOM     58  S   UNL     1      -6.068  -3.600   5.803  1.00  0.00     0.127 S 
ATOM     59  O   UNL     1      -7.161  -4.463   5.353  1.00  0.00    -0.237 OA
ATOM     60  O   UNL     1      -6.389  -2.753   6.949  1.00  0.00    -0.237 OA
ATOM     61  O   UNL     1      -5.334  -2.955   4.723  1.00  0.00    -0.744 OA
ENDBRANCH  55  58
ENDBRANCH  27  51
BRANCH  39  62
ATOM     62  C   UNL     1       3.398  -7.068   7.574  1.00  0.00     0.023 A 
ATOM     63  C   UNL     1       3.011  -7.169   6.220  1.00  0.00     0.012 A 
ATOM     64  C   UNL     1       4.346  -7.975   8.076  1.00  0.00     0.148 A 
ATOM     65  C   UNL     1       3.534  -8.167   5.395  1.00  0.00     0.002 A 
ATOM     66  C   UNL     1       4.899  -8.938   7.240  1.00  0.00     0.091 A 
ATOM     67  F   UNL     1       4.718  -7.857   9.360  1.00  0.00    -0.205 F 
ATOM     68  C   UNL     1       4.487  -9.044   5.902  1.00  0.00     0.022 A 
BRANCH  66  69
ATOM     69  S   UNL     1       6.228 -10.012   7.787  1.00  0.00     0.127 S 
ATOM     70  O   UNL     1       5.543 -11.294   7.941  1.00  0.00    -0.237 OA
ATOM     71  O   UNL     1       7.164  -9.950   6.662  1.00  0.00    -0.237 OA
ATOM     72  O   UNL     1       6.741  -9.422   9.018  1.00  0.00    -0.744 OA
ENDBRANCH  66  69
ENDBRANCH  39  62
ENDBRANCH  13  14
ENDBRANCH   6   8
ENDBRANCH   3   4
ENDBRANCH   2   3
ENDBRANCH   1   2
BRANCH   1  73
ATOM     73  C   UNL     1       4.706  -1.952  -3.884  1.00  0.00     0.002 C 
BRANCH  73  74
ATOM     74  C   UNL     1       6.232  -2.039  -3.966  1.00  0.00     0.021 C 
BRANCH  74  75
ATOM     75  C   UNL     1       6.762  -3.467  -3.942  1.00  0.00     0.116 C 
BRANCH  75  76
ATOM     76  N   UNL     1       6.588  -4.138  -5.210  1.00  0.00    -0.351 N 
ATOM     77  C   UNL     1       7.493  -4.443  -6.185  1.00  0.00     0.284 C 
ATOM     78  H   UNL     1       5.665  -4.421  -5.403  1.00  0.00     0.163 HD
ATOM     79  O   UNL     1       7.040  -5.036  -7.176  1.00  0.00    -0.268 OA
BRANCH  77  80
ATOM     80  C   UNL     1       9.012  -4.189  -6.064  1.00  0.00     0.324 C 
ATOM     81  N   UNL     1       9.707  -5.232  -5.240  1.00  0.00    -0.331 N 
ATOM     82  C   UNL     1       9.389  -2.812  -5.647  1.00  0.00     0.129 A 
ATOM     83  C   UNL     1       9.982  -4.900  -3.832  1.00  0.00     0.267 C 
ATOM     84  H   UNL     1      10.601  -5.432  -5.689  1.00  0.00     0.347 HD
ATOM     85  H   UNL     1       9.057  -6.017  -5.205  1.00  0.00     0.347 HD
ATOM     86  C   UNL     1      10.114  -2.511  -4.519  1.00  0.00     0.051 A 
ATOM     87  N   UNL     1       9.060  -1.668  -6.321  1.00  0.00    -0.226 NA
ATOM     88  C   UNL     1      10.608  -3.502  -3.538  1.00  0.00     0.117 C 
ATOM     89  N   UNL     1      10.250  -1.154  -4.517  1.00  0.00    -0.341 N 
ATOM     90  C   UNL     1       9.596  -0.674  -5.635  1.00  0.00     0.138 A 
ATOM     91  H   UNL     1      10.725  -0.616  -3.843  1.00  0.00     0.168 HD
BRANCH  90  92
ATOM     92  C   UNL     1       9.481   0.739  -5.968  1.00  0.00     0.017 A 
ATOM     93  C   UNL     1       8.222   1.282  -6.234  1.00  0.00     0.014 A 
ATOM     94  C   UNL     1      10.607   1.558  -6.077  1.00  0.00     0.014 A 
ATOM     95  C   UNL     1       8.091   2.629  -6.584  1.00  0.00     0.026 A 
ATOM     96  C   UNL     1      10.469   2.897  -6.462  1.00  0.00     0.026 A 
ATOM     97  C   UNL     1       9.211   3.457  -6.719  1.00  0.00     0.037 A 
BRANCH  97  98
ATOM     98  N   UNL     1       9.066   4.774  -7.092  1.00  0.00    -0.360 N 
ATOM     99  C   UNL     1       8.241   5.678  -6.287  1.00  0.00     0.178 C 
ATOM    100  C   UNL     1       9.882   5.378  -8.145  1.00  0.00     0.178 C 
ATOM    101  C   UNL     1       9.100   6.867  -5.794  1.00  0.00     0.282 C 
ATOM    102  C   UNL     1      10.662   6.595  -7.603  1.00  0.00     0.282 C 
ATOM    103  N   UNL     1       9.817   7.575  -6.882  1.00  0.00    -0.343 N 
ATOM    104  H   UNL     1      10.403   8.310  -6.487  1.00  0.00     0.346 HD
ATOM    105  H   UNL     1       9.147   7.998  -7.524  1.00  0.00     0.346 HD
ENDBRANCH  97  98
ENDBRANCH  90  92
ENDBRANCH  77  80
ENDBRANCH  75  76
ENDBRANCH  74  75
ENDBRANCH  73  74
ENDBRANCH   1  73
TORSDOF 18
