REMARK SMILES [NH3+][C@H](CCc1c[nH]nc1C(F)(F)F)C(=O)NCCCCCCNC(=O)c1ccc(-c2c3nc(c(-c4cccc(S(=O)(=O)[O-])c4F)c4ccc([nH]4)c(-c4cccc(S(=O)(=O)[O-])c4F)c4nc(c(-c5cccc(S(=O)(=O)[O-])c5F)c5ccc2[nH]5)C=C4)C=C3)cc1
REMARK SMILES IDX 19 1 18 2 17 3 16 4 14 5 15 6 2 8 1 9 3 13 4 14 5 15 6 16
REMARK SMILES IDX 9 17 7 18 8 19 10 21 11 22 12 23 13 24 20 25 21 26 22 27
REMARK SMILES IDX 23 28 24 29 25 31 26 32 27 33 88 34 28 35 87 36 29 37 30 38
REMARK SMILES IDX 31 39 81 40 32 41 86 42 80 43 82 44 33 45 85 46 79 47 78 48
REMARK SMILES IDX 34 50 66 51 46 52 65 53 47 54 50 55 64 56 83 57 48 58 49 59
REMARK SMILES IDX 63 61 84 62 51 63 35 64 36 65 44 66 37 67 39 68 45 69 38 70
REMARK SMILES IDX 40 71 41 72 42 73 43 74 67 75 68 76 76 77 69 78 71 79 77 80
REMARK SMILES IDX 70 81 72 82 73 83 74 84 75 85 52 86 53 87 61 88 54 89 56 90
REMARK SMILES IDX 62 91 55 92 57 93 58 94 59 95 60 96
REMARK H PARENT 16 7 1 10 1 11 1 12 7 20 23 30 82 49 50 60
REMARK Flexibility Score: inf
ROOT
ATOM      1  C   UNL     1      -3.650   2.623  -0.696  1.00  0.00     0.002 C 
ENDROOT
BRANCH   1   2
ATOM      2  C   UNL     1      -2.179   2.235  -0.558  1.00  0.00     0.021 C 
BRANCH   2   3
ATOM      3  C   UNL     1      -1.794   1.758   0.843  1.00  0.00     0.116 C 
BRANCH   3   4
ATOM      4  N   UNL     1      -1.983   0.328   0.941  1.00  0.00    -0.351 N 
ATOM      5  C   UNL     1      -1.087  -0.690   1.038  1.00  0.00     0.278 C 
ATOM      6  O   UNL     1      -1.530  -1.833   0.867  1.00  0.00    -0.268 OA
ATOM      7  H   UNL     1      -2.925   0.042   0.938  1.00  0.00     0.163 HD
BRANCH   5   8
ATOM      8  C   UNL     1       0.410  -0.480   1.373  1.00  0.00     0.271 C 
BRANCH   8   9
ATOM      9  N   UNL     1       0.583   0.275   2.625  1.00  0.00    -0.347 N 
ATOM     10  H   UNL     1      -0.108  -0.036   3.308  1.00  0.00     0.345 HD
ATOM     11  H   UNL     1       0.456   1.270   2.442  1.00  0.00     0.345 HD
ATOM     12  H   UNL     1       1.521   0.113   2.993  1.00  0.00     0.345 HD
ENDBRANCH   8   9
BRANCH   8  13
ATOM     13  C   UNL     1       1.374  -0.144   0.216  1.00  0.00     0.080 C 
BRANCH  13  14
ATOM     14  C   UNL     1       1.308   1.171  -0.563  1.00  0.00     0.046 C 
BRANCH  14  15
ATOM     15  C   UNL     1       1.632   2.459   0.132  1.00  0.00     0.003 A 
ATOM     16  C   UNL     1       2.240   2.685   1.350  1.00  0.00     0.109 A 
ATOM     17  C   UNL     1       1.409   3.787  -0.388  1.00  0.00     0.169 A 
ATOM     18  N   UNL     1       2.219   4.032   1.563  1.00  0.00    -0.285 N 
ATOM     19  N   UNL     1       1.690   4.715   0.546  1.00  0.00    -0.171 NA
ATOM     20  H   UNL     1       2.560   4.458   2.383  1.00  0.00     0.189 HD
BRANCH  17  21
ATOM     21  C   UNL     1       0.928   4.194  -1.764  1.00  0.00     0.435 C 
ATOM     22  F   UNL     1      -0.116   5.066  -1.720  1.00  0.00    -0.164 F 
ATOM     23  F   UNL     1       1.907   4.769  -2.507  1.00  0.00    -0.164 F 
ATOM     24  F   UNL     1       0.483   3.125  -2.486  1.00  0.00    -0.164 F 
ENDBRANCH  17  21
ENDBRANCH  14  15
ENDBRANCH  13  14
ENDBRANCH   8  13
ENDBRANCH   5   8
ENDBRANCH   3   4
ENDBRANCH   2   3
ENDBRANCH   1   2
BRANCH   1  25
ATOM     25  C   UNL     1      -4.048   3.887   0.074  1.00  0.00     0.002 C 
BRANCH  25  26
ATOM     26  C   UNL     1      -3.210   5.135  -0.225  1.00  0.00     0.021 C 
BRANCH  26  27
ATOM     27  C   UNL     1      -3.141   5.532  -1.698  1.00  0.00     0.116 C 
BRANCH  27  28
ATOM     28  N   UNL     1      -4.457   5.833  -2.240  1.00  0.00    -0.352 N 
ATOM     29  C   UNL     1      -4.902   6.978  -2.852  1.00  0.00     0.251 C 
ATOM     30  H   UNL     1      -5.123   5.113  -2.155  1.00  0.00     0.163 HD
ATOM     31  O   UNL     1      -6.103   7.135  -3.052  1.00  0.00    -0.269 OA
BRANCH  29  32
ATOM     32  C   UNL     1      -3.940   8.022  -3.264  1.00  0.00     0.039 A 
ATOM     33  C   UNL     1      -4.239   9.361  -2.996  1.00  0.00     0.014 A 
ATOM     34  C   UNL     1      -2.765   7.688  -3.944  1.00  0.00     0.014 A 
ATOM     35  C   UNL     1      -3.341  10.363  -3.374  1.00  0.00     0.010 A 
ATOM     36  C   UNL     1      -1.845   8.682  -4.270  1.00  0.00     0.010 A 
ATOM     37  C   UNL     1      -2.128  10.030  -4.000  1.00  0.00    -0.014 A 
BRANCH  37  38
ATOM     38  C   UNL     1      -1.145  11.074  -4.386  1.00  0.00     0.031 A 
ATOM     39  C   UNL     1      -0.829  11.313  -5.838  1.00  0.00     0.074 A 
ATOM     40  C   UNL     1      -0.473  11.745  -3.429  1.00  0.00     0.049 A 
ATOM     41  N   UNL     1       0.050  12.123  -6.369  1.00  0.00    -0.248 NA
ATOM     42  C   UNL     1      -1.584  10.521  -6.824  1.00  0.00     0.031 C 
ATOM     43  C   UNL     1      -0.640  11.554  -1.987  1.00  0.00     0.029 A 
ATOM     44  N   UNL     1       0.509  12.699  -3.526  1.00  0.00    -0.354 N 
ATOM     45  C   UNL     1      -0.015  11.910  -7.741  1.00  0.00     0.074 A 
ATOM     46  C   UNL     1      -1.005  10.879  -7.962  1.00  0.00     0.031 C 
ATOM     47  C   UNL     1       0.217  12.357  -1.335  1.00  0.00     0.029 A 
ATOM     48  C   UNL     1       1.011  13.100  -2.308  1.00  0.00     0.049 A 
ATOM     49  H   UNL     1       0.825  13.063  -4.384  1.00  0.00     0.167 HD
ATOM     50  C   UNL     1       0.669  12.534  -8.729  1.00  0.00     0.034 A 
ATOM     51  C   UNL     1       2.006  13.959  -2.011  1.00  0.00     0.034 A 
ATOM     52  C   UNL     1       1.615  13.594  -8.509  1.00  0.00     0.049 A 
ATOM     53  C   UNL     1       2.715  14.673  -3.132  1.00  0.00     0.074 A 
ATOM     54  C   UNL     1       2.292  14.350  -9.449  1.00  0.00     0.029 A 
ATOM     55  N   UNL     1       2.021  14.047  -7.264  1.00  0.00    -0.354 N 
ATOM     56  N   UNL     1       2.522  14.575  -4.426  1.00  0.00    -0.248 NA
ATOM     57  C   UNL     1       3.750  15.646  -2.753  1.00  0.00     0.031 C 
ATOM     58  C   UNL     1       3.121  15.250  -8.772  1.00  0.00     0.029 A 
ATOM     59  C   UNL     1       2.942  15.069  -7.410  1.00  0.00     0.049 A 
ATOM     60  H   UNL     1       1.701  13.693  -6.402  1.00  0.00     0.167 HD
ATOM     61  C   UNL     1       3.379  15.501  -5.010  1.00  0.00     0.074 A 
ATOM     62  C   UNL     1       4.079  16.163  -3.930  1.00  0.00     0.031 C 
ATOM     63  C   UNL     1       3.579  15.768  -6.324  1.00  0.00     0.034 A 
BRANCH  50  64
ATOM     64  C   UNL     1       0.381  12.130 -10.152  1.00  0.00     0.023 A 
ATOM     65  C   UNL     1      -0.837  12.517 -10.748  1.00  0.00     0.012 A 
ATOM     66  C   UNL     1       1.342  11.446 -10.922  1.00  0.00     0.148 A 
ATOM     67  C   UNL     1      -1.105  12.205 -12.080  1.00  0.00     0.002 A 
ATOM     68  C   UNL     1       1.084  11.176 -12.261  1.00  0.00     0.091 A 
ATOM     69  F   UNL     1       2.486  11.071 -10.332  1.00  0.00    -0.205 F 
ATOM     70  C   UNL     1      -0.142  11.546 -12.838  1.00  0.00     0.022 A 
BRANCH  68  71
ATOM     71  S   UNL     1       2.290  10.403 -13.346  1.00  0.00     0.127 S 
ATOM     72  O   UNL     1       1.681   9.094 -13.579  1.00  0.00    -0.237 OA
ATOM     73  O   UNL     1       2.277  11.296 -14.505  1.00  0.00    -0.237 OA
ATOM     74  O   UNL     1       3.544  10.384 -12.606  1.00  0.00    -0.744 OA
ENDBRANCH  68  71
ENDBRANCH  50  64
BRANCH  51  75
ATOM     75  C   UNL     1       2.347  14.247  -0.589  1.00  0.00     0.023 A 
ATOM     76  C   UNL     1       2.044  15.513  -0.051  1.00  0.00     0.012 A 
ATOM     77  C   UNL     1       2.954  13.279   0.235  1.00  0.00     0.148 A 
ATOM     78  C   UNL     1       2.373  15.823   1.269  1.00  0.00     0.002 A 
ATOM     79  C   UNL     1       3.230  13.577   1.565  1.00  0.00     0.091 A 
ATOM     80  F   UNL     1       3.249  12.084  -0.296  1.00  0.00    -0.205 F 
ATOM     81  C   UNL     1       2.958  14.854   2.079  1.00  0.00     0.022 A 
BRANCH  79  82
ATOM     82  S   UNL     1       3.865  12.348   2.713  1.00  0.00     0.127 S 
ATOM     83  O   UNL     1       5.260  12.756   2.850  1.00  0.00    -0.237 OA
ATOM     84  O   UNL     1       3.037  12.577   3.897  1.00  0.00    -0.237 OA
ATOM     85  O   UNL     1       3.639  11.059   2.070  1.00  0.00    -0.744 OA
ENDBRANCH  79  82
ENDBRANCH  51  75
BRANCH  63  86
ATOM     86  C   UNL     1       4.557  16.857  -6.680  1.00  0.00     0.023 A 
ATOM     87  C   UNL     1       5.940  16.629  -6.542  1.00  0.00     0.012 A 
ATOM     88  C   UNL     1       4.106  18.070  -7.237  1.00  0.00     0.148 A 
ATOM     89  C   UNL     1       6.859  17.605  -6.927  1.00  0.00     0.002 A 
ATOM     90  C   UNL     1       5.029  19.018  -7.662  1.00  0.00     0.091 A 
ATOM     91  F   UNL     1       2.785  18.274  -7.343  1.00  0.00    -0.205 F 
ATOM     92  C   UNL     1       6.405  18.791  -7.498  1.00  0.00     0.022 A 
BRANCH  90  93
ATOM     93  S   UNL     1       4.539  20.531  -8.498  1.00  0.00     0.127 S 
ATOM     94  O   UNL     1       4.780  21.534  -7.462  1.00  0.00    -0.237 OA
ATOM     95  O   UNL     1       5.472  20.581  -9.624  1.00  0.00    -0.237 OA
ATOM     96  O   UNL     1       3.145  20.346  -8.878  1.00  0.00    -0.744 OA
ENDBRANCH  90  93
ENDBRANCH  63  86
ENDBRANCH  37  38
ENDBRANCH  29  32
ENDBRANCH  27  28
ENDBRANCH  26  27
ENDBRANCH  25  26
ENDBRANCH   1  25
TORSDOF 21
