REMARK SMILES CC[N@@H+](C/C(Cl)=C/Cl)C[C@@H](C)C(=O)NCCCCCCNC(=O)c1ccc(-c2c3nc(c(-c4cccc(S(=O)(=O)[O-])c4F)c4ccc([nH]4)c(-c4cccc(S(=O)(=O)[O-])c4F)c4nc(c(-c5cccc(S(=O)(=O)[O-])c5F)c5ccc2[nH]5)C=C4)C=C3)cc1
REMARK SMILES IDX 17 1 16 2 15 3 14 4 12 5 13 6 10 8 11 9 9 10 3 11 2 13 1 14
REMARK SMILES IDX 4 15 5 16 6 17 7 18 8 19 18 20 19 21 20 22 21 23 22 24 23 26
REMARK SMILES IDX 24 27 25 28 86 29 26 30 85 31 27 32 28 33 29 34 79 35 30 36
REMARK SMILES IDX 84 37 78 38 80 39 31 40 83 41 77 42 76 43 32 45 64 46 44 47
REMARK SMILES IDX 63 48 45 49 48 50 62 51 81 52 46 53 47 54 61 56 82 57 49 58
REMARK SMILES IDX 33 59 34 60 42 61 35 62 37 63 43 64 36 65 38 66 39 67 40 68
REMARK SMILES IDX 41 69 65 70 66 71 74 72 67 73 69 74 75 75 68 76 70 77 71 78
REMARK SMILES IDX 72 79 73 80 50 81 51 82 59 83 52 84 54 85 60 86 53 87 55 88
REMARK SMILES IDX 56 89 57 90 58 91
REMARK H PARENT 14 7 3 12 21 25 80 44 48 55
REMARK Flexibility Score: inf
ROOT
ATOM      1  C   UNL     1       6.664  -0.201  -1.370  1.00  0.00     0.002 C 
ENDROOT
BRANCH   1   2
ATOM      2  C   UNL     1       5.167   0.097  -1.250  1.00  0.00     0.021 C 
BRANCH   2   3
ATOM      3  C   UNL     1       4.695   0.207   0.195  1.00  0.00     0.116 C 
BRANCH   3   4
ATOM      4  N   UNL     1       5.192   1.424   0.801  1.00  0.00    -0.356 N 
ATOM      5  C   UNL     1       4.523   2.464   1.361  1.00  0.00     0.228 C 
ATOM      6  O   UNL     1       5.181   3.451   1.700  1.00  0.00    -0.275 OA
ATOM      7  H   UNL     1       6.173   1.511   0.809  1.00  0.00     0.163 HD
BRANCH   5   8
ATOM      8  C   UNL     1       3.018   2.409   1.596  1.00  0.00     0.130 C 
ATOM      9  C   UNL     1       2.683   1.261   2.546  1.00  0.00     0.024 C 
BRANCH   8  10
ATOM     10  C   UNL     1       2.241   2.511   0.262  1.00  0.00     0.275 C 
BRANCH  10  11
ATOM     11  N   UNL     1       0.775   2.497   0.246  1.00  0.00    -0.330 N 
ATOM     12  H   UNL     1       0.652   2.492  -0.767  1.00  0.00     0.348 HD
BRANCH  11  13
ATOM     13  C   UNL     1       0.066   1.259   0.551  1.00  0.00     0.259 C 
ATOM     14  C   UNL     1       0.503   0.043  -0.260  1.00  0.00     0.071 C 
ENDBRANCH  11  13
BRANCH  11  15
ATOM     15  C   UNL     1       0.116   3.730   0.685  1.00  0.00     0.312 C 
BRANCH  15  16
ATOM     16  C   UNL     1       0.310   4.185   2.113  1.00  0.00     0.083 C 
ATOM     17  Cl  UNL     1       1.131   5.711   2.281  1.00  0.00    -0.082 Cl
ATOM     18  C   UNL     1      -0.126   3.504   3.179  1.00  0.00     0.102 C 
ATOM     19  Cl  UNL     1       0.112   3.939   4.821  1.00  0.00    -0.091 Cl
ENDBRANCH  15  16
ENDBRANCH  11  15
ENDBRANCH  10  11
ENDBRANCH   8  10
ENDBRANCH   5   8
ENDBRANCH   3   4
ENDBRANCH   2   3
ENDBRANCH   1   2
BRANCH   1  20
ATOM     20  C   UNL     1       7.118  -1.455  -0.615  1.00  0.00     0.002 C 
BRANCH  20  21
ATOM     21  C   UNL     1       6.336  -2.723  -0.964  1.00  0.00     0.021 C 
BRANCH  21  22
ATOM     22  C   UNL     1       6.365  -3.077  -2.446  1.00  0.00     0.116 C 
BRANCH  22  23
ATOM     23  N   UNL     1       7.724  -3.301  -2.913  1.00  0.00    -0.352 N 
ATOM     24  C   UNL     1       8.235  -4.391  -3.571  1.00  0.00     0.251 C 
ATOM     25  H   UNL     1       8.362  -2.573  -2.734  1.00  0.00     0.163 HD
ATOM     26  O   UNL     1       9.445  -4.532  -3.692  1.00  0.00    -0.269 OA
BRANCH  24  27
ATOM     27  C   UNL     1       7.301  -5.393  -4.122  1.00  0.00     0.039 A 
ATOM     28  C   UNL     1       7.549  -6.749  -3.901  1.00  0.00     0.014 A 
ATOM     29  C   UNL     1       6.175  -4.984  -4.842  1.00  0.00     0.014 A 
ATOM     30  C   UNL     1       6.638  -7.697  -4.368  1.00  0.00     0.010 A 
ATOM     31  C   UNL     1       5.231  -5.924  -5.234  1.00  0.00     0.010 A 
ATOM     32  C   UNL     1       5.460  -7.291  -5.017  1.00  0.00    -0.014 A 
BRANCH  32  33
ATOM     33  C   UNL     1       4.459  -8.276  -5.494  1.00  0.00     0.031 A 
ATOM     34  C   UNL     1       4.147  -8.369  -6.964  1.00  0.00     0.074 A 
ATOM     35  C   UNL     1       3.769  -9.016  -4.604  1.00  0.00     0.049 A 
ATOM     36  N   UNL     1       3.243  -9.094  -7.569  1.00  0.00    -0.248 NA
ATOM     37  C   UNL     1       4.934  -7.515  -7.872  1.00  0.00     0.031 C 
ATOM     38  C   UNL     1       3.935  -8.965  -3.149  1.00  0.00     0.029 A 
ATOM     39  N   UNL     1       2.767  -9.935  -4.790  1.00  0.00    -0.354 N 
ATOM     40  C   UNL     1       3.322  -8.753  -8.915  1.00  0.00     0.074 A 
ATOM     41  C   UNL     1       4.341  -7.736  -9.036  1.00  0.00     0.031 C 
ATOM     42  C   UNL     1       3.064  -9.812  -2.576  1.00  0.00     0.029 A 
ATOM     43  C   UNL     1       2.254 -10.437  -3.616  1.00  0.00     0.049 A 
ATOM     44  H   UNL     1       2.446 -10.210  -5.679  1.00  0.00     0.167 HD
ATOM     45  C   UNL     1       2.625  -9.259  -9.958  1.00  0.00     0.034 A 
ATOM     46  C   UNL     1       1.232 -11.290  -3.402  1.00  0.00     0.034 A 
ATOM     47  C   UNL     1       1.647 -10.306  -9.837  1.00  0.00     0.049 A 
ATOM     48  C   UNL     1       0.498 -11.860  -4.587  1.00  0.00     0.074 A 
ATOM     49  C   UNL     1       0.953 -10.951 -10.845  1.00  0.00     0.029 A 
ATOM     50  N   UNL     1       1.218 -10.854  -8.640  1.00  0.00    -0.354 N 
ATOM     51  N   UNL     1       0.691 -11.636  -5.864  1.00  0.00    -0.248 NA
ATOM     52  C   UNL     1      -0.572 -12.829  -4.304  1.00  0.00     0.031 C 
ATOM     53  C   UNL     1       0.078 -11.865 -10.254  1.00  0.00     0.029 A 
ATOM     54  C   UNL     1       0.260 -11.821  -8.882  1.00  0.00     0.049 A 
ATOM     55  H   UNL     1       1.547 -10.593  -7.749  1.00  0.00     0.167 HD
ATOM     56  C   UNL     1      -0.195 -12.470  -6.535  1.00  0.00     0.074 A 
ATOM     57  C   UNL     1      -0.918 -13.213  -5.525  1.00  0.00     0.031 C 
ATOM     58  C   UNL     1      -0.401 -12.601  -7.868  1.00  0.00     0.034 A 
BRANCH  45  59
ATOM     59  C   UNL     1       2.918  -8.724 -11.334  1.00  0.00     0.023 A 
ATOM     60  C   UNL     1       4.133  -9.050 -11.969  1.00  0.00     0.012 A 
ATOM     61  C   UNL     1       1.951  -7.975 -12.033  1.00  0.00     0.148 A 
ATOM     62  C   UNL     1       4.393  -8.617 -13.269  1.00  0.00     0.002 A 
ATOM     63  C   UNL     1       2.196  -7.589 -13.345  1.00  0.00     0.091 A 
ATOM     64  F   UNL     1       0.810  -7.660 -11.404  1.00  0.00    -0.205 F 
ATOM     65  C   UNL     1       3.421  -7.900 -13.960  1.00  0.00     0.022 A 
BRANCH  63  66
ATOM     66  S   UNL     1       0.977  -6.737 -14.351  1.00  0.00     0.127 S 
ATOM     67  O   UNL     1       1.613  -5.434 -14.545  1.00  0.00    -0.237 OA
ATOM     68  O   UNL     1       0.928  -7.576 -15.548  1.00  0.00    -0.237 OA
ATOM     69  O   UNL     1      -0.251  -6.716 -13.568  1.00  0.00    -0.744 OA
ENDBRANCH  63  66
ENDBRANCH  45  59
BRANCH  46  70
ATOM     70  C   UNL     1       0.863 -11.694  -2.015  1.00  0.00     0.023 A 
ATOM     71  C   UNL     1       1.070 -13.025  -1.600  1.00  0.00     0.012 A 
ATOM     72  C   UNL     1       0.299 -10.774  -1.110  1.00  0.00     0.148 A 
ATOM     73  C   UNL     1       0.676 -13.443  -0.328  1.00  0.00     0.002 A 
ATOM     74  C   UNL     1      -0.036 -11.183   0.175  1.00  0.00     0.091 A 
ATOM     75  F   UNL     1       0.101  -9.515  -1.525  1.00  0.00    -0.205 F 
ATOM     76  C   UNL     1       0.130 -12.522   0.561  1.00  0.00     0.022 A 
BRANCH  74  77
ATOM     77  S   UNL     1      -0.624 -10.035   1.425  1.00  0.00     0.127 S 
ATOM     78  O   UNL     1      -2.032 -10.405   1.534  1.00  0.00    -0.237 OA
ATOM     79  O   UNL     1       0.200 -10.395   2.579  1.00  0.00    -0.237 OA
ATOM     80  O   UNL     1      -0.356  -8.705   0.892  1.00  0.00    -0.744 OA
ENDBRANCH  74  77
ENDBRANCH  46  70
BRANCH  58  81
ATOM     81  C   UNL     1      -1.393 -13.634  -8.331  1.00  0.00     0.023 A 
ATOM     82  C   UNL     1      -2.774 -13.423  -8.151  1.00  0.00     0.012 A 
ATOM     83  C   UNL     1      -0.952 -14.776  -9.030  1.00  0.00     0.148 A 
ATOM     84  C   UNL     1      -3.699 -14.348  -8.634  1.00  0.00     0.002 A 
ATOM     85  C   UNL     1      -1.880 -15.664  -9.556  1.00  0.00     0.091 A 
ATOM     86  F   UNL     1       0.368 -14.965  -9.175  1.00  0.00    -0.205 F 
ATOM     87  C   UNL     1      -3.254 -15.459  -9.347  1.00  0.00     0.022 A 
BRANCH  85  88
ATOM     88  S   UNL     1      -1.405 -17.064 -10.575  1.00  0.00     0.127 S 
ATOM     89  O   UNL     1      -1.717 -18.191  -9.697  1.00  0.00    -0.237 OA
ATOM     90  O   UNL     1      -2.295 -16.922 -11.727  1.00  0.00    -0.237 OA
ATOM     91  O   UNL     1       0.009 -16.883 -10.876  1.00  0.00    -0.744 OA
ENDBRANCH  85  88
ENDBRANCH  58  81
ENDBRANCH  32  33
ENDBRANCH  24  27
ENDBRANCH  22  23
ENDBRANCH  21  22
ENDBRANCH  20  21
ENDBRANCH   1  20
TORSDOF 21
