REMARK SMILES COCCN1C(=O)CC[C@@H](C(=O)NCCCCCCNC(=O)c2ccc(-c3c4nc(c(-c5cccc(S(=O)(=O)[O-])c5F)c5ccc([nH]5)c(-c5cccc(S(=O)(=O)[O-])c5F)c5nc(c(-c6cccc(S(=O)(=O)[O-])c6F)c6ccc3[nH]6)C=C5)C=C4)cc2)[C@H]1c1ccccc1C
REMARK SMILES IDX 16 1 15 2 14 3 13 4 11 5 12 6 10 8 5 9 6 10 86 11 7 12 8 13
REMARK SMILES IDX 9 14 4 15 3 16 2 17 1 18 87 19 88 20 92 21 89 22 91 23 93 24
REMARK SMILES IDX 90 25 17 26 18 27 19 28 20 29 21 30 22 32 23 33 24 34 85 35
REMARK SMILES IDX 25 36 84 37 26 38 27 39 28 40 78 41 29 42 83 43 77 44 79 45
REMARK SMILES IDX 30 46 82 47 76 48 75 49 31 51 63 52 43 53 62 54 44 55 47 56
REMARK SMILES IDX 61 57 80 58 45 59 46 60 60 62 81 63 48 64 32 65 33 66 41 67
REMARK SMILES IDX 34 68 36 69 42 70 35 71 37 72 38 73 39 74 40 75 64 76 65 77
REMARK SMILES IDX 73 78 66 79 68 80 74 81 67 82 69 83 70 84 71 85 72 86 49 87
REMARK SMILES IDX 50 88 58 89 51 90 53 91 59 92 52 93 54 94 55 95 56 96 57 97
REMARK H PARENT 13 7 20 31 79 50 47 61
REMARK Flexibility Score: inf
ROOT
ATOM      1  C   UNL     1       5.319   7.314   0.728  1.00  0.00     0.002 C 
ENDROOT
BRANCH   1   2
ATOM      2  C   UNL     1       3.847   7.098   1.117  1.00  0.00     0.021 C 
BRANCH   2   3
ATOM      3  C   UNL     1       2.902   6.847  -0.060  1.00  0.00     0.116 C 
BRANCH   3   4
ATOM      4  N   UNL     1       3.407   5.762  -0.872  1.00  0.00    -0.356 N 
ATOM      5  C   UNL     1       3.005   4.471  -0.927  1.00  0.00     0.225 C 
ATOM      6  O   UNL     1       3.857   3.640  -1.242  1.00  0.00    -0.275 OA
ATOM      7  H   UNL     1       4.151   5.997  -1.472  1.00  0.00     0.163 HD
BRANCH   5   8
ATOM      8  C   UNL     1       1.567   4.103  -0.577  1.00  0.00     0.106 C 
ATOM      9  N   UNL     1       1.338   1.713  -1.439  1.00  0.00    -0.333 N 
ATOM     10  C   UNL     1       2.243   1.326  -0.464  1.00  0.00     0.223 C 
ATOM     11  C   UNL     1       0.910   3.123  -1.581  1.00  0.00     0.128 C 
ATOM     12  O   UNL     1       2.912   0.295  -0.534  1.00  0.00    -0.275 OA
ATOM     13  C   UNL     1       2.306   2.156   0.813  1.00  0.00     0.101 C 
ATOM     14  C   UNL     1       1.535   3.467   0.804  1.00  0.00     0.026 C 
BRANCH   9  15
ATOM     15  C   UNL     1       0.864   0.765  -2.462  1.00  0.00     0.148 C 
BRANCH  15  16
ATOM     16  C   UNL     1       0.798  -0.740  -2.137  1.00  0.00     0.181 C 
BRANCH  16  17
ATOM     17  O   UNL     1      -0.251  -1.100  -1.233  1.00  0.00    -0.383 OA
ATOM     18  C   UNL     1       0.124  -1.005   0.134  1.00  0.00     0.194 C 
ENDBRANCH  16  17
ENDBRANCH  15  16
ENDBRANCH   9  15
BRANCH  11  19
ATOM     19  C   UNL     1       0.968   3.680  -3.018  1.00  0.00    -0.022 A 
ATOM     20  C   UNL     1       2.188   3.605  -3.728  1.00  0.00     0.006 A 
ATOM     21  C   UNL     1      -0.112   4.343  -3.646  1.00  0.00    -0.046 A 
ATOM     22  C   UNL     1       2.383   4.256  -4.945  1.00  0.00     0.000 A 
ATOM     23  C   UNL     1       0.103   4.996  -4.880  1.00  0.00     0.004 A 
ATOM     24  C   UNL     1      -1.506   4.436  -3.088  1.00  0.00     0.045 C 
ATOM     25  C   UNL     1       1.343   4.971  -5.514  1.00  0.00     0.000 A 
ENDBRANCH  11  19
ENDBRANCH   5   8
ENDBRANCH   3   4
ENDBRANCH   2   3
ENDBRANCH   1   2
BRANCH   1  26
ATOM     26  C   UNL     1       5.568   8.367  -0.358  1.00  0.00     0.002 C 
BRANCH  26  27
ATOM     27  C   UNL     1       4.973   9.744  -0.071  1.00  0.00     0.021 C 
BRANCH  27  28
ATOM     28  C   UNL     1       5.425  10.365   1.243  1.00  0.00     0.116 C 
BRANCH  28  29
ATOM     29  N   UNL     1       6.853  10.638   1.262  1.00  0.00    -0.352 N 
ATOM     30  C   UNL     1       7.495  11.787   1.649  1.00  0.00     0.251 C 
ATOM     31  H   UNL     1       7.434   9.904   0.958  1.00  0.00     0.163 HD
ATOM     32  O   UNL     1       8.700  11.922   1.443  1.00  0.00    -0.269 OA
BRANCH  30  33
ATOM     33  C   UNL     1       6.722  12.869   2.294  1.00  0.00     0.039 A 
ATOM     34  C   UNL     1       6.904  14.184   1.861  1.00  0.00     0.014 A 
ATOM     35  C   UNL     1       5.811  12.581   3.314  1.00  0.00     0.014 A 
ATOM     36  C   UNL     1       6.139  15.207   2.424  1.00  0.00     0.010 A 
ATOM     37  C   UNL     1       4.997  13.589   3.818  1.00  0.00     0.010 A 
ATOM     38  C   UNL     1       5.165  14.915   3.393  1.00  0.00    -0.014 A 
BRANCH  38  39
ATOM     39  C   UNL     1       4.328  15.983   3.994  1.00  0.00     0.031 A 
ATOM     40  C   UNL     1       4.424  16.273   5.467  1.00  0.00     0.074 A 
ATOM     41  C   UNL     1       3.421  16.630   3.236  1.00  0.00     0.049 A 
ATOM     42  N   UNL     1       3.739  17.122   6.188  1.00  0.00    -0.248 NA
ATOM     43  C   UNL     1       5.397  15.482   6.239  1.00  0.00     0.031 C 
ATOM     44  C   UNL     1       3.172  16.379   1.816  1.00  0.00     0.029 A 
ATOM     45  N   UNL     1       2.521  17.612   3.563  1.00  0.00    -0.354 N 
ATOM     46  C   UNL     1       4.166  16.939   7.497  1.00  0.00     0.074 A 
ATOM     47  C   UNL     1       5.141  15.871   7.479  1.00  0.00     0.031 C 
ATOM     48  C   UNL     1       2.185  17.186   1.394  1.00  0.00     0.029 A 
ATOM     49  C   UNL     1       1.717  17.995   2.515  1.00  0.00     0.049 A 
ATOM     50  H   UNL     1       2.456  18.006   4.463  1.00  0.00     0.167 HD
ATOM     51  C   UNL     1       3.807  17.620   8.612  1.00  0.00     0.034 A 
ATOM     52  C   UNL     1       0.715  18.894   2.465  1.00  0.00     0.034 A 
ATOM     53  C   UNL     1       2.876  18.715   8.617  1.00  0.00     0.049 A 
ATOM     54  C   UNL     1       0.379  19.686   3.700  1.00  0.00     0.074 A 
ATOM     55  C   UNL     1       2.512  19.530   9.674  1.00  0.00     0.029 A 
ATOM     56  N   UNL     1       2.161  19.150   7.512  1.00  0.00    -0.354 N 
ATOM     57  N   UNL     1       0.908  19.609   4.897  1.00  0.00    -0.248 NA
ATOM     58  C   UNL     1      -0.659  20.717   3.568  1.00  0.00     0.031 C 
ATOM     59  C   UNL     1       1.563  20.449   9.210  1.00  0.00     0.029 A 
ATOM     60  C   UNL     1       1.355  20.220   7.859  1.00  0.00     0.049 A 
ATOM     61  H   UNL     1       2.218  18.755   6.612  1.00  0.00     0.167 HD
ATOM     62  C   UNL     1       0.297  20.605   5.650  1.00  0.00     0.074 A 
ATOM     63  C   UNL     1      -0.631  21.282   4.768  1.00  0.00     0.031 C 
ATOM     64  C   UNL     1       0.478  20.921   6.956  1.00  0.00     0.034 A 
BRANCH  51  65
ATOM     65  C   UNL     1       4.472  17.232   9.907  1.00  0.00     0.023 A 
ATOM     66  C   UNL     1       5.837  17.525  10.103  1.00  0.00     0.012 A 
ATOM     67  C   UNL     1       3.746  16.609  10.941  1.00  0.00     0.148 A 
ATOM     68  C   UNL     1       6.481  17.166  11.286  1.00  0.00     0.002 A 
ATOM     69  C   UNL     1       4.383  16.296  12.137  1.00  0.00     0.091 A 
ATOM     70  F   UNL     1       2.455  16.315  10.731  1.00  0.00    -0.205 F 
ATOM     71  C   UNL     1       5.752  16.561  12.306  1.00  0.00     0.022 A 
BRANCH  69  72
ATOM     72  S   UNL     1       3.509  15.588  13.537  1.00  0.00     0.127 S 
ATOM     73  O   UNL     1       3.958  14.197  13.492  1.00  0.00    -0.237 OA
ATOM     74  O   UNL     1       4.040  16.363  14.659  1.00  0.00    -0.237 OA
ATOM     75  O   UNL     1       2.094  15.802  13.272  1.00  0.00    -0.744 OA
ENDBRANCH  69  72
ENDBRANCH  51  65
BRANCH  52  76
ATOM     76  C   UNL     1       0.018  19.149   1.172  1.00  0.00     0.023 A 
ATOM     77  C   UNL     1       0.254  20.357   0.488  1.00  0.00     0.012 A 
ATOM     78  C   UNL     1      -0.832  18.186   0.595  1.00  0.00     0.148 A 
ATOM     79  C   UNL     1      -0.364  20.613  -0.736  1.00  0.00     0.002 A 
ATOM     80  C   UNL     1      -1.403  18.425  -0.650  1.00  0.00     0.091 A 
ATOM     81  F   UNL     1      -1.049  17.047   1.267  1.00  0.00    -0.205 F 
ATOM     82  C   UNL     1      -1.183  19.645  -1.310  1.00  0.00     0.022 A 
BRANCH  80  83
ATOM     83  S   UNL     1      -2.362  17.184  -1.526  1.00  0.00     0.127 S 
ATOM     84  O   UNL     1      -3.705  17.756  -1.480  1.00  0.00    -0.237 OA
ATOM     85  O   UNL     1      -1.732  17.194  -2.847  1.00  0.00    -0.237 OA
ATOM     86  O   UNL     1      -2.177  15.945  -0.783  1.00  0.00    -0.744 OA
ENDBRANCH  80  83
ENDBRANCH  52  76
BRANCH  64  87
ATOM     87  C   UNL     1      -0.311  22.077   7.512  1.00  0.00     0.023 A 
ATOM     88  C   UNL     1      -1.691  21.933   7.755  1.00  0.00     0.012 A 
ATOM     89  C   UNL     1       0.333  23.279   7.869  1.00  0.00     0.148 A 
ATOM     90  C   UNL     1      -2.424  22.979   8.316  1.00  0.00     0.002 A 
ATOM     91  C   UNL     1      -0.394  24.298   8.472  1.00  0.00     0.091 A 
ATOM     92  F   UNL     1       1.643  23.404   7.611  1.00  0.00    -0.205 F 
ATOM     93  C   UNL     1      -1.774  24.154   8.685  1.00  0.00     0.022 A 
BRANCH  91  94
ATOM     94  S   UNL     1       0.381  25.805   9.068  1.00  0.00     0.127 S 
ATOM     95  O   UNL     1      -0.029  26.773   8.052  1.00  0.00    -0.237 OA
ATOM     96  O   UNL     1      -0.253  25.987  10.374  1.00  0.00    -0.237 OA
ATOM     97  O   UNL     1       1.809  25.523   9.127  1.00  0.00    -0.744 OA
ENDBRANCH  91  94
ENDBRANCH  64  87
ENDBRANCH  38  39
ENDBRANCH  30  33
ENDBRANCH  28  29
ENDBRANCH  27  28
ENDBRANCH  26  27
ENDBRANCH   1  26
TORSDOF 20
