REMARK SMILES Cc1ccc(C)c(-c2csc(C(=O)NCCCCCCNC(=O)c3ccc(-c4c5nc(c(-c6cccc(S(=O)(=O)[O-])c6F)c6ccc([nH]6)c(-c6cccc(S(=O)(=O)[O-])c6F)c6nc(c(-c7cccc(S(=O)(=O)[O-])c7F)c7ccc4[nH]7)C=C6)C=C5)cc3)n2)c1
REMARK SMILES IDX 18 1 17 2 16 3 15 4 14 5 12 6 13 7 11 9 8 10 9 11 87 12
REMARK SMILES IDX 10 13 7 14 1 15 2 16 3 17 88 18 4 19 5 20 6 21 19 22 20 23
REMARK SMILES IDX 21 24 22 25 23 27 24 28 25 29 86 30 26 31 85 32 27 33 28 34
REMARK SMILES IDX 29 35 79 36 30 37 84 38 78 39 80 40 31 41 83 42 77 43 76 44
REMARK SMILES IDX 32 46 64 47 44 48 63 49 45 50 48 51 62 52 81 53 46 54 47 55
REMARK SMILES IDX 61 57 82 58 49 59 33 60 34 61 42 62 35 63 37 64 43 65 36 66
REMARK SMILES IDX 38 67 39 68 40 69 41 70 65 71 66 72 74 73 67 74 69 75 75 76
REMARK SMILES IDX 68 77 70 78 71 79 72 80 73 81 50 82 51 83 59 84 52 85 54 86
REMARK SMILES IDX 60 87 53 88 55 89 56 90 57 91 58 92
REMARK H PARENT 14 8 21 26 80 45 48 56
REMARK Flexibility Score: inf
ROOT
ATOM      1  C   UNL     1       0.931   5.993  -5.625  1.00  0.00     0.002 C 
ENDROOT
BRANCH   1   2
ATOM      2  C   UNL     1      -0.473   5.377  -5.625  1.00  0.00     0.002 C 
BRANCH   2   3
ATOM      3  C   UNL     1      -0.738   4.183  -4.706  1.00  0.00     0.021 C 
BRANCH   3   4
ATOM      4  C   UNL     1      -0.479   4.396  -3.214  1.00  0.00     0.116 C 
BRANCH   4   5
ATOM      5  N   UNL     1      -1.261   5.482  -2.647  1.00  0.00    -0.350 N 
ATOM      6  C   UNL     1      -1.856   5.573  -1.399  1.00  0.00     0.280 C 
ATOM      7  O   UNL     1      -2.456   6.633  -1.177  1.00  0.00    -0.267 OA
ATOM      8  H   UNL     1      -1.385   6.264  -3.232  1.00  0.00     0.163 HD
BRANCH   6   9
ATOM      9  C   UNL     1      -1.743   4.479  -0.434  1.00  0.00     0.182 A 
ATOM     10  C   UNL     1      -1.146   2.538   0.451  1.00  0.00     0.082 A 
ATOM     11  C   UNL     1      -2.148   2.880   1.337  1.00  0.00     0.096 A 
ATOM     12  N   UNL     1      -0.821   3.535  -0.461  1.00  0.00    -0.231 NA
ATOM     13  S   UNL     1      -2.828   4.394   0.899  1.00  0.00    -0.117 S 
BRANCH  10  14
ATOM     14  C   UNL     1      -0.419   1.269   0.452  1.00  0.00     0.004 A 
ATOM     15  C   UNL     1       3.230   0.219  -0.054  1.00  0.00     0.044 C 
ATOM     16  C   UNL     1       1.752   0.156   0.175  1.00  0.00    -0.050 A 
ATOM     17  C   UNL     1       1.124  -1.085   0.268  1.00  0.00     0.004 A 
ATOM     18  C   UNL     1       0.977   1.321   0.266  1.00  0.00     0.014 A 
ATOM     19  C   UNL     1      -0.253  -1.156   0.451  1.00  0.00     0.004 A 
ATOM     20  C   UNL     1      -1.041   0.007   0.538  1.00  0.00    -0.042 A 
ATOM     21  C   UNL     1      -2.521  -0.217   0.673  1.00  0.00     0.045 C 
ENDBRANCH  10  14
ENDBRANCH   6   9
ENDBRANCH   4   5
ENDBRANCH   3   4
ENDBRANCH   2   3
ENDBRANCH   1   2
BRANCH   1  22
ATOM     22  C   UNL     1       2.180   5.101  -5.696  1.00  0.00     0.021 C 
BRANCH  22  23
ATOM     23  C   UNL     1       2.417   4.215  -6.923  1.00  0.00     0.116 C 
BRANCH  23  24
ATOM     24  N   UNL     1       2.360   4.929  -8.210  1.00  0.00    -0.352 N 
ATOM     25  C   UNL     1       1.849   4.598  -9.456  1.00  0.00     0.251 C 
ATOM     26  H   UNL     1       2.769   5.824  -8.180  1.00  0.00     0.163 HD
ATOM     27  O   UNL     1       2.241   5.227 -10.446  1.00  0.00    -0.269 OA
BRANCH  25  28
ATOM     28  C   UNL     1       0.842   3.528  -9.629  1.00  0.00     0.039 A 
ATOM     29  C   UNL     1       0.446   3.000 -10.865  1.00  0.00     0.014 A 
ATOM     30  C   UNL     1       0.221   3.054  -8.493  1.00  0.00     0.014 A 
ATOM     31  C   UNL     1      -0.600   2.066 -10.893  1.00  0.00     0.010 A 
ATOM     32  C   UNL     1      -0.490   1.902  -8.492  1.00  0.00     0.010 A 
ATOM     33  C   UNL     1      -1.086   1.561  -9.680  1.00  0.00    -0.014 A 
BRANCH  33  34
ATOM     34  C   UNL     1      -2.201   0.645  -9.521  1.00  0.00     0.031 A 
ATOM     35  C   UNL     1      -1.865  -0.737  -9.896  1.00  0.00     0.074 A 
ATOM     36  C   UNL     1      -3.270   0.923  -8.735  1.00  0.00     0.049 A 
ATOM     37  N   UNL     1      -2.207  -1.362 -10.971  1.00  0.00    -0.248 NA
ATOM     38  C   UNL     1      -0.854  -1.432  -9.082  1.00  0.00     0.031 C 
ATOM     39  C   UNL     1      -3.505   2.126  -7.916  1.00  0.00     0.029 A 
ATOM     40  N   UNL     1      -4.314   0.118  -8.386  1.00  0.00    -0.354 N 
ATOM     41  C   UNL     1      -1.673  -2.634 -10.808  1.00  0.00     0.074 A 
ATOM     42  C   UNL     1      -0.615  -2.497  -9.847  1.00  0.00     0.031 C 
ATOM     43  C   UNL     1      -4.506   1.890  -7.038  1.00  0.00     0.029 A 
ATOM     44  C   UNL     1      -5.073   0.583  -7.313  1.00  0.00     0.049 A 
ATOM     45  H   UNL     1      -4.515  -0.725  -8.853  1.00  0.00     0.167 HD
ATOM     46  C   UNL     1      -2.380  -3.738 -11.173  1.00  0.00     0.034 A 
ATOM     47  C   UNL     1      -6.077  -0.074  -6.679  1.00  0.00     0.034 A 
ATOM     48  C   UNL     1      -3.536  -3.370 -11.964  1.00  0.00     0.049 A 
ATOM     49  C   UNL     1      -6.507  -1.176  -7.562  1.00  0.00     0.074 A 
ATOM     50  C   UNL     1      -3.757  -2.675 -13.136  1.00  0.00     0.029 A 
ATOM     51  N   UNL     1      -4.742  -3.416 -11.306  1.00  0.00    -0.354 N 
ATOM     52  N   UNL     1      -7.151  -0.993  -8.678  1.00  0.00    -0.248 NA
ATOM     53  C   UNL     1      -5.921  -2.496  -7.386  1.00  0.00     0.031 C 
ATOM     54  C   UNL     1      -5.009  -2.013 -12.957  1.00  0.00     0.029 A 
ATOM     55  C   UNL     1      -5.515  -2.361 -11.704  1.00  0.00     0.049 A 
ATOM     56  H   UNL     1      -5.007  -4.102 -10.651  1.00  0.00     0.167 HD
ATOM     57  C   UNL     1      -6.656  -1.977  -9.518  1.00  0.00     0.074 A 
ATOM     58  C   UNL     1      -6.060  -2.967  -8.628  1.00  0.00     0.031 C 
ATOM     59  C   UNL     1      -6.497  -1.725 -10.851  1.00  0.00     0.034 A 
BRANCH  46  60
ATOM     60  C   UNL     1      -2.315  -5.091 -10.481  1.00  0.00     0.023 A 
ATOM     61  C   UNL     1      -3.071  -6.129 -11.074  1.00  0.00     0.012 A 
ATOM     62  C   UNL     1      -1.806  -5.347  -9.184  1.00  0.00     0.148 A 
ATOM     63  C   UNL     1      -3.374  -7.310 -10.388  1.00  0.00     0.002 A 
ATOM     64  C   UNL     1      -2.044  -6.555  -8.536  1.00  0.00     0.091 A 
ATOM     65  F   UNL     1      -1.190  -4.392  -8.489  1.00  0.00    -0.205 F 
ATOM     66  C   UNL     1      -2.859  -7.525  -9.117  1.00  0.00     0.022 A 
BRANCH  64  67
ATOM     67  S   UNL     1      -1.359  -6.895  -6.907  1.00  0.00     0.127 S 
ATOM     68  O   UNL     1      -2.534  -6.729  -6.057  1.00  0.00    -0.237 OA
ATOM     69  O   UNL     1      -0.891  -8.273  -7.060  1.00  0.00    -0.237 OA
ATOM     70  O   UNL     1      -0.288  -5.923  -6.720  1.00  0.00    -0.744 OA
ENDBRANCH  64  67
ENDBRANCH  46  60
BRANCH  47  71
ATOM     71  C   UNL     1      -6.651   0.062  -5.323  1.00  0.00     0.023 A 
ATOM     72  C   UNL     1      -7.963  -0.393  -5.065  1.00  0.00     0.012 A 
ATOM     73  C   UNL     1      -5.822   0.354  -4.225  1.00  0.00     0.148 A 
ATOM     74  C   UNL     1      -8.416  -0.599  -3.757  1.00  0.00     0.002 A 
ATOM     75  C   UNL     1      -6.276   0.141  -2.928  1.00  0.00     0.091 A 
ATOM     76  F   UNL     1      -4.565   0.752  -4.459  1.00  0.00    -0.205 F 
ATOM     77  C   UNL     1      -7.566  -0.348  -2.687  1.00  0.00     0.022 A 
BRANCH  75  78
ATOM     78  S   UNL     1      -5.211   0.339  -1.506  1.00  0.00     0.127 S 
ATOM     79  O   UNL     1      -5.949   1.302  -0.691  1.00  0.00    -0.237 OA
ATOM     80  O   UNL     1      -5.183  -1.019  -0.966  1.00  0.00    -0.237 OA
ATOM     81  O   UNL     1      -3.943   0.831  -2.026  1.00  0.00    -0.744 OA
ENDBRANCH  75  78
ENDBRANCH  47  71
BRANCH  59  82
ATOM     82  C   UNL     1      -7.198  -0.509 -11.407  1.00  0.00     0.023 A 
ATOM     83  C   UNL     1      -6.866   0.801 -11.001  1.00  0.00     0.012 A 
ATOM     84  C   UNL     1      -8.122  -0.682 -12.449  1.00  0.00     0.148 A 
ATOM     85  C   UNL     1      -7.464   1.912 -11.599  1.00  0.00     0.002 A 
ATOM     86  C   UNL     1      -8.678   0.427 -13.076  1.00  0.00     0.091 A 
ATOM     87  F   UNL     1      -8.426  -1.934 -12.826  1.00  0.00    -0.205 F 
ATOM     88  C   UNL     1      -8.361   1.726 -12.645  1.00  0.00     0.022 A 
BRANCH  86  89
ATOM     89  S   UNL     1      -9.743   0.264 -14.510  1.00  0.00     0.127 S 
ATOM     90  O   UNL     1     -11.055   0.589 -13.956  1.00  0.00    -0.237 OA
ATOM     91  O   UNL     1      -9.196   1.272 -15.421  1.00  0.00    -0.237 OA
ATOM     92  O   UNL     1      -9.581  -1.108 -14.976  1.00  0.00    -0.744 OA
ENDBRANCH  86  89
ENDBRANCH  59  82
ENDBRANCH  33  34
ENDBRANCH  25  28
ENDBRANCH  23  24
ENDBRANCH  22  23
ENDBRANCH   1  22
TORSDOF 17
