REMARK SMILES Cc1ccc(C(=O)NCCCCCCNC(=O)c2ccc(-c3c4nc(c(-c5cccc(S(=O)(=O)[O-])c5F)c5ccc([nH]5)c(-c5cccc(S(=O)(=O)[O-])c5F)c5nc(c(-c6cccc(S(=O)(=O)[O-])c6F)c6ccc3[nH]6)C=C5)C=C4)cc2)cc1NC(=O)C(=O)NC[C@@H](c1ccccc1)[NH+]1CC[NH+](C)CC1
REMARK SMILES IDX 10 1 9 2 8 3 6 4 7 5 5 7 1 8 2 9 3 10 82 11 4 12 81 13 83 14
REMARK SMILES IDX 84 15 85 17 86 18 87 19 88 20 89 22 90 23 97 24 98 25 103 26
REMARK SMILES IDX 99 28 102 29 100 30 101 31 91 33 92 34 96 35 93 36 95 37
REMARK SMILES IDX 94 38 11 39 12 40 13 41 14 42 15 43 16 44 17 46 18 47 19 48
REMARK SMILES IDX 80 49 20 50 79 51 21 52 22 53 23 54 73 55 24 56 78 57 72 58
REMARK SMILES IDX 74 59 25 60 77 61 71 62 70 63 26 65 58 66 38 67 57 68 39 69
REMARK SMILES IDX 42 70 56 71 75 72 40 73 41 74 55 76 76 77 43 78 27 79 28 80
REMARK SMILES IDX 36 81 29 82 31 83 37 84 30 85 32 86 33 87 34 88 35 89 59 90
REMARK SMILES IDX 60 91 68 92 61 93 63 94 69 95 62 96 64 97 65 98 66 99 67 100
REMARK SMILES IDX 44 101 45 102 53 103 46 104 48 105 54 106 47 107 49 108
REMARK SMILES IDX 50 109 51 110 52 111
REMARK H PARENT 8 6 83 16 88 21 97 27 100 32 15 45 74 64 42 75
REMARK Flexibility Score: inf
ROOT
ATOM      1  C   UNL     1       1.322   6.909  -4.694  1.00  0.00     0.021 C 
ENDROOT
BRANCH   1   2
ATOM      2  C   UNL     1       1.752   8.367  -4.629  1.00  0.00     0.116 C 
BRANCH   2   3
ATOM      3  N   UNL     1       2.763   8.771  -5.587  1.00  0.00    -0.352 N 
ATOM      4  C   UNL     1       2.991   9.994  -6.184  1.00  0.00     0.251 C 
ATOM      5  O   UNL     1       3.949  10.108  -6.948  1.00  0.00    -0.269 OA
ATOM      6  H   UNL     1       3.387   8.057  -5.855  1.00  0.00     0.163 HD
BRANCH   4   7
ATOM      7  C   UNL     1       2.086  11.166  -5.982  1.00  0.00     0.041 A 
ATOM      8  C   UNL     1      -0.706  14.452  -5.720  1.00  0.00     0.046 C 
ATOM      9  C   UNL     1       0.237  13.275  -5.731  1.00  0.00    -0.027 A 
ATOM     10  C   UNL     1       1.061  13.155  -6.872  1.00  0.00     0.006 A 
ATOM     11  C   UNL     1       0.384  12.353  -4.670  1.00  0.00     0.045 A 
ATOM     12  C   UNL     1       1.955  12.095  -7.010  1.00  0.00     0.014 A 
ATOM     13  C   UNL     1       1.371  11.375  -4.798  1.00  0.00     0.040 A 
BRANCH  11  14
ATOM     14  N   UNL     1      -0.475  12.430  -3.548  1.00  0.00    -0.318 N 
ATOM     15  C   UNL     1      -0.681  11.663  -2.414  1.00  0.00     0.313 C 
ATOM     16  H   UNL     1      -1.067  13.215  -3.582  1.00  0.00     0.170 HD
ATOM     17  O   UNL     1      -1.551  11.999  -1.611  1.00  0.00    -0.263 OA
BRANCH  15  18
ATOM     18  C   UNL     1       0.134  10.405  -2.102  1.00  0.00     0.309 C 
ATOM     19  O   UNL     1       1.335  10.469  -1.873  1.00  0.00    -0.264 OA
ATOM     20  N   UNL     1      -0.546   9.196  -2.027  1.00  0.00    -0.341 N 
ATOM     21  H   UNL     1      -0.567   8.568  -2.786  1.00  0.00     0.164 HD
BRANCH  20  22
ATOM     22  C   UNL     1      -1.230   8.898  -0.762  1.00  0.00     0.186 C 
BRANCH  22  23
ATOM     23  C   UNL     1      -1.808   7.441  -0.628  1.00  0.00     0.235 C 
BRANCH  23  24
ATOM     24  N   UNL     1      -3.155   7.140  -1.171  1.00  0.00    -0.318 N 
ATOM     25  C   UNL     1      -3.471   7.712  -2.489  1.00  0.00     0.325 C 
ATOM     26  C   UNL     1      -4.294   7.404  -0.278  1.00  0.00     0.325 C 
ATOM     27  H   UNL     1      -3.049   6.130  -1.273  1.00  0.00     0.349 HD
ATOM     28  C   UNL     1      -3.938   9.190  -2.483  1.00  0.00     0.324 C 
ATOM     29  C   UNL     1      -4.622   8.893  -0.124  1.00  0.00     0.324 C 
ATOM     30  N   UNL     1      -4.858   9.581  -1.403  1.00  0.00    -0.328 N 
ATOM     31  C   UNL     1      -4.861  11.027  -1.204  1.00  0.00     0.333 C 
ATOM     32  H   UNL     1      -5.778   9.278  -1.721  1.00  0.00     0.348 HD
ENDBRANCH  23  24
BRANCH  23  33
ATOM     33  C   UNL     1      -1.527   6.753   0.734  1.00  0.00     0.011 A 
ATOM     34  C   UNL     1      -1.921   5.414   0.924  1.00  0.00     0.010 A 
ATOM     35  C   UNL     1      -0.792   7.337   1.778  1.00  0.00     0.010 A 
ATOM     36  C   UNL     1      -1.505   4.661   2.025  1.00  0.00     0.001 A 
ATOM     37  C   UNL     1      -0.383   6.591   2.891  1.00  0.00     0.001 A 
ATOM     38  C   UNL     1      -0.714   5.246   3.000  1.00  0.00     0.000 A 
ENDBRANCH  23  33
ENDBRANCH  22  23
ENDBRANCH  20  22
ENDBRANCH  15  18
ENDBRANCH  11  14
ENDBRANCH   4   7
ENDBRANCH   2   3
ENDBRANCH   1   2
BRANCH   1  39
ATOM     39  C   UNL     1       2.396   5.859  -4.408  1.00  0.00     0.002 C 
BRANCH  39  40
ATOM     40  C   UNL     1       3.230   5.987  -3.119  1.00  0.00     0.002 C 
BRANCH  40  41
ATOM     41  C   UNL     1       2.494   6.197  -1.795  1.00  0.00     0.021 C 
BRANCH  41  42
ATOM     42  C   UNL     1       1.421   5.171  -1.529  1.00  0.00     0.116 C 
BRANCH  42  43
ATOM     43  N   UNL     1       1.801   3.948  -0.875  1.00  0.00    -0.352 N 
ATOM     44  C   UNL     1       0.961   2.974  -0.365  1.00  0.00     0.251 C 
ATOM     45  H   UNL     1       2.768   3.786  -0.778  1.00  0.00     0.163 HD
ATOM     46  O   UNL     1       1.459   2.165   0.429  1.00  0.00    -0.269 OA
BRANCH  44  47
ATOM     47  C   UNL     1      -0.458   2.828  -0.809  1.00  0.00     0.039 A 
ATOM     48  C   UNL     1      -1.159   1.647  -0.519  1.00  0.00     0.014 A 
ATOM     49  C   UNL     1      -1.093   3.779  -1.601  1.00  0.00     0.014 A 
ATOM     50  C   UNL     1      -2.313   1.323  -1.236  1.00  0.00     0.010 A 
ATOM     51  C   UNL     1      -2.268   3.522  -2.230  1.00  0.00     0.010 A 
ATOM     52  C   UNL     1      -2.759   2.234  -2.177  1.00  0.00    -0.014 A 
BRANCH  52  53
ATOM     53  C   UNL     1      -3.623   1.990  -3.303  1.00  0.00     0.031 A 
ATOM     54  C   UNL     1      -5.067   2.056  -3.097  1.00  0.00     0.074 A 
ATOM     55  C   UNL     1      -2.995   2.108  -4.501  1.00  0.00     0.049 A 
ATOM     56  N   UNL     1      -5.925   1.472  -3.848  1.00  0.00    -0.248 NA
ATOM     57  C   UNL     1      -5.659   2.814  -1.993  1.00  0.00     0.031 C 
ATOM     58  C   UNL     1      -3.537   2.441  -5.808  1.00  0.00     0.029 A 
ATOM     59  N   UNL     1      -1.630   1.984  -4.788  1.00  0.00    -0.354 N 
ATOM     60  C   UNL     1      -7.132   2.074  -3.566  1.00  0.00     0.074 A 
ATOM     61  C   UNL     1      -6.959   2.744  -2.298  1.00  0.00     0.031 C 
ATOM     62  C   UNL     1      -2.611   2.147  -6.745  1.00  0.00     0.029 A 
ATOM     63  C   UNL     1      -1.527   1.452  -6.069  1.00  0.00     0.049 A 
ATOM     64  H   UNL     1      -0.883   2.227  -4.194  1.00  0.00     0.167 HD
ATOM     65  C   UNL     1      -8.048   2.209  -4.563  1.00  0.00     0.034 A 
ATOM     66  C   UNL     1      -1.162   0.146  -6.279  1.00  0.00     0.034 A 
ATOM     67  C   UNL     1      -7.470   1.755  -5.841  1.00  0.00     0.049 A 
ATOM     68  C   UNL     1      -2.316  -0.669  -6.856  1.00  0.00     0.074 A 
ATOM     69  C   UNL     1      -6.896   2.442  -6.900  1.00  0.00     0.029 A 
ATOM     70  N   UNL     1      -7.077   0.428  -5.989  1.00  0.00    -0.354 N 
ATOM     71  N   UNL     1      -3.554  -0.254  -6.896  1.00  0.00    -0.248 NA
ATOM     72  C   UNL     1      -2.173  -1.991  -7.456  1.00  0.00     0.031 C 
ATOM     73  C   UNL     1      -6.132   1.521  -7.670  1.00  0.00     0.029 A 
ATOM     74  C   UNL     1      -6.240   0.271  -7.085  1.00  0.00     0.049 A 
ATOM     75  H   UNL     1      -7.357  -0.304  -5.393  1.00  0.00     0.167 HD
ATOM     76  C   UNL     1      -4.377  -1.214  -7.420  1.00  0.00     0.074 A 
ATOM     77  C   UNL     1      -3.443  -2.260  -7.814  1.00  0.00     0.031 C 
ATOM     78  C   UNL     1      -5.742  -1.059  -7.442  1.00  0.00     0.034 A 
BRANCH  65  79
ATOM     79  C   UNL     1      -9.267   3.105  -4.460  1.00  0.00     0.023 A 
ATOM     80  C   UNL     1      -9.745   3.696  -5.649  1.00  0.00     0.012 A 
ATOM     81  C   UNL     1      -9.981   3.410  -3.276  1.00  0.00     0.148 A 
ATOM     82  C   UNL     1     -10.808   4.601  -5.665  1.00  0.00     0.002 A 
ATOM     83  C   UNL     1     -11.010   4.360  -3.281  1.00  0.00     0.091 A 
ATOM     84  F   UNL     1      -9.713   2.736  -2.150  1.00  0.00    -0.205 F 
ATOM     85  C   UNL     1     -11.424   4.956  -4.476  1.00  0.00     0.022 A 
BRANCH  83  86
ATOM     86  S   UNL     1     -11.812   4.940  -1.775  1.00  0.00     0.127 S 
ATOM     87  O   UNL     1     -11.823   6.393  -1.967  1.00  0.00    -0.237 OA
ATOM     88  O   UNL     1     -13.128   4.312  -1.855  1.00  0.00    -0.237 OA
ATOM     89  O   UNL     1     -10.963   4.498  -0.675  1.00  0.00    -0.744 OA
ENDBRANCH  83  86
ENDBRANCH  65  79
BRANCH  66  90
ATOM     90  C   UNL     1      -0.154  -0.343  -5.276  1.00  0.00     0.023 A 
ATOM     91  C   UNL     1       1.062   0.385  -5.199  1.00  0.00     0.012 A 
ATOM     92  C   UNL     1      -0.523  -1.144  -4.181  1.00  0.00     0.148 A 
ATOM     93  C   UNL     1       1.756   0.497  -3.991  1.00  0.00     0.002 A 
ATOM     94  C   UNL     1       0.198  -1.054  -2.987  1.00  0.00     0.091 A 
ATOM     95  F   UNL     1      -1.596  -1.937  -4.292  1.00  0.00    -0.205 F 
ATOM     96  C   UNL     1       1.294  -0.185  -2.870  1.00  0.00     0.022 A 
BRANCH  94  97
ATOM     97  S   UNL     1      -0.316  -1.989  -1.537  1.00  0.00     0.127 S 
ATOM     98  O   UNL     1       0.317  -3.283  -1.781  1.00  0.00    -0.237 OA
ATOM     99  O   UNL     1       0.267  -1.236  -0.426  1.00  0.00    -0.237 OA
ATOM    100  O   UNL     1      -1.768  -1.957  -1.579  1.00  0.00    -0.744 OA
ENDBRANCH  94  97
ENDBRANCH  66  90
BRANCH  78 101
ATOM    101  C   UNL     1      -6.776  -2.123  -7.800  1.00  0.00     0.023 A 
ATOM    102  C   UNL     1      -6.449  -3.478  -7.971  1.00  0.00     0.012 A 
ATOM    103  C   UNL     1      -8.164  -1.805  -7.870  1.00  0.00     0.148 A 
ATOM    104  C   UNL     1      -7.417  -4.453  -8.236  1.00  0.00     0.002 A 
ATOM    105  C   UNL     1      -9.132  -2.795  -7.999  1.00  0.00     0.091 A 
ATOM    106  F   UNL     1      -8.570  -0.529  -7.859  1.00  0.00    -0.205 F 
ATOM    107  C   UNL     1      -8.762  -4.118  -8.218  1.00  0.00     0.022 A 
BRANCH 105 108
ATOM    108  S   UNL     1     -10.879  -2.442  -7.756  1.00  0.00     0.127 S 
ATOM    109  O   UNL     1     -11.370  -2.403  -9.132  1.00  0.00    -0.237 OA
ATOM    110  O   UNL     1     -11.320  -3.606  -6.984  1.00  0.00    -0.237 OA
ATOM    111  O   UNL     1     -10.928  -1.185  -7.024  1.00  0.00    -0.744 OA
ENDBRANCH 105 108
ENDBRANCH  78 101
ENDBRANCH  52  53
ENDBRANCH  44  47
ENDBRANCH  42  43
ENDBRANCH  41  42
ENDBRANCH  40  41
ENDBRANCH  39  40
ENDBRANCH   1  39
TORSDOF 22
