REMARK SMILES Cc1ccccc1C(=O)Nc1ccc(N2CCCCC2)cc1C(=O)NCCCCCCNC(=O)c1ccc(-c2c3nc(c(-c4cccc(S(=O)(=O)[O-])c4F)c4ccc([nH]4)c(-c4cccc(S(=O)(=O)[O-])c4F)c4nc(c(-c5cccc(S(=O)(=O)[O-])c5F)c5ccc2[nH]5)C=C4)C=C3)cc1
REMARK SMILES IDX 29 1 28 2 27 3 26 4 25 5 23 6 24 7 22 9 11 10 12 11 13 12
REMARK SMILES IDX 21 13 14 14 10 15 8 16 9 17 7 19 1 20 2 21 3 22 4 23 6 24
REMARK SMILES IDX 5 25 15 26 16 27 20 28 17 29 19 30 18 31 30 32 31 33 32 34
REMARK SMILES IDX 33 35 34 37 35 38 36 39 97 40 37 41 96 42 38 43 39 44 40 45
REMARK SMILES IDX 90 46 41 47 95 48 89 49 91 50 42 51 94 52 88 53 87 54 43 56
REMARK SMILES IDX 75 57 55 58 74 59 56 60 59 61 73 62 92 63 57 64 58 65 72 67
REMARK SMILES IDX 93 68 60 69 44 70 45 71 53 72 46 73 48 74 54 75 47 76 49 77
REMARK SMILES IDX 50 78 51 79 52 80 76 81 77 82 85 83 78 84 80 85 86 86 79 87
REMARK SMILES IDX 81 88 82 89 83 90 84 91 61 92 62 93 70 94 63 95 65 96 71 97
REMARK SMILES IDX 64 98 66 99 67 100 68 101 69 102
REMARK H PARENT 25 8 10 18 32 36 91 55 59 66
REMARK Flexibility Score: inf
ROOT
ATOM      1  C   UNL     1       0.346  -3.021  -5.074  1.00  0.00     0.002 C 
ENDROOT
BRANCH   1   2
ATOM      2  C   UNL     1      -0.295  -2.942  -3.685  1.00  0.00     0.002 C 
BRANCH   2   3
ATOM      3  C   UNL     1       0.630  -3.002  -2.470  1.00  0.00     0.021 C 
BRANCH   3   4
ATOM      4  C   UNL     1       1.831  -2.065  -2.441  1.00  0.00     0.116 C 
BRANCH   4   5
ATOM      5  N   UNL     1       1.555  -0.667  -2.712  1.00  0.00    -0.352 N 
ATOM      6  C   UNL     1       2.214   0.461  -2.270  1.00  0.00     0.253 C 
ATOM      7  O   UNL     1       1.888   1.559  -2.718  1.00  0.00    -0.269 OA
ATOM      8  H   UNL     1       0.783  -0.498  -3.299  1.00  0.00     0.163 HD
BRANCH   6   9
ATOM      9  C   UNL     1       3.303   0.371  -1.260  1.00  0.00     0.065 A 
ATOM     10  C   UNL     1       3.409   1.290  -0.203  1.00  0.00     0.054 A 
ATOM     11  C   UNL     1       4.521   1.227   0.648  1.00  0.00     0.029 A 
ATOM     12  C   UNL     1       5.392   0.144   0.583  1.00  0.00     0.028 A 
ATOM     13  C   UNL     1       4.297  -0.617  -1.401  1.00  0.00     0.042 A 
ATOM     14  C   UNL     1       5.261  -0.826  -0.411  1.00  0.00     0.038 A 
BRANCH  10  15
ATOM     15  N   UNL     1       2.471   2.259   0.179  1.00  0.00    -0.321 N 
ATOM     16  C   UNL     1       1.103   2.243   0.298  1.00  0.00     0.255 C 
ATOM     17  O   UNL     1       0.555   3.317   0.570  1.00  0.00    -0.269 OA
ATOM     18  H   UNL     1       2.875   3.127   0.410  1.00  0.00     0.170 HD
BRANCH  16  19
ATOM     19  C   UNL     1       0.248   1.019   0.245  1.00  0.00     0.043 A 
ATOM     20  C   UNL     1       1.749  -0.584   1.621  1.00  0.00     0.045 C 
ATOM     21  C   UNL     1       0.518  -0.232   0.839  1.00  0.00    -0.038 A 
ATOM     22  C   UNL     1      -0.449  -1.255   0.732  1.00  0.00     0.004 A 
ATOM     23  C   UNL     1      -1.690  -1.027   0.140  1.00  0.00     0.000 A 
ATOM     24  C   UNL     1      -1.023   1.234  -0.328  1.00  0.00     0.014 A 
ATOM     25  C   UNL     1      -1.987   0.227  -0.371  1.00  0.00     0.001 A 
ENDBRANCH  16  19
ENDBRANCH  10  15
BRANCH  14  26
ATOM     26  N   UNL     1       6.027  -1.980  -0.332  1.00  0.00    -0.372 N 
ATOM     27  C   UNL     1       5.676  -2.889   0.775  1.00  0.00     0.116 C 
ATOM     28  C   UNL     1       6.502  -2.649  -1.540  1.00  0.00     0.116 C 
ATOM     29  C   UNL     1       6.902  -3.707   1.170  1.00  0.00     0.021 C 
ATOM     30  C   UNL     1       7.778  -3.412  -1.185  1.00  0.00     0.021 C 
ATOM     31  C   UNL     1       7.543  -4.394  -0.036  1.00  0.00     0.004 C 
ENDBRANCH  14  26
ENDBRANCH   6   9
ENDBRANCH   4   5
ENDBRANCH   3   4
ENDBRANCH   2   3
ENDBRANCH   1   2
BRANCH   1  32
ATOM     32  C   UNL     1       1.405  -4.097  -5.285  1.00  0.00     0.021 C 
BRANCH  32  33
ATOM     33  C   UNL     1       0.927  -5.529  -5.098  1.00  0.00     0.116 C 
BRANCH  33  34
ATOM     34  N   UNL     1       0.578  -6.177  -6.354  1.00  0.00    -0.352 N 
ATOM     35  C   UNL     1       0.435  -7.525  -6.636  1.00  0.00     0.251 C 
ATOM     36  H   UNL     1       0.421  -5.569  -7.112  1.00  0.00     0.163 HD
ATOM     37  O   UNL     1       0.391  -7.904  -7.806  1.00  0.00    -0.269 OA
BRANCH  35  38
ATOM     38  C   UNL     1       0.167  -8.462  -5.521  1.00  0.00     0.039 A 
ATOM     39  C   UNL     1      -1.036  -9.175  -5.585  1.00  0.00     0.014 A 
ATOM     40  C   UNL     1       0.853  -8.341  -4.320  1.00  0.00     0.014 A 
ATOM     41  C   UNL     1      -1.707  -9.486  -4.409  1.00  0.00     0.010 A 
ATOM     42  C   UNL     1       0.148  -8.543  -3.157  1.00  0.00     0.010 A 
ATOM     43  C   UNL     1      -1.159  -9.042  -3.214  1.00  0.00    -0.014 A 
BRANCH  43  44
ATOM     44  C   UNL     1      -1.827  -9.092  -1.931  1.00  0.00     0.031 A 
ATOM     45  C   UNL     1      -1.543 -10.236  -1.048  1.00  0.00     0.074 A 
ATOM     46  C   UNL     1      -2.465  -7.986  -1.487  1.00  0.00     0.049 A 
ATOM     47  N   UNL     1      -2.167 -10.466   0.052  1.00  0.00    -0.248 NA
ATOM     48  C   UNL     1      -0.550 -11.257  -1.378  1.00  0.00     0.031 C 
ATOM     49  C   UNL     1      -2.733  -7.631  -0.099  1.00  0.00     0.029 A 
ATOM     50  N   UNL     1      -3.182  -7.038  -2.229  1.00  0.00    -0.354 N 
ATOM     51  C   UNL     1      -1.474 -11.457   0.710  1.00  0.00     0.074 A 
ATOM     52  C   UNL     1      -0.580 -12.008  -0.274  1.00  0.00     0.031 C 
ATOM     53  C   UNL     1      -3.735  -6.740  -0.066  1.00  0.00     0.029 A 
ATOM     54  C   UNL     1      -4.260  -6.640  -1.416  1.00  0.00     0.049 A 
ATOM     55  H   UNL     1      -2.974  -6.715  -3.135  1.00  0.00     0.167 HD
ATOM     56  C   UNL     1      -1.643 -11.576   2.053  1.00  0.00     0.034 A 
ATOM     57  C   UNL     1      -5.573  -6.803  -1.750  1.00  0.00     0.034 A 
ATOM     58  C   UNL     1      -2.792 -10.773   2.494  1.00  0.00     0.049 A 
ATOM     59  C   UNL     1      -6.328  -7.687  -0.772  1.00  0.00     0.074 A 
ATOM     60  C   UNL     1      -2.906  -9.543   3.116  1.00  0.00     0.029 A 
ATOM     61  N   UNL     1      -4.063 -11.098   2.026  1.00  0.00    -0.354 N 
ATOM     62  N   UNL     1      -5.761  -8.366   0.188  1.00  0.00    -0.248 NA
ATOM     63  C   UNL     1      -7.774  -7.890  -0.803  1.00  0.00     0.031 C 
ATOM     64  C   UNL     1      -4.233  -9.074   2.906  1.00  0.00     0.029 A 
ATOM     65  C   UNL     1      -4.940 -10.040   2.206  1.00  0.00     0.049 A 
ATOM     66  H   UNL     1      -4.306 -11.963   1.623  1.00  0.00     0.167 HD
ATOM     67  C   UNL     1      -6.683  -9.169   0.807  1.00  0.00     0.074 A 
ATOM     68  C   UNL     1      -7.942  -8.775   0.197  1.00  0.00     0.031 C 
ATOM     69  C   UNL     1      -6.317 -10.124   1.721  1.00  0.00     0.034 A 
BRANCH  56  70
ATOM     70  C   UNL     1      -0.679 -12.238   3.026  1.00  0.00     0.023 A 
ATOM     71  C   UNL     1      -1.036 -12.203   4.394  1.00  0.00     0.012 A 
ATOM     72  C   UNL     1       0.598 -12.784   2.737  1.00  0.00     0.148 A 
ATOM     73  C   UNL     1      -0.181 -12.652   5.408  1.00  0.00     0.002 A 
ATOM     74  C   UNL     1       1.429 -13.285   3.745  1.00  0.00     0.091 A 
ATOM     75  F   UNL     1       1.081 -12.753   1.495  1.00  0.00    -0.205 F 
ATOM     76  C   UNL     1       1.049 -13.204   5.085  1.00  0.00     0.022 A 
BRANCH  74  77
ATOM     77  S   UNL     1       3.027 -14.047   3.392  1.00  0.00     0.127 S 
ATOM     78  O   UNL     1       3.963 -13.055   3.920  1.00  0.00    -0.237 OA
ATOM     79  O   UNL     1       2.959 -15.290   4.162  1.00  0.00    -0.237 OA
ATOM     80  O   UNL     1       3.079 -14.239   1.948  1.00  0.00    -0.744 OA
ENDBRANCH  74  77
ENDBRANCH  56  70
BRANCH  57  81
ATOM     81  C   UNL     1      -5.850  -6.662  -3.206  1.00  0.00     0.023 A 
ATOM     82  C   UNL     1      -5.746  -5.357  -3.741  1.00  0.00     0.012 A 
ATOM     83  C   UNL     1      -5.766  -7.765  -4.074  1.00  0.00     0.148 A 
ATOM     84  C   UNL     1      -5.432  -5.156  -5.086  1.00  0.00     0.002 A 
ATOM     85  C   UNL     1      -5.428  -7.556  -5.411  1.00  0.00     0.091 A 
ATOM     86  F   UNL     1      -5.893  -8.993  -3.556  1.00  0.00    -0.205 F 
ATOM     87  C   UNL     1      -5.234  -6.257  -5.909  1.00  0.00     0.022 A 
BRANCH  85  88
ATOM     88  S   UNL     1      -5.026  -8.904  -6.530  1.00  0.00     0.127 S 
ATOM     89  O   UNL     1      -6.162  -8.877  -7.447  1.00  0.00    -0.237 OA
ATOM     90  O   UNL     1      -3.763  -8.445  -7.103  1.00  0.00    -0.237 OA
ATOM     91  O   UNL     1      -4.915 -10.086  -5.688  1.00  0.00    -0.744 OA
ENDBRANCH  85  88
ENDBRANCH  57  81
BRANCH  69  92
ATOM     92  C   UNL     1      -7.223 -11.232   2.240  1.00  0.00     0.023 A 
ATOM     93  C   UNL     1      -8.388 -11.637   1.560  1.00  0.00     0.012 A 
ATOM     94  C   UNL     1      -6.848 -12.015   3.365  1.00  0.00     0.148 A 
ATOM     95  C   UNL     1      -9.178 -12.705   2.003  1.00  0.00     0.002 A 
ATOM     96  C   UNL     1      -7.571 -13.150   3.729  1.00  0.00     0.091 A 
ATOM     97  F   UNL     1      -5.792 -11.658   4.109  1.00  0.00    -0.205 F 
ATOM     98  C   UNL     1      -8.758 -13.477   3.075  1.00  0.00     0.022 A 
BRANCH  96  99
ATOM     99  S   UNL     1      -6.914 -14.315   4.933  1.00  0.00     0.127 S 
ATOM    100  O   UNL     1      -7.505 -13.834   6.179  1.00  0.00    -0.237 OA
ATOM    101  O   UNL     1      -7.447 -15.594   4.459  1.00  0.00    -0.237 OA
ATOM    102  O   UNL     1      -5.466 -14.196   4.815  1.00  0.00    -0.744 OA
ENDBRANCH  96  99
ENDBRANCH  69  92
ENDBRANCH  43  44
ENDBRANCH  35  38
ENDBRANCH  33  34
ENDBRANCH  32  33
ENDBRANCH   1  32
TORSDOF 19
