REMARK SMILES CC[C@H](NC(=O)N1CCO[C@@H](CC(=O)NCCCCCCNC(=O)c2ccc(-c3c4nc(c(-c5cccc(S(=O)(=O)[O-])c5F)c5ccc([nH]5)c(-c5cccc(S(=O)(=O)[O-])c5F)c5nc(c(-c6cccc(S(=O)(=O)[O-])c6F)c6ccc3[nH]6)C=C5)C=C4)cc2)C1)c1cccs1
REMARK SMILES IDX 18 1 17 2 16 3 15 4 13 5 14 6 12 8 11 9 7 10 8 11 88 12 9 13
REMARK SMILES IDX 10 14 5 15 4 16 6 18 3 19 2 20 1 21 89 22 90 23 93 24 91 25
REMARK SMILES IDX 92 26 19 27 20 28 21 29 22 30 23 31 24 33 25 34 26 35 87 36
REMARK SMILES IDX 27 37 86 38 28 39 29 40 30 41 80 42 31 43 85 44 79 45 81 46
REMARK SMILES IDX 32 47 84 48 78 49 77 50 33 52 65 53 45 54 64 55 46 56 49 57
REMARK SMILES IDX 63 58 82 59 47 60 48 61 62 63 83 64 50 65 34 66 35 67 43 68
REMARK SMILES IDX 36 69 38 70 44 71 37 72 39 73 40 74 41 75 42 76 66 77 67 78
REMARK SMILES IDX 75 79 68 80 70 81 76 82 69 83 71 84 72 85 73 86 74 87 51 88
REMARK SMILES IDX 52 89 60 90 53 91 55 92 61 93 54 94 56 95 57 96 58 97 59 98
REMARK H PARENT 15 7 4 17 22 32 81 51 49 62
REMARK Flexibility Score: inf
ROOT
ATOM      1  C   UNL     1      -2.072   4.935   2.728  1.00  0.00     0.002 C 
ENDROOT
BRANCH   1   2
ATOM      2  C   UNL     1      -2.221   4.687   1.230  1.00  0.00     0.021 C 
BRANCH   2   3
ATOM      3  C   UNL     1      -2.905   5.827   0.465  1.00  0.00     0.116 C 
BRANCH   3   4
ATOM      4  N   UNL     1      -1.903   6.692  -0.147  1.00  0.00    -0.356 N 
ATOM      5  C   UNL     1      -1.526   6.820  -1.454  1.00  0.00     0.222 C 
ATOM      6  O   UNL     1      -0.523   7.486  -1.714  1.00  0.00    -0.275 OA
ATOM      7  H   UNL     1      -1.422   7.277   0.481  1.00  0.00     0.163 HD
BRANCH   5   8
ATOM      8  C   UNL     1      -2.339   6.174  -2.554  1.00  0.00     0.133 C 
BRANCH   8   9
ATOM      9  C   UNL     1      -1.825   4.815  -3.046  1.00  0.00     0.147 C 
ATOM     10  N   UNL     1      -1.342   2.475  -2.233  1.00  0.00    -0.320 N 
ATOM     11  C   UNL     1      -2.496   2.026  -2.999  1.00  0.00     0.150 C 
ATOM     12  C   UNL     1      -1.474   3.878  -1.883  1.00  0.00     0.154 C 
ATOM     13  C   UNL     1      -2.673   2.909  -4.231  1.00  0.00     0.182 C 
ATOM     14  O   UNL     1      -2.900   4.274  -3.854  1.00  0.00    -0.374 OA
BRANCH  10  15
ATOM     15  C   UNL     1      -0.913   1.689  -1.192  1.00  0.00     0.318 C 
ATOM     16  N   UNL     1       0.295   1.091  -1.299  1.00  0.00    -0.330 N 
ATOM     17  H   UNL     1       0.662   0.799  -0.433  1.00  0.00     0.166 HD
ATOM     18  O   UNL     1      -1.520   1.618  -0.124  1.00  0.00    -0.249 OA
BRANCH  16  19
ATOM     19  C   UNL     1       1.169   0.786  -2.426  1.00  0.00     0.124 C 
BRANCH  19  20
ATOM     20  C   UNL     1       0.906  -0.620  -3.000  1.00  0.00     0.027 C 
ATOM     21  C   UNL     1      -0.535  -0.955  -3.352  1.00  0.00     0.006 C 
ENDBRANCH  19  20
BRANCH  19  22
ATOM     22  C   UNL     1       1.300   1.905  -3.431  1.00  0.00     0.027 A 
ATOM     23  C   UNL     1       0.924   1.961  -4.762  1.00  0.00     0.017 A 
ATOM     24  S   UNL     1       2.087   3.370  -2.965  1.00  0.00    -0.147 S 
ATOM     25  C   UNL     1       1.183   3.230  -5.359  1.00  0.00     0.012 A 
ATOM     26  C   UNL     1       1.790   4.097  -4.481  1.00  0.00     0.065 A 
ENDBRANCH  19  22
ENDBRANCH  16  19
ENDBRANCH  10  15
ENDBRANCH   8   9
ENDBRANCH   5   8
ENDBRANCH   3   4
ENDBRANCH   2   3
ENDBRANCH   1   2
BRANCH   1  27
ATOM     27  C   UNL     1      -3.385   4.851   3.510  1.00  0.00     0.002 C 
BRANCH  27  28
ATOM     28  C   UNL     1      -4.159   3.536   3.358  1.00  0.00     0.021 C 
BRANCH  28  29
ATOM     29  C   UNL     1      -3.352   2.275   3.659  1.00  0.00     0.116 C 
BRANCH  29  30
ATOM     30  N   UNL     1      -2.850   2.277   5.027  1.00  0.00    -0.352 N 
ATOM     31  C   UNL     1      -3.215   1.492   6.088  1.00  0.00     0.251 C 
ATOM     32  H   UNL     1      -2.146   2.940   5.217  1.00  0.00     0.163 HD
ATOM     33  O   UNL     1      -2.884   1.811   7.234  1.00  0.00    -0.269 OA
BRANCH  31  34
ATOM     34  C   UNL     1      -4.003   0.264   5.864  1.00  0.00     0.039 A 
ATOM     35  C   UNL     1      -5.081  -0.022   6.706  1.00  0.00     0.014 A 
ATOM     36  C   UNL     1      -3.660  -0.619   4.835  1.00  0.00     0.014 A 
ATOM     37  C   UNL     1      -5.845  -1.170   6.485  1.00  0.00     0.010 A 
ATOM     38  C   UNL     1      -4.466  -1.722   4.572  1.00  0.00     0.010 A 
ATOM     39  C   UNL     1      -5.559  -2.016   5.401  1.00  0.00    -0.014 A 
BRANCH  39  40
ATOM     40  C   UNL     1      -6.391  -3.212   5.114  1.00  0.00     0.031 A 
ATOM     41  C   UNL     1      -5.791  -4.589   5.186  1.00  0.00     0.074 A 
ATOM     42  C   UNL     1      -7.664  -3.051   4.703  1.00  0.00     0.049 A 
ATOM     43  N   UNL     1      -6.344  -5.745   4.925  1.00  0.00    -0.248 NA
ATOM     44  C   UNL     1      -4.374  -4.678   5.575  1.00  0.00     0.031 C 
ATOM     45  C   UNL     1      -8.337  -1.764   4.520  1.00  0.00     0.029 A 
ATOM     46  N   UNL     1      -8.612  -3.976   4.341  1.00  0.00    -0.354 N 
ATOM     47  C   UNL     1      -5.339  -6.692   5.085  1.00  0.00     0.074 A 
ATOM     48  C   UNL     1      -4.132  -5.971   5.426  1.00  0.00     0.031 C 
ATOM     49  C   UNL     1      -9.591  -1.980   4.091  1.00  0.00     0.029 A 
ATOM     50  C   UNL     1      -9.802  -3.416   3.940  1.00  0.00     0.049 A 
ATOM     51  H   UNL     1      -8.454  -4.947   4.367  1.00  0.00     0.167 HD
ATOM     52  C   UNL     1      -5.418  -8.041   4.987  1.00  0.00     0.034 A 
ATOM     53  C   UNL     1     -10.935  -3.995   3.498  1.00  0.00     0.034 A 
ATOM     54  C   UNL     1      -6.630  -8.754   4.681  1.00  0.00     0.049 A 
ATOM     55  C   UNL     1     -11.009  -5.495   3.424  1.00  0.00     0.074 A 
ATOM     56  C   UNL     1      -6.838 -10.121   4.641  1.00  0.00     0.029 A 
ATOM     57  N   UNL     1      -7.837  -8.157   4.350  1.00  0.00    -0.354 N 
ATOM     58  N   UNL     1     -10.094  -6.383   3.731  1.00  0.00    -0.248 NA
ATOM     59  C   UNL     1     -12.283  -6.076   2.976  1.00  0.00     0.031 C 
ATOM     60  C   UNL     1      -8.165 -10.350   4.260  1.00  0.00     0.029 A 
ATOM     61  C   UNL     1      -8.792  -9.126   4.092  1.00  0.00     0.049 A 
ATOM     62  H   UNL     1      -7.992  -7.186   4.305  1.00  0.00     0.167 HD
ATOM     63  C   UNL     1     -10.691  -7.625   3.550  1.00  0.00     0.074 A 
ATOM     64  C   UNL     1     -12.053  -7.374   3.123  1.00  0.00     0.031 C 
ATOM     65  C   UNL     1     -10.157  -8.862   3.712  1.00  0.00     0.034 A 
BRANCH  52  66
ATOM     66  C   UNL     1      -4.164  -8.832   5.262  1.00  0.00     0.023 A 
ATOM     67  C   UNL     1      -3.650  -8.887   6.575  1.00  0.00     0.012 A 
ATOM     68  C   UNL     1      -3.509  -9.542   4.237  1.00  0.00     0.148 A 
ATOM     69  C   UNL     1      -2.480  -9.592   6.854  1.00  0.00     0.002 A 
ATOM     70  C   UNL     1      -2.369 -10.282   4.532  1.00  0.00     0.091 A 
ATOM     71  F   UNL     1      -3.996  -9.464   2.990  1.00  0.00    -0.205 F 
ATOM     72  C   UNL     1      -1.845 -10.296   5.835  1.00  0.00     0.022 A 
BRANCH  70  73
ATOM     73  S   UNL     1      -1.526 -11.287   3.304  1.00  0.00     0.127 S 
ATOM     74  O   UNL     1      -0.333 -10.486   3.035  1.00  0.00    -0.237 OA
ATOM     75  O   UNL     1      -1.274 -12.527   4.039  1.00  0.00    -0.237 OA
ATOM     76  O   UNL     1      -2.457 -11.422   2.192  1.00  0.00    -0.744 OA
ENDBRANCH  70  73
ENDBRANCH  52  66
BRANCH  53  77
ATOM     77  C   UNL     1     -12.119  -3.149   3.173  1.00  0.00     0.023 A 
ATOM     78  C   UNL     1     -13.235  -3.171   4.032  1.00  0.00     0.012 A 
ATOM     79  C   UNL     1     -12.128  -2.293   2.055  1.00  0.00     0.148 A 
ATOM     80  C   UNL     1     -14.350  -2.375   3.770  1.00  0.00     0.002 A 
ATOM     81  C   UNL     1     -13.221  -1.463   1.829  1.00  0.00     0.091 A 
ATOM     82  F   UNL     1     -11.059  -2.292   1.247  1.00  0.00    -0.205 F 
ATOM     83  C   UNL     1     -14.339  -1.514   2.676  1.00  0.00     0.022 A 
BRANCH  81  84
ATOM     84  S   UNL     1     -13.247  -0.232   0.521  1.00  0.00     0.127 S 
ATOM     85  O   UNL     1     -14.292  -0.752  -0.358  1.00  0.00    -0.237 OA
ATOM     86  O   UNL     1     -13.609   0.980   1.258  1.00  0.00    -0.237 OA
ATOM     87  O   UNL     1     -11.903  -0.218  -0.038  1.00  0.00    -0.744 OA
ENDBRANCH  81  84
ENDBRANCH  53  77
BRANCH  65  88
ATOM     88  C   UNL     1     -11.053 -10.047   3.460  1.00  0.00     0.023 A 
ATOM     89  C   UNL     1     -11.425 -10.379   2.142  1.00  0.00     0.012 A 
ATOM     90  C   UNL     1     -11.464 -10.875   4.524  1.00  0.00     0.148 A 
ATOM     91  C   UNL     1     -12.220 -11.496   1.890  1.00  0.00     0.002 A 
ATOM     92  C   UNL     1     -12.213 -12.015   4.260  1.00  0.00     0.091 A 
ATOM     93  F   UNL     1     -11.115 -10.533   5.772  1.00  0.00    -0.205 F 
ATOM     94  C   UNL     1     -12.603 -12.320   2.946  1.00  0.00     0.022 A 
BRANCH  92  95
ATOM     95  S   UNL     1     -12.668 -13.188   5.543  1.00  0.00     0.127 S 
ATOM     96  O   UNL     1     -14.104 -12.943   5.674  1.00  0.00    -0.237 OA
ATOM     97  O   UNL     1     -12.321 -14.470   4.929  1.00  0.00    -0.237 OA
ATOM     98  O   UNL     1     -11.866 -12.839   6.708  1.00  0.00    -0.744 OA
ENDBRANCH  92  95
ENDBRANCH  65  88
ENDBRANCH  39  40
ENDBRANCH  31  34
ENDBRANCH  29  30
ENDBRANCH  28  29
ENDBRANCH  27  28
ENDBRANCH   1  27
TORSDOF 21
