REMARK SMILES Cn1cc(/C=C/C(=O)Nc2ccc(C(=O)NCCCCCCNC(=O)c3ccc(-c4c5nc(c(-c6cccc(S(=O)(=O)[O-])c6F)c6ccc([nH]6)c(-c6cccc(S(=O)(=O)[O-])c6F)c6nc(c(-c7cccc(S(=O)(=O)[O-])c7F)c7ccc4[nH]7)C=C6)C=C5)cc3)c(O)c2)cn1
REMARK SMILES IDX 19 1 18 2 17 3 16 4 14 5 15 6 13 8 10 9 11 10 91 11 12 12
REMARK SMILES IDX 89 13 9 14 7 15 8 16 6 18 5 19 4 20 1 21 2 22 3 23 93 24
REMARK SMILES IDX 92 25 90 26 20 28 21 29 22 30 23 31 24 32 25 34 26 35 27 36
REMARK SMILES IDX 88 37 28 38 87 39 29 40 30 41 31 42 81 43 32 44 86 45 80 46
REMARK SMILES IDX 82 47 33 48 85 49 79 50 78 51 34 53 66 54 46 55 65 56 47 57
REMARK SMILES IDX 50 58 64 59 83 60 48 61 49 62 63 64 84 65 51 66 35 67 36 68
REMARK SMILES IDX 44 69 37 70 39 71 45 72 38 73 40 74 41 75 42 76 43 77 67 78
REMARK SMILES IDX 68 79 76 80 69 81 71 82 77 83 70 84 72 85 73 86 74 87 75 88
REMARK SMILES IDX 52 89 53 90 61 91 54 92 56 93 62 94 55 95 57 96 58 97 59 98
REMARK SMILES IDX 60 99
REMARK H PARENT 16 7 9 17 90 27 23 33 82 52 50 63
REMARK Flexibility Score: inf
ROOT
ATOM      1  C   UNL     1      -1.230  -8.242   3.474  1.00  0.00     0.002 C 
ENDROOT
BRANCH   1   2
ATOM      2  C   UNL     1      -0.186  -7.119   3.484  1.00  0.00     0.021 C 
BRANCH   2   3
ATOM      3  C   UNL     1       0.698  -6.994   2.245  1.00  0.00     0.116 C 
BRANCH   3   4
ATOM      4  N   UNL     1      -0.029  -6.774   1.006  1.00  0.00    -0.352 N 
ATOM      5  C   UNL     1       0.355  -6.171  -0.169  1.00  0.00     0.255 C 
ATOM      6  O   UNL     1      -0.473  -6.104  -1.079  1.00  0.00    -0.269 OA
ATOM      7  H   UNL     1      -0.953  -7.115   1.008  1.00  0.00     0.163 HD
BRANCH   5   8
ATOM      8  C   UNL     1       1.679  -5.514  -0.351  1.00  0.00     0.081 A 
ATOM      9  C   UNL     1       3.943  -3.840  -0.447  1.00  0.00     0.045 A 
ATOM     10  C   UNL     1       2.816  -3.538  -1.206  1.00  0.00     0.027 A 
ATOM     11  C   UNL     1       4.015  -5.088   0.170  1.00  0.00     0.073 A 
ATOM     12  C   UNL     1       1.679  -4.346  -1.128  1.00  0.00     0.020 A 
ATOM     13  C   UNL     1       2.899  -5.933   0.183  1.00  0.00     0.130 A 
BRANCH   9  14
ATOM     14  N   UNL     1       5.009  -2.944  -0.248  1.00  0.00    -0.322 N 
ATOM     15  C   UNL     1       5.061  -1.576  -0.290  1.00  0.00     0.248 C 
ATOM     16  O   UNL     1       6.149  -0.999  -0.269  1.00  0.00    -0.270 OA
ATOM     17  H   UNL     1       5.870  -3.377  -0.044  1.00  0.00     0.170 HD
BRANCH  15  18
ATOM     18  C   UNL     1       3.830  -0.749  -0.340  1.00  0.00     0.072 C 
ATOM     19  C   UNL     1       2.736  -0.993   0.401  1.00  0.00     0.017 C 
BRANCH  19  20
ATOM     20  C   UNL     1       1.502  -0.300   0.264  1.00  0.00     0.013 A 
ATOM     21  C   UNL     1      -2.072  -0.034  -0.042  1.00  0.00     0.173 C 
ATOM     22  N   UNL     1      -0.639   0.099   0.064  1.00  0.00    -0.275 N 
ATOM     23  C   UNL     1       0.263  -0.898   0.302  1.00  0.00     0.116 A 
ATOM     24  N   UNL     1      -0.070   1.309  -0.103  1.00  0.00    -0.181 NA
ATOM     25  C   UNL     1       1.238   1.060   0.020  1.00  0.00     0.143 A 
ENDBRANCH  19  20
ENDBRANCH  15  18
ENDBRANCH   9  14
BRANCH  13  26
ATOM     26  O   UNL     1       3.113  -7.169   0.721  1.00  0.00    -0.507 OA
ATOM     27  H   UNL     1       2.412  -7.789   0.763  1.00  0.00     0.293 HD
ENDBRANCH  13  26
ENDBRANCH   5   8
ENDBRANCH   3   4
ENDBRANCH   2   3
ENDBRANCH   1   2
BRANCH   1  28
ATOM     28  C   UNL     1      -0.743  -9.642   3.088  1.00  0.00     0.002 C 
BRANCH  28  29
ATOM     29  C   UNL     1       0.451 -10.194   3.868  1.00  0.00     0.021 C 
BRANCH  29  30
ATOM     30  C   UNL     1       0.333 -10.162   5.387  1.00  0.00     0.116 C 
BRANCH  30  31
ATOM     31  N   UNL     1      -0.814 -10.903   5.886  1.00  0.00    -0.352 N 
ATOM     32  C   UNL     1      -0.875 -11.853   6.876  1.00  0.00     0.251 C 
ATOM     33  H   UNL     1      -1.672 -10.693   5.452  1.00  0.00     0.163 HD
ATOM     34  O   UNL     1      -1.927 -12.463   7.069  1.00  0.00    -0.269 OA
BRANCH  32  35
ATOM     35  C   UNL     1       0.320 -12.165   7.691  1.00  0.00     0.039 A 
ATOM     36  C   UNL     1       0.629 -13.504   7.947  1.00  0.00     0.014 A 
ATOM     37  C   UNL     1       1.132 -11.150   8.205  1.00  0.00     0.014 A 
ATOM     38  C   UNL     1       1.784 -13.825   8.665  1.00  0.00     0.010 A 
ATOM     39  C   UNL     1       2.323 -11.474   8.850  1.00  0.00     0.010 A 
ATOM     40  C   UNL     1       2.660 -12.814   9.094  1.00  0.00    -0.014 A 
BRANCH  40  41
ATOM     41  C   UNL     1       3.934 -13.142   9.784  1.00  0.00     0.031 A 
ATOM     42  C   UNL     1       4.180 -12.681  11.196  1.00  0.00     0.074 A 
ATOM     43  C   UNL     1       4.907 -13.790   9.112  1.00  0.00     0.049 A 
ATOM     44  N   UNL     1       5.237 -12.851  11.947  1.00  0.00    -0.248 NA
ATOM     45  C   UNL     1       3.108 -11.904  11.838  1.00  0.00     0.031 C 
ATOM     46  C   UNL     1       4.822 -14.226   7.717  1.00  0.00     0.029 A 
ATOM     47  N   UNL     1       6.163 -14.177   9.505  1.00  0.00    -0.354 N 
ATOM     48  C   UNL     1       4.974 -12.177  13.133  1.00  0.00     0.074 A 
ATOM     49  C   UNL     1       3.674 -11.559  12.984  1.00  0.00     0.031 C 
ATOM     50  C   UNL     1       5.967 -14.838   7.378  1.00  0.00     0.029 A 
ATOM     51  C   UNL     1       6.880 -14.807   8.516  1.00  0.00     0.049 A 
ATOM     52  H   UNL     1       6.518 -14.019  10.410  1.00  0.00     0.167 HD
ATOM     53  C   UNL     1       5.730 -12.099  14.256  1.00  0.00     0.034 A 
ATOM     54  C   UNL     1       8.133 -15.303   8.521  1.00  0.00     0.034 A 
ATOM     55  C   UNL     1       7.012 -12.735  14.408  1.00  0.00     0.049 A 
ATOM     56  C   UNL     1       8.949 -15.220   9.782  1.00  0.00     0.074 A 
ATOM     57  C   UNL     1       7.819 -12.790  15.530  1.00  0.00     0.029 A 
ATOM     58  N   UNL     1       7.685 -13.410  13.400  1.00  0.00    -0.354 N 
ATOM     59  N   UNL     1       8.621 -14.713  10.946  1.00  0.00    -0.248 NA
ATOM     60  C   UNL     1      10.296 -15.806   9.739  1.00  0.00     0.031 C 
ATOM     61  C   UNL     1       8.996 -13.465  15.190  1.00  0.00     0.029 A 
ATOM     62  C   UNL     1       8.906 -13.868  13.867  1.00  0.00     0.049 A 
ATOM     63  H   UNL     1       7.345 -13.545  12.486  1.00  0.00     0.167 HD
ATOM     64  C   UNL     1       9.703 -14.953  11.785  1.00  0.00     0.074 A 
ATOM     65  C   UNL     1      10.690 -15.665  10.998  1.00  0.00     0.031 C 
ATOM     66  C   UNL     1       9.867 -14.608  13.087  1.00  0.00     0.034 A 
BRANCH  53  67
ATOM     67  C   UNL     1       5.166 -11.320  15.418  1.00  0.00     0.023 A 
ATOM     68  C   UNL     1       4.033 -11.807  16.105  1.00  0.00     0.012 A 
ATOM     69  C   UNL     1       5.762 -10.117  15.844  1.00  0.00     0.148 A 
ATOM     70  C   UNL     1       3.470 -11.084  17.156  1.00  0.00     0.002 A 
ATOM     71  C   UNL     1       5.226  -9.427  16.926  1.00  0.00     0.091 A 
ATOM     72  F   UNL     1       6.825  -9.655  15.171  1.00  0.00    -0.205 F 
ATOM     73  C   UNL     1       4.071  -9.899  17.571  1.00  0.00     0.022 A 
BRANCH  71  74
ATOM     74  S   UNL     1       5.977  -7.936  17.588  1.00  0.00     0.127 S 
ATOM     75  O   UNL     1       5.049  -6.907  17.124  1.00  0.00    -0.237 OA
ATOM     76  O   UNL     1       5.939  -8.185  19.030  1.00  0.00    -0.237 OA
ATOM     77  O   UNL     1       7.317  -7.878  17.021  1.00  0.00    -0.744 OA
ENDBRANCH  71  74
ENDBRANCH  53  67
BRANCH  54  78
ATOM     78  C   UNL     1       8.657 -15.997   7.311  1.00  0.00     0.023 A 
ATOM     79  C   UNL     1       8.825 -17.395   7.339  1.00  0.00     0.012 A 
ATOM     80  C   UNL     1       8.940 -15.293   6.124  1.00  0.00     0.148 A 
ATOM     81  C   UNL     1       9.287 -18.078   6.214  1.00  0.00     0.002 A 
ATOM     82  C   UNL     1       9.348 -15.987   4.991  1.00  0.00     0.091 A 
ATOM     83  F   UNL     1       8.777 -13.963   6.122  1.00  0.00    -0.205 F 
ATOM     84  C   UNL     1       9.539 -17.377   5.038  1.00  0.00     0.022 A 
BRANCH  82  85
ATOM     85  S   UNL     1       9.573 -15.190   3.397  1.00  0.00     0.127 S 
ATOM     86  O   UNL     1      11.003 -15.377   3.167  1.00  0.00    -0.237 OA
ATOM     87  O   UNL     1       8.700 -15.991   2.538  1.00  0.00    -0.237 OA
ATOM     88  O   UNL     1       9.142 -13.811   3.577  1.00  0.00    -0.744 OA
ENDBRANCH  82  85
ENDBRANCH  54  78
BRANCH  66  89
ATOM     89  C   UNL     1      11.148 -15.024  13.764  1.00  0.00     0.023 A 
ATOM     90  C   UNL     1      12.363 -14.398  13.423  1.00  0.00     0.012 A 
ATOM     91  C   UNL     1      11.135 -15.994  14.787  1.00  0.00     0.148 A 
ATOM     92  C   UNL     1      13.550 -14.755  14.064  1.00  0.00     0.002 A 
ATOM     93  C   UNL     1      12.311 -16.306  15.457  1.00  0.00     0.091 A 
ATOM     94  F   UNL     1       9.973 -16.593  15.085  1.00  0.00    -0.205 F 
ATOM     95  C   UNL     1      13.522 -15.699  15.088  1.00  0.00     0.022 A 
BRANCH  93  96
ATOM     96  S   UNL     1      12.355 -17.435  16.854  1.00  0.00     0.127 S 
ATOM     97  O   UNL     1      13.048 -18.589  16.283  1.00  0.00    -0.237 OA
ATOM     98  O   UNL     1      13.132 -16.681  17.837  1.00  0.00    -0.237 OA
ATOM     99  O   UNL     1      10.966 -17.665  17.229  1.00  0.00    -0.744 OA
ENDBRANCH  93  96
ENDBRANCH  66  89
ENDBRANCH  40  41
ENDBRANCH  32  35
ENDBRANCH  30  31
ENDBRANCH  29  30
ENDBRANCH  28  29
ENDBRANCH   1  28
TORSDOF 20
