REMARK SMILES O=C(NCCCCCCNC(=O)c1cc(-c2cncnc2)cc(S(=O)(=O)N2CCCC2)c1)c1ccc(-c2c3nc(c(-c4cccc(S(=O)(=O)[O-])c4F)c4ccc([nH]4)c(-c4cccc(S(=O)(=O)[O-])c4F)c4nc(c(-c5cccc(S(=O)(=O)[O-])c5F)c5ccc2[nH]5)C=C4)C=C3)cc1
REMARK SMILES IDX 6 1 5 2 4 3 3 4 1 5 2 6 33 8 34 9 95 10 35 11 94 12 36 13
REMARK SMILES IDX 37 14 38 15 88 16 39 17 93 18 87 19 89 20 40 21 92 22 86 23
REMARK SMILES IDX 85 24 41 26 73 27 53 28 72 29 54 30 57 31 71 32 90 33 55 34
REMARK SMILES IDX 56 35 70 37 91 38 58 39 42 40 43 41 51 42 44 43 46 44 52 45
REMARK SMILES IDX 45 46 47 47 48 48 49 49 50 50 74 51 75 52 83 53 76 54 78 55
REMARK SMILES IDX 84 56 77 57 79 58 80 59 81 60 82 61 59 62 60 63 68 64 61 65
REMARK SMILES IDX 63 66 69 67 62 68 64 69 65 70 66 71 67 72 7 73 8 74 9 75
REMARK SMILES IDX 10 76 11 77 12 79 13 80 14 81 32 82 15 83 23 84 22 85 16 86
REMARK SMILES IDX 17 87 21 88 18 89 20 90 19 91 24 92 25 93 26 94 27 95 28 96
REMARK SMILES IDX 31 97 29 98 30 99
REMARK H PARENT 3 7 89 25 57 36 10 78
REMARK Flexibility Score: inf
ROOT
ATOM      1  C   UNL     1       4.299  -2.056   3.158  1.00  0.00     0.002 C 
ENDROOT
BRANCH   1   2
ATOM      2  C   UNL     1       4.806  -0.823   2.406  1.00  0.00     0.021 C 
BRANCH   2   3
ATOM      3  C   UNL     1       4.528  -0.805   0.906  1.00  0.00     0.116 C 
BRANCH   3   4
ATOM      4  N   UNL     1       3.112  -0.872   0.599  1.00  0.00    -0.352 N 
ATOM      5  O   UNL     1       1.129  -0.185  -0.203  1.00  0.00    -0.269 OA
ATOM      6  C   UNL     1       2.349  -0.049  -0.191  1.00  0.00     0.251 C 
ATOM      7  H   UNL     1       2.626  -1.618   1.020  1.00  0.00     0.163 HD
BRANCH   6   8
ATOM      8  C   UNL     1       2.990   1.013  -0.998  1.00  0.00     0.039 A 
ATOM      9  C   UNL     1       4.130   0.755  -1.767  1.00  0.00     0.014 A 
ATOM     10  C   UNL     1       2.416   2.287  -1.003  1.00  0.00     0.014 A 
ATOM     11  C   UNL     1       4.757   1.795  -2.453  1.00  0.00     0.010 A 
ATOM     12  C   UNL     1       3.011   3.313  -1.738  1.00  0.00     0.010 A 
ATOM     13  C   UNL     1       4.200   3.082  -2.448  1.00  0.00    -0.014 A 
BRANCH  13  14
ATOM     14  C   UNL     1       4.823   4.179  -3.229  1.00  0.00     0.031 A 
ATOM     15  C   UNL     1       5.408   5.378  -2.537  1.00  0.00     0.074 A 
ATOM     16  C   UNL     1       4.794   4.122  -4.574  1.00  0.00     0.049 A 
ATOM     17  N   UNL     1       5.910   6.466  -3.060  1.00  0.00    -0.248 NA
ATOM     18  C   UNL     1       5.422   5.356  -1.066  1.00  0.00     0.031 C 
ATOM     19  C   UNL     1       4.213   3.028  -5.355  1.00  0.00     0.029 A 
ATOM     20  N   UNL     1       5.229   5.015  -5.520  1.00  0.00    -0.354 N 
ATOM     21  C   UNL     1       6.259   7.278  -1.988  1.00  0.00     0.074 A 
ATOM     22  C   UNL     1       5.910   6.557  -0.782  1.00  0.00     0.031 C 
ATOM     23  C   UNL     1       4.311   3.322  -6.660  1.00  0.00     0.029 A 
ATOM     24  C   UNL     1       4.920   4.640  -6.806  1.00  0.00     0.049 A 
ATOM     25  H   UNL     1       5.714   5.843  -5.300  1.00  0.00     0.167 HD
ATOM     26  C   UNL     1       6.830   8.506  -2.007  1.00  0.00     0.034 A 
ATOM     27  C   UNL     1       5.080   5.294  -7.973  1.00  0.00     0.034 A 
ATOM     28  C   UNL     1       7.206   9.203  -3.208  1.00  0.00     0.049 A 
ATOM     29  C   UNL     1       5.736   6.644  -7.971  1.00  0.00     0.074 A 
ATOM     30  C   UNL     1       7.858  10.417  -3.330  1.00  0.00     0.029 A 
ATOM     31  N   UNL     1       6.957   8.752  -4.496  1.00  0.00    -0.354 N 
ATOM     32  N   UNL     1       6.185   7.337  -6.952  1.00  0.00    -0.248 NA
ATOM     33  C   UNL     1       5.940   7.291  -9.275  1.00  0.00     0.031 C 
ATOM     34  C   UNL     1       7.992  10.707  -4.693  1.00  0.00     0.029 A 
ATOM     35  C   UNL     1       7.435   9.666  -5.419  1.00  0.00     0.049 A 
ATOM     36  H   UNL     1       6.505   7.906  -4.720  1.00  0.00     0.167 HD
ATOM     37  C   UNL     1       6.751   8.486  -7.491  1.00  0.00     0.074 A 
ATOM     38  C   UNL     1       6.599   8.390  -8.929  1.00  0.00     0.031 C 
ATOM     39  C   UNL     1       7.331   9.530  -6.850  1.00  0.00     0.034 A 
BRANCH  26  40
ATOM     40  C   UNL     1       7.121   9.162  -0.683  1.00  0.00     0.023 A 
ATOM     41  C   UNL     1       8.202   8.701   0.095  1.00  0.00     0.012 A 
ATOM     42  C   UNL     1       6.363  10.258  -0.231  1.00  0.00     0.148 A 
ATOM     43  C   UNL     1       8.505   9.302   1.316  1.00  0.00     0.002 A 
ATOM     44  C   UNL     1       6.693  10.875   0.971  1.00  0.00     0.091 A 
ATOM     45  F   UNL     1       5.320  10.668  -0.969  1.00  0.00    -0.205 F 
ATOM     46  C   UNL     1       7.757  10.394   1.750  1.00  0.00     0.022 A 
BRANCH  44  47
ATOM     47  S   UNL     1       5.819  12.329   1.564  1.00  0.00     0.127 S 
ATOM     48  O   UNL     1       4.862  11.739   2.498  1.00  0.00    -0.237 OA
ATOM     49  O   UNL     1       6.887  13.105   2.198  1.00  0.00    -0.237 OA
ATOM     50  O   UNL     1       5.251  12.952   0.377  1.00  0.00    -0.744 OA
ENDBRANCH  44  47
ENDBRANCH  26  40
BRANCH  27  51
ATOM     51  C   UNL     1       4.645   4.635  -9.236  1.00  0.00     0.023 A 
ATOM     52  C   UNL     1       5.616   4.126 -10.118  1.00  0.00     0.012 A 
ATOM     53  C   UNL     1       3.280   4.425  -9.515  1.00  0.00     0.148 A 
ATOM     54  C   UNL     1       5.234   3.425 -11.262  1.00  0.00     0.002 A 
ATOM     55  C   UNL     1       2.909   3.679 -10.627  1.00  0.00     0.091 A 
ATOM     56  F   UNL     1       2.374   4.929  -8.665  1.00  0.00    -0.205 F 
ATOM     57  C   UNL     1       3.884   3.188 -11.509  1.00  0.00     0.022 A 
BRANCH  55  58
ATOM     58  S   UNL     1       1.206   3.201 -10.943  1.00  0.00     0.127 S 
ATOM     59  O   UNL     1       0.890   3.993 -12.129  1.00  0.00    -0.237 OA
ATOM     60  O   UNL     1       1.336   1.762 -11.178  1.00  0.00    -0.237 OA
ATOM     61  O   UNL     1       0.468   3.548  -9.736  1.00  0.00    -0.744 OA
ENDBRANCH  55  58
ENDBRANCH  27  51
BRANCH  39  62
ATOM     62  C   UNL     1       7.884  10.649  -7.690  1.00  0.00     0.023 A 
ATOM     63  C   UNL     1       7.006  11.591  -8.261  1.00  0.00     0.012 A 
ATOM     64  C   UNL     1       9.275  10.826  -7.822  1.00  0.00     0.148 A 
ATOM     65  C   UNL     1       7.505  12.686  -8.964  1.00  0.00     0.002 A 
ATOM     66  C   UNL     1       9.766  11.942  -8.489  1.00  0.00     0.091 A 
ATOM     67  F   UNL     1      10.090   9.906  -7.287  1.00  0.00    -0.205 F 
ATOM     68  C   UNL     1       8.883  12.869  -9.067  1.00  0.00     0.022 A 
BRANCH  66  69
ATOM     69  S   UNL     1      11.523  12.306  -8.592  1.00  0.00     0.127 S 
ATOM     70  O   UNL     1      11.806  12.009  -9.995  1.00  0.00    -0.237 OA
ATOM     71  O   UNL     1      11.567  13.727  -8.247  1.00  0.00    -0.237 OA
ATOM     72  O   UNL     1      12.170  11.430  -7.625  1.00  0.00    -0.744 OA
ENDBRANCH  66  69
ENDBRANCH  39  62
ENDBRANCH  13  14
ENDBRANCH   6   8
ENDBRANCH   3   4
ENDBRANCH   2   3
ENDBRANCH   1   2
BRANCH   1  73
ATOM     73  C   UNL     1       4.728  -3.410   2.586  1.00  0.00     0.002 C 
BRANCH  73  74
ATOM     74  C   UNL     1       6.234  -3.602   2.377  1.00  0.00     0.021 C 
BRANCH  74  75
ATOM     75  C   UNL     1       7.095  -3.409   3.621  1.00  0.00     0.116 C 
BRANCH  75  76
ATOM     76  N   UNL     1       6.819  -4.404   4.642  1.00  0.00    -0.352 N 
ATOM     77  C   UNL     1       7.689  -5.126   5.417  1.00  0.00     0.251 C 
ATOM     78  H   UNL     1       5.865  -4.588   4.802  1.00  0.00     0.163 HD
ATOM     79  O   UNL     1       7.277  -6.053   6.108  1.00  0.00    -0.269 OA
BRANCH  77  80
ATOM     80  C   UNL     1       9.131  -4.794   5.441  1.00  0.00     0.041 A 
ATOM     81  C   UNL     1      10.063  -5.837   5.438  1.00  0.00     0.022 A 
ATOM     82  C   UNL     1       9.559  -3.474   5.574  1.00  0.00     0.035 A 
ATOM     83  C   UNL     1      11.441  -5.575   5.535  1.00  0.00    -0.013 A 
ATOM     84  C   UNL     1      10.918  -3.192   5.646  1.00  0.00     0.084 A 
ATOM     85  C   UNL     1      11.857  -4.235   5.624  1.00  0.00     0.030 A 
BRANCH  83  86
ATOM     86  C   UNL     1      12.399  -6.681   5.587  1.00  0.00     0.018 A 
ATOM     87  C   UNL     1      13.291  -6.853   6.634  1.00  0.00     0.123 A 
ATOM     88  C   UNL     1      12.466  -7.677   4.626  1.00  0.00     0.123 A 
ATOM     89  N   UNL     1      14.152  -7.889   6.744  1.00  0.00    -0.244 NA
ATOM     90  N   UNL     1      13.303  -8.737   4.679  1.00  0.00    -0.244 NA
ATOM     91  C   UNL     1      14.107  -8.787   5.750  1.00  0.00     0.221 A 
ENDBRANCH  83  86
BRANCH  84  92
ATOM     92  S   UNL     1      11.537  -1.527   5.803  1.00  0.00     0.243 S 
ATOM     93  O   UNL     1      12.192  -1.477   7.093  1.00  0.00    -0.207 OA
ATOM     94  O   UNL     1      12.248  -1.260   4.572  1.00  0.00    -0.207 OA
BRANCH  92  95
ATOM     95  N   UNL     1      10.213  -0.507   5.862  1.00  0.00    -0.198 NA
ATOM     96  C   UNL     1       9.371  -0.389   7.062  1.00  0.00     0.102 C 
ATOM     97  C   UNL     1       9.474  -0.125   4.651  1.00  0.00     0.102 C 
ATOM     98  C   UNL     1       7.963  -0.180   6.516  1.00  0.00     0.018 C 
ATOM     99  C   UNL     1       8.193   0.511   5.182  1.00  0.00     0.018 C 
ENDBRANCH  92  95
ENDBRANCH  84  92
ENDBRANCH  77  80
ENDBRANCH  75  76
ENDBRANCH  74  75
ENDBRANCH  73  74
ENDBRANCH   1  73
TORSDOF 19
