REMARK SMILES C[C@@H]1[C@H](C(=O)NCCCCCCNC(=O)c2ccc(-c3c4nc(c(-c5cccc(S(=O)(=O)[O-])c5F)c5ccc([nH]5)c(-c5cccc(S(=O)(=O)[O-])c5F)c5nc(c(-c6cccc(S(=O)(=O)[O-])c6F)c6ccc3[nH]6)C=C5)C=C4)cc2)CCN1C(=O)COCc1ccccc1
REMARK SMILES IDX 8 1 7 2 6 3 4 4 5 5 3 7 1 8 2 9 81 10 79 11 80 12 82 13
REMARK SMILES IDX 83 14 84 15 85 16 86 17 87 18 88 19 92 20 89 21 91 22 90 23
REMARK SMILES IDX 9 24 10 25 11 26 12 27 13 28 14 29 15 31 16 32 17 33 78 34
REMARK SMILES IDX 18 35 77 36 19 37 20 38 21 39 71 40 22 41 76 42 70 43 72 44
REMARK SMILES IDX 23 45 75 46 69 47 68 48 24 50 56 51 36 52 55 53 37 54 40 55
REMARK SMILES IDX 54 56 73 57 38 58 39 59 53 61 74 62 41 63 25 64 26 65 34 66
REMARK SMILES IDX 27 67 29 68 35 69 28 70 30 71 31 72 32 73 33 74 57 75 58 76
REMARK SMILES IDX 66 77 59 78 61 79 67 80 60 81 62 82 63 83 64 84 65 85 42 86
REMARK SMILES IDX 43 87 51 88 44 89 46 90 52 91 45 92 47 93 48 94 49 95 50 96
REMARK H PARENT 6 6 13 30 72 49 40 60
REMARK Flexibility Score: inf
ROOT
ATOM      1  C   UNL     1       2.820   1.577   2.515  1.00  0.00     0.021 C 
ENDROOT
BRANCH   1   2
ATOM      2  C   UNL     1       1.351   1.800   2.157  1.00  0.00     0.116 C 
BRANCH   2   3
ATOM      3  N   UNL     1       1.215   2.639   0.978  1.00  0.00    -0.356 N 
ATOM      4  C   UNL     1       0.652   2.413  -0.236  1.00  0.00     0.225 C 
ATOM      5  O   UNL     1       0.787   3.298  -1.088  1.00  0.00    -0.275 OA
ATOM      6  H   UNL     1       1.603   3.538   1.079  1.00  0.00     0.163 HD
BRANCH   4   7
ATOM      7  C   UNL     1      -0.121   1.151  -0.587  1.00  0.00     0.102 C 
ATOM      8  C   UNL     1       2.075  -0.235  -0.269  1.00  0.00     0.032 C 
ATOM      9  C   UNL     1       0.658  -0.162  -0.823  1.00  0.00     0.094 C 
ATOM     10  N   UNL     1      -0.247  -1.210  -0.317  1.00  0.00    -0.337 N 
ATOM     11  C   UNL     1      -1.275   0.816   0.356  1.00  0.00     0.037 C 
ATOM     12  C   UNL     1      -1.511  -0.662   0.137  1.00  0.00     0.121 C 
BRANCH  10  13
ATOM     13  C   UNL     1      -0.150  -2.582  -0.465  1.00  0.00     0.248 C 
ATOM     14  O   UNL     1      -1.095  -3.325  -0.187  1.00  0.00    -0.272 OA
BRANCH  13  15
ATOM     15  C   UNL     1       1.169  -3.175  -0.968  1.00  0.00     0.260 C 
BRANCH  15  16
ATOM     16  O   UNL     1       1.635  -2.712  -2.231  1.00  0.00    -0.367 OA
BRANCH  16  17
ATOM     17  C   UNL     1       0.776  -3.063  -3.318  1.00  0.00     0.196 C 
BRANCH  17  18
ATOM     18  C   UNL     1       0.736  -4.554  -3.526  1.00  0.00    -0.022 A 
ATOM     19  C   UNL     1      -0.480  -5.245  -3.466  1.00  0.00     0.006 A 
ATOM     20  C   UNL     1       1.929  -5.274  -3.689  1.00  0.00     0.006 A 
ATOM     21  C   UNL     1      -0.499  -6.638  -3.538  1.00  0.00     0.000 A 
ATOM     22  C   UNL     1       1.907  -6.665  -3.755  1.00  0.00     0.000 A 
ATOM     23  C   UNL     1       0.694  -7.346  -3.674  1.00  0.00     0.000 A 
ENDBRANCH  17  18
ENDBRANCH  16  17
ENDBRANCH  15  16
ENDBRANCH  13  15
ENDBRANCH  10  13
ENDBRANCH   4   7
ENDBRANCH   2   3
ENDBRANCH   1   2
BRANCH   1  24
ATOM     24  C   UNL     1       3.516   2.777   3.157  1.00  0.00     0.002 C 
BRANCH  24  25
ATOM     25  C   UNL     1       2.956   3.203   4.515  1.00  0.00     0.002 C 
BRANCH  25  26
ATOM     26  C   UNL     1       2.836   2.088   5.558  1.00  0.00     0.021 C 
BRANCH  26  27
ATOM     27  C   UNL     1       4.109   1.281   5.803  1.00  0.00     0.116 C 
BRANCH  27  28
ATOM     28  N   UNL     1       5.210   2.115   6.250  1.00  0.00    -0.352 N 
ATOM     29  C   UNL     1       5.982   2.010   7.380  1.00  0.00     0.251 C 
ATOM     30  H   UNL     1       5.436   2.866   5.656  1.00  0.00     0.163 HD
ATOM     31  O   UNL     1       6.745   2.924   7.681  1.00  0.00    -0.269 OA
BRANCH  29  32
ATOM     32  C   UNL     1       5.890   0.808   8.238  1.00  0.00     0.039 A 
ATOM     33  C   UNL     1       5.850   0.977   9.624  1.00  0.00     0.014 A 
ATOM     34  C   UNL     1       5.881  -0.477   7.687  1.00  0.00     0.014 A 
ATOM     35  C   UNL     1       5.764  -0.142  10.456  1.00  0.00     0.010 A 
ATOM     36  C   UNL     1       5.729  -1.587   8.515  1.00  0.00     0.010 A 
ATOM     37  C   UNL     1       5.685  -1.433   9.909  1.00  0.00    -0.014 A 
BRANCH  37  38
ATOM     38  C   UNL     1       5.569  -2.626  10.786  1.00  0.00     0.031 A 
ATOM     39  C   UNL     1       6.673  -3.648  10.831  1.00  0.00     0.074 A 
ATOM     40  C   UNL     1       4.442  -2.821  11.498  1.00  0.00     0.049 A 
ATOM     41  N   UNL     1       6.748  -4.750  11.532  1.00  0.00    -0.248 NA
ATOM     42  C   UNL     1       7.836  -3.417   9.957  1.00  0.00     0.031 C 
ATOM     43  C   UNL     1       3.267  -1.947  11.476  1.00  0.00     0.029 A 
ATOM     44  N   UNL     1       4.092  -3.826  12.364  1.00  0.00    -0.354 N 
ATOM     45  C   UNL     1       7.943  -5.356  11.165  1.00  0.00     0.074 A 
ATOM     46  C   UNL     1       8.546  -4.519  10.150  1.00  0.00     0.031 C 
ATOM     47  C   UNL     1       2.330  -2.450  12.295  1.00  0.00     0.029 A 
ATOM     48  C   UNL     1       2.827  -3.689  12.886  1.00  0.00     0.049 A 
ATOM     49  H   UNL     1       4.690  -4.574  12.591  1.00  0.00     0.167 HD
ATOM     50  C   UNL     1       8.507  -6.488  11.650  1.00  0.00     0.034 A 
ATOM     51  C   UNL     1       2.146  -4.471  13.747  1.00  0.00     0.034 A 
ATOM     52  C   UNL     1       7.930  -7.291  12.694  1.00  0.00     0.049 A 
ATOM     53  C   UNL     1       2.817  -5.694  14.312  1.00  0.00     0.074 A 
ATOM     54  C   UNL     1       8.466  -8.402  13.322  1.00  0.00     0.029 A 
ATOM     55  N   UNL     1       6.684  -7.073  13.263  1.00  0.00    -0.354 N 
ATOM     56  N   UNL     1       4.023  -6.155  14.080  1.00  0.00    -0.248 NA
ATOM     57  C   UNL     1       2.050  -6.483  15.286  1.00  0.00     0.031 C 
ATOM     58  C   UNL     1       7.536  -8.865  14.260  1.00  0.00     0.029 A 
ATOM     59  C   UNL     1       6.429  -8.032  14.228  1.00  0.00     0.049 A 
ATOM     60  H   UNL     1       6.071  -6.343  13.016  1.00  0.00     0.167 HD
ATOM     61  C   UNL     1       4.170  -7.267  14.901  1.00  0.00     0.074 A 
ATOM     62  C   UNL     1       2.940  -7.395  15.655  1.00  0.00     0.031 C 
ATOM     63  C   UNL     1       5.221  -8.117  15.008  1.00  0.00     0.034 A 
BRANCH  50  64
ATOM     64  C   UNL     1       9.852  -6.891  11.103  1.00  0.00     0.023 A 
ATOM     65  C   UNL     1      10.994  -6.143  11.456  1.00  0.00     0.012 A 
ATOM     66  C   UNL     1       9.998  -8.034  10.293  1.00  0.00     0.148 A 
ATOM     67  C   UNL     1      12.255  -6.505  10.986  1.00  0.00     0.002 A 
ATOM     68  C   UNL     1      11.265  -8.413   9.862  1.00  0.00     0.091 A 
ATOM     69  F   UNL     1       8.899  -8.720   9.949  1.00  0.00    -0.205 F 
ATOM     70  C   UNL     1      12.392  -7.645  10.198  1.00  0.00     0.022 A 
BRANCH  68  71
ATOM     71  S   UNL     1      11.557  -9.906   8.905  1.00  0.00     0.127 S 
ATOM     72  O   UNL     1      11.863  -9.356   7.586  1.00  0.00    -0.237 OA
ATOM     73  O   UNL     1      12.701 -10.498   9.599  1.00  0.00    -0.237 OA
ATOM     74  O   UNL     1      10.328 -10.682   8.991  1.00  0.00    -0.744 OA
ENDBRANCH  68  71
ENDBRANCH  50  64
BRANCH  51  75
ATOM     75  C   UNL     1       0.780  -4.073  14.191  1.00  0.00     0.023 A 
ATOM     76  C   UNL     1       0.586  -3.628  15.513  1.00  0.00     0.012 A 
ATOM     77  C   UNL     1      -0.317  -4.102  13.309  1.00  0.00     0.148 A 
ATOM     78  C   UNL     1      -0.680  -3.247  15.958  1.00  0.00     0.002 A 
ATOM     79  C   UNL     1      -1.565  -3.669  13.743  1.00  0.00     0.091 A 
ATOM     80  F   UNL     1      -0.117  -4.542  12.059  1.00  0.00    -0.205 F 
ATOM     81  C   UNL     1      -1.753  -3.258  15.071  1.00  0.00     0.022 A 
BRANCH  79  82
ATOM     82  S   UNL     1      -2.969  -3.522  12.631  1.00  0.00     0.127 S 
ATOM     83  O   UNL     1      -3.796  -4.654  13.041  1.00  0.00    -0.237 OA
ATOM     84  O   UNL     1      -3.503  -2.207  12.987  1.00  0.00    -0.237 OA
ATOM     85  O   UNL     1      -2.411  -3.595  11.287  1.00  0.00    -0.744 OA
ENDBRANCH  79  82
ENDBRANCH  51  75
BRANCH  63  86
ATOM     86  C   UNL     1       5.103  -9.252  15.990  1.00  0.00     0.023 A 
ATOM     87  C   UNL     1       4.259 -10.342  15.696  1.00  0.00     0.012 A 
ATOM     88  C   UNL     1       5.879  -9.276  17.166  1.00  0.00     0.148 A 
ATOM     89  C   UNL     1       4.165 -11.422  16.572  1.00  0.00     0.002 A 
ATOM     90  C   UNL     1       5.815 -10.378  18.011  1.00  0.00     0.091 A 
ATOM     91  F   UNL     1       6.661  -8.221  17.438  1.00  0.00    -0.205 F 
ATOM     92  C   UNL     1       4.950 -11.446  17.722  1.00  0.00     0.022 A 
BRANCH  90  93
ATOM     93  S   UNL     1       6.860 -10.535  19.464  1.00  0.00     0.127 S 
ATOM     94  O   UNL     1       5.912 -10.268  20.544  1.00  0.00    -0.237 OA
ATOM     95  O   UNL     1       7.309 -11.925  19.377  1.00  0.00    -0.237 OA
ATOM     96  O   UNL     1       7.921  -9.549  19.300  1.00  0.00    -0.744 OA
ENDBRANCH  90  93
ENDBRANCH  63  86
ENDBRANCH  37  38
ENDBRANCH  29  32
ENDBRANCH  27  28
ENDBRANCH  26  27
ENDBRANCH  25  26
ENDBRANCH  24  25
ENDBRANCH   1  24
TORSDOF 21
