REMARK SMILES CC1=NN(c2ccc(C(=O)NCCCCCCNC(=O)c3ccc(-c4c5nc(c(-c6cccc(S(=O)(=O)[O-])c6F)c6ccc([nH]6)c(-c6cccc(S(=O)(=O)[O-])c6F)c6nc(c(-c7cccc(S(=O)(=O)[O-])c7F)c7ccc4[nH]7)C=C6)C=C5)cc3)cc2)C(=O)/C1=C\c1ccc(N2CCCC2)cc1
REMARK SMILES IDX 14 1 13 2 12 3 11 4 9 5 10 6 8 8 5 9 6 10 85 11 7 12 84 13
REMARK SMILES IDX 4 14 1 15 2 16 3 17 88 18 86 19 89 20 87 21 90 22 91 23
REMARK SMILES IDX 100 24 92 25 99 26 93 27 94 28 95 29 98 30 96 31 97 32 15 33
REMARK SMILES IDX 16 34 17 35 18 36 19 37 20 39 21 40 22 41 83 42 23 43 82 44
REMARK SMILES IDX 24 45 25 46 26 47 76 48 27 49 81 50 75 51 77 52 28 53 80 54
REMARK SMILES IDX 74 55 73 56 29 58 61 59 41 60 60 61 42 62 45 63 59 64 78 65
REMARK SMILES IDX 43 66 44 67 58 69 79 70 46 71 30 72 31 73 39 74 32 75 34 76
REMARK SMILES IDX 40 77 33 78 35 79 36 80 37 81 38 82 62 83 63 84 71 85 64 86
REMARK SMILES IDX 66 87 72 88 65 89 67 90 68 91 69 92 70 93 47 94 48 95 56 96
REMARK SMILES IDX 49 97 51 98 57 99 50 100 52 101 53 102 54 103 55 104
REMARK H PARENT 11 7 18 38 77 57 45 68
REMARK Flexibility Score: inf
ROOT
ATOM      1  C   UNL     1       5.094   7.707  -3.646  1.00  0.00     0.002 C 
ENDROOT
BRANCH   1   2
ATOM      2  C   UNL     1       4.332   6.431  -3.262  1.00  0.00     0.021 C 
BRANCH   2   3
ATOM      3  C   UNL     1       4.736   5.898  -1.885  1.00  0.00     0.116 C 
BRANCH   3   4
ATOM      4  N   UNL     1       4.059   6.661  -0.851  1.00  0.00    -0.352 N 
ATOM      5  C   UNL     1       2.927   6.434  -0.111  1.00  0.00     0.251 C 
ATOM      6  O   UNL     1       2.573   7.321   0.668  1.00  0.00    -0.269 OA
ATOM      7  H   UNL     1       4.504   7.513  -0.637  1.00  0.00     0.163 HD
BRANCH   5   8
ATOM      8  C   UNL     1       2.161   5.156  -0.149  1.00  0.00     0.039 A 
ATOM      9  C   UNL     1       0.900   2.657   0.074  1.00  0.00     0.069 A 
ATOM     10  C   UNL     1       0.729   3.604   1.081  1.00  0.00     0.029 A 
ATOM     11  C   UNL     1       1.611   2.993  -1.079  1.00  0.00     0.029 A 
ATOM     12  C   UNL     1       1.393   4.833   0.985  1.00  0.00     0.016 A 
ATOM     13  C   UNL     1       2.173   4.260  -1.216  1.00  0.00     0.016 A 
BRANCH   9  14
ATOM     14  N   UNL     1       0.394   1.361   0.210  1.00  0.00    -0.196 N 
ATOM     15  C   UNL     1      -2.533  -0.709   0.141  1.00  0.00     0.069 C 
ATOM     16  C   UNL     1      -1.176  -0.092   0.179  1.00  0.00     0.071 C 
ATOM     17  N   UNL     1      -0.971   1.187   0.363  1.00  0.00    -0.169 NA
ATOM     18  C   UNL     1       0.079  -0.849   0.004  1.00  0.00     0.065 C 
ATOM     19  C   UNL     1       1.125   0.199  -0.069  1.00  0.00     0.280 C 
ATOM     20  C   UNL     1       0.231  -2.179  -0.003  1.00  0.00     0.024 C 
ATOM     21  O   UNL     1       2.303   0.062  -0.314  1.00  0.00    -0.267 OA
BRANCH  20  22
ATOM     22  C   UNL     1       1.541  -2.839   0.044  1.00  0.00    -0.025 A 
ATOM     23  C   UNL     1       2.008  -3.606  -1.022  1.00  0.00     0.010 A 
ATOM     24  C   UNL     1       2.350  -2.699   1.177  1.00  0.00     0.010 A 
ATOM     25  C   UNL     1       3.281  -4.194  -0.960  1.00  0.00     0.026 A 
ATOM     26  C   UNL     1       3.611  -3.302   1.231  1.00  0.00     0.026 A 
ATOM     27  C   UNL     1       4.106  -4.061   0.167  1.00  0.00     0.037 A 
BRANCH  27  28
ATOM     28  N   UNL     1       5.360  -4.626   0.193  1.00  0.00    -0.372 N 
ATOM     29  C   UNL     1       6.011  -5.143   1.389  1.00  0.00     0.116 C 
ATOM     30  C   UNL     1       6.337  -4.261  -0.839  1.00  0.00     0.116 C 
ATOM     31  C   UNL     1       7.460  -4.698   1.234  1.00  0.00     0.023 C 
ATOM     32  C   UNL     1       7.673  -4.745  -0.271  1.00  0.00     0.023 C 
ENDBRANCH  27  28
ENDBRANCH  20  22
ENDBRANCH   9  14
ENDBRANCH   5   8
ENDBRANCH   3   4
ENDBRANCH   2   3
ENDBRANCH   1   2
BRANCH   1  33
ATOM     33  C   UNL     1       6.609   7.520  -3.787  1.00  0.00     0.002 C 
BRANCH  33  34
ATOM     34  C   UNL     1       7.028   6.439  -4.788  1.00  0.00     0.021 C 
BRANCH  34  35
ATOM     35  C   UNL     1       6.582   6.717  -6.219  1.00  0.00     0.116 C 
BRANCH  35  36
ATOM     36  N   UNL     1       7.203   7.927  -6.740  1.00  0.00    -0.352 N 
ATOM     37  C   UNL     1       8.019   8.079  -7.832  1.00  0.00     0.251 C 
ATOM     38  H   UNL     1       7.009   8.752  -6.239  1.00  0.00     0.163 HD
ATOM     39  O   UNL     1       8.667   9.111  -7.979  1.00  0.00    -0.269 OA
BRANCH  37  40
ATOM     40  C   UNL     1       8.115   6.990  -8.826  1.00  0.00     0.039 A 
ATOM     41  C   UNL     1       9.369   6.625  -9.318  1.00  0.00     0.014 A 
ATOM     42  C   UNL     1       6.963   6.337  -9.274  1.00  0.00     0.014 A 
ATOM     43  C   UNL     1       9.473   5.565 -10.221  1.00  0.00     0.010 A 
ATOM     44  C   UNL     1       7.076   5.234 -10.114  1.00  0.00     0.010 A 
ATOM     45  C   UNL     1       8.331   4.840 -10.601  1.00  0.00    -0.014 A 
BRANCH  45  46
ATOM     46  C   UNL     1       8.427   3.660 -11.497  1.00  0.00     0.031 A 
ATOM     47  C   UNL     1       7.742   3.672 -12.838  1.00  0.00     0.074 A 
ATOM     48  C   UNL     1       9.061   2.550 -11.069  1.00  0.00     0.049 A 
ATOM     49  N   UNL     1       7.644   2.713 -13.721  1.00  0.00    -0.248 NA
ATOM     50  C   UNL     1       7.060   4.918 -13.229  1.00  0.00     0.031 C 
ATOM     51  C   UNL     1       9.709   2.396  -9.764  1.00  0.00     0.029 A 
ATOM     52  N   UNL     1       9.241   1.331 -11.673  1.00  0.00    -0.354 N 
ATOM     53  C   UNL     1       6.873   3.226 -14.757  1.00  0.00     0.074 A 
ATOM     54  C   UNL     1       6.495   4.570 -14.377  1.00  0.00     0.031 C 
ATOM     55  C   UNL     1      10.217   1.156  -9.668  1.00  0.00     0.029 A 
ATOM     56  C   UNL     1       9.898   0.416 -10.883  1.00  0.00     0.049 A 
ATOM     57  H   UNL     1       8.930   1.131 -12.585  1.00  0.00     0.167 HD
ATOM     58  C   UNL     1       6.535   2.645 -15.932  1.00  0.00     0.034 A 
ATOM     59  C   UNL     1      10.195  -0.879 -11.108  1.00  0.00     0.034 A 
ATOM     60  C   UNL     1       6.938   1.319 -16.319  1.00  0.00     0.049 A 
ATOM     61  C   UNL     1       9.804  -1.498 -12.424  1.00  0.00     0.074 A 
ATOM     62  C   UNL     1       6.695   0.661 -17.512  1.00  0.00     0.029 A 
ATOM     63  N   UNL     1       7.661   0.447 -15.522  1.00  0.00    -0.354 N 
ATOM     64  N   UNL     1       9.193  -0.950 -13.446  1.00  0.00    -0.248 NA
ATOM     65  C   UNL     1      10.174  -2.906 -12.631  1.00  0.00     0.031 C 
ATOM     66  C   UNL     1       7.250  -0.619 -17.426  1.00  0.00     0.029 A 
ATOM     67  C   UNL     1       7.869  -0.746 -16.193  1.00  0.00     0.049 A 
ATOM     68  H   UNL     1       7.981   0.646 -14.612  1.00  0.00     0.167 HD
ATOM     69  C   UNL     1       9.143  -1.931 -14.431  1.00  0.00     0.074 A 
ATOM     70  C   UNL     1       9.809  -3.098 -13.890  1.00  0.00     0.031 C 
ATOM     71  C   UNL     1       8.584  -1.878 -15.664  1.00  0.00     0.034 A 
BRANCH  58  72
ATOM     72  C   UNL     1       5.734   3.457 -16.916  1.00  0.00     0.023 A 
ATOM     73  C   UNL     1       6.350   4.532 -17.591  1.00  0.00     0.012 A 
ATOM     74  C   UNL     1       4.406   3.112 -17.235  1.00  0.00     0.148 A 
ATOM     75  C   UNL     1       5.649   5.267 -18.546  1.00  0.00     0.002 A 
ATOM     76  C   UNL     1       3.729   3.820 -18.221  1.00  0.00     0.091 A 
ATOM     77  F   UNL     1       3.833   2.098 -16.572  1.00  0.00    -0.205 F 
ATOM     78  C   UNL     1       4.345   4.904 -18.869  1.00  0.00     0.022 A 
BRANCH  76  79
ATOM     79  S   UNL     1       2.075   3.386 -18.771  1.00  0.00     0.127 S 
ATOM     80  O   UNL     1       1.305   4.552 -18.337  1.00  0.00    -0.237 OA
ATOM     81  O   UNL     1       2.253   3.278 -20.219  1.00  0.00    -0.237 OA
ATOM     82  O   UNL     1       1.740   2.138 -18.100  1.00  0.00    -0.744 OA
ENDBRANCH  76  79
ENDBRANCH  58  72
BRANCH  59  83
ATOM     83  C   UNL     1      10.936  -1.676 -10.087  1.00  0.00     0.023 A 
ATOM     84  C   UNL     1      12.243  -2.119 -10.371  1.00  0.00     0.012 A 
ATOM     85  C   UNL     1      10.353  -2.011  -8.850  1.00  0.00     0.148 A 
ATOM     86  C   UNL     1      12.935  -2.924  -9.465  1.00  0.00     0.002 A 
ATOM     87  C   UNL     1      11.070  -2.764  -7.927  1.00  0.00     0.091 A 
ATOM     88  F   UNL     1       9.105  -1.590  -8.600  1.00  0.00    -0.205 F 
ATOM     89  C   UNL     1      12.352  -3.241  -8.241  1.00  0.00     0.022 A 
BRANCH  87  90
ATOM     90  S   UNL     1      10.447  -3.111  -6.279  1.00  0.00     0.127 S 
ATOM     91  O   UNL     1      10.125  -4.532  -6.371  1.00  0.00    -0.237 OA
ATOM     92  O   UNL     1      11.606  -2.795  -5.443  1.00  0.00    -0.237 OA
ATOM     93  O   UNL     1       9.313  -2.215  -6.092  1.00  0.00    -0.744 OA
ENDBRANCH  87  90
ENDBRANCH  59  83
BRANCH  71  94
ATOM     94  C   UNL     1       8.709  -3.097 -16.540  1.00  0.00     0.023 A 
ATOM     95  C   UNL     1       7.976  -4.261 -16.238  1.00  0.00     0.012 A 
ATOM     96  C   UNL     1       9.506  -3.064 -17.702  1.00  0.00     0.148 A 
ATOM     97  C   UNL     1       8.064  -5.387 -17.056  1.00  0.00     0.002 A 
ATOM     98  C   UNL     1       9.547  -4.170 -18.541  1.00  0.00     0.091 A 
ATOM     99  F   UNL     1      10.209  -1.952 -17.964  1.00  0.00    -0.205 F 
ATOM    100  C   UNL     1       8.839  -5.338 -18.212  1.00  0.00     0.022 A 
BRANCH  98 101
ATOM    101  S   UNL     1      10.437  -4.167 -20.101  1.00  0.00     0.127 S 
ATOM    102  O   UNL     1      11.541  -5.082 -19.816  1.00  0.00    -0.237 OA
ATOM    103  O   UNL     1       9.434  -4.690 -21.029  1.00  0.00    -0.237 OA
ATOM    104  O   UNL     1      10.822  -2.783 -20.343  1.00  0.00    -0.744 OA
ENDBRANCH  98 101
ENDBRANCH  71  94
ENDBRANCH  45  46
ENDBRANCH  37  40
ENDBRANCH  35  36
ENDBRANCH  34  35
ENDBRANCH  33  34
ENDBRANCH   1  33
TORSDOF 19
