REMARK SMILES C[C@@](NC(=O)[C@H]1COc2ccccc21)(C(=O)NCCCCCCNC(=O)c1ccc(-c2c3nc(c(-c4cccc(S(=O)(=O)[O-])c4F)c4ccc([nH]4)c(-c4cccc(S(=O)(=O)[O-])c4F)c4nc(c(-c5cccc(S(=O)(=O)[O-])c5F)c5ccc2[nH]5)C=C4)C=C3)cc1)C(F)(F)F
REMARK SMILES IDX 21 1 20 2 19 3 18 4 17 5 15 6 16 7 2 9 1 10 3 11 4 12 5 14
REMARK SMILES IDX 6 15 7 16 14 17 8 18 9 19 13 20 10 21 12 22 11 23 90 24
REMARK SMILES IDX 91 25 92 26 93 27 22 28 23 29 24 30 25 31 26 33 27 34 28 35
REMARK SMILES IDX 89 36 29 37 88 38 30 39 31 40 32 41 82 42 33 43 87 44 81 45
REMARK SMILES IDX 83 46 34 47 86 48 80 49 79 50 35 52 67 53 47 54 66 55 48 56
REMARK SMILES IDX 51 57 65 58 84 59 49 60 50 61 64 63 85 64 52 65 36 66 37 67
REMARK SMILES IDX 45 68 38 69 40 70 46 71 39 72 41 73 42 74 43 75 44 76 68 77
REMARK SMILES IDX 69 78 77 79 70 80 72 81 78 82 71 83 73 84 74 85 75 86 76 87
REMARK SMILES IDX 53 88 54 89 62 90 55 91 57 92 63 93 56 94 58 95 59 96 60 97
REMARK SMILES IDX 61 98
REMARK H PARENT 17 8 3 13 24 32 83 51 51 62
REMARK Flexibility Score: inf
ROOT
ATOM      1  C   UNL     1      -3.592   3.405   1.492  1.00  0.00     0.002 C 
ENDROOT
BRANCH   1   2
ATOM      2  C   UNL     1      -3.155   3.060   0.065  1.00  0.00     0.002 C 
BRANCH   2   3
ATOM      3  C   UNL     1      -1.646   2.869  -0.125  1.00  0.00     0.021 C 
BRANCH   3   4
ATOM      4  C   UNL     1      -1.054   1.779   0.755  1.00  0.00     0.116 C 
BRANCH   4   5
ATOM      5  N   UNL     1      -1.491   0.464   0.325  1.00  0.00    -0.354 N 
ATOM      6  C   UNL     1      -0.908  -0.758   0.494  1.00  0.00     0.254 C 
ATOM      7  O   UNL     1      -1.588  -1.735   0.173  1.00  0.00    -0.272 OA
ATOM      8  H   UNL     1      -2.344   0.451  -0.167  1.00  0.00     0.163 HD
BRANCH   6   9
ATOM      9  C   UNL     1       0.532  -0.888   1.009  1.00  0.00     0.212 C 
ATOM     10  C   UNL     1       1.470  -0.303  -0.075  1.00  0.00     0.056 C 
BRANCH   9  11
ATOM     11  N   UNL     1       0.780  -0.167   2.308  1.00  0.00    -0.334 N 
ATOM     12  C   UNL     1       0.145  -0.300   3.520  1.00  0.00     0.232 C 
ATOM     13  H   UNL     1       1.504   0.499   2.285  1.00  0.00     0.164 HD
ATOM     14  O   UNL     1       0.857  -0.226   4.522  1.00  0.00    -0.274 OA
BRANCH  12  15
ATOM     15  C   UNL     1      -1.367  -0.425   3.606  1.00  0.00     0.150 C 
ATOM     16  C   UNL     1      -1.829  -1.769   4.171  1.00  0.00     0.248 C 
ATOM     17  C   UNL     1      -2.034   0.504   4.566  1.00  0.00     0.010 A 
ATOM     18  O   UNL     1      -2.848  -1.569   5.182  1.00  0.00    -0.492 OA
ATOM     19  C   UNL     1      -2.898  -0.215   5.372  1.00  0.00     0.123 A 
ATOM     20  C   UNL     1      -1.995   1.889   4.644  1.00  0.00     0.008 A 
ATOM     21  C   UNL     1      -3.765   0.404   6.253  1.00  0.00     0.047 A 
ATOM     22  C   UNL     1      -2.877   2.538   5.515  1.00  0.00     0.001 A 
ATOM     23  C   UNL     1      -3.764   1.799   6.310  1.00  0.00     0.004 A 
ENDBRANCH  12  15
ENDBRANCH   9  11
BRANCH   9  24
ATOM     24  C   UNL     1       0.862  -2.396   1.101  1.00  0.00     0.420 C 
ATOM     25  F   UNL     1       0.730  -3.040  -0.080  1.00  0.00    -0.168 F 
ATOM     26  F   UNL     1       2.160  -2.562   1.476  1.00  0.00    -0.168 F 
ATOM     27  F   UNL     1       0.110  -3.034   2.025  1.00  0.00    -0.168 F 
ENDBRANCH   9  24
ENDBRANCH   6   9
ENDBRANCH   4   5
ENDBRANCH   3   4
ENDBRANCH   2   3
ENDBRANCH   1   2
BRANCH   1  28
ATOM     28  C   UNL     1      -2.874   4.603   2.118  1.00  0.00     0.021 C 
BRANCH  28  29
ATOM     29  C   UNL     1      -2.951   5.883   1.295  1.00  0.00     0.116 C 
BRANCH  29  30
ATOM     30  N   UNL     1      -4.322   6.318   1.092  1.00  0.00    -0.352 N 
ATOM     31  C   UNL     1      -4.848   7.582   1.203  1.00  0.00     0.251 C 
ATOM     32  H   UNL     1      -4.960   5.612   0.841  1.00  0.00     0.163 HD
ATOM     33  O   UNL     1      -6.060   7.748   1.177  1.00  0.00    -0.269 OA
BRANCH  31  34
ATOM     34  C   UNL     1      -3.935   8.732   1.375  1.00  0.00     0.039 A 
ATOM     35  C   UNL     1      -4.234   9.690   2.345  1.00  0.00     0.014 A 
ATOM     36  C   UNL     1      -2.787   8.857   0.588  1.00  0.00     0.014 A 
ATOM     37  C   UNL     1      -3.356  10.754   2.555  1.00  0.00     0.010 A 
ATOM     38  C   UNL     1      -1.875   9.873   0.852  1.00  0.00     0.010 A 
ATOM     39  C   UNL     1      -2.156  10.840   1.829  1.00  0.00    -0.014 A 
BRANCH  39  40
ATOM     40  C   UNL     1      -1.188  11.938   2.075  1.00  0.00     0.031 A 
ATOM     41  C   UNL     1      -0.857  12.912   0.975  1.00  0.00     0.074 A 
ATOM     42  C   UNL     1      -0.555  12.015   3.262  1.00  0.00     0.049 A 
ATOM     43  N   UNL     1       0.004  13.896   0.979  1.00  0.00    -0.248 NA
ATOM     44  C   UNL     1      -1.568  12.746  -0.304  1.00  0.00     0.031 C 
ATOM     45  C   UNL     1      -0.736  11.086   4.381  1.00  0.00     0.029 A 
ATOM     46  N   UNL     1       0.388  12.902   3.719  1.00  0.00    -0.354 N 
ATOM     47  C   UNL     1      -0.041  14.446  -0.297  1.00  0.00     0.074 A 
ATOM     48  C   UNL     1      -0.984  13.662  -1.063  1.00  0.00     0.031 C 
ATOM     49  C   UNL     1       0.068  11.452   5.392  1.00  0.00     0.029 A 
ATOM     50  C   UNL     1       0.846  12.617   4.985  1.00  0.00     0.049 A 
ATOM     51  H   UNL     1       0.708  13.668   3.190  1.00  0.00     0.167 HD
ATOM     52  C   UNL     1       0.618  15.526  -0.779  1.00  0.00     0.034 A 
ATOM     53  C   UNL     1       1.796  13.218   5.727  1.00  0.00     0.034 A 
ATOM     54  C   UNL     1       1.528  16.325  -0.004  1.00  0.00     0.049 A 
ATOM     55  C   UNL     1       2.498  14.429   5.171  1.00  0.00     0.074 A 
ATOM     56  C   UNL     1       2.193  17.478  -0.380  1.00  0.00     0.029 A 
ATOM     57  N   UNL     1       1.904  16.053   1.302  1.00  0.00    -0.354 N 
ATOM     58  N   UNL     1       2.336  15.017   4.011  1.00  0.00    -0.248 NA
ATOM     59  C   UNL     1       3.487  15.082   6.041  1.00  0.00     0.031 C 
ATOM     60  C   UNL     1       2.994  17.889   0.689  1.00  0.00     0.029 A 
ATOM     61  C   UNL     1       2.797  17.013   1.745  1.00  0.00     0.049 A 
ATOM     62  H   UNL     1       1.583  15.291   1.835  1.00  0.00     0.167 HD
ATOM     63  C   UNL     1       3.168  16.130   4.029  1.00  0.00     0.074 A 
ATOM     64  C   UNL     1       3.817  16.146   5.323  1.00  0.00     0.031 C 
ATOM     65  C   UNL     1       3.388  17.049   3.057  1.00  0.00     0.034 A 
BRANCH  52  66
ATOM     66  C   UNL     1       0.340  15.946  -2.199  1.00  0.00     0.023 A 
ATOM     67  C   UNL     1      -0.905  16.523  -2.521  1.00  0.00     0.012 A 
ATOM     68  C   UNL     1       1.333  15.847  -3.193  1.00  0.00     0.148 A 
ATOM     69  C   UNL     1      -1.169  16.970  -3.815  1.00  0.00     0.002 A 
ATOM     70  C   UNL     1       1.080  16.337  -4.468  1.00  0.00     0.091 A 
ATOM     71  F   UNL     1       2.504  15.279  -2.871  1.00  0.00    -0.205 F 
ATOM     72  C   UNL     1      -0.173  16.888  -4.784  1.00  0.00     0.022 A 
BRANCH  70  73
ATOM     73  S   UNL     1       2.320  16.353  -5.768  1.00  0.00     0.127 S 
ATOM     74  O   UNL     1       1.746  15.417  -6.734  1.00  0.00    -0.237 OA
ATOM     75  O   UNL     1       2.301  17.753  -6.191  1.00  0.00    -0.237 OA
ATOM     76  O   UNL     1       3.563  15.918  -5.147  1.00  0.00    -0.744 OA
ENDBRANCH  70  73
ENDBRANCH  52  66
BRANCH  53  77
ATOM     77  C   UNL     1       2.120  12.712   7.091  1.00  0.00     0.023 A 
ATOM     78  C   UNL     1       1.812  13.498   8.219  1.00  0.00     0.012 A 
ATOM     79  C   UNL     1       2.740  11.462   7.276  1.00  0.00     0.148 A 
ATOM     80  C   UNL     1       2.160  13.071   9.501  1.00  0.00     0.002 A 
ATOM     81  C   UNL     1       3.030  11.015   8.560  1.00  0.00     0.091 A 
ATOM     82  F   UNL     1       3.035  10.732   6.191  1.00  0.00    -0.205 F 
ATOM     83  C   UNL     1       2.761  11.827   9.672  1.00  0.00     0.022 A 
BRANCH  81  84
ATOM     84  S   UNL     1       3.683   9.373   8.878  1.00  0.00     0.127 S 
ATOM     85  O   UNL     1       5.061   9.668   9.258  1.00  0.00    -0.237 OA
ATOM     86  O   UNL     1       2.825   8.914   9.971  1.00  0.00    -0.237 OA
ATOM     87  O   UNL     1       3.510   8.637   7.632  1.00  0.00    -0.744 OA
ENDBRANCH  81  84
ENDBRANCH  53  77
BRANCH  65  88
ATOM     88  C   UNL     1       4.325  18.186   3.368  1.00  0.00     0.023 A 
ATOM     89  C   UNL     1       5.710  17.952   3.474  1.00  0.00     0.012 A 
ATOM     90  C   UNL     1       3.835  19.502   3.483  1.00  0.00     0.148 A 
ATOM     91  C   UNL     1       6.589  19.005   3.728  1.00  0.00     0.002 A 
ATOM     92  C   UNL     1       4.721  20.553   3.681  1.00  0.00     0.091 A 
ATOM     93  F   UNL     1       2.512  19.701   3.395  1.00  0.00    -0.205 F 
ATOM     94  C   UNL     1       6.096  20.305   3.819  1.00  0.00     0.022 A 
BRANCH  92  95
ATOM     95  S   UNL     1       4.191  22.268   3.710  1.00  0.00     0.127 S 
ATOM     96  O   UNL     1       4.381  22.615   5.117  1.00  0.00    -0.237 OA
ATOM     97  O   UNL     1       5.140  22.900   2.792  1.00  0.00    -0.237 OA
ATOM     98  O   UNL     1       2.809  22.271   3.249  1.00  0.00    -0.744 OA
ENDBRANCH  92  95
ENDBRANCH  65  88
ENDBRANCH  39  40
ENDBRANCH  31  34
ENDBRANCH  29  30
ENDBRANCH  28  29
ENDBRANCH   1  28
TORSDOF 19
