REMARK SMILES COCC(=O)N1[C@@H](C(=O)NCCCCCCNC(=O)c2ccc(-c3c4nc(c(-c5cccc(S(=O)(=O)[O-])c5F)c5ccc([nH]5)c(-c5cccc(S(=O)(=O)[O-])c5F)c5nc(c(-c6cccc(S(=O)(=O)[O-])c6F)c6ccc3[nH]6)C=C5)C=C4)cc2)CC[C@@H]2CCCC[C@H]21
REMARK SMILES IDX 13 1 12 2 11 3 10 4 8 5 9 6 7 8 6 9 90 10 83 11 85 12 89 13
REMARK SMILES IDX 84 14 86 15 88 16 87 17 4 18 5 19 3 20 2 21 1 22 14 23 15 24
REMARK SMILES IDX 16 25 17 26 18 27 19 29 20 30 21 31 82 32 22 33 81 34 23 35
REMARK SMILES IDX 24 36 25 37 75 38 26 39 80 40 74 41 76 42 27 43 79 44 73 45
REMARK SMILES IDX 72 46 28 48 60 49 40 50 59 51 41 52 44 53 58 54 77 55 42 56
REMARK SMILES IDX 43 57 57 59 78 60 45 61 29 62 30 63 38 64 31 65 33 66 39 67
REMARK SMILES IDX 32 68 34 69 35 70 36 71 37 72 61 73 62 74 70 75 63 76 65 77
REMARK SMILES IDX 71 78 64 79 66 80 67 81 68 82 69 83 46 84 47 85 55 86 48 87
REMARK SMILES IDX 50 88 56 89 49 90 51 91 52 92 53 93 54 94
REMARK H PARENT 10 7 17 28 76 47 44 58
REMARK Flexibility Score: inf
ROOT
ATOM      1  C   UNL     1       0.650  -3.395  -0.391  1.00  0.00     0.002 C 
ENDROOT
BRANCH   1   2
ATOM      2  C   UNL     1      -0.305  -3.108   0.775  1.00  0.00     0.021 C 
BRANCH   2   3
ATOM      3  C   UNL     1      -0.321  -1.647   1.211  1.00  0.00     0.116 C 
BRANCH   3   4
ATOM      4  N   UNL     1      -0.874  -0.813   0.158  1.00  0.00    -0.354 N 
ATOM      5  C   UNL     1      -1.658   0.297   0.234  1.00  0.00     0.242 C 
ATOM      6  O   UNL     1      -2.141   0.734  -0.816  1.00  0.00    -0.273 OA
ATOM      7  H   UNL     1      -0.645  -1.095  -0.757  1.00  0.00     0.163 HD
BRANCH   5   8
ATOM      8  C   UNL     1      -2.111   0.867   1.593  1.00  0.00     0.174 C 
ATOM      9  N   UNL     1      -1.091   1.012   2.660  1.00  0.00    -0.325 N 
ATOM     10  C   UNL     1      -1.646   1.284   4.012  1.00  0.00     0.089 C 
ATOM     11  C   UNL     1      -3.260  -0.090   2.010  1.00  0.00     0.036 C 
ATOM     12  C   UNL     1      -2.595   0.150   4.442  1.00  0.00     0.012 C 
ATOM     13  C   UNL     1      -0.642   1.647   5.122  1.00  0.00     0.025 C 
ATOM     14  C   UNL     1      -3.749   0.052   3.438  1.00  0.00     0.008 C 
ATOM     15  C   UNL     1      -3.184   0.348   5.848  1.00  0.00     0.006 C 
ATOM     16  C   UNL     1      -1.338   1.925   6.451  1.00  0.00     0.002 C 
ATOM     17  C   UNL     1      -2.138   0.709   6.892  1.00  0.00     0.000 C 
BRANCH   9  18
ATOM     18  C   UNL     1       0.237   1.364   2.398  1.00  0.00     0.249 C 
ATOM     19  O   UNL     1       1.159   0.986   3.126  1.00  0.00    -0.272 OA
BRANCH  18  20
ATOM     20  C   UNL     1       0.561   2.298   1.214  1.00  0.00     0.259 C 
BRANCH  20  21
ATOM     21  O   UNL     1       0.683   1.739  -0.076  1.00  0.00    -0.375 OA
ATOM     22  C   UNL     1       1.882   1.000  -0.262  1.00  0.00     0.195 C 
ENDBRANCH  20  21
ENDBRANCH  18  20
ENDBRANCH   9  18
ENDBRANCH   5   8
ENDBRANCH   3   4
ENDBRANCH   2   3
ENDBRANCH   1   2
BRANCH   1  23
ATOM     23  C   UNL     1       2.115  -3.037  -0.126  1.00  0.00     0.002 C 
BRANCH  23  24
ATOM     24  C   UNL     1       2.722  -3.692   1.116  1.00  0.00     0.021 C 
BRANCH  24  25
ATOM     25  C   UNL     1       2.593  -5.209   1.149  1.00  0.00     0.116 C 
BRANCH  25  26
ATOM     26  N   UNL     1       3.221  -5.839  -0.002  1.00  0.00    -0.352 N 
ATOM     27  C   UNL     1       4.029  -6.944  -0.041  1.00  0.00     0.251 C 
ATOM     28  H   UNL     1       3.041  -5.412  -0.871  1.00  0.00     0.163 HD
ATOM     29  O   UNL     1       4.620  -7.237  -1.080  1.00  0.00    -0.269 OA
BRANCH  27  30
ATOM     30  C   UNL     1       4.201  -7.766   1.173  1.00  0.00     0.039 A 
ATOM     31  C   UNL     1       5.482  -8.197   1.518  1.00  0.00     0.014 A 
ATOM     32  C   UNL     1       3.103  -8.107   1.969  1.00  0.00     0.014 A 
ATOM     33  C   UNL     1       5.667  -8.940   2.685  1.00  0.00     0.010 A 
ATOM     34  C   UNL     1       3.301  -8.771   3.174  1.00  0.00     0.010 A 
ATOM     35  C   UNL     1       4.582  -9.213   3.535  1.00  0.00    -0.014 A 
BRANCH  35  36
ATOM     36  C   UNL     1       4.779  -9.965   4.800  1.00  0.00     0.031 A 
ATOM     37  C   UNL     1       4.096 -11.291   5.012  1.00  0.00     0.074 A 
ATOM     38  C   UNL     1       5.526  -9.425   5.783  1.00  0.00     0.049 A 
ATOM     39  N   UNL     1       4.153 -12.088   6.047  1.00  0.00    -0.248 NA
ATOM     40  C   UNL     1       3.214 -11.773   3.935  1.00  0.00     0.031 C 
ATOM     41  C   UNL     1       6.160  -8.105   5.735  1.00  0.00     0.029 A 
ATOM     42  N   UNL     1       5.861  -9.909   7.022  1.00  0.00    -0.354 N 
ATOM     43  C   UNL     1       3.289 -13.140   5.765  1.00  0.00     0.074 A 
ATOM     44  C   UNL     1       2.695 -12.866   4.476  1.00  0.00     0.031 C 
ATOM     45  C   UNL     1       6.815  -7.890   6.887  1.00  0.00     0.029 A 
ATOM     46  C   UNL     1       6.625  -9.039   7.765  1.00  0.00     0.049 A 
ATOM     47  H   UNL     1       5.582 -10.794   7.348  1.00  0.00     0.167 HD
ATOM     48  C   UNL     1       3.034 -14.248   6.500  1.00  0.00     0.034 A 
ATOM     49  C   UNL     1       7.112  -9.152   9.016  1.00  0.00     0.034 A 
ATOM     50  C   UNL     1       3.660 -14.537   7.762  1.00  0.00     0.049 A 
ATOM     51  C   UNL     1       6.867 -10.424   9.781  1.00  0.00     0.074 A 
ATOM     52  C   UNL     1       3.546 -15.678   8.537  1.00  0.00     0.029 A 
ATOM     53  N   UNL     1       4.506 -13.676   8.442  1.00  0.00    -0.354 N 
ATOM     54  N   UNL     1       6.184 -11.484   9.423  1.00  0.00    -0.248 NA
ATOM     55  C   UNL     1       7.498 -10.534  11.104  1.00  0.00     0.031 C 
ATOM     56  C   UNL     1       4.294 -15.491   9.703  1.00  0.00     0.029 A 
ATOM     57  C   UNL     1       4.913 -14.253   9.632  1.00  0.00     0.049 A 
ATOM     58  H   UNL     1       4.778 -12.784   8.125  1.00  0.00     0.167 HD
ATOM     59  C   UNL     1       6.338 -12.402  10.456  1.00  0.00     0.074 A 
ATOM     60  C   UNL     1       7.198 -11.780  11.441  1.00  0.00     0.031 C 
ATOM     61  C   UNL     1       5.807 -13.644  10.582  1.00  0.00     0.034 A 
BRANCH  48  62
ATOM     62  C   UNL     1       2.060 -15.256   5.945  1.00  0.00     0.023 A 
ATOM     63  C   UNL     1       2.419 -16.037   4.827  1.00  0.00     0.012 A 
ATOM     64  C   UNL     1       0.822 -15.482   6.576  1.00  0.00     0.148 A 
ATOM     65  C   UNL     1       1.547 -17.004   4.327  1.00  0.00     0.002 A 
ATOM     66  C   UNL     1      -0.020 -16.481   6.103  1.00  0.00     0.091 A 
ATOM     67  F   UNL     1       0.489 -14.715   7.624  1.00  0.00    -0.205 F 
ATOM     68  C   UNL     1       0.335 -17.234   4.972  1.00  0.00     0.022 A 
BRANCH  66  69
ATOM     69  S   UNL     1      -1.562 -16.915   6.914  1.00  0.00     0.127 S 
ATOM     70  O   UNL     1      -2.548 -16.484   5.924  1.00  0.00    -0.237 OA
ATOM     71  O   UNL     1      -1.436 -18.366   7.056  1.00  0.00    -0.237 OA
ATOM     72  O   UNL     1      -1.580 -16.179   8.170  1.00  0.00    -0.744 OA
ENDBRANCH  66  69
ENDBRANCH  48  62
BRANCH  49  73
ATOM     73  C   UNL     1       7.927  -8.051   9.602  1.00  0.00     0.023 A 
ATOM     74  C   UNL     1       9.305  -8.243   9.828  1.00  0.00     0.012 A 
ATOM     75  C   UNL     1       7.345  -6.811   9.926  1.00  0.00     0.148 A 
ATOM     76  C   UNL     1      10.078  -7.236  10.406  1.00  0.00     0.002 A 
ATOM     77  C   UNL     1       8.133  -5.791  10.446  1.00  0.00     0.091 A 
ATOM     78  F   UNL     1       6.032  -6.651   9.712  1.00  0.00    -0.205 F 
ATOM     79  C   UNL     1       9.495  -6.008  10.707  1.00  0.00     0.022 A 
BRANCH  77  80
ATOM     80  S   UNL     1       7.495  -4.138  10.736  1.00  0.00     0.127 S 
ATOM     81  O   UNL     1       7.475  -4.077  12.195  1.00  0.00    -0.237 OA
ATOM     82  O   UNL     1       8.515  -3.305  10.098  1.00  0.00    -0.237 OA
ATOM     83  O   UNL     1       6.194  -4.099  10.082  1.00  0.00    -0.744 OA
ENDBRANCH  77  80
ENDBRANCH  49  73
BRANCH  61  84
ATOM     84  C   UNL     1       6.185 -14.441  11.804  1.00  0.00     0.023 A 
ATOM     85  C   UNL     1       5.706 -14.065  13.074  1.00  0.00     0.012 A 
ATOM     86  C   UNL     1       6.981 -15.597  11.680  1.00  0.00     0.148 A 
ATOM     87  C   UNL     1       6.055 -14.797  14.208  1.00  0.00     0.002 A 
ATOM     88  C   UNL     1       7.277 -16.354  12.807  1.00  0.00     0.091 A 
ATOM     89  F   UNL     1       7.443 -15.931  10.466  1.00  0.00    -0.205 F 
ATOM     90  C   UNL     1       6.830 -15.947  14.073  1.00  0.00     0.022 A 
BRANCH  88  91
ATOM     91  S   UNL     1       8.181 -17.903  12.709  1.00  0.00     0.127 S 
ATOM     92  O   UNL     1       9.489 -17.519  13.237  1.00  0.00    -0.237 OA
ATOM     93  O   UNL     1       7.400 -18.775  13.588  1.00  0.00    -0.237 OA
ATOM     94  O   UNL     1       8.160 -18.291  11.305  1.00  0.00    -0.744 OA
ENDBRANCH  88  91
ENDBRANCH  61  84
ENDBRANCH  35  36
ENDBRANCH  27  30
ENDBRANCH  25  26
ENDBRANCH  24  25
ENDBRANCH  23  24
ENDBRANCH   1  23
TORSDOF 19
