REMARK SMILES O=C(NCCCCCCNC(=O)[C@H]1CC2(CCN(S(=O)(=O)N3CCOCC3)CC2)C[NH2+]1)c1ccc(-c2c3nc(c(-c4cccc(S(=O)(=O)[O-])c4F)c4ccc([nH]4)c(-c4cccc(S(=O)(=O)[O-])c4F)c4nc(c(-c5cccc(S(=O)(=O)[O-])c5F)c5ccc2[nH]5)C=C4)C=C3)cc1
REMARK SMILES IDX 6 1 5 2 4 3 3 4 1 5 2 6 32 8 33 9 94 10 34 11 93 12 35 13
REMARK SMILES IDX 36 14 37 15 87 16 38 17 92 18 86 19 88 20 39 21 91 22 85 23
REMARK SMILES IDX 84 24 40 26 72 27 52 28 71 29 53 30 56 31 70 32 89 33 54 34
REMARK SMILES IDX 55 35 69 37 90 38 57 39 41 40 42 41 50 42 43 43 45 44 51 45
REMARK SMILES IDX 44 46 46 47 47 48 48 49 49 50 73 51 74 52 82 53 75 54 77 55
REMARK SMILES IDX 83 56 76 57 78 58 79 59 80 60 81 61 58 62 59 63 67 64 60 65
REMARK SMILES IDX 62 66 68 67 61 68 63 69 64 70 65 71 66 72 7 73 8 74 9 75
REMARK SMILES IDX 10 76 11 77 12 79 13 80 14 81 31 82 15 83 30 84 16 87 29 88
REMARK SMILES IDX 17 89 28 90 18 91 19 92 20 93 21 94 22 95 23 96 27 97 24 98
REMARK SMILES IDX 26 99 25 100
REMARK H PARENT 3 7 88 25 56 36 10 78 31 85 31 86
REMARK Flexibility Score: inf
ROOT
ATOM      1  C   UNL     1      12.297  -7.671  -6.160  1.00  0.00     0.002 C 
ENDROOT
BRANCH   1   2
ATOM      2  C   UNL     1      13.162  -8.896  -5.852  1.00  0.00     0.021 C 
BRANCH   2   3
ATOM      3  C   UNL     1      12.859 -10.119  -6.708  1.00  0.00     0.116 C 
BRANCH   3   4
ATOM      4  N   UNL     1      13.052  -9.857  -8.124  1.00  0.00    -0.352 N 
ATOM      5  O   UNL     1      14.075  -9.981 -10.127  1.00  0.00    -0.269 OA
ATOM      6  C   UNL     1      13.894 -10.473  -9.018  1.00  0.00     0.251 C 
ATOM      7  H   UNL     1      12.500  -9.132  -8.497  1.00  0.00     0.163 HD
BRANCH   6   8
ATOM      8  C   UNL     1      14.591 -11.714  -8.621  1.00  0.00     0.039 A 
ATOM      9  C   UNL     1      13.906 -12.720  -7.935  1.00  0.00     0.014 A 
ATOM     10  C   UNL     1      15.945 -11.868  -8.926  1.00  0.00     0.014 A 
ATOM     11  C   UNL     1      14.608 -13.798  -7.412  1.00  0.00     0.010 A 
ATOM     12  C   UNL     1      16.627 -13.005  -8.485  1.00  0.00     0.010 A 
ATOM     13  C   UNL     1      15.974 -13.960  -7.690  1.00  0.00    -0.014 A 
BRANCH  13  14
ATOM     14  C   UNL     1      16.682 -15.164  -7.183  1.00  0.00     0.031 A 
ATOM     15  C   UNL     1      17.835 -15.046  -6.225  1.00  0.00     0.074 A 
ATOM     16  C   UNL     1      16.268 -16.378  -7.597  1.00  0.00     0.049 A 
ATOM     17  N   UNL     1      18.539 -15.997  -5.667  1.00  0.00    -0.248 NA
ATOM     18  C   UNL     1      18.262 -13.689  -5.851  1.00  0.00     0.031 C 
ATOM     19  C   UNL     1      15.181 -16.616  -8.550  1.00  0.00     0.029 A 
ATOM     20  N   UNL     1      16.706 -17.635  -7.273  1.00  0.00    -0.354 N 
ATOM     21  C   UNL     1      19.520 -15.360  -4.917  1.00  0.00     0.074 A 
ATOM     22  C   UNL     1      19.325 -13.937  -5.097  1.00  0.00     0.031 C 
ATOM     23  C   UNL     1      15.014 -17.936  -8.707  1.00  0.00     0.029 A 
ATOM     24  C   UNL     1      16.020 -18.637  -7.918  1.00  0.00     0.049 A 
ATOM     25  H   UNL     1      17.440 -17.805  -6.639  1.00  0.00     0.167 HD
ATOM     26  C   UNL     1      20.489 -15.908  -4.144  1.00  0.00     0.034 A 
ATOM     27  C   UNL     1      16.189 -19.971  -7.895  1.00  0.00     0.034 A 
ATOM     28  C   UNL     1      20.664 -17.325  -3.956  1.00  0.00     0.049 A 
ATOM     29  C   UNL     1      17.268 -20.551  -7.028  1.00  0.00     0.074 A 
ATOM     30  C   UNL     1      21.569 -17.980  -3.139  1.00  0.00     0.029 A 
ATOM     31  N   UNL     1      19.934 -18.309  -4.607  1.00  0.00    -0.354 N 
ATOM     32  N   UNL     1      18.106 -19.934  -6.231  1.00  0.00    -0.248 NA
ATOM     33  C   UNL     1      17.405 -22.013  -7.033  1.00  0.00     0.031 C 
ATOM     34  C   UNL     1      21.418 -19.357  -3.331  1.00  0.00     0.029 A 
ATOM     35  C   UNL     1      20.381 -19.564  -4.227  1.00  0.00     0.049 A 
ATOM     36  H   UNL     1      19.205 -18.140  -5.247  1.00  0.00     0.167 HD
ATOM     37  C   UNL     1      18.842 -20.934  -5.607  1.00  0.00     0.074 A 
ATOM     38  C   UNL     1      18.339 -22.196  -6.111  1.00  0.00     0.031 C 
ATOM     39  C   UNL     1      19.845 -20.815  -4.702  1.00  0.00     0.034 A 
BRANCH  26  40
ATOM     40  C   UNL     1      21.440 -14.971  -3.440  1.00  0.00     0.023 A 
ATOM     41  C   UNL     1      20.982 -14.164  -2.378  1.00  0.00     0.012 A 
ATOM     42  C   UNL     1      22.800 -14.920  -3.805  1.00  0.00     0.148 A 
ATOM     43  C   UNL     1      21.850 -13.288  -1.725  1.00  0.00     0.002 A 
ATOM     44  C   UNL     1      23.670 -14.081  -3.116  1.00  0.00     0.091 A 
ATOM     45  F   UNL     1      23.218 -15.679  -4.828  1.00  0.00    -0.205 F 
ATOM     46  C   UNL     1      23.193 -13.253  -2.087  1.00  0.00     0.022 A 
BRANCH  44  47
ATOM     47  S   UNL     1      25.433 -14.030  -3.453  1.00  0.00     0.127 S 
ATOM     48  O   UNL     1      25.568 -12.735  -4.119  1.00  0.00    -0.237 OA
ATOM     49  O   UNL     1      26.006 -14.085  -2.108  1.00  0.00    -0.237 OA
ATOM     50  O   UNL     1      25.718 -15.194  -4.280  1.00  0.00    -0.744 OA
ENDBRANCH  44  47
ENDBRANCH  26  40
BRANCH  27  51
ATOM     51  C   UNL     1      15.278 -20.845  -8.684  1.00  0.00     0.023 A 
ATOM     52  C   UNL     1      14.351 -21.663  -8.010  1.00  0.00     0.012 A 
ATOM     53  C   UNL     1      15.292 -20.834 -10.092  1.00  0.00     0.148 A 
ATOM     54  C   UNL     1      13.472 -22.476  -8.726  1.00  0.00     0.002 A 
ATOM     55  C   UNL     1      14.375 -21.602 -10.798  1.00  0.00     0.091 A 
ATOM     56  F   UNL     1      16.185 -20.049 -10.710  1.00  0.00    -0.205 F 
ATOM     57  C   UNL     1      13.476 -22.438 -10.117  1.00  0.00     0.022 A 
BRANCH  55  58
ATOM     58  S   UNL     1      14.217 -21.518 -12.585  1.00  0.00     0.127 S 
ATOM     59  O   UNL     1      14.630 -22.861 -12.983  1.00  0.00    -0.237 OA
ATOM     60  O   UNL     1      12.790 -21.238 -12.744  1.00  0.00    -0.237 OA
ATOM     61  O   UNL     1      15.096 -20.438 -13.010  1.00  0.00    -0.744 OA
ENDBRANCH  55  58
ENDBRANCH  27  51
BRANCH  39  62
ATOM     62  C   UNL     1      20.432 -22.086  -4.145  1.00  0.00     0.023 A 
ATOM     63  C   UNL     1      21.229 -22.919  -4.955  1.00  0.00     0.012 A 
ATOM     64  C   UNL     1      20.233 -22.425  -2.792  1.00  0.00     0.148 A 
ATOM     65  C   UNL     1      21.784 -24.089  -4.438  1.00  0.00     0.002 A 
ATOM     66  C   UNL     1      20.836 -23.561  -2.268  1.00  0.00     0.091 A 
ATOM     67  F   UNL     1      19.453 -21.632  -2.042  1.00  0.00    -0.205 F 
ATOM     68  C   UNL     1      21.599 -24.403  -3.093  1.00  0.00     0.022 A 
BRANCH  66  69
ATOM     69  S   UNL     1      20.736 -23.985  -0.526  1.00  0.00     0.127 S 
ATOM     70  O   UNL     1      19.847 -25.145  -0.553  1.00  0.00    -0.237 OA
ATOM     71  O   UNL     1      22.129 -24.292  -0.202  1.00  0.00    -0.237 OA
ATOM     72  O   UNL     1      20.205 -22.807   0.145  1.00  0.00    -0.744 OA
ENDBRANCH  66  69
ENDBRANCH  39  62
ENDBRANCH  13  14
ENDBRANCH   6   8
ENDBRANCH   3   4
ENDBRANCH   2   3
ENDBRANCH   1   2
BRANCH   1  73
ATOM     73  C   UNL     1      10.782  -7.895  -6.079  1.00  0.00     0.002 C 
BRANCH  73  74
ATOM     74  C   UNL     1      10.292  -8.529  -4.783  1.00  0.00     0.021 C 
BRANCH  74  75
ATOM     75  C   UNL     1      10.708  -7.779  -3.526  1.00  0.00     0.116 C 
BRANCH  75  76
ATOM     76  N   UNL     1       9.932  -6.565  -3.303  1.00  0.00    -0.351 N 
ATOM     77  C   UNL     1       9.134  -6.088  -2.306  1.00  0.00     0.278 C 
ATOM     78  H   UNL     1      10.001  -5.936  -4.057  1.00  0.00     0.163 HD
ATOM     79  O   UNL     1       8.687  -4.943  -2.477  1.00  0.00    -0.268 OA
BRANCH  77  80
ATOM     80  C   UNL     1       8.743  -6.856  -1.024  1.00  0.00     0.273 C 
ATOM     81  C   UNL     1       9.349  -8.206  -0.805  1.00  0.00     0.088 C 
ATOM     82  N   UNL     1       9.251  -6.152   0.176  1.00  0.00    -0.336 N 
ATOM     83  C   UNL     1       9.329  -8.486   0.699  1.00  0.00     0.028 C 
ATOM     84  C   UNL     1       9.114  -7.087   1.299  1.00  0.00     0.268 C 
ATOM     85  H   UNL     1       8.701  -5.311   0.349  1.00  0.00     0.346 HD
ATOM     86  H   UNL     1      10.222  -5.866   0.051  1.00  0.00     0.346 HD
ATOM     87  C   UNL     1      10.710  -9.083   1.045  1.00  0.00     0.030 C 
ATOM     88  C   UNL     1       8.200  -9.463   1.104  1.00  0.00     0.030 C 
ATOM     89  C   UNL     1      10.801 -10.479   0.447  1.00  0.00     0.104 C 
ATOM     90  C   UNL     1       8.439 -10.925   0.692  1.00  0.00     0.104 C 
ATOM     91  N   UNL     1       9.811 -11.379   1.051  1.00  0.00    -0.189 NA
BRANCH  91  92
ATOM     92  S   UNL     1      10.011 -11.883   2.657  1.00  0.00     0.282 S 
ATOM     93  O   UNL     1       9.966 -10.724   3.514  1.00  0.00    -0.195 OA
ATOM     94  O   UNL     1       9.080 -12.972   2.861  1.00  0.00    -0.195 OA
BRANCH  92  95
ATOM     95  N   UNL     1      11.548 -12.500   2.673  1.00  0.00    -0.184 NA
ATOM     96  C   UNL     1      11.852 -13.804   2.064  1.00  0.00     0.132 C 
ATOM     97  C   UNL     1      12.754 -11.707   2.988  1.00  0.00     0.132 C 
ATOM     98  C   UNL     1      12.689 -13.576   0.811  1.00  0.00     0.177 C 
ATOM     99  C   UNL     1      13.777 -11.689   1.834  1.00  0.00     0.177 C 
ATOM    100  O   UNL     1      13.929 -12.932   1.139  1.00  0.00    -0.379 OA
ENDBRANCH  92  95
ENDBRANCH  91  92
ENDBRANCH  77  80
ENDBRANCH  75  76
ENDBRANCH  74  75
ENDBRANCH  73  74
ENDBRANCH   1  73
TORSDOF 18
