REMARK SMILES COCCNc1cc(C)nc2cc(C(=O)NCCCCCCNC(=O)c3ccc(-c4c5nc(c(-c6cccc(S(=O)(=O)[O-])c6F)c6ccc([nH]6)c(-c6cccc(S(=O)(=O)[O-])c6F)c6nc(c(-c7cccc(S(=O)(=O)[O-])c7F)c7ccc4[nH]7)C=C6)C=C5)cc3)ccc12
REMARK SMILES IDX 19 1 18 2 17 3 16 4 14 5 15 6 13 8 6 9 7 10 91 11 8 12 11 13
REMARK SMILES IDX 90 14 9 15 10 16 12 17 89 18 5 19 4 21 3 22 2 23 1 24 20 25
REMARK SMILES IDX 21 26 22 27 23 28 24 29 25 31 26 32 27 33 88 34 28 35 87 36
REMARK SMILES IDX 29 37 30 38 31 39 81 40 32 41 86 42 80 43 82 44 33 45 85 46
REMARK SMILES IDX 79 47 78 48 34 50 66 51 46 52 65 53 47 54 50 55 64 56 83 57
REMARK SMILES IDX 48 58 49 59 63 61 84 62 51 63 35 64 36 65 44 66 37 67 39 68
REMARK SMILES IDX 45 69 38 70 40 71 41 72 42 73 43 74 67 75 68 76 76 77 69 78
REMARK SMILES IDX 71 79 77 80 70 81 72 82 73 83 74 84 75 85 52 86 53 87 61 88
REMARK SMILES IDX 54 89 56 90 62 91 55 92 57 93 58 94 59 95 60 96
REMARK H PARENT 16 7 5 20 23 30 82 49 50 60
REMARK Flexibility Score: inf
ROOT
ATOM      1  C   UNL     1       8.117   8.239   0.732  1.00  0.00     0.002 C 
ENDROOT
BRANCH   1   2
ATOM      2  C   UNL     1       6.983   7.487   0.021  1.00  0.00     0.021 C 
BRANCH   2   3
ATOM      3  C   UNL     1       7.394   6.077  -0.412  1.00  0.00     0.116 C 
BRANCH   3   4
ATOM      4  N   UNL     1       7.254   5.164   0.705  1.00  0.00    -0.352 N 
ATOM      5  C   UNL     1       6.261   4.304   1.091  1.00  0.00     0.251 C 
ATOM      6  O   UNL     1       6.434   3.693   2.149  1.00  0.00    -0.269 OA
ATOM      7  H   UNL     1       8.031   5.161   1.309  1.00  0.00     0.163 HD
BRANCH   5   8
ATOM      8  C   UNL     1       5.035   4.020   0.290  1.00  0.00     0.041 A 
ATOM      9  C   UNL     1       1.727   2.839  -2.083  1.00  0.00     0.045 A 
ATOM     10  C   UNL     1       1.437   3.627  -3.197  1.00  0.00     0.049 A 
ATOM     11  C   UNL     1       2.800   3.223  -1.246  1.00  0.00     0.023 A 
ATOM     12  C   UNL     1       2.186   4.772  -3.433  1.00  0.00     0.040 A 
ATOM     13  C   UNL     1       3.475   4.419  -1.542  1.00  0.00     0.073 A 
ATOM     14  C   UNL     1       3.243   2.451  -0.154  1.00  0.00     0.013 A 
ATOM     15  C   UNL     1       1.963   5.610  -4.656  1.00  0.00     0.067 C 
ATOM     16  N   UNL     1       3.167   5.182  -2.597  1.00  0.00    -0.253 NA
ATOM     17  C   UNL     1       4.521   4.827  -0.727  1.00  0.00     0.042 A 
ATOM     18  C   UNL     1       4.362   2.831   0.585  1.00  0.00     0.014 A 
BRANCH   9  19
ATOM     19  N   UNL     1       0.907   1.778  -1.714  1.00  0.00    -0.382 N 
ATOM     20  H   UNL     1       0.629   1.711  -0.772  1.00  0.00     0.160 HD
BRANCH  19  21
ATOM     21  C   UNL     1       0.439   0.763  -2.645  1.00  0.00     0.141 C 
BRANCH  21  22
ATOM     22  C   UNL     1       0.990  -0.620  -2.257  1.00  0.00     0.181 C 
BRANCH  22  23
ATOM     23  O   UNL     1       0.350  -1.191  -1.107  1.00  0.00    -0.383 OA
ATOM     24  C   UNL     1       0.890  -0.739   0.128  1.00  0.00     0.194 C 
ENDBRANCH  22  23
ENDBRANCH  21  22
ENDBRANCH  19  21
ENDBRANCH   9  19
ENDBRANCH   5   8
ENDBRANCH   3   4
ENDBRANCH   2   3
ENDBRANCH   1   2
BRANCH   1  25
ATOM     25  C   UNL     1       9.361   8.477  -0.136  1.00  0.00     0.002 C 
BRANCH  25  26
ATOM     26  C   UNL     1       9.084   9.187  -1.463  1.00  0.00     0.021 C 
BRANCH  26  27
ATOM     27  C   UNL     1       8.505  10.588  -1.299  1.00  0.00     0.116 C 
BRANCH  27  28
ATOM     28  N   UNL     1       9.444  11.472  -0.619  1.00  0.00    -0.352 N 
ATOM     29  C   UNL     1      10.055  12.605  -1.091  1.00  0.00     0.251 C 
ATOM     30  H   UNL     1       9.671  11.220   0.306  1.00  0.00     0.163 HD
ATOM     31  O   UNL     1      11.020  13.084  -0.500  1.00  0.00    -0.269 OA
BRANCH  29  32
ATOM     32  C   UNL     1       9.542  13.239  -2.320  1.00  0.00     0.039 A 
ATOM     33  C   UNL     1      10.438  13.619  -3.322  1.00  0.00     0.014 A 
ATOM     34  C   UNL     1       8.168  13.431  -2.485  1.00  0.00     0.014 A 
ATOM     35  C   UNL     1       9.945  14.130  -4.524  1.00  0.00     0.010 A 
ATOM     36  C   UNL     1       7.677  13.868  -3.709  1.00  0.00     0.010 A 
ATOM     37  C   UNL     1       8.560  14.220  -4.740  1.00  0.00    -0.014 A 
BRANCH  37  38
ATOM     38  C   UNL     1       8.005  14.646  -6.049  1.00  0.00     0.031 A 
ATOM     39  C   UNL     1       7.167  15.889  -6.147  1.00  0.00     0.074 A 
ATOM     40  C   UNL     1       8.171  13.853  -7.125  1.00  0.00     0.049 A 
ATOM     41  N   UNL     1       6.535  16.378  -7.182  1.00  0.00    -0.248 NA
ATOM     42  C   UNL     1       6.996  16.673  -4.913  1.00  0.00     0.031 C 
ATOM     43  C   UNL     1       8.911  12.589  -7.139  1.00  0.00     0.029 A 
ATOM     44  N   UNL     1       7.706  13.978  -8.410  1.00  0.00    -0.354 N 
ATOM     45  C   UNL     1       5.867  17.505  -6.720  1.00  0.00     0.074 A 
ATOM     46  C   UNL     1       6.138  17.605  -5.303  1.00  0.00     0.031 C 
ATOM     47  C   UNL     1       8.862  12.063  -8.373  1.00  0.00     0.029 A 
ATOM     48  C   UNL     1       8.053  12.927  -9.226  1.00  0.00     0.049 A 
ATOM     49  H   UNL     1       7.174  14.747  -8.718  1.00  0.00     0.167 HD
ATOM     50  C   UNL     1       5.117  18.393  -7.417  1.00  0.00     0.034 A 
ATOM     51  C   UNL     1       7.745  12.682 -10.514  1.00  0.00     0.034 A 
ATOM     52  C   UNL     1       4.866  18.295  -8.830  1.00  0.00     0.049 A 
ATOM     53  C   UNL     1       6.897  13.673 -11.263  1.00  0.00     0.074 A 
ATOM     54  C   UNL     1       4.184  19.179  -9.646  1.00  0.00     0.029 A 
ATOM     55  N   UNL     1       5.271  17.240  -9.635  1.00  0.00    -0.354 N 
ATOM     56  N   UNL     1       6.398  14.812 -10.848  1.00  0.00    -0.248 NA
ATOM     57  C   UNL     1       6.593  13.359 -12.666  1.00  0.00     0.031 C 
ATOM     58  C   UNL     1       4.142  18.639 -10.936  1.00  0.00     0.029 A 
ATOM     59  C   UNL     1       4.833  17.438 -10.933  1.00  0.00     0.049 A 
ATOM     60  H   UNL     1       5.792  16.464  -9.327  1.00  0.00     0.167 HD
ATOM     61  C   UNL     1       5.753  15.369 -11.947  1.00  0.00     0.074 A 
ATOM     62  C   UNL     1       5.939  14.447 -13.049  1.00  0.00     0.031 C 
ATOM     63  C   UNL     1       5.061  16.532 -12.032  1.00  0.00     0.034 A 
BRANCH  50  64
ATOM     64  C   UNL     1       4.544  19.563  -6.658  1.00  0.00     0.023 A 
ATOM     65  C   UNL     1       5.407  20.559  -6.154  1.00  0.00     0.012 A 
ATOM     66  C   UNL     1       3.155  19.693  -6.463  1.00  0.00     0.148 A 
ATOM     67  C   UNL     1       4.904  21.634  -5.423  1.00  0.00     0.002 A 
ATOM     68  C   UNL     1       2.656  20.794  -5.776  1.00  0.00     0.091 A 
ATOM     69  F   UNL     1       2.349  18.729  -6.931  1.00  0.00    -0.205 F 
ATOM     70  C   UNL     1       3.529  21.756  -5.242  1.00  0.00     0.022 A 
BRANCH  68  71
ATOM     71  S   UNL     1       0.897  21.085  -5.562  1.00  0.00     0.127 S 
ATOM     72  O   UNL     1       0.720  20.787  -4.141  1.00  0.00    -0.237 OA
ATOM     73  O   UNL     1       0.774  22.501  -5.908  1.00  0.00    -0.237 OA
ATOM     74  O   UNL     1       0.226  20.176  -6.481  1.00  0.00    -0.744 OA
ENDBRANCH  68  71
ENDBRANCH  50  64
BRANCH  51  75
ATOM     75  C   UNL     1       8.301  11.479 -11.197  1.00  0.00     0.023 A 
ATOM     76  C   UNL     1       9.284  11.649 -12.190  1.00  0.00     0.012 A 
ATOM     77  C   UNL     1       7.892  10.177 -10.850  1.00  0.00     0.148 A 
ATOM     78  C   UNL     1       9.831  10.547 -12.848  1.00  0.00     0.002 A 
ATOM     79  C   UNL     1       8.479   9.080 -11.471  1.00  0.00     0.091 A 
ATOM     80  F   UNL     1       6.952  10.037  -9.905  1.00  0.00    -0.205 F 
ATOM     81  C   UNL     1       9.435   9.263 -12.482  1.00  0.00     0.022 A 
BRANCH  79  82
ATOM     82  S   UNL     1       8.124   7.387 -10.986  1.00  0.00     0.127 S 
ATOM     83  O   UNL     1       7.471   6.863 -12.183  1.00  0.00    -0.237 OA
ATOM     84  O   UNL     1       9.466   6.861 -10.735  1.00  0.00    -0.237 OA
ATOM     85  O   UNL     1       7.282   7.482  -9.802  1.00  0.00    -0.744 OA
ENDBRANCH  79  82
ENDBRANCH  51  75
BRANCH  63  86
ATOM     86  C   UNL     1       4.478  16.902 -13.372  1.00  0.00     0.023 A 
ATOM     87  C   UNL     1       3.366  16.199 -13.874  1.00  0.00     0.012 A 
ATOM     88  C   UNL     1       4.986  18.001 -14.094  1.00  0.00     0.148 A 
ATOM     89  C   UNL     1       2.786  16.564 -15.088  1.00  0.00     0.002 A 
ATOM     90  C   UNL     1       4.370  18.392 -15.277  1.00  0.00     0.091 A 
ATOM     91  F   UNL     1       6.055  18.647 -13.607  1.00  0.00    -0.205 F 
ATOM     92  C   UNL     1       3.279  17.667 -15.782  1.00  0.00     0.022 A 
BRANCH  90  93
ATOM     93  S   UNL     1       4.870  19.857 -16.189  1.00  0.00     0.127 S 
ATOM     94  O   UNL     1       5.421  19.272 -17.411  1.00  0.00    -0.237 OA
ATOM     95  O   UNL     1       3.597  20.556 -16.368  1.00  0.00    -0.237 OA
ATOM     96  O   UNL     1       5.832  20.551 -15.344  1.00  0.00    -0.744 OA
ENDBRANCH  90  93
ENDBRANCH  63  86
ENDBRANCH  37  38
ENDBRANCH  29  32
ENDBRANCH  27  28
ENDBRANCH  26  27
ENDBRANCH  25  26
ENDBRANCH   1  25
TORSDOF 20
