REMARK SMILES CC[C@@H](C)c1ccccc1NC(=O)[C@@H]1[C@@H](C(=O)NCCCCCCNC(=O)c2ccc(-c3c4nc(c(-c5cccc(S(=O)(=O)[O-])c5F)c5ccc([nH]5)c(-c5cccc(S(=O)(=O)[O-])c5F)c5nc(c(-c6cccc(S(=O)(=O)[O-])c6F)c6ccc3[nH]6)C=C5)C=C4)cc2)[C@@H]2C=C[C@H]1C2
REMARK SMILES IDX 21 1 20 2 19 3 18 4 16 5 17 6 15 8 14 9 94 10 91 11 93 12
REMARK SMILES IDX 95 13 92 14 12 15 11 16 13 18 10 19 5 20 6 21 7 22 9 23 8 24
REMARK SMILES IDX 3 25 4 26 2 27 1 28 22 29 23 30 24 31 25 32 26 33 27 35
REMARK SMILES IDX 28 36 29 37 90 38 30 39 89 40 31 41 32 42 33 43 83 44 34 45
REMARK SMILES IDX 88 46 82 47 84 48 35 49 87 50 81 51 80 52 36 54 68 55 48 56
REMARK SMILES IDX 67 57 49 58 52 59 66 60 85 61 50 62 51 63 65 65 86 66 53 67
REMARK SMILES IDX 37 68 38 69 46 70 39 71 41 72 47 73 40 74 42 75 43 76 44 77
REMARK SMILES IDX 45 78 69 79 70 80 78 81 71 82 73 83 79 84 72 85 74 86 75 87
REMARK SMILES IDX 76 88 77 89 54 90 55 91 63 92 56 93 58 94 64 95 57 96 59 97
REMARK SMILES IDX 60 98 61 99 62 100
REMARK H PARENT 18 7 11 17 25 34 84 53 52 64
REMARK Flexibility Score: inf
ROOT
ATOM      1  C   UNL     1      -3.475   9.169   4.596  1.00  0.00     0.002 C 
ENDROOT
BRANCH   1   2
ATOM      2  C   UNL     1      -2.063   8.637   4.330  1.00  0.00     0.021 C 
BRANCH   2   3
ATOM      3  C   UNL     1      -1.559   7.576   5.306  1.00  0.00     0.116 C 
BRANCH   3   4
ATOM      4  N   UNL     1      -2.505   6.493   5.512  1.00  0.00    -0.356 N 
ATOM      5  C   UNL     1      -2.281   5.153   5.625  1.00  0.00     0.224 C 
ATOM      6  O   UNL     1      -3.234   4.430   5.908  1.00  0.00    -0.275 OA
ATOM      7  H   UNL     1      -3.448   6.768   5.581  1.00  0.00     0.163 HD
BRANCH   5   8
ATOM      8  C   UNL     1      -0.881   4.626   5.336  1.00  0.00     0.098 C 
ATOM      9  C   UNL     1      -0.789   3.080   5.327  1.00  0.00     0.099 C 
ATOM     10  C   UNL     1       0.174   2.780   6.513  1.00  0.00     0.025 C 
ATOM     11  C   UNL     1       0.114   5.010   6.475  1.00  0.00     0.025 C 
ATOM     12  C   UNL     1       1.558   3.242   6.137  1.00  0.00    -0.027 C 
ATOM     13  C   UNL     1      -0.176   3.906   7.494  1.00  0.00     0.017 C 
ATOM     14  C   UNL     1       1.525   4.583   6.117  1.00  0.00    -0.027 C 
BRANCH   9  15
ATOM     15  C   UNL     1      -0.452   2.221   4.108  1.00  0.00     0.228 C 
ATOM     16  N   UNL     1      -0.034   2.531   2.859  1.00  0.00    -0.326 N 
ATOM     17  H   UNL     1      -0.093   1.731   2.289  1.00  0.00     0.169 HD
ATOM     18  O   UNL     1      -0.642   0.994   4.249  1.00  0.00    -0.274 OA
BRANCH  16  19
ATOM     19  C   UNL     1       0.457   3.608   2.098  1.00  0.00     0.044 A 
ATOM     20  C   UNL     1       0.529   3.559   0.680  1.00  0.00    -0.022 A 
ATOM     21  C   UNL     1       0.626   4.810   0.005  1.00  0.00     0.006 A 
ATOM     22  C   UNL     1       0.794   6.019   0.675  1.00  0.00     0.000 A 
ATOM     23  C   UNL     1       0.885   4.781   2.710  1.00  0.00     0.026 A 
ATOM     24  C   UNL     1       1.007   5.992   2.033  1.00  0.00     0.002 A 
BRANCH  20  25
ATOM     25  C   UNL     1       0.798   2.302  -0.200  1.00  0.00     0.018 C 
ATOM     26  C   UNL     1       0.140   2.380  -1.594  1.00  0.00     0.013 C 
BRANCH  25  27
ATOM     27  C   UNL     1       0.581   0.896   0.407  1.00  0.00     0.005 C 
ATOM     28  C   UNL     1       1.098  -0.271  -0.430  1.00  0.00     0.004 C 
ENDBRANCH  25  27
ENDBRANCH  20  25
ENDBRANCH  16  19
ENDBRANCH   9  15
ENDBRANCH   5   8
ENDBRANCH   3   4
ENDBRANCH   2   3
ENDBRANCH   1   2
BRANCH   1  29
ATOM     29  C   UNL     1      -3.758   9.622   6.031  1.00  0.00     0.002 C 
BRANCH  29  30
ATOM     30  C   UNL     1      -2.843  10.722   6.569  1.00  0.00     0.021 C 
BRANCH  30  31
ATOM     31  C   UNL     1      -2.810  12.001   5.740  1.00  0.00     0.116 C 
BRANCH  31  32
ATOM     32  N   UNL     1      -4.121  12.614   5.609  1.00  0.00    -0.352 N 
ATOM     33  C   UNL     1      -4.509  13.912   5.834  1.00  0.00     0.251 C 
ATOM     34  H   UNL     1      -4.840  12.008   5.316  1.00  0.00     0.163 HD
ATOM     35  O   UNL     1      -5.702  14.198   5.826  1.00  0.00    -0.269 OA
BRANCH  33  36
ATOM     36  C   UNL     1      -3.498  14.959   6.102  1.00  0.00     0.039 A 
ATOM     37  C   UNL     1      -3.756  15.897   7.105  1.00  0.00     0.014 A 
ATOM     38  C   UNL     1      -2.312  15.034   5.365  1.00  0.00     0.014 A 
ATOM     39  C   UNL     1      -2.805  16.877   7.400  1.00  0.00     0.010 A 
ATOM     40  C   UNL     1      -1.332  15.962   5.713  1.00  0.00     0.010 A 
ATOM     41  C   UNL     1      -1.571  16.899   6.728  1.00  0.00    -0.014 A 
BRANCH  41  42
ATOM     42  C   UNL     1      -0.524  17.888   7.098  1.00  0.00     0.031 A 
ATOM     43  C   UNL     1      -0.050  18.917   6.107  1.00  0.00     0.074 A 
ATOM     44  C   UNL     1       0.045  17.821   8.319  1.00  0.00     0.049 A 
ATOM     45  N   UNL     1       0.839  19.864   6.266  1.00  0.00    -0.248 NA
ATOM     46  C   UNL     1      -0.628  18.863   4.754  1.00  0.00     0.031 C 
ATOM     47  C   UNL     1      -0.259  16.814   9.338  1.00  0.00     0.029 A 
ATOM     48  N   UNL     1       1.007  18.604   8.905  1.00  0.00    -0.354 N 
ATOM     49  C   UNL     1       0.947  20.499   5.034  1.00  0.00     0.074 A 
ATOM     50  C   UNL     1       0.062  19.804   4.125  1.00  0.00     0.031 C 
ATOM     51  C   UNL     1       0.487  17.051  10.428  1.00  0.00     0.029 A 
ATOM     52  C   UNL     1       1.341  18.208  10.178  1.00  0.00     0.049 A 
ATOM     53  H   UNL     1       1.420  19.377   8.455  1.00  0.00     0.167 HD
ATOM     54  C   UNL     1       1.690  21.581   4.697  1.00  0.00     0.034 A 
ATOM     55  C   UNL     1       2.233  18.718  11.050  1.00  0.00     0.034 A 
ATOM     56  C   UNL     1       2.542  22.292   5.612  1.00  0.00     0.049 A 
ATOM     57  C   UNL     1       3.008  19.949  10.667  1.00  0.00     0.074 A 
ATOM     58  C   UNL     1       3.266  23.451   5.391  1.00  0.00     0.029 A 
ATOM     59  N   UNL     1       2.797  21.907   6.919  1.00  0.00    -0.354 N 
ATOM     60  N   UNL     1       2.966  20.637   9.552  1.00  0.00    -0.248 NA
ATOM     61  C   UNL     1       3.923  20.498  11.678  1.00  0.00     0.031 C 
ATOM     62  C   UNL     1       3.980  23.751   6.556  1.00  0.00     0.029 A 
ATOM     63  C   UNL     1       3.676  22.798   7.514  1.00  0.00     0.049 A 
ATOM     64  H   UNL     1       2.410  21.117   7.361  1.00  0.00     0.167 HD
ATOM     65  C   UNL     1       3.822  21.716   9.738  1.00  0.00     0.074 A 
ATOM     66  C   UNL     1       4.345  21.606  11.084  1.00  0.00     0.031 C 
ATOM     67  C   UNL     1       4.158  22.702   8.868  1.00  0.00     0.034 A 
BRANCH  54  68
ATOM     68  C   UNL     1       1.574  22.097   3.284  1.00  0.00     0.023 A 
ATOM     69  C   UNL     1       0.383  22.728   2.869  1.00  0.00     0.012 A 
ATOM     70  C   UNL     1       2.658  22.014   2.389  1.00  0.00     0.148 A 
ATOM     71  C   UNL     1       0.259  23.235   1.576  1.00  0.00     0.002 A 
ATOM     72  C   UNL     1       2.543  22.564   1.117  1.00  0.00     0.091 A 
ATOM     73  F   UNL     1       3.776  21.394   2.792  1.00  0.00    -0.205 F 
ATOM     74  C   UNL     1       1.341  23.163   0.705  1.00  0.00     0.022 A 
BRANCH  72  75
ATOM     75  S   UNL     1       3.905  22.594  -0.055  1.00  0.00     0.127 S 
ATOM     76  O   UNL     1       3.450  21.636  -1.061  1.00  0.00    -0.237 OA
ATOM     77  O   UNL     1       3.901  23.989  -0.495  1.00  0.00    -0.237 OA
ATOM     78  O   UNL     1       5.090  22.197   0.696  1.00  0.00    -0.744 OA
ENDBRANCH  72  75
ENDBRANCH  54  68
BRANCH  55  79
ATOM     79  C   UNL     1       2.387  18.107  12.401  1.00  0.00     0.023 A 
ATOM     80  C   UNL     1       1.940  18.809  13.536  1.00  0.00     0.012 A 
ATOM     81  C   UNL     1       2.949  16.826  12.563  1.00  0.00     0.148 A 
ATOM     82  C   UNL     1       2.082  18.263  14.812  1.00  0.00     0.002 A 
ATOM     83  C   UNL     1       3.034  16.263  13.831  1.00  0.00     0.091 A 
ATOM     84  F   UNL     1       3.378  16.178  11.470  1.00  0.00    -0.205 F 
ATOM     85  C   UNL     1       2.619  16.987  14.959  1.00  0.00     0.022 A 
BRANCH  83  86
ATOM     86  S   UNL     1       3.586  14.575  14.098  1.00  0.00     0.127 S 
ATOM     87  O   UNL     1       4.880  14.781  14.743  1.00  0.00    -0.237 OA
ATOM     88  O   UNL     1       2.537  14.050  14.973  1.00  0.00    -0.237 OA
ATOM     89  O   UNL     1       3.627  13.961  12.777  1.00  0.00    -0.744 OA
ENDBRANCH  83  86
ENDBRANCH  55  79
BRANCH  67  90
ATOM     90  C   UNL     1       5.116  23.759   9.353  1.00  0.00     0.023 A 
ATOM     91  C   UNL     1       6.471  23.436   9.565  1.00  0.00     0.012 A 
ATOM     92  C   UNL     1       4.684  25.085   9.552  1.00  0.00     0.148 A 
ATOM     93  C   UNL     1       7.371  24.404  10.011  1.00  0.00     0.002 A 
ATOM     94  C   UNL     1       5.597  26.057   9.945  1.00  0.00     0.091 A 
ATOM     95  F   UNL     1       3.387  25.372   9.364  1.00  0.00    -0.205 F 
ATOM     96  C   UNL     1       6.937  25.715  10.190  1.00  0.00     0.022 A 
BRANCH  94  97
ATOM     97  S   UNL     1       5.148  27.789  10.106  1.00  0.00     0.127 S 
ATOM     98  O   UNL     1       5.114  27.954  11.558  1.00  0.00    -0.237 OA
ATOM     99  O   UNL     1       6.264  28.463   9.442  1.00  0.00    -0.237 OA
ATOM    100  O   UNL     1       3.867  27.934   9.428  1.00  0.00    -0.744 OA
ENDBRANCH  94  97
ENDBRANCH  67  90
ENDBRANCH  41  42
ENDBRANCH  33  36
ENDBRANCH  31  32
ENDBRANCH  30  31
ENDBRANCH  29  30
ENDBRANCH   1  29
TORSDOF 20
