REMARK SMILES CC(C)[C@H]([NH2+][C@H]1CCCS[C@H]1C)C(=O)NCCCCCCNC(=O)c1ccc(-c2c3nc(c(-c4cccc(S(=O)(=O)[O-])c4F)c4ccc([nH]4)c(-c4cccc(S(=O)(=O)[O-])c4F)c4nc(c(-c5cccc(S(=O)(=O)[O-])c5F)c5ccc2[nH]5)C=C4)C=C3)cc1
REMARK SMILES IDX 19 1 18 2 17 3 16 4 15 5 13 6 14 7 4 9 2 10 1 11 3 12 5 13
REMARK SMILES IDX 6 16 7 17 11 18 8 19 10 20 12 21 9 22 20 23 21 24 22 25
REMARK SMILES IDX 23 26 24 28 25 29 26 30 87 31 27 32 86 33 28 34 29 35 30 36
REMARK SMILES IDX 80 37 31 38 85 39 79 40 81 41 32 42 84 43 78 44 77 45 33 47
REMARK SMILES IDX 65 48 45 49 64 50 46 51 49 52 63 53 82 54 47 55 48 56 62 58
REMARK SMILES IDX 83 59 50 60 34 61 35 62 43 63 36 64 38 65 44 66 37 67 39 68
REMARK SMILES IDX 40 69 41 70 42 71 66 72 67 73 75 74 68 75 70 76 76 77 69 78
REMARK SMILES IDX 71 79 72 80 73 81 74 82 51 83 52 84 60 85 53 86 55 87 61 88
REMARK SMILES IDX 54 89 56 90 57 91 58 92 59 93
REMARK H PARENT 15 8 5 14 5 15 22 27 81 46 49 57
REMARK Flexibility Score: inf
ROOT
ATOM      1  C   UNL     1      -2.354  -1.227   7.418  1.00  0.00     0.002 C 
ENDROOT
BRANCH   1   2
ATOM      2  C   UNL     1      -3.701  -0.499   7.369  1.00  0.00     0.002 C 
BRANCH   2   3
ATOM      3  C   UNL     1      -3.723   0.789   6.538  1.00  0.00     0.021 C 
BRANCH   3   4
ATOM      4  C   UNL     1      -3.225   0.628   5.103  1.00  0.00     0.116 C 
BRANCH   4   5
ATOM      5  N   UNL     1      -4.082  -0.260   4.335  1.00  0.00    -0.351 N 
ATOM      6  C   UNL     1      -4.726  -0.059   3.147  1.00  0.00     0.278 C 
ATOM      7  O   UNL     1      -5.298  -1.024   2.631  1.00  0.00    -0.268 OA
ATOM      8  H   UNL     1      -4.221  -1.148   4.735  1.00  0.00     0.163 HD
BRANCH   6   9
ATOM      9  C   UNL     1      -4.734   1.335   2.464  1.00  0.00     0.275 C 
BRANCH   9  10
ATOM     10  C   UNL     1      -3.303   1.609   1.904  1.00  0.00     0.051 C 
ATOM     11  C   UNL     1      -3.206   1.096   0.461  1.00  0.00     0.014 C 
ATOM     12  C   UNL     1      -2.849   3.070   1.952  1.00  0.00     0.014 C 
ENDBRANCH   9  10
BRANCH   9  13
ATOM     13  N   UNL     1      -5.240   2.352   3.412  1.00  0.00    -0.332 N 
ATOM     14  H   UNL     1      -4.510   3.056   3.515  1.00  0.00     0.347 HD
ATOM     15  H   UNL     1      -5.474   1.815   4.247  1.00  0.00     0.347 HD
BRANCH  13  16
ATOM     16  C   UNL     1      -6.493   3.069   3.086  1.00  0.00     0.195 C 
ATOM     17  C   UNL     1      -6.598   3.533   1.619  1.00  0.00     0.067 C 
ATOM     18  C   UNL     1      -7.778   2.378   3.634  1.00  0.00     0.101 C 
ATOM     19  C   UNL     1      -7.782   4.463   1.355  1.00  0.00     0.017 C 
ATOM     20  S   UNL     1      -9.264   3.441   3.432  1.00  0.00    -0.153 SA
ATOM     21  C   UNL     1      -8.078   0.997   3.058  1.00  0.00     0.026 C 
ATOM     22  C   UNL     1      -9.122   3.818   1.666  1.00  0.00     0.070 C 
ENDBRANCH  13  16
ENDBRANCH   9  13
ENDBRANCH   6   9
ENDBRANCH   4   5
ENDBRANCH   3   4
ENDBRANCH   2   3
ENDBRANCH   1   2
BRANCH   1  23
ATOM     23  C   UNL     1      -1.161  -0.379   7.867  1.00  0.00     0.021 C 
BRANCH  23  24
ATOM     24  C   UNL     1      -1.315   0.295   9.227  1.00  0.00     0.116 C 
BRANCH  24  25
ATOM     25  N   UNL     1      -1.519  -0.664  10.299  1.00  0.00    -0.352 N 
ATOM     26  C   UNL     1      -0.886  -0.768  11.512  1.00  0.00     0.251 C 
ATOM     27  H   UNL     1      -2.215  -1.340  10.130  1.00  0.00     0.163 HD
ATOM     28  O   UNL     1      -1.090  -1.755  12.217  1.00  0.00    -0.269 OA
BRANCH  26  29
ATOM     29  C   UNL     1       0.050   0.284  11.967  1.00  0.00     0.039 A 
ATOM     30  C   UNL     1       1.247  -0.106  12.575  1.00  0.00     0.014 A 
ATOM     31  C   UNL     1      -0.251   1.642  11.826  1.00  0.00     0.014 A 
ATOM     32  C   UNL     1       2.160   0.864  12.997  1.00  0.00     0.010 A 
ATOM     33  C   UNL     1       0.690   2.606  12.188  1.00  0.00     0.010 A 
ATOM     34  C   UNL     1       1.901   2.228  12.784  1.00  0.00    -0.014 A 
BRANCH  34  35
ATOM     35  C   UNL     1       2.908   3.255  13.157  1.00  0.00     0.031 A 
ATOM     36  C   UNL     1       2.618   4.268  14.231  1.00  0.00     0.074 A 
ATOM     37  C   UNL     1       4.070   3.314  12.477  1.00  0.00     0.049 A 
ATOM     38  N   UNL     1       3.392   5.214  14.700  1.00  0.00    -0.248 NA
ATOM     39  C   UNL     1       1.280   4.233  14.843  1.00  0.00     0.031 C 
ATOM     40  C   UNL     1       4.431   2.455  11.347  1.00  0.00     0.029 A 
ATOM     41  N   UNL     1       5.155   4.142  12.623  1.00  0.00    -0.354 N 
ATOM     42  C   UNL     1       2.631   5.902  15.637  1.00  0.00     0.074 A 
ATOM     43  C   UNL     1       1.321   5.287  15.647  1.00  0.00     0.031 C 
ATOM     44  C   UNL     1       5.654   2.795  10.909  1.00  0.00     0.029 A 
ATOM     45  C   UNL     1       6.159   3.901  11.715  1.00  0.00     0.049 A 
ATOM     46  H   UNL     1       5.209   4.842  13.314  1.00  0.00     0.167 HD
ATOM     47  C   UNL     1       2.997   6.931  16.439  1.00  0.00     0.034 A 
ATOM     48  C   UNL     1       7.356   4.498  11.554  1.00  0.00     0.034 A 
ATOM     49  C   UNL     1       4.314   7.510  16.461  1.00  0.00     0.049 A 
ATOM     50  C   UNL     1       7.766   5.586  12.509  1.00  0.00     0.074 A 
ATOM     51  C   UNL     1       4.812   8.485  17.307  1.00  0.00     0.029 A 
ATOM     52  N   UNL     1       5.341   7.173  15.593  1.00  0.00    -0.354 N 
ATOM     53  N   UNL     1       7.098   6.093  13.516  1.00  0.00    -0.248 NA
ATOM     54  C   UNL     1       9.111   6.151  12.334  1.00  0.00     0.031 C 
ATOM     55  C   UNL     1       6.137   8.748  16.941  1.00  0.00     0.029 A 
ATOM     56  C   UNL     1       6.469   7.926  15.877  1.00  0.00     0.049 A 
ATOM     57  H   UNL     1       5.278   6.498  14.879  1.00  0.00     0.167 HD
ATOM     58  C   UNL     1       7.949   7.017  14.111  1.00  0.00     0.074 A 
ATOM     59  C   UNL     1       9.194   6.974  13.370  1.00  0.00     0.031 C 
ATOM     60  C   UNL     1       7.716   7.843  15.161  1.00  0.00     0.034 A 
BRANCH  47  61
ATOM     61  C   UNL     1       1.975   7.455  17.415  1.00  0.00     0.023 A 
ATOM     62  C   UNL     1       1.633   6.679  18.541  1.00  0.00     0.012 A 
ATOM     63  C   UNL     1       1.405   8.734  17.259  1.00  0.00     0.148 A 
ATOM     64  C   UNL     1       0.717   7.151  19.480  1.00  0.00     0.002 A 
ATOM     65  C   UNL     1       0.523   9.215  18.221  1.00  0.00     0.091 A 
ATOM     66  F   UNL     1       1.724   9.449  16.171  1.00  0.00    -0.205 F 
ATOM     67  C   UNL     1       0.171   8.422  19.326  1.00  0.00     0.022 A 
BRANCH  65  68
ATOM     68  S   UNL     1      -0.175  10.870  18.151  1.00  0.00     0.127 S 
ATOM     69  O   UNL     1      -1.565  10.587  17.789  1.00  0.00    -0.237 OA
ATOM     70  O   UNL     1       0.010  11.341  19.526  1.00  0.00    -0.237 OA
ATOM     71  O   UNL     1       0.599  11.590  17.154  1.00  0.00    -0.744 OA
ENDBRANCH  65  68
ENDBRANCH  47  61
BRANCH  48  72
ATOM     72  C   UNL     1       8.288   4.015  10.496  1.00  0.00     0.023 A 
ATOM     73  C   UNL     1       9.448   3.309  10.868  1.00  0.00     0.012 A 
ATOM     74  C   UNL     1       8.014   4.216   9.130  1.00  0.00     0.148 A 
ATOM     75  C   UNL     1      10.335   2.837   9.899  1.00  0.00     0.002 A 
ATOM     76  C   UNL     1       8.873   3.695   8.168  1.00  0.00     0.091 A 
ATOM     77  F   UNL     1       6.912   4.903   8.796  1.00  0.00    -0.205 F 
ATOM     78  C   UNL     1      10.042   3.020   8.551  1.00  0.00     0.022 A 
BRANCH  76  79
ATOM     79  S   UNL     1       8.496   3.765   6.413  1.00  0.00     0.127 S 
ATOM     80  O   UNL     1       9.407   4.809   5.952  1.00  0.00    -0.237 OA
ATOM     81  O   UNL     1       8.837   2.411   5.973  1.00  0.00    -0.237 OA
ATOM     82  O   UNL     1       7.076   4.076   6.332  1.00  0.00    -0.744 OA
ENDBRANCH  76  79
ENDBRANCH  48  72
BRANCH  60  83
ATOM     83  C   UNL     1       8.833   8.762  15.581  1.00  0.00     0.023 A 
ATOM     84  C   UNL     1       9.169   9.864  14.769  1.00  0.00     0.012 A 
ATOM     85  C   UNL     1       9.517   8.566  16.797  1.00  0.00     0.148 A 
ATOM     86  C   UNL     1      10.194  10.733  15.140  1.00  0.00     0.002 A 
ATOM     87  C   UNL     1      10.506   9.464  17.183  1.00  0.00     0.091 A 
ATOM     88  F   UNL     1       9.201   7.501  17.548  1.00  0.00    -0.205 F 
ATOM     89  C   UNL     1      10.855  10.540  16.351  1.00  0.00     0.022 A 
BRANCH  87  90
ATOM     90  S   UNL     1      11.341   9.337  18.770  1.00  0.00     0.127 S 
ATOM     91  O   UNL     1      12.604   8.706  18.394  1.00  0.00    -0.237 OA
ATOM     92  O   UNL     1      11.457  10.738  19.179  1.00  0.00    -0.237 OA
ATOM     93  O   UNL     1      10.461   8.539  19.613  1.00  0.00    -0.744 OA
ENDBRANCH  87  90
ENDBRANCH  60  83
ENDBRANCH  34  35
ENDBRANCH  26  29
ENDBRANCH  24  25
ENDBRANCH  23  24
ENDBRANCH   1  23
TORSDOF 19
