REMARK SMILES C[C@@H]1CN(S(=O)(=O)c2cccc(C(=O)N3CCC[C@@H]3C(=O)NCCCCCCNC(=O)c3ccc(-c4c5nc(c(-c6cccc(S(=O)(=O)[O-])c6F)c6ccc([nH]6)c(-c6cccc(S(=O)(=O)[O-])c6F)c6nc(c(-c7cccc(S(=O)(=O)[O-])c7F)c7ccc4[nH]7)C=C6)C=C5)cc3)c2)C[C@H](C)O1
REMARK SMILES IDX 25 1 24 2 23 3 22 4 20 5 21 6 19 8 15 9 16 10 17 11 18 12
REMARK SMILES IDX 13 13 14 14 12 15 8 16 9 17 95 18 10 19 11 20 5 21 6 22 7 23
REMARK SMILES IDX 4 24 1 25 2 26 3 27 99 28 97 29 96 30 98 31 26 32 27 33
REMARK SMILES IDX 28 34 29 35 30 36 31 38 32 39 33 40 94 41 34 42 93 43 35 44
REMARK SMILES IDX 36 45 37 46 87 47 38 48 92 49 86 50 88 51 39 52 91 53 85 54
REMARK SMILES IDX 84 55 40 57 72 58 52 59 71 60 53 61 56 62 70 63 89 64 54 65
REMARK SMILES IDX 55 66 69 68 90 69 57 70 41 71 42 72 50 73 43 74 45 75 51 76
REMARK SMILES IDX 44 77 46 78 47 79 48 80 49 81 73 82 74 83 82 84 75 85 77 86
REMARK SMILES IDX 83 87 76 88 78 89 79 90 80 91 81 92 58 93 59 94 67 95 60 96
REMARK SMILES IDX 62 97 68 98 61 99 63 100 64 101 65 102 66 103
REMARK H PARENT 22 7 29 37 88 56 56 67
REMARK Flexibility Score: inf
ROOT
ATOM      1  C   UNL     1       2.026  -1.540  -0.390  1.00  0.00     0.002 C 
ENDROOT
BRANCH   1   2
ATOM      2  C   UNL     1       1.940  -0.903  -1.795  1.00  0.00     0.021 C 
BRANCH   2   3
ATOM      3  C   UNL     1       3.205  -0.362  -2.474  1.00  0.00     0.116 C 
BRANCH   3   4
ATOM      4  N   UNL     1       3.758  -1.306  -3.431  1.00  0.00    -0.354 N 
ATOM      5  C   UNL     1       3.917  -1.256  -4.786  1.00  0.00     0.242 C 
ATOM      6  O   UNL     1       4.201  -2.331  -5.333  1.00  0.00    -0.273 OA
ATOM      7  H   UNL     1       4.079  -2.142  -3.023  1.00  0.00     0.163 HD
BRANCH   5   8
ATOM      8  C   UNL     1       3.604  -0.023  -5.670  1.00  0.00     0.174 C 
ATOM      9  N   UNL     1       3.911   1.299  -5.149  1.00  0.00    -0.327 N 
ATOM     10  C   UNL     1       3.028   2.265  -5.786  1.00  0.00     0.121 C 
ATOM     11  C   UNL     1       1.706   1.529  -5.758  1.00  0.00     0.024 C 
ATOM     12  C   UNL     1       2.108   0.073  -6.036  1.00  0.00     0.037 C 
BRANCH   9  13
ATOM     13  C   UNL     1       5.195   1.593  -4.734  1.00  0.00     0.254 C 
ATOM     14  O   UNL     1       6.188   1.046  -5.202  1.00  0.00    -0.269 OA
BRANCH  13  15
ATOM     15  C   UNL     1       5.304   2.415  -3.488  1.00  0.00     0.041 A 
ATOM     16  C   UNL     1       4.282   3.699  -1.699  1.00  0.00     0.083 A 
ATOM     17  C   UNL     1       5.510   3.781  -1.040  1.00  0.00     0.022 A 
ATOM     18  C   UNL     1       4.182   2.997  -2.894  1.00  0.00     0.035 A 
ATOM     19  C   UNL     1       6.638   3.181  -1.611  1.00  0.00     0.002 A 
ATOM     20  C   UNL     1       6.540   2.518  -2.840  1.00  0.00     0.014 A 
BRANCH  16  21
ATOM     21  S   UNL     1       2.947   4.803  -1.297  1.00  0.00     0.243 S 
ATOM     22  O   UNL     1       2.433   5.293  -2.565  1.00  0.00    -0.207 OA
ATOM     23  O   UNL     1       3.450   5.688  -0.280  1.00  0.00    -0.207 OA
BRANCH  21  24
ATOM     24  N   UNL     1       1.703   3.893  -0.600  1.00  0.00    -0.193 NA
ATOM     25  C   UNL     1      -0.899   1.056  -1.062  1.00  0.00     0.040 C 
ATOM     26  C   UNL     1      -0.391   2.475  -0.816  1.00  0.00     0.130 C 
ATOM     27  C   UNL     1       1.074   2.733  -1.307  1.00  0.00     0.134 C 
ATOM     28  O   UNL     1      -0.521   2.708   0.594  1.00  0.00    -0.373 OA
ATOM     29  C   UNL     1      -0.126   4.031   1.005  1.00  0.00     0.130 C 
ATOM     30  C   UNL     1       0.627   4.799  -0.079  1.00  0.00     0.134 C 
ATOM     31  C   UNL     1       0.768   3.906   2.236  1.00  0.00     0.040 C 
ENDBRANCH  21  24
ENDBRANCH  16  21
ENDBRANCH  13  15
ENDBRANCH   9  13
ENDBRANCH   5   8
ENDBRANCH   3   4
ENDBRANCH   2   3
ENDBRANCH   1   2
BRANCH   1  32
ATOM     32  C   UNL     1       2.570  -0.760   0.830  1.00  0.00     0.002 C 
BRANCH  32  33
ATOM     33  C   UNL     1       1.723   0.288   1.607  1.00  0.00     0.021 C 
BRANCH  33  34
ATOM     34  C   UNL     1       0.303  -0.058   2.113  1.00  0.00     0.116 C 
BRANCH  34  35
ATOM     35  N   UNL     1       0.172  -0.190   3.564  1.00  0.00    -0.352 N 
ATOM     36  C   UNL     1      -0.508   0.506   4.548  1.00  0.00     0.251 C 
ATOM     37  H   UNL     1       0.685  -0.950   3.924  1.00  0.00     0.163 HD
ATOM     38  O   UNL     1      -0.426   0.053   5.695  1.00  0.00    -0.269 OA
BRANCH  36  39
ATOM     39  C   UNL     1      -1.282   1.778   4.366  1.00  0.00     0.039 A 
ATOM     40  C   UNL     1      -1.175   2.747   5.384  1.00  0.00     0.014 A 
ATOM     41  C   UNL     1      -2.143   2.061   3.305  1.00  0.00     0.014 A 
ATOM     42  C   UNL     1      -1.837   3.992   5.303  1.00  0.00     0.010 A 
ATOM     43  C   UNL     1      -2.783   3.325   3.209  1.00  0.00     0.010 A 
ATOM     44  C   UNL     1      -2.630   4.322   4.194  1.00  0.00    -0.014 A 
BRANCH  44  45
ATOM     45  C   UNL     1      -3.276   5.682   4.082  1.00  0.00     0.031 A 
ATOM     46  C   UNL     1      -4.782   5.840   4.069  1.00  0.00     0.074 A 
ATOM     47  C   UNL     1      -2.537   6.811   3.965  1.00  0.00     0.049 A 
ATOM     48  N   UNL     1      -5.501   6.939   4.035  1.00  0.00    -0.248 NA
ATOM     49  C   UNL     1      -5.583   4.609   4.084  1.00  0.00     0.031 C 
ATOM     50  C   UNL     1      -1.078   6.868   3.903  1.00  0.00     0.029 A 
ATOM     51  N   UNL     1      -2.916   8.136   3.860  1.00  0.00    -0.354 N 
ATOM     52  C   UNL     1      -6.831   6.534   4.007  1.00  0.00     0.074 A 
ATOM     53  C   UNL     1      -6.817   5.085   3.986  1.00  0.00     0.031 C 
ATOM     54  C   UNL     1      -0.686   8.147   3.763  1.00  0.00     0.029 A 
ATOM     55  C   UNL     1      -1.862   9.016   3.728  1.00  0.00     0.049 A 
ATOM     56  H   UNL     1      -3.857   8.426   3.878  1.00  0.00     0.167 HD
ATOM     57  C   UNL     1      -7.966   7.278   4.032  1.00  0.00     0.034 A 
ATOM     58  C   UNL     1      -1.828  10.362   3.608  1.00  0.00     0.034 A 
ATOM     59  C   UNL     1      -8.020   8.716   4.094  1.00  0.00     0.049 A 
ATOM     60  C   UNL     1      -3.102  11.171   3.657  1.00  0.00     0.074 A 
ATOM     61  C   UNL     1      -9.138   9.528   4.215  1.00  0.00     0.029 A 
ATOM     62  N   UNL     1      -6.926   9.560   4.028  1.00  0.00    -0.354 N 
ATOM     63  N   UNL     1      -4.335  10.763   3.826  1.00  0.00    -0.248 NA
ATOM     64  C   UNL     1      -2.974  12.636   3.543  1.00  0.00     0.031 C 
ATOM     65  C   UNL     1      -8.721  10.863   4.197  1.00  0.00     0.029 A 
ATOM     66  C   UNL     1      -7.342  10.883   4.091  1.00  0.00     0.049 A 
ATOM     67  H   UNL     1      -5.990   9.266   3.947  1.00  0.00     0.167 HD
ATOM     68  C   UNL     1      -5.116  11.915   3.886  1.00  0.00     0.074 A 
ATOM     69  C   UNL     1      -4.220  13.041   3.752  1.00  0.00     0.031 C 
ATOM     70  C   UNL     1      -6.460  12.020   4.029  1.00  0.00     0.034 A 
BRANCH  57  71
ATOM     71  C   UNL     1      -9.281   6.538   4.061  1.00  0.00     0.023 A 
ATOM     72  C   UNL     1      -9.669   5.872   5.242  1.00  0.00     0.012 A 
ATOM     73  C   UNL     1     -10.158   6.562   2.960  1.00  0.00     0.148 A 
ATOM     74  C   UNL     1     -10.892   5.206   5.313  1.00  0.00     0.002 A 
ATOM     75  C   UNL     1     -11.395   5.932   3.053  1.00  0.00     0.091 A 
ATOM     76  F   UNL     1      -9.768   7.192   1.843  1.00  0.00    -0.205 F 
ATOM     77  C   UNL     1     -11.757   5.244   4.223  1.00  0.00     0.022 A 
BRANCH  75  78
ATOM     78  S   UNL     1     -12.613   5.991   1.734  1.00  0.00     0.127 S 
ATOM     79  O   UNL     1     -12.545   4.628   1.211  1.00  0.00    -0.237 OA
ATOM     80  O   UNL     1     -13.843   6.304   2.462  1.00  0.00    -0.237 OA
ATOM     81  O   UNL     1     -12.166   7.035   0.823  1.00  0.00    -0.744 OA
ENDBRANCH  75  78
ENDBRANCH  57  71
BRANCH  58  82
ATOM     82  C   UNL     1      -0.518  11.075   3.500  1.00  0.00     0.023 A 
ATOM     83  C   UNL     1      -0.072  11.873   4.573  1.00  0.00     0.012 A 
ATOM     84  C   UNL     1       0.266  10.996   2.333  1.00  0.00     0.148 A 
ATOM     85  C   UNL     1       1.111  12.607   4.473  1.00  0.00     0.002 A 
ATOM     86  C   UNL     1       1.468  11.692   2.259  1.00  0.00     0.091 A 
ATOM     87  F   UNL     1      -0.185  10.247   1.317  1.00  0.00    -0.205 F 
ATOM     88  C   UNL     1       1.884  12.511   3.321  1.00  0.00     0.022 A 
BRANCH  86  89
ATOM     89  S   UNL     1       2.581  11.553   0.856  1.00  0.00     0.127 S 
ATOM     90  O   UNL     1       2.487  12.887   0.269  1.00  0.00    -0.237 OA
ATOM     91  O   UNL     1       3.854  11.258   1.514  1.00  0.00    -0.237 OA
ATOM     92  O   UNL     1       2.050  10.468   0.044  1.00  0.00    -0.744 OA
ENDBRANCH  86  89
ENDBRANCH  58  82
BRANCH  70  93
ATOM     93  C   UNL     1      -7.075  13.398   4.098  1.00  0.00     0.023 A 
ATOM     94  C   UNL     1      -7.142  14.198   2.940  1.00  0.00     0.012 A 
ATOM     95  C   UNL     1      -7.666  13.866   5.290  1.00  0.00     0.148 A 
ATOM     96  C   UNL     1      -7.762  15.449   2.973  1.00  0.00     0.002 A 
ATOM     97  C   UNL     1      -8.322  15.094   5.304  1.00  0.00     0.091 A 
ATOM     98  F   UNL     1      -7.578  13.104   6.389  1.00  0.00    -0.205 F 
ATOM     99  C   UNL     1      -8.362  15.891   4.149  1.00  0.00     0.022 A 
BRANCH  97 100
ATOM    100  S   UNL     1      -9.206  15.702   6.747  1.00  0.00     0.127 S 
ATOM    101  O   UNL     1      -8.328  16.779   7.203  1.00  0.00    -0.237 OA
ATOM    102  O   UNL     1     -10.473  16.152   6.170  1.00  0.00    -0.237 OA
ATOM    103  O   UNL     1      -9.325  14.567   7.652  1.00  0.00    -0.744 OA
ENDBRANCH  97 100
ENDBRANCH  70  93
ENDBRANCH  44  45
ENDBRANCH  36  39
ENDBRANCH  34  35
ENDBRANCH  33  34
ENDBRANCH  32  33
ENDBRANCH   1  32
TORSDOF 20
