REMARK SMILES CCOC(=O)[C@@H]1CCCCN1C(=O)N[C@](C)(CC)C(=O)NCCCCCCNC(=O)c1ccc(-c2c3nc(c(-c4cccc(S(=O)(=O)[O-])c4F)c4ccc([nH]4)c(-c4cccc(S(=O)(=O)[O-])c4F)c4nc(c(-c5cccc(S(=O)(=O)[O-])c5F)c5ccc2[nH]5)C=C4)C=C3)cc1
REMARK SMILES IDX 23 1 22 2 21 3 19 4 20 5 15 7 16 8 14 9 12 10 13 11 11 13
REMARK SMILES IDX 6 14 7 15 8 16 10 17 9 18 4 19 5 20 3 21 2 22 1 23 17 24
REMARK SMILES IDX 18 25 24 26 25 27 26 28 27 29 28 30 29 31 30 33 31 34 32 35
REMARK SMILES IDX 93 36 33 37 92 38 34 39 35 40 36 41 86 42 37 43 91 44 85 45
REMARK SMILES IDX 87 46 38 47 90 48 84 49 83 50 39 52 71 53 51 54 70 55 52 56
REMARK SMILES IDX 55 57 69 58 88 59 53 60 54 61 68 63 89 64 56 65 40 66 41 67
REMARK SMILES IDX 49 68 42 69 44 70 50 71 43 72 45 73 46 74 47 75 48 76 72 77
REMARK SMILES IDX 73 78 81 79 74 80 76 81 82 82 75 83 77 84 78 85 79 86 80 87
REMARK SMILES IDX 57 88 58 89 66 90 59 91 61 92 67 93 60 94 62 95 63 96 64 97
REMARK SMILES IDX 65 98
REMARK H PARENT 21 6 14 12 28 32 87 51 55 62
REMARK Flexibility Score: inf
ROOT
ATOM      1  C   UNL     1       2.046   2.463   9.646  1.00  0.00     0.021 C 
ENDROOT
BRANCH   1   2
ATOM      2  C   UNL     1       2.665   3.154   8.429  1.00  0.00     0.116 C 
BRANCH   2   3
ATOM      3  N   UNL     1       2.973   2.200   7.377  1.00  0.00    -0.354 N 
ATOM      4  C   UNL     1       2.397   1.915   6.174  1.00  0.00     0.245 C 
ATOM      5  O   UNL     1       2.756   0.859   5.642  1.00  0.00    -0.272 OA
ATOM      6  H   UNL     1       3.761   1.643   7.574  1.00  0.00     0.163 HD
BRANCH   4   7
ATOM      7  C   UNL     1       1.273   2.804   5.554  1.00  0.00     0.117 C 
ATOM      8  C   UNL     1       0.929   2.254   4.151  1.00  0.00     0.045 C 
BRANCH   7   9
ATOM      9  N   UNL     1       1.756   4.209   5.479  1.00  0.00    -0.324 N 
ATOM     10  C   UNL     1       2.318   4.769   4.363  1.00  0.00     0.319 C 
ATOM     11  O   UNL     1       3.475   4.514   4.054  1.00  0.00    -0.249 OA
ATOM     12  H   UNL     1       1.667   4.772   6.282  1.00  0.00     0.166 HD
BRANCH  10  13
ATOM     13  N   UNL     1       1.526   5.733   3.748  1.00  0.00    -0.311 N 
ATOM     14  C   UNL     1       2.072   6.471   2.589  1.00  0.00     0.196 C 
ATOM     15  C   UNL     1       1.292   7.795   2.403  1.00  0.00     0.037 C 
ATOM     16  C   UNL     1      -0.217   7.605   2.352  1.00  0.00     0.005 C 
ATOM     17  C   UNL     1       0.070   5.578   3.770  1.00  0.00     0.122 C 
ATOM     18  C   UNL     1      -0.690   6.876   3.595  1.00  0.00     0.022 C 
BRANCH  14  19
ATOM     19  C   UNL     1       3.544   6.926   2.580  1.00  0.00     0.328 C 
ATOM     20  O   UNL     1       4.158   7.120   1.532  1.00  0.00    -0.250 OA
BRANCH  19  21
ATOM     21  O   UNL     1       3.997   7.287   3.813  1.00  0.00    -0.464 OA
BRANCH  21  22
ATOM     22  C   UNL     1       5.335   7.804   3.842  1.00  0.00     0.229 C 
ATOM     23  C   UNL     1       6.337   6.665   3.898  1.00  0.00     0.049 C 
ENDBRANCH  21  22
ENDBRANCH  19  21
ENDBRANCH  14  19
ENDBRANCH  10  13
ENDBRANCH   7   9
BRANCH   7  24
ATOM     24  C   UNL     1      -0.011   2.783   6.433  1.00  0.00     0.035 C 
ATOM     25  C   UNL     1      -0.679   1.425   6.597  1.00  0.00     0.007 C 
ENDBRANCH   7  24
ENDBRANCH   4   7
ENDBRANCH   2   3
ENDBRANCH   1   2
BRANCH   1  26
ATOM     26  C   UNL     1       2.979   1.483  10.366  1.00  0.00     0.002 C 
BRANCH  26  27
ATOM     27  C   UNL     1       4.321   2.068  10.816  1.00  0.00     0.002 C 
BRANCH  27  28
ATOM     28  C   UNL     1       4.231   3.321  11.692  1.00  0.00     0.021 C 
BRANCH  28  29
ATOM     29  C   UNL     1       3.430   3.156  12.981  1.00  0.00     0.116 C 
BRANCH  29  30
ATOM     30  N   UNL     1       3.996   2.142  13.855  1.00  0.00    -0.352 N 
ATOM     31  C   UNL     1       4.300   2.204  15.191  1.00  0.00     0.251 C 
ATOM     32  H   UNL     1       4.190   1.280  13.422  1.00  0.00     0.163 HD
ATOM     33  O   UNL     1       4.940   1.289  15.705  1.00  0.00    -0.269 OA
BRANCH  31  34
ATOM     34  C   UNL     1       3.881   3.363  16.012  1.00  0.00     0.039 A 
ATOM     35  C   UNL     1       4.777   3.867  16.959  1.00  0.00     0.014 A 
ATOM     36  C   UNL     1       2.610   3.931  15.886  1.00  0.00     0.014 A 
ATOM     37  C   UNL     1       4.415   4.962  17.746  1.00  0.00     0.010 A 
ATOM     38  C   UNL     1       2.276   5.068  16.623  1.00  0.00     0.010 A 
ATOM     39  C   UNL     1       3.170   5.589  17.569  1.00  0.00    -0.014 A 
BRANCH  39  40
ATOM     40  C   UNL     1       2.822   6.803  18.353  1.00  0.00     0.031 A 
ATOM     41  C   UNL     1       1.680   6.796  19.333  1.00  0.00     0.074 A 
ATOM     42  C   UNL     1       3.514   7.941  18.141  1.00  0.00     0.049 A 
ATOM     43  N   UNL     1       1.284   7.748  20.140  1.00  0.00    -0.248 NA
ATOM     44  C   UNL     1       0.857   5.578  19.398  1.00  0.00     0.031 C 
ATOM     45  C   UNL     1       4.570   8.111  17.141  1.00  0.00     0.029 A 
ATOM     46  N   UNL     1       3.424   9.171  18.742  1.00  0.00    -0.354 N 
ATOM     47  C   UNL     1       0.156   7.258  20.786  1.00  0.00     0.074 A 
ATOM     48  C   UNL     1      -0.093   5.937  20.251  1.00  0.00     0.031 C 
ATOM     49  C   UNL     1       5.040   9.366  17.208  1.00  0.00     0.029 A 
ATOM     50  C   UNL     1       4.313  10.094  18.243  1.00  0.00     0.049 A 
ATOM     51  H   UNL     1       2.783   9.374  19.461  1.00  0.00     0.167 HD
ATOM     52  C   UNL     1      -0.588   7.840  21.758  1.00  0.00     0.034 A 
ATOM     53  C   UNL     1       4.531  11.378  18.589  1.00  0.00     0.034 A 
ATOM     54  C   UNL     1      -0.312   9.137  22.318  1.00  0.00     0.049 A 
ATOM     55  C   UNL     1       3.756  11.968  19.734  1.00  0.00     0.074 A 
ATOM     56  C   UNL     1      -0.941   9.770  23.375  1.00  0.00     0.029 A 
ATOM     57  N   UNL     1       0.669  10.004  21.861  1.00  0.00    -0.354 N 
ATOM     58  N   UNL     1       2.818  11.417  20.465  1.00  0.00    -0.248 NA
ATOM     59  C   UNL     1       4.104  13.338  20.136  1.00  0.00     0.031 C 
ATOM     60  C   UNL     1      -0.354  11.029  23.544  1.00  0.00     0.029 A 
ATOM     61  C   UNL     1       0.659  11.169  22.610  1.00  0.00     0.049 A 
ATOM     62  H   UNL     1       1.283   9.818  21.115  1.00  0.00     0.167 HD
ATOM     63  C   UNL     1       2.487  12.358  21.433  1.00  0.00     0.074 A 
ATOM     64  C   UNL     1       3.345  13.504  21.210  1.00  0.00     0.031 C 
ATOM     65  C   UNL     1       1.548  12.285  22.409  1.00  0.00     0.034 A 
BRANCH  52  66
ATOM     66  C   UNL     1      -1.743   7.052  22.323  1.00  0.00     0.023 A 
ATOM     67  C   UNL     1      -1.486   5.930  23.138  1.00  0.00     0.012 A 
ATOM     68  C   UNL     1      -3.075   7.450  22.100  1.00  0.00     0.148 A 
ATOM     69  C   UNL     1      -2.534   5.196  23.692  1.00  0.00     0.002 A 
ATOM     70  C   UNL     1      -4.115   6.740  22.692  1.00  0.00     0.091 A 
ATOM     71  F   UNL     1      -3.304   8.505  21.304  1.00  0.00    -0.205 F 
ATOM     72  C   UNL     1      -3.847   5.607  23.477  1.00  0.00     0.022 A 
BRANCH  70  73
ATOM     73  S   UNL     1      -5.834   7.239  22.540  1.00  0.00     0.127 S 
ATOM     74  O   UNL     1      -6.354   6.231  21.616  1.00  0.00    -0.237 OA
ATOM     75  O   UNL     1      -6.317   7.109  23.916  1.00  0.00    -0.237 OA
ATOM     76  O   UNL     1      -5.811   8.603  22.034  1.00  0.00    -0.744 OA
ENDBRANCH  70  73
ENDBRANCH  52  66
BRANCH  53  77
ATOM     77  C   UNL     1       5.598  12.154  17.898  1.00  0.00     0.023 A 
ATOM     78  C   UNL     1       6.788  12.462  18.585  1.00  0.00     0.012 A 
ATOM     79  C   UNL     1       5.462  12.541  16.551  1.00  0.00     0.148 A 
ATOM     80  C   UNL     1       7.813  13.166  17.952  1.00  0.00     0.002 A 
ATOM     81  C   UNL     1       6.509  13.191  15.909  1.00  0.00     0.091 A 
ATOM     82  F   UNL     1       4.317  12.247  15.918  1.00  0.00    -0.205 F 
ATOM     83  C   UNL     1       7.679  13.520  16.612  1.00  0.00     0.022 A 
BRANCH  81  84
ATOM     84  S   UNL     1       6.477  13.555  14.150  1.00  0.00     0.127 S 
ATOM     85  O   UNL     1       6.319  15.009  14.149  1.00  0.00    -0.237 OA
ATOM     86  O   UNL     1       7.794  13.079  13.719  1.00  0.00    -0.237 OA
ATOM     87  O   UNL     1       5.361  12.795  13.612  1.00  0.00    -0.744 OA
ENDBRANCH  81  84
ENDBRANCH  53  77
BRANCH  65  88
ATOM     88  C   UNL     1       1.413  13.468  23.333  1.00  0.00     0.023 A 
ATOM     89  C   UNL     1       0.856  14.672  22.856  1.00  0.00     0.012 A 
ATOM     90  C   UNL     1       1.792  13.372  24.687  1.00  0.00     0.148 A 
ATOM     91  C   UNL     1       0.718  15.773  23.700  1.00  0.00     0.002 A 
ATOM     92  C   UNL     1       1.606  14.459  25.534  1.00  0.00     0.091 A 
ATOM     93  F   UNL     1       2.341  12.228  25.120  1.00  0.00    -0.205 F 
ATOM     94  C   UNL     1       1.082  15.664  25.040  1.00  0.00     0.022 A 
BRANCH  92  95
ATOM     95  S   UNL     1       1.960  14.367  27.293  1.00  0.00     0.127 S 
ATOM     96  O   UNL     1       3.251  15.047  27.374  1.00  0.00    -0.237 OA
ATOM     97  O   UNL     1       0.842  15.108  27.879  1.00  0.00    -0.237 OA
ATOM     98  O   UNL     1       1.972  12.947  27.619  1.00  0.00    -0.744 OA
ENDBRANCH  92  95
ENDBRANCH  65  88
ENDBRANCH  39  40
ENDBRANCH  31  34
ENDBRANCH  29  30
ENDBRANCH  28  29
ENDBRANCH  27  28
ENDBRANCH  26  27
ENDBRANCH   1  26
TORSDOF 22
