REMARK SMILES [N-]=[N+]=NC[C@H](Nc1ccc(Br)cc1)C(=O)NCCCCCCNC(=O)c1ccc(-c2c3nc(c(-c4cccc(S(=O)(=O)[O-])c4F)c4ccc([nH]4)c(-c4cccc(S(=O)(=O)[O-])c4F)c4nc(c(-c5cccc(S(=O)(=O)[O-])c5F)c5ccc2[nH]5)C=C4)C=C3)cc1
REMARK SMILES IDX 20 1 19 2 18 3 17 4 16 5 14 6 15 7 5 9 4 10 3 11 1 12 2 13
REMARK SMILES IDX 6 14 7 16 8 17 13 18 9 19 12 20 10 21 11 22 21 23 22 24
REMARK SMILES IDX 23 25 24 26 25 28 26 29 27 30 88 31 28 32 87 33 29 34 30 35
REMARK SMILES IDX 31 36 81 37 32 38 86 39 80 40 82 41 33 42 85 43 79 44 78 45
REMARK SMILES IDX 34 47 66 48 46 49 65 50 47 51 50 52 64 53 83 54 48 55 49 56
REMARK SMILES IDX 63 58 84 59 51 60 35 61 36 62 44 63 37 64 39 65 45 66 38 67
REMARK SMILES IDX 40 68 41 69 42 70 43 71 67 72 68 73 76 74 69 75 71 76 77 77
REMARK SMILES IDX 70 78 72 79 73 80 74 81 75 82 52 83 53 84 61 85 54 86 56 87
REMARK SMILES IDX 62 88 55 89 57 90 58 91 59 92 60 93
REMARK H PARENT 16 8 6 15 23 27 82 46 50 57
REMARK Flexibility Score: inf
ROOT
ATOM      1  C   UNL     1       3.902   1.683  -6.882  1.00  0.00     0.002 C 
ENDROOT
BRANCH   1   2
ATOM      2  C   UNL     1       4.938   1.705  -5.755  1.00  0.00     0.002 C 
BRANCH   2   3
ATOM      3  C   UNL     1       4.350   1.688  -4.340  1.00  0.00     0.021 C 
BRANCH   3   4
ATOM      4  C   UNL     1       3.396   0.527  -4.068  1.00  0.00     0.116 C 
BRANCH   4   5
ATOM      5  N   UNL     1       4.041  -0.756  -4.257  1.00  0.00    -0.354 N 
ATOM      6  C   UNL     1       4.366  -1.707  -3.340  1.00  0.00     0.242 C 
ATOM      7  O   UNL     1       4.973  -2.705  -3.745  1.00  0.00    -0.273 OA
ATOM      8  H   UNL     1       4.279  -0.973  -5.188  1.00  0.00     0.163 HD
BRANCH   6   9
ATOM      9  C   UNL     1       3.935  -1.600  -1.875  1.00  0.00     0.174 C 
BRANCH   9  10
ATOM     10  C   UNL     1       2.401  -1.802  -1.828  1.00  0.00     0.125 C 
BRANCH  10  11
ATOM     11  N   UNL     1       1.994  -2.409  -0.544  1.00  0.00    -0.091 NA
ATOM     12  N   UNL     1       1.948  -4.794  -0.552  1.00  0.00    -0.003 NA
ATOM     13  N   UNL     1       1.962  -3.653  -0.540  1.00  0.00     0.001 N 
ENDBRANCH  10  11
ENDBRANCH   9  10
BRANCH   9  14
ATOM     14  N   UNL     1       4.316  -0.362  -1.166  1.00  0.00    -0.374 N 
ATOM     15  H   UNL     1       3.587   0.180  -0.786  1.00  0.00     0.161 HD
BRANCH  14  16
ATOM     16  C   UNL     1       5.608   0.105  -0.989  1.00  0.00     0.035 A 
ATOM     17  C   UNL     1       6.642  -0.061  -1.916  1.00  0.00     0.027 A 
ATOM     18  C   UNL     1       5.907   0.828   0.178  1.00  0.00     0.027 A 
ATOM     19  C   UNL     1       7.912   0.491  -1.709  1.00  0.00     0.018 A 
ATOM     20  C   UNL     1       7.182   1.359   0.410  1.00  0.00     0.018 A 
ATOM     21  C   UNL     1       8.179   1.194  -0.542  1.00  0.00     0.018 A 
ATOM     22  Br  UNL     1       9.896   1.929  -0.258  1.00  0.00    -0.051 Br
ENDBRANCH  14  16
ENDBRANCH   9  14
ENDBRANCH   6   9
ENDBRANCH   4   5
ENDBRANCH   3   4
ENDBRANCH   2   3
ENDBRANCH   1   2
BRANCH   1  23
ATOM     23  C   UNL     1       2.840   2.782  -6.800  1.00  0.00     0.021 C 
BRANCH  23  24
ATOM     24  C   UNL     1       3.398   4.200  -6.756  1.00  0.00     0.116 C 
BRANCH  24  25
ATOM     25  N   UNL     1       4.152   4.524  -7.956  1.00  0.00    -0.352 N 
ATOM     26  C   UNL     1       3.984   5.566  -8.832  1.00  0.00     0.251 C 
ATOM     27  H   UNL     1       4.889   3.907  -8.170  1.00  0.00     0.163 HD
ATOM     28  O   UNL     1       4.576   5.563  -9.907  1.00  0.00    -0.269 OA
BRANCH  26  29
ATOM     29  C   UNL     1       3.075   6.680  -8.486  1.00  0.00     0.039 A 
ATOM     30  C   UNL     1       2.207   7.169  -9.464  1.00  0.00     0.014 A 
ATOM     31  C   UNL     1       3.079   7.243  -7.206  1.00  0.00     0.014 A 
ATOM     32  C   UNL     1       1.306   8.185  -9.142  1.00  0.00     0.010 A 
ATOM     33  C   UNL     1       2.125   8.198  -6.865  1.00  0.00     0.010 A 
ATOM     34  C   UNL     1       1.232   8.685  -7.831  1.00  0.00    -0.014 A 
BRANCH  34  35
ATOM     35  C   UNL     1       0.207   9.693  -7.457  1.00  0.00     0.031 A 
ATOM     36  C   UNL     1       0.611  11.056  -6.963  1.00  0.00     0.074 A 
ATOM     37  C   UNL     1      -1.098   9.355  -7.502  1.00  0.00     0.049 A 
ATOM     38  N   UNL     1      -0.148  12.052  -6.587  1.00  0.00    -0.248 NA
ATOM     39  C   UNL     1       2.054  11.329  -6.856  1.00  0.00     0.031 C 
ATOM     40  C   UNL     1      -1.616   8.039  -7.884  1.00  0.00     0.029 A 
ATOM     41  N   UNL     1      -2.224  10.080  -7.205  1.00  0.00    -0.354 N 
ATOM     42  C   UNL     1       0.718  13.056  -6.170  1.00  0.00     0.074 A 
ATOM     43  C   UNL     1       2.061  12.536  -6.308  1.00  0.00     0.031 C 
ATOM     44  C   UNL     1      -2.955   8.054  -7.810  1.00  0.00     0.029 A 
ATOM     45  C   UNL     1      -3.392   9.365  -7.341  1.00  0.00     0.049 A 
ATOM     46  H   UNL     1      -2.200  11.023  -6.922  1.00  0.00     0.167 HD
ATOM     47  C   UNL     1       0.425  14.305  -5.736  1.00  0.00     0.034 A 
ATOM     48  C   UNL     1      -4.670   9.718  -7.102  1.00  0.00     0.034 A 
ATOM     49  C   UNL     1      -0.911  14.827  -5.623  1.00  0.00     0.049 A 
ATOM     50  C   UNL     1      -4.968  11.119  -6.644  1.00  0.00     0.074 A 
ATOM     51  C   UNL     1      -1.306  16.108  -5.279  1.00  0.00     0.029 A 
ATOM     52  N   UNL     1      -2.069  14.094  -5.831  1.00  0.00    -0.354 N 
ATOM     53  N   UNL     1      -4.138  12.106  -6.413  1.00  0.00    -0.248 NA
ATOM     54  C   UNL     1      -6.383  11.466  -6.448  1.00  0.00     0.031 C 
ATOM     55  C   UNL     1      -2.704  16.137  -5.235  1.00  0.00     0.029 A 
ATOM     56  C   UNL     1      -3.180  14.888  -5.601  1.00  0.00     0.049 A 
ATOM     57  H   UNL     1      -2.097  13.148  -6.103  1.00  0.00     0.167 HD
ATOM     58  C   UNL     1      -4.928  13.199  -6.078  1.00  0.00     0.074 A 
ATOM     59  C   UNL     1      -6.305  12.758  -6.161  1.00  0.00     0.031 C 
ATOM     60  C   UNL     1      -4.548  14.451  -5.722  1.00  0.00     0.034 A 
BRANCH  47  61
ATOM     61  C   UNL     1       1.575  15.212  -5.378  1.00  0.00     0.023 A 
ATOM     62  C   UNL     1       2.422  15.707  -6.391  1.00  0.00     0.012 A 
ATOM     63  C   UNL     1       1.780  15.626  -4.046  1.00  0.00     0.148 A 
ATOM     64  C   UNL     1       3.475  16.567  -6.082  1.00  0.00     0.002 A 
ATOM     65  C   UNL     1       2.801  16.523  -3.753  1.00  0.00     0.091 A 
ATOM     66  F   UNL     1       0.978  15.132  -3.093  1.00  0.00    -0.205 F 
ATOM     67  C   UNL     1       3.657  16.983  -4.767  1.00  0.00     0.022 A 
BRANCH  65  68
ATOM     68  S   UNL     1       3.067  17.185  -2.105  1.00  0.00     0.127 S 
ATOM     69  O   UNL     1       4.339  16.563  -1.739  1.00  0.00    -0.237 OA
ATOM     70  O   UNL     1       3.142  18.623  -2.361  1.00  0.00    -0.237 OA
ATOM     71  O   UNL     1       1.919  16.767  -1.312  1.00  0.00    -0.744 OA
ENDBRANCH  65  68
ENDBRANCH  47  61
BRANCH  48  72
ATOM     72  C   UNL     1      -5.768   8.738  -7.334  1.00  0.00     0.023 A 
ATOM     73  C   UNL     1      -6.675   8.942  -8.392  1.00  0.00     0.012 A 
ATOM     74  C   UNL     1      -5.903   7.593  -6.524  1.00  0.00     0.148 A 
ATOM     75  C   UNL     1      -7.718   8.043  -8.616  1.00  0.00     0.002 A 
ATOM     76  C   UNL     1      -6.907   6.671  -6.790  1.00  0.00     0.091 A 
ATOM     77  F   UNL     1      -5.035   7.423  -5.517  1.00  0.00    -0.205 F 
ATOM     78  C   UNL     1      -7.829   6.904  -7.823  1.00  0.00     0.022 A 
BRANCH  76  79
ATOM     79  S   UNL     1      -7.042   5.113  -5.908  1.00  0.00     0.127 S 
ATOM     80  O   UNL     1      -8.283   5.298  -5.161  1.00  0.00    -0.237 OA
ATOM     81  O   UNL     1      -7.121   4.152  -7.009  1.00  0.00    -0.237 OA
ATOM     82  O   UNL     1      -5.832   5.007  -5.105  1.00  0.00    -0.744 OA
ENDBRANCH  76  79
ENDBRANCH  48  72
BRANCH  60  83
ATOM     83  C   UNL     1      -5.635  15.454  -5.430  1.00  0.00     0.023 A 
ATOM     84  C   UNL     1      -6.421  15.327  -4.268  1.00  0.00     0.012 A 
ATOM     85  C   UNL     1      -5.835  16.559  -6.281  1.00  0.00     0.148 A 
ATOM     86  C   UNL     1      -7.417  16.260  -3.980  1.00  0.00     0.002 A 
ATOM     87  C   UNL     1      -6.791  17.514  -5.959  1.00  0.00     0.091 A 
ATOM     88  F   UNL     1      -5.088  16.655  -7.391  1.00  0.00    -0.205 F 
ATOM     89  C   UNL     1      -7.594  17.358  -4.818  1.00  0.00     0.022 A 
BRANCH  87  90
ATOM     90  S   UNL     1      -7.023  19.011  -6.924  1.00  0.00     0.127 S 
ATOM     91  O   UNL     1      -8.327  18.769  -7.540  1.00  0.00    -0.237 OA
ATOM     92  O   UNL     1      -7.019  20.047  -5.891  1.00  0.00    -0.237 OA
ATOM     93  O   UNL     1      -5.899  19.074  -7.848  1.00  0.00    -0.744 OA
ENDBRANCH  87  90
ENDBRANCH  60  83
ENDBRANCH  34  35
ENDBRANCH  26  29
ENDBRANCH  24  25
ENDBRANCH  23  24
ENDBRANCH   1  23
TORSDOF 20
