REMARK SMILES Cc1cc(C)c(NC(=O)C[C@H](C(=O)NCCCCCCNC(=O)c2ccc(-c3c4nc(c(-c5cccc(S(=O)(=O)[O-])c5F)c5ccc([nH]5)c(-c5cccc(S(=O)(=O)[O-])c5F)c5nc(c(-c6cccc(S(=O)(=O)[O-])c6F)c6ccc3[nH]6)C=C5)C=C4)cc2)[NH+]2CC[NH+](C)CC2)c(C)c1
REMARK SMILES IDX 17 1 16 2 15 3 14 4 12 5 13 6 11 8 10 9 8 10 7 11 9 13 6 14
REMARK SMILES IDX 1 15 2 16 3 17 96 18 4 19 94 20 5 21 95 22 87 23 88 24 93 25
REMARK SMILES IDX 89 27 92 28 90 29 91 30 18 32 19 33 20 34 21 35 22 36 23 38
REMARK SMILES IDX 24 39 25 40 86 41 26 42 85 43 27 44 28 45 29 46 79 47 30 48
REMARK SMILES IDX 84 49 78 50 80 51 31 52 83 53 77 54 76 55 32 57 64 58 44 59
REMARK SMILES IDX 63 60 45 61 48 62 62 63 81 64 46 65 47 66 61 68 82 69 49 70
REMARK SMILES IDX 33 71 34 72 42 73 35 74 37 75 43 76 36 77 38 78 39 79 40 80
REMARK SMILES IDX 41 81 65 82 66 83 74 84 67 85 69 86 75 87 68 88 70 89 71 90
REMARK SMILES IDX 72 91 73 92 50 93 51 94 59 95 52 96 54 97 60 98 53 99 55 100
REMARK SMILES IDX 56 101 57 102 58 103
REMARK H PARENT 14 7 7 12 87 26 90 31 21 37 80 56 48 67
REMARK Flexibility Score: inf
ROOT
ATOM      1  C   UNL     1      -1.564  -3.320  -2.094  1.00  0.00     0.002 C 
ENDROOT
BRANCH   1   2
ATOM      2  C   UNL     1      -1.472  -2.940  -0.614  1.00  0.00     0.021 C 
BRANCH   2   3
ATOM      3  C   UNL     1      -1.681  -1.464  -0.290  1.00  0.00     0.116 C 
BRANCH   3   4
ATOM      4  N   UNL     1      -3.071  -1.102  -0.035  1.00  0.00    -0.351 N 
ATOM      5  C   UNL     1      -3.754  -0.224   0.754  1.00  0.00     0.278 C 
ATOM      6  O   UNL     1      -4.982  -0.301   0.562  1.00  0.00    -0.268 OA
ATOM      7  H   UNL     1      -3.686  -1.641  -0.583  1.00  0.00     0.163 HD
BRANCH   5   8
ATOM      8  C   UNL     1      -3.204   0.716   1.912  1.00  0.00     0.283 C 
BRANCH   8   9
ATOM      9  C   UNL     1      -1.685   0.746   2.130  1.00  0.00     0.175 C 
BRANCH   9  10
ATOM     10  C   UNL     1      -0.839   1.967   2.448  1.00  0.00     0.230 C 
ATOM     11  N   UNL     1      -0.675   3.107   1.733  1.00  0.00    -0.325 N 
ATOM     12  H   UNL     1       0.086   3.636   2.065  1.00  0.00     0.169 HD
ATOM     13  O   UNL     1      -0.165   1.920   3.494  1.00  0.00    -0.274 OA
BRANCH  11  14
ATOM     14  C   UNL     1      -1.306   3.734   0.638  1.00  0.00     0.047 A 
ATOM     15  C   UNL     1      -3.911   5.844  -2.105  1.00  0.00     0.044 C 
ATOM     16  C   UNL     1      -2.924   5.156  -1.214  1.00  0.00    -0.050 A 
ATOM     17  C   UNL     1      -2.643   3.805  -1.392  1.00  0.00     0.009 A 
ATOM     18  C   UNL     1      -2.285   5.829  -0.176  1.00  0.00     0.009 A 
ATOM     19  C   UNL     1      -1.801   3.100  -0.506  1.00  0.00    -0.027 A 
ATOM     20  C   UNL     1      -1.454   5.144   0.730  1.00  0.00    -0.027 A 
ATOM     21  C   UNL     1      -1.354   1.764  -0.990  1.00  0.00     0.046 C 
ATOM     22  C   UNL     1      -0.801   5.953   1.826  1.00  0.00     0.046 C 
ENDBRANCH  11  14
ENDBRANCH   9  10
ENDBRANCH   8   9
BRANCH   8  23
ATOM     23  N   UNL     1      -3.781   2.091   1.944  1.00  0.00    -0.315 N 
ATOM     24  C   UNL     1      -3.811   2.647   3.315  1.00  0.00     0.325 C 
ATOM     25  C   UNL     1      -5.109   2.328   1.357  1.00  0.00     0.325 C 
ATOM     26  H   UNL     1      -3.124   2.563   1.323  1.00  0.00     0.349 HD
ATOM     27  C   UNL     1      -4.023   4.172   3.261  1.00  0.00     0.324 C 
ATOM     28  C   UNL     1      -5.509   3.835   1.378  1.00  0.00     0.324 C 
ATOM     29  N   UNL     1      -5.273   4.604   2.618  1.00  0.00    -0.328 N 
ATOM     30  C   UNL     1      -6.393   4.551   3.541  1.00  0.00     0.333 C 
ATOM     31  H   UNL     1      -5.180   5.583   2.348  1.00  0.00     0.348 HD
ENDBRANCH   8  23
ENDBRANCH   5   8
ENDBRANCH   3   4
ENDBRANCH   2   3
ENDBRANCH   1   2
BRANCH   1  32
ATOM     32  C   UNL     1      -0.661  -2.548  -3.066  1.00  0.00     0.002 C 
BRANCH  32  33
ATOM     33  C   UNL     1       0.814  -2.413  -2.675  1.00  0.00     0.021 C 
BRANCH  33  34
ATOM     34  C   UNL     1       1.540  -3.719  -2.367  1.00  0.00     0.116 C 
BRANCH  34  35
ATOM     35  N   UNL     1       1.459  -4.674  -3.461  1.00  0.00    -0.352 N 
ATOM     36  C   UNL     1       2.464  -5.357  -4.096  1.00  0.00     0.251 C 
ATOM     37  H   UNL     1       0.550  -4.858  -3.793  1.00  0.00     0.163 HD
ATOM     38  O   UNL     1       2.221  -6.006  -5.112  1.00  0.00    -0.269 OA
BRANCH  36  39
ATOM     39  C   UNL     1       3.843  -5.292  -3.571  1.00  0.00     0.039 A 
ATOM     40  C   UNL     1       4.891  -5.029  -4.456  1.00  0.00     0.014 A 
ATOM     41  C   UNL     1       4.097  -5.473  -2.208  1.00  0.00     0.014 A 
ATOM     42  C   UNL     1       6.188  -4.877  -3.963  1.00  0.00     0.010 A 
ATOM     43  C   UNL     1       5.378  -5.252  -1.711  1.00  0.00     0.010 A 
ATOM     44  C   UNL     1       6.435  -4.948  -2.582  1.00  0.00    -0.014 A 
BRANCH  44  45
ATOM     45  C   UNL     1       7.782  -4.663  -2.026  1.00  0.00     0.031 A 
ATOM     46  C   UNL     1       8.540  -5.726  -1.281  1.00  0.00     0.074 A 
ATOM     47  C   UNL     1       8.276  -3.411  -2.108  1.00  0.00     0.049 A 
ATOM     48  N   UNL     1       9.692  -5.638  -0.669  1.00  0.00    -0.248 NA
ATOM     49  C   UNL     1       7.912  -7.054  -1.190  1.00  0.00     0.031 C 
ATOM     50  C   UNL     1       7.598  -2.275  -2.736  1.00  0.00     0.029 A 
ATOM     51  N   UNL     1       9.447  -2.875  -1.631  1.00  0.00    -0.354 N 
ATOM     52  C   UNL     1       9.911  -6.882  -0.091  1.00  0.00     0.074 A 
ATOM     53  C   UNL     1       8.759  -7.700  -0.402  1.00  0.00     0.031 C 
ATOM     54  C   UNL     1       8.360  -1.178  -2.603  1.00  0.00     0.029 A 
ATOM     55  C   UNL     1       9.560  -1.522  -1.848  1.00  0.00     0.049 A 
ATOM     56  H   UNL     1      10.138  -3.409  -1.177  1.00  0.00     0.167 HD
ATOM     57  C   UNL     1      10.984  -7.311   0.616  1.00  0.00     0.034 A 
ATOM     58  C   UNL     1      10.513  -0.649  -1.466  1.00  0.00     0.034 A 
ATOM     59  C   UNL     1      12.139  -6.502   0.897  1.00  0.00     0.049 A 
ATOM     60  C   UNL     1      11.704  -1.157  -0.699  1.00  0.00     0.074 A 
ATOM     61  C   UNL     1      13.318  -6.873   1.519  1.00  0.00     0.029 A 
ATOM     62  N   UNL     1      12.255  -5.154   0.594  1.00  0.00    -0.354 N 
ATOM     63  N   UNL     1      11.973  -2.379  -0.310  1.00  0.00    -0.248 NA
ATOM     64  C   UNL     1      12.737  -0.172  -0.346  1.00  0.00     0.031 C 
ATOM     65  C   UNL     1      14.130  -5.740   1.627  1.00  0.00     0.029 A 
ATOM     66  C   UNL     1      13.474  -4.672   1.037  1.00  0.00     0.049 A 
ATOM     67  H   UNL     1      11.570  -4.618   0.132  1.00  0.00     0.167 HD
ATOM     68  C   UNL     1      13.217  -2.318   0.307  1.00  0.00     0.074 A 
ATOM     69  C   UNL     1      13.659  -0.941   0.217  1.00  0.00     0.031 C 
ATOM     70  C   UNL     1      13.922  -3.308   0.906  1.00  0.00     0.034 A 
BRANCH  57  71
ATOM     71  C   UNL     1      10.977  -8.736   1.107  1.00  0.00     0.023 A 
ATOM     72  C   UNL     1      11.111  -9.794   0.185  1.00  0.00     0.012 A 
ATOM     73  C   UNL     1      10.901  -9.026   2.483  1.00  0.00     0.148 A 
ATOM     74  C   UNL     1      11.133 -11.119   0.620  1.00  0.00     0.002 A 
ATOM     75  C   UNL     1      10.970 -10.346   2.913  1.00  0.00     0.091 A 
ATOM     76  F   UNL     1      10.754  -8.009   3.344  1.00  0.00    -0.205 F 
ATOM     77  C   UNL     1      11.073 -11.393   1.983  1.00  0.00     0.022 A 
BRANCH  75  78
ATOM     78  S   UNL     1      10.984 -10.801   4.651  1.00  0.00     0.127 S 
ATOM     79  O   UNL     1       9.675 -11.438   4.799  1.00  0.00    -0.237 OA
ATOM     80  O   UNL     1      12.120 -11.720   4.719  1.00  0.00    -0.237 OA
ATOM     81  O   UNL     1      11.160  -9.559   5.391  1.00  0.00    -0.744 OA
ENDBRANCH  75  78
ENDBRANCH  57  71
BRANCH  58  82
ATOM     82  C   UNL     1      10.396   0.789  -1.838  1.00  0.00     0.023 A 
ATOM     83  C   UNL     1      11.280   1.337  -2.787  1.00  0.00     0.012 A 
ATOM     84  C   UNL     1       9.393   1.607  -1.282  1.00  0.00     0.148 A 
ATOM     85  C   UNL     1      11.189   2.680  -3.151  1.00  0.00     0.002 A 
ATOM     86  C   UNL     1       9.270   2.929  -1.693  1.00  0.00     0.091 A 
ATOM     87  F   UNL     1       8.567   1.070  -0.373  1.00  0.00    -0.205 F 
ATOM     88  C   UNL     1      10.179   3.473  -2.613  1.00  0.00     0.022 A 
BRANCH  86  89
ATOM     89  S   UNL     1       7.918   3.983  -1.157  1.00  0.00     0.127 S 
ATOM     90  O   UNL     1       8.611   4.952  -0.312  1.00  0.00    -0.237 OA
ATOM     91  O   UNL     1       7.429   4.514  -2.430  1.00  0.00    -0.237 OA
ATOM     92  O   UNL     1       6.980   3.104  -0.473  1.00  0.00    -0.744 OA
ENDBRANCH  86  89
ENDBRANCH  58  82
BRANCH  70  93
ATOM     93  C   UNL     1      15.264  -2.956   1.493  1.00  0.00     0.023 A 
ATOM     94  C   UNL     1      15.335  -2.189   2.672  1.00  0.00     0.012 A 
ATOM     95  C   UNL     1      16.451  -3.456   0.920  1.00  0.00     0.148 A 
ATOM     96  C   UNL     1      16.568  -1.899   3.256  1.00  0.00     0.002 A 
ATOM     97  C   UNL     1      17.671  -3.207   1.536  1.00  0.00     0.091 A 
ATOM     98  F   UNL     1      16.363  -4.171  -0.211  1.00  0.00    -0.205 F 
ATOM     99  C   UNL     1      17.733  -2.418   2.696  1.00  0.00     0.022 A 
BRANCH  97 100
ATOM    100  S   UNL     1      19.214  -3.912   0.945  1.00  0.00     0.127 S 
ATOM    101  O   UNL     1      19.917  -2.726   0.458  1.00  0.00    -0.237 OA
ATOM    102  O   UNL     1      19.774  -4.495   2.165  1.00  0.00    -0.237 OA
ATOM    103  O   UNL     1      18.849  -4.882  -0.079  1.00  0.00    -0.744 OA
ENDBRANCH  97 100
ENDBRANCH  70  93
ENDBRANCH  44  45
ENDBRANCH  36  39
ENDBRANCH  34  35
ENDBRANCH  33  34
ENDBRANCH  32  33
ENDBRANCH   1  32
TORSDOF 20
