REMARK SMILES O=C(NCCCCCCNC(=O)[C@@H]1[C@H](C(=O)Nc2cccc(Cl)c2F)[C@@H]2C=C[C@H]1C2)c1ccc(-c2c3nc(c(-c4cccc(S(=O)(=O)[O-])c4F)c4ccc([nH]4)c(-c4cccc(S(=O)(=O)[O-])c4F)c4nc(c(-c5cccc(S(=O)(=O)[O-])c5F)c5ccc2[nH]5)C=C4)C=C3)cc1
REMARK SMILES IDX 6 1 5 2 4 3 3 4 1 5 2 6 31 8 32 9 93 10 33 11 92 12 34 13
REMARK SMILES IDX 35 14 36 15 86 16 37 17 91 18 85 19 87 20 38 21 90 22 84 23
REMARK SMILES IDX 83 24 39 26 71 27 51 28 70 29 52 30 55 31 69 32 88 33 53 34
REMARK SMILES IDX 54 35 68 37 89 38 56 39 40 40 41 41 49 42 42 43 44 44 50 45
REMARK SMILES IDX 43 46 45 47 46 48 47 49 48 50 72 51 73 52 81 53 74 54 76 55
REMARK SMILES IDX 82 56 75 57 77 58 78 59 79 60 80 61 57 62 58 63 66 64 59 65
REMARK SMILES IDX 61 66 67 67 60 68 62 69 63 70 64 71 65 72 7 73 8 74 9 75
REMARK SMILES IDX 10 76 11 77 12 79 13 80 14 81 29 82 26 83 28 84 30 85 27 86
REMARK SMILES IDX 15 87 16 88 17 89 18 91 19 92 24 93 20 94 22 95 25 96 21 97
REMARK SMILES IDX 23 98
REMARK H PARENT 3 7 87 25 55 36 10 78 17 90
REMARK Flexibility Score: inf
ROOT
ATOM      1  C   UNL     1       4.291   0.013  -3.841  1.00  0.00     0.002 C 
ENDROOT
BRANCH   1   2
ATOM      2  C   UNL     1       4.686  -0.767  -2.589  1.00  0.00     0.021 C 
BRANCH   2   3
ATOM      3  C   UNL     1       4.356  -0.088  -1.267  1.00  0.00     0.116 C 
BRANCH   3   4
ATOM      4  N   UNL     1       2.932   0.094  -1.043  1.00  0.00    -0.352 N 
ATOM      5  O   UNL     1       1.002   0.018   0.130  1.00  0.00    -0.269 OA
ATOM      6  C   UNL     1       2.226  -0.082   0.126  1.00  0.00     0.251 C 
ATOM      7  H   UNL     1       2.406   0.379  -1.825  1.00  0.00     0.163 HD
BRANCH   6   8
ATOM      8  C   UNL     1       2.956  -0.432   1.366  1.00  0.00     0.039 A 
ATOM      9  C   UNL     1       4.120   0.254   1.721  1.00  0.00     0.014 A 
ATOM     10  C   UNL     1       2.493  -1.484   2.161  1.00  0.00     0.014 A 
ATOM     11  C   UNL     1       4.900  -0.209   2.774  1.00  0.00     0.010 A 
ATOM     12  C   UNL     1       3.232  -1.887   3.279  1.00  0.00     0.010 A 
ATOM     13  C   UNL     1       4.459  -1.275   3.576  1.00  0.00    -0.014 A 
BRANCH  13  14
ATOM     14  C   UNL     1       5.266  -1.667   4.761  1.00  0.00     0.031 A 
ATOM     15  C   UNL     1       5.884  -3.034   4.881  1.00  0.00     0.074 A 
ATOM     16  C   UNL     1       5.452  -0.753   5.736  1.00  0.00     0.049 A 
ATOM     17  N   UNL     1       6.643  -3.509   5.836  1.00  0.00    -0.248 NA
ATOM     18  C   UNL     1       5.614  -3.995   3.800  1.00  0.00     0.031 C 
ATOM     19  C   UNL     1       4.859   0.587   5.753  1.00  0.00     0.029 A 
ATOM     20  N   UNL     1       6.187  -0.804   6.891  1.00  0.00    -0.354 N 
ATOM     21  C   UNL     1       6.920  -4.827   5.489  1.00  0.00     0.074 A 
ATOM     22  C   UNL     1       6.233  -5.083   4.241  1.00  0.00     0.031 C 
ATOM     23  C   UNL     1       5.275   1.240   6.847  1.00  0.00     0.029 A 
ATOM     24  C   UNL     1       6.116   0.350   7.637  1.00  0.00     0.049 A 
ATOM     25  H   UNL     1       6.715  -1.590   7.162  1.00  0.00     0.167 HD
ATOM     26  C   UNL     1       7.692  -5.731   6.140  1.00  0.00     0.034 A 
ATOM     27  C   UNL     1       6.651   0.656   8.833  1.00  0.00     0.034 A 
ATOM     28  C   UNL     1       8.391  -5.461   7.371  1.00  0.00     0.049 A 
ATOM     29  C   UNL     1       7.518  -0.360   9.518  1.00  0.00     0.074 A 
ATOM     30  C   UNL     1       9.225  -6.301   8.090  1.00  0.00     0.029 A 
ATOM     31  N   UNL     1       8.338  -4.264   8.068  1.00  0.00    -0.354 N 
ATOM     32  N   UNL     1       7.860  -1.559   9.113  1.00  0.00    -0.248 NA
ATOM     33  C   UNL     1       8.099   0.029  10.810  1.00  0.00     0.031 C 
ATOM     34  C   UNL     1       9.664  -5.615   9.228  1.00  0.00     0.029 A 
ATOM     35  C   UNL     1       9.122  -4.341   9.207  1.00  0.00     0.049 A 
ATOM     36  H   UNL     1       7.818  -3.474   7.793  1.00  0.00     0.167 HD
ATOM     37  C   UNL     1       8.714  -2.059  10.087  1.00  0.00     0.074 A 
ATOM     38  C   UNL     1       8.865  -1.018  11.084  1.00  0.00     0.031 C 
ATOM     39  C   UNL     1       9.301  -3.279  10.164  1.00  0.00     0.034 A 
BRANCH  26  40
ATOM     40  C   UNL     1       7.871  -7.091   5.510  1.00  0.00     0.023 A 
ATOM     41  C   UNL     1       8.686  -7.220   4.367  1.00  0.00     0.012 A 
ATOM     42  C   UNL     1       7.307  -8.246   6.088  1.00  0.00     0.148 A 
ATOM     43  C   UNL     1       8.916  -8.471   3.794  1.00  0.00     0.002 A 
ATOM     44  C   UNL     1       7.573  -9.494   5.534  1.00  0.00     0.091 A 
ATOM     45  F   UNL     1       6.522  -8.104   7.166  1.00  0.00    -0.205 F 
ATOM     46  C   UNL     1       8.369  -9.607   4.383  1.00  0.00     0.022 A 
BRANCH  44  47
ATOM     47  S   UNL     1       6.979 -11.028   6.258  1.00  0.00     0.127 S 
ATOM     48  O   UNL     1       5.984 -11.453   5.274  1.00  0.00    -0.237 OA
ATOM     49  O   UNL     1       8.193 -11.845   6.289  1.00  0.00    -0.237 OA
ATOM     50  O   UNL     1       6.450 -10.676   7.568  1.00  0.00    -0.744 OA
ENDBRANCH  44  47
ENDBRANCH  26  40
BRANCH  27  51
ATOM     51  C   UNL     1       6.403   1.996   9.435  1.00  0.00     0.023 A 
ATOM     52  C   UNL     1       7.462   2.915   9.553  1.00  0.00     0.012 A 
ATOM     53  C   UNL     1       5.113   2.376   9.854  1.00  0.00     0.148 A 
ATOM     54  C   UNL     1       7.247   4.177  10.108  1.00  0.00     0.002 A 
ATOM     55  C   UNL     1       4.894   3.656  10.346  1.00  0.00     0.091 A 
ATOM     56  F   UNL     1       4.120   1.481   9.750  1.00  0.00    -0.205 F 
ATOM     57  C   UNL     1       5.962   4.552  10.492  1.00  0.00     0.022 A 
BRANCH  55  58
ATOM     58  S   UNL     1       3.243   4.260  10.716  1.00  0.00     0.127 S 
ATOM     59  O   UNL     1       3.215   4.178  12.174  1.00  0.00    -0.237 OA
ATOM     60  O   UNL     1       3.285   5.619  10.175  1.00  0.00    -0.237 OA
ATOM     61  O   UNL     1       2.338   3.365  10.007  1.00  0.00    -0.744 OA
ENDBRANCH  55  58
ENDBRANCH  27  51
BRANCH  39  62
ATOM     62  C   UNL     1      10.184  -3.542  11.354  1.00  0.00     0.023 A 
ATOM     63  C   UNL     1       9.607  -3.724  12.627  1.00  0.00     0.012 A 
ATOM     64  C   UNL     1      11.580  -3.651  11.206  1.00  0.00     0.148 A 
ATOM     65  C   UNL     1      10.408  -3.970  13.740  1.00  0.00     0.002 A 
ATOM     66  C   UNL     1      12.369  -3.945  12.311  1.00  0.00     0.091 A 
ATOM     67  F   UNL     1      12.113  -3.452   9.991  1.00  0.00    -0.205 F 
ATOM     68  C   UNL     1      11.787  -4.091  13.581  1.00  0.00     0.022 A 
BRANCH  66  69
ATOM     69  S   UNL     1      14.141  -4.207  12.183  1.00  0.00     0.127 S 
ATOM     70  O   UNL     1      14.668  -2.972  12.760  1.00  0.00    -0.237 OA
ATOM     71  O   UNL     1      14.340  -5.399  13.009  1.00  0.00    -0.237 OA
ATOM     72  O   UNL     1      14.414  -4.404  10.766  1.00  0.00    -0.744 OA
ENDBRANCH  66  69
ENDBRANCH  39  62
ENDBRANCH  13  14
ENDBRANCH   6   8
ENDBRANCH   3   4
ENDBRANCH   2   3
ENDBRANCH   1   2
BRANCH   1  73
ATOM     73  C   UNL     1       4.764   1.467  -3.894  1.00  0.00     0.002 C 
BRANCH  73  74
ATOM     74  C   UNL     1       6.263   1.708  -3.649  1.00  0.00     0.021 C 
BRANCH  74  75
ATOM     75  C   UNL     1       7.217   1.067  -4.657  1.00  0.00     0.116 C 
BRANCH  75  76
ATOM     76  N   UNL     1       6.991   1.579  -5.987  1.00  0.00    -0.356 N 
ATOM     77  C   UNL     1       7.670   1.393  -7.138  1.00  0.00     0.224 C 
ATOM     78  H   UNL     1       6.205   2.167  -6.068  1.00  0.00     0.163 HD
ATOM     79  O   UNL     1       7.115   1.820  -8.157  1.00  0.00    -0.275 OA
BRANCH  77  80
ATOM     80  C   UNL     1       9.102   0.902  -7.196  1.00  0.00     0.098 C 
ATOM     81  C   UNL     1       9.534   0.384  -8.599  1.00  0.00     0.099 C 
ATOM     82  C   UNL     1       9.871  -0.054  -6.248  1.00  0.00     0.025 C 
ATOM     83  C   UNL     1      10.654  -0.639  -8.279  1.00  0.00     0.025 C 
ATOM     84  C   UNL     1       9.595  -1.524  -6.457  1.00  0.00    -0.027 C 
ATOM     85  C   UNL     1      11.236  -0.046  -6.982  1.00  0.00     0.017 C 
ATOM     86  C   UNL     1      10.082  -1.876  -7.657  1.00  0.00    -0.027 C 
BRANCH  81  87
ATOM     87  C   UNL     1       8.536   0.004  -9.704  1.00  0.00     0.228 C 
ATOM     88  O   UNL     1       8.593   0.670 -10.757  1.00  0.00    -0.274 OA
ATOM     89  N   UNL     1       7.703  -1.063  -9.798  1.00  0.00    -0.323 N 
ATOM     90  H   UNL     1       7.287  -1.105 -10.689  1.00  0.00     0.170 HD
BRANCH  89  91
ATOM     91  C   UNL     1       7.263  -2.126  -8.990  1.00  0.00     0.078 A 
ATOM     92  C   UNL     1       7.176  -3.376  -9.623  1.00  0.00     0.029 A 
ATOM     93  C   UNL     1       6.851  -2.050  -7.662  1.00  0.00     0.165 A 
ATOM     94  C   UNL     1       6.820  -4.527  -8.911  1.00  0.00     0.004 A 
ATOM     95  C   UNL     1       6.501  -3.198  -6.941  1.00  0.00     0.078 A 
ATOM     96  F   UNL     1       6.719  -0.869  -7.061  1.00  0.00    -0.203 F 
ATOM     97  C   UNL     1       6.505  -4.443  -7.559  1.00  0.00     0.024 A 
ATOM     98  Cl  UNL     1       6.082  -3.099  -5.273  1.00  0.00    -0.081 Cl
ENDBRANCH  89  91
ENDBRANCH  81  87
ENDBRANCH  77  80
ENDBRANCH  75  76
ENDBRANCH  74  75
ENDBRANCH  73  74
ENDBRANCH   1  73
TORSDOF 18
