REMARK SMILES NC(=O)C1CC[NH+](Cc2ccc(C(=O)NCCCCCCNC(=O)c3ccc(-c4c5nc(c(-c6cccc(S(=O)(=O)[O-])c6F)c6ccc([nH]6)c(-c6cccc(S(=O)(=O)[O-])c6F)c6nc(c(-c7cccc(S(=O)(=O)[O-])c7F)c7ccc4[nH]7)C=C6)C=C5)cc3)cc2)CC1
REMARK SMILES IDX 18 1 17 2 16 3 15 4 13 5 14 6 12 8 9 9 10 10 89 11 11 12
REMARK SMILES IDX 88 13 8 14 7 15 4 16 5 17 91 18 6 19 90 20 2 22 1 23 3 26
REMARK SMILES IDX 19 27 20 28 21 29 22 30 23 31 24 33 25 34 26 35 87 36 27 37
REMARK SMILES IDX 86 38 28 39 29 40 30 41 80 42 31 43 85 44 79 45 81 46 32 47
REMARK SMILES IDX 84 48 78 49 77 50 33 52 65 53 45 54 64 55 46 56 49 57 63 58
REMARK SMILES IDX 82 59 47 60 48 61 62 63 83 64 50 65 34 66 35 67 43 68 36 69
REMARK SMILES IDX 38 70 44 71 37 72 39 73 40 74 41 75 42 76 66 77 67 78 75 79
REMARK SMILES IDX 68 80 70 81 76 82 69 83 71 84 72 85 73 86 74 87 51 88 52 89
REMARK SMILES IDX 60 90 53 91 55 92 61 93 54 94 56 95 57 96 58 97 59 98
REMARK H PARENT 15 7 7 21 1 24 1 25 22 32 81 51 49 62
REMARK Flexibility Score: inf
ROOT
ATOM      1  C   UNL     1       1.123   3.048  -6.105  1.00  0.00     0.002 C 
ENDROOT
BRANCH   1   2
ATOM      2  C   UNL     1       1.815   2.194  -5.033  1.00  0.00     0.021 C 
BRANCH   2   3
ATOM      3  C   UNL     1       0.887   1.171  -4.375  1.00  0.00     0.116 C 
BRANCH   3   4
ATOM      4  N   UNL     1       0.612   0.082  -5.297  1.00  0.00    -0.352 N 
ATOM      5  C   UNL     1       1.034  -1.222  -5.320  1.00  0.00     0.251 C 
ATOM      6  O   UNL     1       0.629  -1.957  -6.220  1.00  0.00    -0.269 OA
ATOM      7  H   UNL     1       0.013   0.325  -6.040  1.00  0.00     0.163 HD
BRANCH   5   8
ATOM      8  C   UNL     1       1.890  -1.791  -4.250  1.00  0.00     0.039 A 
ATOM      9  C   UNL     1       3.247  -2.911  -2.055  1.00  0.00     0.006 A 
ATOM     10  C   UNL     1       2.250  -3.638  -2.721  1.00  0.00     0.010 A 
ATOM     11  C   UNL     1       3.638  -1.670  -2.579  1.00  0.00     0.010 A 
ATOM     12  C   UNL     1       1.573  -3.080  -3.805  1.00  0.00     0.014 A 
ATOM     13  C   UNL     1       2.973  -1.119  -3.679  1.00  0.00     0.014 A 
BRANCH   9  14
ATOM     14  C   UNL     1       3.820  -3.426  -0.746  1.00  0.00     0.299 C 
BRANCH  14  15
ATOM     15  N   UNL     1       3.120  -2.982   0.480  1.00  0.00    -0.331 N 
ATOM     16  C   UNL     1       1.112  -1.479   2.025  1.00  0.00     0.089 C 
ATOM     17  C   UNL     1       2.592  -1.090   2.014  1.00  0.00     0.075 C 
ATOM     18  C   UNL     1       1.023  -2.998   1.822  1.00  0.00     0.075 C 
ATOM     19  C   UNL     1       3.293  -1.549   0.735  1.00  0.00     0.263 C 
ATOM     20  C   UNL     1       1.714  -3.408   0.517  1.00  0.00     0.263 C 
ATOM     21  H   UNL     1       3.572  -3.462   1.258  1.00  0.00     0.348 HD
BRANCH  16  22
ATOM     22  C   UNL     1       0.214  -0.776   1.000  1.00  0.00     0.220 C 
ATOM     23  N   UNL     1       0.623   0.413   0.485  1.00  0.00    -0.369 N 
ATOM     24  H   UNL     1       0.063   0.882  -0.174  1.00  0.00     0.159 HD
ATOM     25  H   UNL     1       1.479   0.805   0.772  1.00  0.00     0.159 HD
ATOM     26  O   UNL     1      -0.881  -1.224   0.662  1.00  0.00    -0.275 OA
ENDBRANCH  16  22
ENDBRANCH  14  15
ENDBRANCH   9  14
ENDBRANCH   5   8
ENDBRANCH   3   4
ENDBRANCH   2   3
ENDBRANCH   1   2
BRANCH   1  27
ATOM     27  C   UNL     1       0.001   3.954  -5.585  1.00  0.00     0.002 C 
BRANCH  27  28
ATOM     28  C   UNL     1       0.410   4.917  -4.467  1.00  0.00     0.021 C 
BRANCH  28  29
ATOM     29  C   UNL     1       1.524   5.890  -4.841  1.00  0.00     0.116 C 
BRANCH  29  30
ATOM     30  N   UNL     1       1.115   6.799  -5.899  1.00  0.00    -0.352 N 
ATOM     31  C   UNL     1       1.189   8.168  -5.947  1.00  0.00     0.251 C 
ATOM     32  H   UNL     1       0.729   6.370  -6.697  1.00  0.00     0.163 HD
ATOM     33  O   UNL     1       0.599   8.779  -6.832  1.00  0.00    -0.269 OA
BRANCH  31  34
ATOM     34  C   UNL     1       1.973   8.908  -4.932  1.00  0.00     0.039 A 
ATOM     35  C   UNL     1       1.454  10.097  -4.413  1.00  0.00     0.014 A 
ATOM     36  C   UNL     1       3.234   8.459  -4.527  1.00  0.00     0.014 A 
ATOM     37  C   UNL     1       2.187  10.822  -3.470  1.00  0.00     0.010 A 
ATOM     38  C   UNL     1       3.931   9.145  -3.536  1.00  0.00     0.010 A 
ATOM     39  C   UNL     1       3.428  10.346  -3.016  1.00  0.00    -0.014 A 
BRANCH  39  40
ATOM     40  C   UNL     1       4.227  11.113  -2.026  1.00  0.00     0.031 A 
ATOM     41  C   UNL     1       5.569  11.677  -2.414  1.00  0.00     0.074 A 
ATOM     42  C   UNL     1       3.779  11.246  -0.762  1.00  0.00     0.049 A 
ATOM     43  N   UNL     1       6.425  12.346  -1.685  1.00  0.00    -0.248 NA
ATOM     44  C   UNL     1       6.022  11.434  -3.794  1.00  0.00     0.031 C 
ATOM     45  C   UNL     1       2.535  10.677  -0.241  1.00  0.00     0.029 A 
ATOM     46  N   UNL     1       4.331  11.885   0.320  1.00  0.00    -0.354 N 
ATOM     47  C   UNL     1       7.528  12.569  -2.502  1.00  0.00     0.074 A 
ATOM     48  C   UNL     1       7.250  11.933  -3.770  1.00  0.00     0.031 C 
ATOM     49  C   UNL     1       2.417  10.996   1.058  1.00  0.00     0.029 A 
ATOM     50  C   UNL     1       3.582  11.774   1.467  1.00  0.00     0.049 A 
ATOM     51  H   UNL     1       5.184  12.376   0.278  1.00  0.00     0.167 HD
ATOM     52  C   UNL     1       8.656  13.269  -2.234  1.00  0.00     0.034 A 
ATOM     53  C   UNL     1       3.806  12.251   2.708  1.00  0.00     0.034 A 
ATOM     54  C   UNL     1       8.905  13.948  -0.991  1.00  0.00     0.049 A 
ATOM     55  C   UNL     1       5.031  13.089   2.957  1.00  0.00     0.074 A 
ATOM     56  C   UNL     1       9.978  14.752  -0.648  1.00  0.00     0.029 A 
ATOM     57  N   UNL     1       8.066  13.908   0.112  1.00  0.00    -0.354 N 
ATOM     58  N   UNL     1       5.990  13.418   2.125  1.00  0.00    -0.248 NA
ATOM     59  C   UNL     1       5.182  13.663   4.302  1.00  0.00     0.031 C 
ATOM     60  C   UNL     1       9.793  15.187   0.669  1.00  0.00     0.029 A 
ATOM     61  C   UNL     1       8.594  14.674   1.136  1.00  0.00     0.049 A 
ATOM     62  H   UNL     1       7.220  13.407   0.160  1.00  0.00     0.167 HD
ATOM     63  C   UNL     1       6.831  14.271   2.830  1.00  0.00     0.074 A 
ATOM     64  C   UNL     1       6.259  14.422   4.152  1.00  0.00     0.031 C 
ATOM     65  C   UNL     1       7.979  14.867   2.424  1.00  0.00     0.034 A 
BRANCH  52  66
ATOM     66  C   UNL     1       9.684  13.387  -3.330  1.00  0.00     0.023 A 
ATOM     67  C   UNL     1       9.409  14.192  -4.456  1.00  0.00     0.012 A 
ATOM     68  C   UNL     1      10.936  12.752  -3.226  1.00  0.00     0.148 A 
ATOM     69  C   UNL     1      10.348  14.333  -5.476  1.00  0.00     0.002 A 
ATOM     70  C   UNL     1      11.886  12.935  -4.226  1.00  0.00     0.091 A 
ATOM     71  F   UNL     1      11.173  11.974  -2.161  1.00  0.00    -0.205 F 
ATOM     72  C   UNL     1      11.589  13.714  -5.356  1.00  0.00     0.022 A 
BRANCH  70  73
ATOM     73  S   UNL     1      13.541  12.245  -4.127  1.00  0.00     0.127 S 
ATOM     74  O   UNL     1      13.483  11.191  -5.139  1.00  0.00    -0.237 OA
ATOM     75  O   UNL     1      14.375  13.392  -4.488  1.00  0.00    -0.237 OA
ATOM     76  O   UNL     1      13.703  11.786  -2.755  1.00  0.00    -0.744 OA
ENDBRANCH  70  73
ENDBRANCH  52  66
BRANCH  53  77
ATOM     77  C   UNL     1       2.803  12.022   3.785  1.00  0.00     0.023 A 
ATOM     78  C   UNL     1       2.028  13.103   4.250  1.00  0.00     0.012 A 
ATOM     79  C   UNL     1       2.592  10.742   4.332  1.00  0.00     0.148 A 
ATOM     80  C   UNL     1       1.088  12.921   5.265  1.00  0.00     0.002 A 
ATOM     81  C   UNL     1       1.615  10.556   5.303  1.00  0.00     0.091 A 
ATOM     82  F   UNL     1       3.346   9.727   3.884  1.00  0.00    -0.205 F 
ATOM     83  C   UNL     1       0.874  11.647   5.784  1.00  0.00     0.022 A 
BRANCH  81  84
ATOM     84  S   UNL     1       1.182   8.929   5.930  1.00  0.00     0.127 S 
ATOM     85  O   UNL     1       1.755   8.963   7.272  1.00  0.00    -0.237 OA
ATOM     86  O   UNL     1      -0.280   8.963   5.880  1.00  0.00    -0.237 OA
ATOM     87  O   UNL     1       1.789   7.980   5.004  1.00  0.00    -0.744 OA
ENDBRANCH  81  84
ENDBRANCH  53  77
BRANCH  65  88
ATOM     88  C   UNL     1       8.674  15.783   3.397  1.00  0.00     0.023 A 
ATOM     89  C   UNL     1       9.349  15.245   4.511  1.00  0.00     0.012 A 
ATOM     90  C   UNL     1       8.712  17.172   3.169  1.00  0.00     0.148 A 
ATOM     91  C   UNL     1      10.021  16.081   5.402  1.00  0.00     0.002 A 
ATOM     92  C   UNL     1       9.425  17.994   4.034  1.00  0.00     0.091 A 
ATOM     93  F   UNL     1       8.044  17.668   2.116  1.00  0.00    -0.205 F 
ATOM     94  C   UNL     1      10.069  17.452   5.158  1.00  0.00     0.022 A 
BRANCH  92  95
ATOM     95  S   UNL     1       9.618  19.755   3.735  1.00  0.00     0.127 S 
ATOM     96  O   UNL     1       8.662  20.325   4.683  1.00  0.00    -0.237 OA
ATOM     97  O   UNL     1      11.023  19.979   4.078  1.00  0.00    -0.237 OA
ATOM     98  O   UNL     1       9.305  19.954   2.327  1.00  0.00    -0.744 OA
ENDBRANCH  92  95
ENDBRANCH  65  88
ENDBRANCH  39  40
ENDBRANCH  31  34
ENDBRANCH  29  30
ENDBRANCH  28  29
ENDBRANCH  27  28
ENDBRANCH   1  27
TORSDOF 19
