REMARK SMILES O=C(NCCCCCCNC(=O)[C@H]1CCCN(C(=O)C2CCN(S(=O)(=O)c3ccccc3)CC2)C1)c1ccc(-c2c3nc(c(-c4cccc(S(=O)(=O)[O-])c4F)c4ccc([nH]4)c(-c4cccc(S(=O)(=O)[O-])c4F)c4nc(c(-c5cccc(S(=O)(=O)[O-])c5F)c5ccc2[nH]5)C=C4)C=C3)cc1
REMARK SMILES IDX 7 1 6 2 5 3 4 4 3 5 1 6 2 7 36 9 37 10 98 11 38 12 97 13
REMARK SMILES IDX 39 14 40 15 41 16 91 17 42 18 96 19 90 20 92 21 43 22 95 23
REMARK SMILES IDX 89 24 88 25 44 27 76 28 56 29 75 30 57 31 60 32 74 33 93 34
REMARK SMILES IDX 58 35 59 36 73 38 94 39 61 40 45 41 46 42 54 43 47 44 49 45
REMARK SMILES IDX 55 46 48 47 50 48 51 49 52 50 53 51 77 52 78 53 86 54 79 55
REMARK SMILES IDX 81 56 87 57 80 58 82 59 83 60 84 61 85 62 62 63 63 64 71 65
REMARK SMILES IDX 64 66 66 67 72 68 65 69 67 70 68 71 69 72 70 73 8 74 9 75
REMARK SMILES IDX 10 76 11 77 12 79 13 80 14 81 35 82 15 83 17 84 16 85 18 86
REMARK SMILES IDX 19 87 20 88 21 89 34 90 22 91 33 92 23 93 24 94 25 95 26 96
REMARK SMILES IDX 27 97 28 98 32 99 29 100 31 101 30 102
REMARK H PARENT 3 8 92 26 60 37 10 78
REMARK Flexibility Score: inf
ROOT
ATOM      1  C   UNL     1       9.036 -10.615  -4.058  1.00  0.00     0.002 C 
ENDROOT
BRANCH   1   2
ATOM      2  C   UNL     1      10.191 -10.509  -3.057  1.00  0.00     0.002 C 
BRANCH   2   3
ATOM      3  C   UNL     1       9.835 -10.241  -1.595  1.00  0.00     0.021 C 
BRANCH   3   4
ATOM      4  C   UNL     1       8.745 -11.112  -0.982  1.00  0.00     0.116 C 
BRANCH   4   5
ATOM      5  N   UNL     1       9.007 -12.535  -1.078  1.00  0.00    -0.352 N 
ATOM      6  O   UNL     1       9.200 -14.667  -0.382  1.00  0.00    -0.269 OA
ATOM      7  C   UNL     1       8.863 -13.515  -0.123  1.00  0.00     0.251 C 
ATOM      8  H   UNL     1       9.336 -12.845  -1.953  1.00  0.00     0.163 HD
BRANCH   7   9
ATOM      9  C   UNL     1       8.351 -13.173   1.224  1.00  0.00     0.039 A 
ATOM     10  C   UNL     1       7.240 -12.341   1.389  1.00  0.00     0.014 A 
ATOM     11  C   UNL     1       9.008 -13.688   2.345  1.00  0.00     0.014 A 
ATOM     12  C   UNL     1       6.889 -11.902   2.663  1.00  0.00     0.010 A 
ATOM     13  C   UNL     1       8.600 -13.310   3.628  1.00  0.00     0.010 A 
ATOM     14  C   UNL     1       7.566 -12.379   3.798  1.00  0.00    -0.014 A 
BRANCH  14  15
ATOM     15  C   UNL     1       7.143 -11.922   5.148  1.00  0.00     0.031 A 
ATOM     16  C   UNL     1       8.065 -11.120   6.028  1.00  0.00     0.074 A 
ATOM     17  C   UNL     1       5.903 -12.229   5.577  1.00  0.00     0.049 A 
ATOM     18  N   UNL     1       7.825 -10.591   7.201  1.00  0.00    -0.248 NA
ATOM     19  C   UNL     1       9.433 -10.887   5.538  1.00  0.00     0.031 C 
ATOM     20  C   UNL     1       4.937 -13.046   4.839  1.00  0.00     0.029 A 
ATOM     21  N   UNL     1       5.239 -11.889   6.728  1.00  0.00    -0.354 N 
ATOM     22  C   UNL     1       9.018 -10.006   7.610  1.00  0.00     0.074 A 
ATOM     23  C   UNL     1       9.985 -10.246   6.560  1.00  0.00     0.031 C 
ATOM     24  C   UNL     1       3.793 -13.111   5.534  1.00  0.00     0.029 A 
ATOM     25  C   UNL     1       3.954 -12.378   6.785  1.00  0.00     0.049 A 
ATOM     26  H   UNL     1       5.642 -11.348   7.444  1.00  0.00     0.167 HD
ATOM     27  C   UNL     1       9.280  -9.317   8.748  1.00  0.00     0.034 A 
ATOM     28  C   UNL     1       3.008 -12.249   7.735  1.00  0.00     0.034 A 
ATOM     29  C   UNL     1       8.302  -9.033   9.765  1.00  0.00     0.049 A 
ATOM     30  C   UNL     1       3.311 -11.433   8.958  1.00  0.00     0.074 A 
ATOM     31  C   UNL     1       8.449  -8.272  10.912  1.00  0.00     0.029 A 
ATOM     32  N   UNL     1       6.997  -9.502   9.762  1.00  0.00    -0.354 N 
ATOM     33  N   UNL     1       4.398 -10.763   9.254  1.00  0.00    -0.248 NA
ATOM     34  C   UNL     1       2.246 -11.330   9.966  1.00  0.00     0.031 C 
ATOM     35  C   UNL     1       7.235  -8.289  11.608  1.00  0.00     0.029 A 
ATOM     36  C   UNL     1       6.329  -9.052  10.889  1.00  0.00     0.049 A 
ATOM     37  H   UNL     1       6.603 -10.071   9.062  1.00  0.00     0.167 HD
ATOM     38  C   UNL     1       4.141 -10.139  10.468  1.00  0.00     0.074 A 
ATOM     39  C   UNL     1       2.785 -10.489  10.839  1.00  0.00     0.031 C 
ATOM     40  C   UNL     1       4.962  -9.363  11.218  1.00  0.00     0.034 A 
BRANCH  27  41
ATOM     41  C   UNL     1      10.672  -8.774   8.938  1.00  0.00     0.023 A 
ATOM     42  C   UNL     1      11.081  -7.640   8.208  1.00  0.00     0.012 A 
ATOM     43  C   UNL     1      11.549  -9.337   9.887  1.00  0.00     0.148 A 
ATOM     44  C   UNL     1      12.348  -7.090   8.400  1.00  0.00     0.002 A 
ATOM     45  C   UNL     1      12.797  -8.761  10.099  1.00  0.00     0.091 A 
ATOM     46  F   UNL     1      11.153 -10.430  10.555  1.00  0.00    -0.205 F 
ATOM     47  C   UNL     1      13.201  -7.643   9.351  1.00  0.00     0.022 A 
BRANCH  45  48
ATOM     48  S   UNL     1      13.932  -9.363  11.356  1.00  0.00     0.127 S 
ATOM     49  O   UNL     1      14.892 -10.115  10.551  1.00  0.00    -0.237 OA
ATOM     50  O   UNL     1      14.456  -8.120  11.925  1.00  0.00    -0.237 OA
ATOM     51  O   UNL     1      13.121 -10.150  12.274  1.00  0.00    -0.744 OA
ENDBRANCH  45  48
ENDBRANCH  27  41
BRANCH  28  52
ATOM     52  C   UNL     1       1.660 -12.844   7.516  1.00  0.00     0.023 A 
ATOM     53  C   UNL     1       0.564 -11.994   7.275  1.00  0.00     0.012 A 
ATOM     54  C   UNL     1       1.468 -14.238   7.486  1.00  0.00     0.148 A 
ATOM     55  C   UNL     1      -0.703 -12.521   7.025  1.00  0.00     0.002 A 
ATOM     56  C   UNL     1       0.216 -14.757   7.178  1.00  0.00     0.091 A 
ATOM     57  F   UNL     1       2.519 -15.032   7.739  1.00  0.00    -0.205 F 
ATOM     58  C   UNL     1      -0.874 -13.901   6.962  1.00  0.00     0.022 A 
BRANCH  56  59
ATOM     59  S   UNL     1      -0.050 -16.517   6.933  1.00  0.00     0.127 S 
ATOM     60  O   UNL     1      -0.693 -16.901   8.186  1.00  0.00    -0.237 OA
ATOM     61  O   UNL     1      -0.924 -16.535   5.759  1.00  0.00    -0.237 OA
ATOM     62  O   UNL     1       1.275 -17.076   6.696  1.00  0.00    -0.744 OA
ENDBRANCH  56  59
ENDBRANCH  28  52
BRANCH  40  63
ATOM     63  C   UNL     1       4.410  -8.820  12.508  1.00  0.00     0.023 A 
ATOM     64  C   UNL     1       4.254  -9.678  13.614  1.00  0.00     0.012 A 
ATOM     65  C   UNL     1       4.101  -7.453  12.643  1.00  0.00     0.148 A 
ATOM     66  C   UNL     1       3.770  -9.190  14.827  1.00  0.00     0.002 A 
ATOM     67  C   UNL     1       3.659  -6.965  13.868  1.00  0.00     0.091 A 
ATOM     68  F   UNL     1       4.231  -6.655  11.573  1.00  0.00    -0.205 F 
ATOM     69  C   UNL     1       3.484  -7.833  14.958  1.00  0.00     0.022 A 
BRANCH  67  70
ATOM     70  S   UNL     1       3.355  -5.215  14.136  1.00  0.00     0.127 S 
ATOM     71  O   UNL     1       1.904  -5.136  13.987  1.00  0.00    -0.237 OA
ATOM     72  O   UNL     1       3.839  -5.014  15.503  1.00  0.00    -0.237 OA
ATOM     73  O   UNL     1       4.135  -4.522  13.119  1.00  0.00    -0.744 OA
ENDBRANCH  67  70
ENDBRANCH  40  63
ENDBRANCH  14  15
ENDBRANCH   7   9
ENDBRANCH   4   5
ENDBRANCH   3   4
ENDBRANCH   2   3
ENDBRANCH   1   2
BRANCH   1  74
ATOM     74  C   UNL     1       8.010  -9.479  -4.070  1.00  0.00     0.021 C 
BRANCH  74  75
ATOM     75  C   UNL     1       8.580  -8.073  -4.175  1.00  0.00     0.116 C 
BRANCH  75  76
ATOM     76  N   UNL     1       9.213  -7.775  -5.445  1.00  0.00    -0.356 N 
ATOM     77  C   UNL     1       9.411  -6.550  -6.028  1.00  0.00     0.224 C 
ATOM     78  H   UNL     1       9.543  -8.551  -5.953  1.00  0.00     0.163 HD
ATOM     79  O   UNL     1      10.046  -6.503  -7.081  1.00  0.00    -0.275 OA
BRANCH  77  80
ATOM     80  C   UNL     1       8.847  -5.298  -5.354  1.00  0.00     0.098 C 
ATOM     81  C   UNL     1       9.528  -5.097  -3.991  1.00  0.00     0.017 C 
ATOM     82  C   UNL     1       9.018  -4.045  -6.259  1.00  0.00     0.133 C 
ATOM     83  C   UNL     1       9.110  -3.785  -3.373  1.00  0.00     0.022 C 
ATOM     84  N   UNL     1       8.773  -2.771  -5.540  1.00  0.00    -0.342 N 
ATOM     85  C   UNL     1       9.518  -2.668  -4.310  1.00  0.00     0.119 C 
BRANCH  84  86
ATOM     86  C   UNL     1       7.992  -1.774  -6.096  1.00  0.00     0.225 C 
ATOM     87  O   UNL     1       7.465  -1.959  -7.202  1.00  0.00    -0.275 OA
BRANCH  86  88
ATOM     88  C   UNL     1       7.683  -0.411  -5.393  1.00  0.00     0.081 C 
ATOM     89  C   UNL     1       8.808   0.573  -5.106  1.00  0.00     0.030 C 
ATOM     90  C   UNL     1       6.683  -0.427  -4.250  1.00  0.00     0.030 C 
ATOM     91  C   UNL     1       9.347   0.663  -3.680  1.00  0.00     0.103 C 
ATOM     92  C   UNL     1       7.291  -0.630  -2.878  1.00  0.00     0.103 C 
ATOM     93  N   UNL     1       8.437   0.249  -2.548  1.00  0.00    -0.198 NA
BRANCH  93  94
ATOM     94  S   UNL     1       9.438  -0.260  -1.196  1.00  0.00     0.243 S 
ATOM     95  O   UNL     1      10.147  -1.454  -1.614  1.00  0.00    -0.207 OA
ATOM     96  O   UNL     1      10.191   0.913  -0.808  1.00  0.00    -0.207 OA
BRANCH  94  97
ATOM     97  C   UNL     1       8.430  -0.758   0.183  1.00  0.00     0.082 A 
ATOM     98  C   UNL     1       8.732  -0.234   1.446  1.00  0.00     0.022 A 
ATOM     99  C   UNL     1       7.528  -1.826   0.083  1.00  0.00     0.022 A 
ATOM    100  C   UNL     1       8.105  -0.746   2.585  1.00  0.00     0.001 A 
ATOM    101  C   UNL     1       6.869  -2.302   1.218  1.00  0.00     0.001 A 
ATOM    102  C   UNL     1       7.162  -1.766   2.468  1.00  0.00     0.000 A 
ENDBRANCH  94  97
ENDBRANCH  93  94
ENDBRANCH  86  88
ENDBRANCH  84  86
ENDBRANCH  77  80
ENDBRANCH  75  76
ENDBRANCH  74  75
ENDBRANCH   1  74
TORSDOF 20
