REMARK SMILES CC(C)[C@H](NC(=O)CCNC(=O)c1ccoc1)C(=O)NCCCCCCNC(=O)c1ccc(-c2c3nc(c(-c4cccc(S(=O)(=O)[O-])c4F)c4ccc([nH]4)c(-c4cccc(S(=O)(=O)[O-])c4F)c4nc(c(-c5cccc(S(=O)(=O)[O-])c5F)c5ccc2[nH]5)C=C4)C=C3)cc1
REMARK SMILES IDX 22 1 21 2 20 3 18 4 19 5 4 7 2 8 1 9 3 10 5 11 6 12 7 14
REMARK SMILES IDX 8 15 9 16 10 17 11 18 12 20 13 21 14 22 17 23 15 24 16 25
REMARK SMILES IDX 23 26 24 27 25 28 26 29 27 30 28 31 29 33 30 34 31 35 92 36
REMARK SMILES IDX 32 37 91 38 33 39 34 40 35 41 85 42 36 43 90 44 84 45 86 46
REMARK SMILES IDX 37 47 89 48 83 49 82 50 38 52 70 53 50 54 69 55 51 56 54 57
REMARK SMILES IDX 68 58 87 59 52 60 53 61 67 63 88 64 55 65 39 66 40 67 48 68
REMARK SMILES IDX 41 69 43 70 49 71 42 72 44 73 45 74 46 75 47 76 71 77 72 78
REMARK SMILES IDX 80 79 73 80 75 81 81 82 74 83 76 84 77 85 78 86 79 87 56 88
REMARK SMILES IDX 57 89 65 90 58 91 60 92 66 93 59 94 61 95 62 96 63 97 64 98
REMARK H PARENT 20 6 5 13 10 19 27 32 86 51 54 62
REMARK Flexibility Score: inf
ROOT
ATOM      1  C   UNL     1       0.490  -1.620  -5.604  1.00  0.00     0.021 C 
ENDROOT
BRANCH   1   2
ATOM      2  C   UNL     1      -0.800  -1.860  -4.788  1.00  0.00     0.116 C 
BRANCH   2   3
ATOM      3  N   UNL     1      -0.554  -2.386  -3.397  1.00  0.00    -0.354 N 
ATOM      4  C   UNL     1      -1.303  -2.163  -2.233  1.00  0.00     0.242 C 
ATOM      5  O   UNL     1      -2.193  -2.992  -1.987  1.00  0.00    -0.273 OA
ATOM      6  H   UNL     1       0.237  -2.963  -3.292  1.00  0.00     0.163 HD
BRANCH   4   7
ATOM      7  C   UNL     1      -0.863  -1.095  -1.065  1.00  0.00     0.173 C 
BRANCH   7   8
ATOM      8  C   UNL     1      -1.778   0.063  -0.444  1.00  0.00     0.015 C 
ATOM      9  C   UNL     1      -2.570  -0.406   0.789  1.00  0.00     0.010 C 
ATOM     10  C   UNL     1      -1.065   1.357   0.002  1.00  0.00     0.010 C 
ENDBRANCH   7   8
BRANCH   7  11
ATOM     11  N   UNL     1       0.579  -0.851  -0.978  1.00  0.00    -0.344 N 
ATOM     12  C   UNL     1       1.431   0.074  -1.458  1.00  0.00     0.222 C 
ATOM     13  H   UNL     1       1.038  -1.532  -0.434  1.00  0.00     0.164 HD
ATOM     14  O   UNL     1       2.602  -0.038  -1.072  1.00  0.00    -0.275 OA
BRANCH  12  15
ATOM     15  C   UNL     1       1.044   1.245  -2.359  1.00  0.00     0.121 C 
BRANCH  15  16
ATOM     16  C   UNL     1      -0.012   0.970  -3.413  1.00  0.00     0.126 C 
BRANCH  16  17
ATOM     17  N   UNL     1      -1.318   1.639  -3.496  1.00  0.00    -0.351 N 
ATOM     18  C   UNL     1      -2.477   0.875  -3.655  1.00  0.00     0.254 C 
ATOM     19  H   UNL     1      -1.376   2.620  -3.441  1.00  0.00     0.163 HD
ATOM     20  O   UNL     1      -2.657  -0.204  -3.124  1.00  0.00    -0.269 OA
BRANCH  18  21
ATOM     21  C   UNL     1      -3.426   1.246  -4.674  1.00  0.00     0.077 A 
ATOM     22  C   UNL     1      -3.795   0.406  -5.774  1.00  0.00     0.056 A 
ATOM     23  C   UNL     1      -4.336   2.273  -4.676  1.00  0.00     0.208 A 
ATOM     24  C   UNL     1      -4.844   1.020  -6.404  1.00  0.00     0.195 A 
ATOM     25  O   UNL     1      -5.184   2.153  -5.738  1.00  0.00    -0.472 OA
ENDBRANCH  18  21
ENDBRANCH  16  17
ENDBRANCH  15  16
ENDBRANCH  12  15
ENDBRANCH   7  11
ENDBRANCH   4   7
ENDBRANCH   2   3
ENDBRANCH   1   2
BRANCH   1  26
ATOM     26  C   UNL     1       0.296  -1.299  -7.104  1.00  0.00     0.002 C 
BRANCH  26  27
ATOM     27  C   UNL     1      -0.390   0.014  -7.519  1.00  0.00     0.002 C 
BRANCH  27  28
ATOM     28  C   UNL     1       0.390   1.330  -7.407  1.00  0.00     0.021 C 
BRANCH  28  29
ATOM     29  C   UNL     1       1.795   1.361  -8.002  1.00  0.00     0.116 C 
BRANCH  29  30
ATOM     30  N   UNL     1       1.830   0.927  -9.389  1.00  0.00    -0.352 N 
ATOM     31  C   UNL     1       2.387   1.530 -10.489  1.00  0.00     0.251 C 
ATOM     32  H   UNL     1       1.386   0.067  -9.567  1.00  0.00     0.163 HD
ATOM     33  O   UNL     1       2.178   1.065 -11.607  1.00  0.00    -0.269 OA
BRANCH  31  34
ATOM     34  C   UNL     1       3.225   2.740 -10.340  1.00  0.00     0.039 A 
ATOM     35  C   UNL     1       3.046   3.801 -11.234  1.00  0.00     0.014 A 
ATOM     36  C   UNL     1       4.207   2.817  -9.350  1.00  0.00     0.014 A 
ATOM     37  C   UNL     1       3.819   4.957 -11.105  1.00  0.00     0.010 A 
ATOM     38  C   UNL     1       4.929   3.995  -9.180  1.00  0.00     0.010 A 
ATOM     39  C   UNL     1       4.753   5.071 -10.063  1.00  0.00    -0.014 A 
BRANCH  39  40
ATOM     40  C   UNL     1       5.569   6.299  -9.892  1.00  0.00     0.031 A 
ATOM     41  C   UNL     1       7.065   6.235 -10.051  1.00  0.00     0.074 A 
ATOM     42  C   UNL     1       4.974   7.446  -9.512  1.00  0.00     0.049 A 
ATOM     43  N   UNL     1       7.953   7.180  -9.886  1.00  0.00    -0.248 NA
ATOM     44  C   UNL     1       7.641   4.929 -10.415  1.00  0.00     0.031 C 
ATOM     45  C   UNL     1       3.542   7.608  -9.249  1.00  0.00     0.029 A 
ATOM     46  N   UNL     1       5.500   8.686  -9.253  1.00  0.00    -0.354 N 
ATOM     47  C   UNL     1       9.190   6.578 -10.088  1.00  0.00     0.074 A 
ATOM     48  C   UNL     1       8.941   5.178 -10.350  1.00  0.00     0.031 C 
ATOM     49  C   UNL     1       3.304   8.874  -8.870  1.00  0.00     0.029 A 
ATOM     50  C   UNL     1       4.565   9.607  -8.839  1.00  0.00     0.049 A 
ATOM     51  H   UNL     1       6.456   8.898  -9.355  1.00  0.00     0.167 HD
ATOM     52  C   UNL     1      10.420   7.145 -10.087  1.00  0.00     0.034 A 
ATOM     53  C   UNL     1       4.711  10.896  -8.474  1.00  0.00     0.034 A 
ATOM     54  C   UNL     1      10.653   8.547  -9.875  1.00  0.00     0.049 A 
ATOM     55  C   UNL     1       6.082  11.516  -8.536  1.00  0.00     0.074 A 
ATOM     56  C   UNL     1      11.847   9.242  -9.942  1.00  0.00     0.029 A 
ATOM     57  N   UNL     1       9.669   9.470  -9.554  1.00  0.00    -0.354 N 
ATOM     58  N   UNL     1       7.220  10.966  -8.883  1.00  0.00    -0.248 NA
ATOM     59  C   UNL     1       6.183  12.941  -8.194  1.00  0.00     0.031 C 
ATOM     60  C   UNL     1      11.587  10.584  -9.643  1.00  0.00     0.029 A 
ATOM     61  C   UNL     1      10.228  10.728  -9.414  1.00  0.00     0.049 A 
ATOM     62  H   UNL     1       8.713   9.261  -9.442  1.00  0.00     0.167 HD
ATOM     63  C   UNL     1       8.166  11.983  -8.838  1.00  0.00     0.074 A 
ATOM     64  C   UNL     1       7.461  13.188  -8.449  1.00  0.00     0.031 C 
ATOM     65  C   UNL     1       9.499  11.925  -9.080  1.00  0.00     0.034 A 
BRANCH  52  66
ATOM     66  C   UNL     1      11.601   6.256 -10.383  1.00  0.00     0.023 A 
ATOM     67  C   UNL     1      11.784   5.756 -11.689  1.00  0.00     0.012 A 
ATOM     68  C   UNL     1      12.553   5.955  -9.390  1.00  0.00     0.148 A 
ATOM     69  C   UNL     1      12.872   4.939 -11.994  1.00  0.00     0.002 A 
ATOM     70  C   UNL     1      13.661   5.177  -9.713  1.00  0.00     0.091 A 
ATOM     71  F   UNL     1      12.354   6.420  -8.149  1.00  0.00    -0.205 F 
ATOM     72  C   UNL     1      13.814   4.658 -11.009  1.00  0.00     0.022 A 
BRANCH  70  73
ATOM     73  S   UNL     1      14.972   4.821  -8.538  1.00  0.00     0.127 S 
ATOM     74  O   UNL     1      14.759   3.398  -8.279  1.00  0.00    -0.237 OA
ATOM     75  O   UNL     1      16.173   5.125  -9.316  1.00  0.00    -0.237 OA
ATOM     76  O   UNL     1      14.745   5.704  -7.403  1.00  0.00    -0.744 OA
ENDBRANCH  70  73
ENDBRANCH  52  66
BRANCH  53  77
ATOM     77  C   UNL     1       3.517  11.704  -8.097  1.00  0.00     0.023 A 
ATOM     78  C   UNL     1       3.069  12.720  -8.963  1.00  0.00     0.012 A 
ATOM     79  C   UNL     1       2.802  11.451  -6.909  1.00  0.00     0.148 A 
ATOM     80  C   UNL     1       1.952  13.492  -8.639  1.00  0.00     0.002 A 
ATOM     81  C   UNL     1       1.658  12.187  -6.620  1.00  0.00     0.091 A 
ATOM     82  F   UNL     1       3.249  10.488  -6.091  1.00  0.00    -0.205 F 
ATOM     83  C   UNL     1       1.241  13.219  -7.474  1.00  0.00     0.022 A 
BRANCH  81  84
ATOM     84  S   UNL     1       0.606  11.811  -5.212  1.00  0.00     0.127 S 
ATOM     85  O   UNL     1       0.893  12.928  -4.317  1.00  0.00    -0.237 OA
ATOM     86  O   UNL     1      -0.728  11.831  -5.816  1.00  0.00    -0.237 OA
ATOM     87  O   UNL     1       1.030  10.497  -4.747  1.00  0.00    -0.744 OA
ENDBRANCH  81  84
ENDBRANCH  53  77
BRANCH  65  88
ATOM     88  C   UNL     1      10.284  13.205  -8.967  1.00  0.00     0.023 A 
ATOM     89  C   UNL     1      10.550  13.752  -7.697  1.00  0.00     0.012 A 
ATOM     90  C   UNL     1      10.825  13.818 -10.114  1.00  0.00     0.148 A 
ATOM     91  C   UNL     1      11.318  14.909  -7.573  1.00  0.00     0.002 A 
ATOM     92  C   UNL     1      11.630  14.941  -9.979  1.00  0.00     0.091 A 
ATOM     93  F   UNL     1      10.542  13.290 -11.315  1.00  0.00    -0.205 F 
ATOM     94  C   UNL     1      11.868  15.496  -8.711  1.00  0.00     0.022 A 
BRANCH  92  95
ATOM     95  S   UNL     1      12.459  15.704 -11.379  1.00  0.00     0.127 S 
ATOM     96  O   UNL     1      11.681  16.929 -11.554  1.00  0.00    -0.237 OA
ATOM     97  O   UNL     1      13.813  15.908 -10.864  1.00  0.00    -0.237 OA
ATOM     98  O   UNL     1      12.368  14.743 -12.470  1.00  0.00    -0.744 OA
ENDBRANCH  92  95
ENDBRANCH  65  88
ENDBRANCH  39  40
ENDBRANCH  31  34
ENDBRANCH  29  30
ENDBRANCH  28  29
ENDBRANCH  27  28
ENDBRANCH  26  27
ENDBRANCH   1  26
TORSDOF 22
