REMARK SMILES Cc1ccc(CNC(=O)NC[C@@H]2CC[C@@H](C(=O)NCCCCCCNC(=O)c3ccc(-c4c5nc(c(-c6cccc(S(=O)(=O)[O-])c6F)c6ccc([nH]6)c(-c6cccc(S(=O)(=O)[O-])c6F)c6nc(c(-c7cccc(S(=O)(=O)[O-])c7F)c7ccc4[nH]7)C=C6)C=C5)cc3)O2)cn1
REMARK SMILES IDX 21 1 20 2 19 3 18 4 16 5 17 6 15 8 12 9 13 10 91 11 14 12
REMARK SMILES IDX 11 13 10 14 7 15 8 16 9 18 6 20 5 21 1 22 2 23 3 24 93 25
REMARK SMILES IDX 4 26 92 27 22 28 23 29 24 30 25 31 26 32 27 34 28 35 29 36
REMARK SMILES IDX 90 37 30 38 89 39 31 40 32 41 33 42 83 43 34 44 88 45 82 46
REMARK SMILES IDX 84 47 35 48 87 49 81 50 80 51 36 53 68 54 48 55 67 56 49 57
REMARK SMILES IDX 52 58 66 59 85 60 50 61 51 62 65 64 86 65 53 66 37 67 38 68
REMARK SMILES IDX 46 69 39 70 41 71 47 72 40 73 42 74 43 75 44 76 45 77 69 78
REMARK SMILES IDX 70 79 78 80 71 81 73 82 79 83 72 84 74 85 75 86 76 87 77 88
REMARK SMILES IDX 54 89 55 90 63 91 56 92 58 93 64 94 57 95 59 96 60 97 61 98
REMARK SMILES IDX 62 99
REMARK H PARENT 18 7 7 17 10 19 25 33 84 52 52 63
REMARK Flexibility Score: inf
ROOT
ATOM      1  C   UNL     1      -8.908   6.024  -4.358  1.00  0.00     0.002 C 
ENDROOT
BRANCH   1   2
ATOM      2  C   UNL     1      -7.626   5.341  -3.878  1.00  0.00     0.021 C 
BRANCH   2   3
ATOM      3  C   UNL     1      -7.768   3.841  -3.636  1.00  0.00     0.116 C 
BRANCH   3   4
ATOM      4  N   UNL     1      -7.906   3.095  -4.872  1.00  0.00    -0.354 N 
ATOM      5  C   UNL     1      -7.103   2.167  -5.462  1.00  0.00     0.249 C 
ATOM      6  O   UNL     1      -7.476   1.703  -6.546  1.00  0.00    -0.272 OA
ATOM      7  H   UNL     1      -8.728   3.296  -5.376  1.00  0.00     0.163 HD
BRANCH   5   8
ATOM      8  C   UNL     1      -5.816   1.627  -4.797  1.00  0.00     0.207 C 
ATOM      9  C   UNL     1      -5.195   1.667  -2.556  1.00  0.00     0.138 C 
ATOM     10  C   UNL     1      -5.136   0.222  -2.993  1.00  0.00     0.037 C 
ATOM     11  O   UNL     1      -5.179   2.412  -3.791  1.00  0.00    -0.363 OA
ATOM     12  C   UNL     1      -6.070   0.250  -4.184  1.00  0.00     0.045 C 
BRANCH   9  13
ATOM     13  C   UNL     1      -4.075   2.166  -1.642  1.00  0.00     0.149 C 
BRANCH  13  14
ATOM     14  N   UNL     1      -4.578   2.489  -0.316  1.00  0.00    -0.336 N 
ATOM     15  N   UNL     1      -3.781   0.856   1.187  1.00  0.00    -0.334 N 
ATOM     16  C   UNL     1      -4.426   1.989   0.911  1.00  0.00     0.315 C 
ATOM     17  H   UNL     1      -3.635   0.721   2.151  1.00  0.00     0.165 HD
ATOM     18  O   UNL     1      -4.908   2.623   1.849  1.00  0.00    -0.249 OA
ATOM     19  H   UNL     1      -5.178   3.269  -0.326  1.00  0.00     0.165 HD
BRANCH  15  20
ATOM     20  C   UNL     1      -3.252  -0.215   0.382  1.00  0.00     0.155 C 
BRANCH  20  21
ATOM     21  C   UNL     1      -1.754  -0.200   0.266  1.00  0.00    -0.010 A 
ATOM     22  C   UNL     1       2.492  -0.074  -0.078  1.00  0.00     0.066 C 
ATOM     23  C   UNL     1       0.999  -0.154   0.011  1.00  0.00     0.037 A 
ATOM     24  C   UNL     1       0.345  -1.380   0.040  1.00  0.00     0.024 A 
ATOM     25  N   UNL     1       0.334   1.021   0.074  1.00  0.00    -0.261 NA
ATOM     26  C   UNL     1      -1.043  -1.398   0.158  1.00  0.00     0.009 A 
ATOM     27  C   UNL     1      -1.012   0.975   0.206  1.00  0.00     0.116 A 
ENDBRANCH  20  21
ENDBRANCH  15  20
ENDBRANCH  13  14
ENDBRANCH   9  13
ENDBRANCH   5   8
ENDBRANCH   3   4
ENDBRANCH   2   3
ENDBRANCH   1   2
BRANCH   1  28
ATOM     28  C   UNL     1     -10.131   5.824  -3.456  1.00  0.00     0.002 C 
BRANCH  28  29
ATOM     29  C   UNL     1      -9.933   6.199  -1.984  1.00  0.00     0.021 C 
BRANCH  29  30
ATOM     30  C   UNL     1      -9.504   7.643  -1.737  1.00  0.00     0.116 C 
BRANCH  30  31
ATOM     31  N   UNL     1     -10.476   8.596  -2.248  1.00  0.00    -0.352 N 
ATOM     32  C   UNL     1     -11.091   9.646  -1.614  1.00  0.00     0.251 C 
ATOM     33  H   UNL     1     -10.731   8.468  -3.190  1.00  0.00     0.163 HD
ATOM     34  O   UNL     1     -12.031  10.215  -2.162  1.00  0.00    -0.269 OA
BRANCH  32  35
ATOM     35  C   UNL     1     -10.637  10.087  -0.276  1.00  0.00     0.039 A 
ATOM     36  C   UNL     1     -11.597  10.437   0.677  1.00  0.00     0.014 A 
ATOM     37  C   UNL     1      -9.277  10.196   0.029  1.00  0.00     0.014 A 
ATOM     38  C   UNL     1     -11.194  10.857   1.947  1.00  0.00     0.010 A 
ATOM     39  C   UNL     1      -8.879  10.547   1.318  1.00  0.00     0.010 A 
ATOM     40  C   UNL     1      -9.832  10.896   2.286  1.00  0.00    -0.014 A 
BRANCH  40  41
ATOM     41  C   UNL     1      -9.393  11.303   3.646  1.00  0.00     0.031 A 
ATOM     42  C   UNL     1      -8.567  12.546   3.841  1.00  0.00     0.074 A 
ATOM     43  C   UNL     1      -9.683  10.515   4.701  1.00  0.00     0.049 A 
ATOM     44  N   UNL     1      -8.085  13.050   4.947  1.00  0.00    -0.248 NA
ATOM     45  C   UNL     1      -8.215  13.312   2.633  1.00  0.00     0.031 C 
ATOM     46  C   UNL     1     -10.406   9.243   4.632  1.00  0.00     0.029 A 
ATOM     47  N   UNL     1      -9.386  10.656   6.034  1.00  0.00    -0.354 N 
ATOM     48  C   UNL     1      -7.346  14.165   4.569  1.00  0.00     0.074 A 
ATOM     49  C   UNL     1      -7.416  14.248   3.127  1.00  0.00     0.031 C 
ATOM     50  C   UNL     1     -10.506   8.726   5.868  1.00  0.00     0.029 A 
ATOM     51  C   UNL     1      -9.834   9.614   6.812  1.00  0.00     0.049 A 
ATOM     52  H   UNL     1      -8.899  11.430   6.398  1.00  0.00     0.167 HD
ATOM     53  C   UNL     1      -6.694  15.058   5.352  1.00  0.00     0.034 A 
ATOM     54  C   UNL     1      -9.718   9.398   8.137  1.00  0.00     0.034 A 
ATOM     55  C   UNL     1      -6.668  15.001   6.789  1.00  0.00     0.049 A 
ATOM     56  C   UNL     1      -9.030  10.431   8.988  1.00  0.00     0.074 A 
ATOM     57  C   UNL     1      -6.121  15.910   7.676  1.00  0.00     0.029 A 
ATOM     58  N   UNL     1      -7.206  13.974   7.549  1.00  0.00    -0.354 N 
ATOM     59  N   UNL     1      -8.489  11.570   8.629  1.00  0.00    -0.248 NA
ATOM     60  C   UNL     1      -8.970  10.169  10.434  1.00  0.00     0.031 C 
ATOM     61  C   UNL     1      -6.307  15.421   8.973  1.00  0.00     0.029 A 
ATOM     62  C   UNL     1      -6.994  14.221   8.895  1.00  0.00     0.049 A 
ATOM     63  H   UNL     1      -7.670  13.185   7.186  1.00  0.00     0.167 HD
ATOM     64  C   UNL     1      -8.060  12.177   9.804  1.00  0.00     0.074 A 
ATOM     65  C   UNL     1      -8.423  11.288  10.889  1.00  0.00     0.031 C 
ATOM     66  C   UNL     1      -7.411  13.356   9.969  1.00  0.00     0.034 A 
BRANCH  53  67
ATOM     67  C   UNL     1      -6.001  16.212   4.674  1.00  0.00     0.023 A 
ATOM     68  C   UNL     1      -6.771  17.240   4.091  1.00  0.00     0.012 A 
ATOM     69  C   UNL     1      -4.596  16.315   4.669  1.00  0.00     0.148 A 
ATOM     70  C   UNL     1      -6.155  18.333   3.483  1.00  0.00     0.002 A 
ATOM     71  C   UNL     1      -3.990  17.430   4.100  1.00  0.00     0.091 A 
ATOM     72  F   UNL     1      -3.879  15.320   5.210  1.00  0.00    -0.205 F 
ATOM     73  C   UNL     1      -4.767  18.433   3.498  1.00  0.00     0.022 A 
BRANCH  71  74
ATOM     74  S   UNL     1      -2.213  17.694   4.138  1.00  0.00     0.127 S 
ATOM     75  O   UNL     1      -1.853  17.479   2.737  1.00  0.00    -0.237 OA
ATOM     76  O   UNL     1      -2.116  19.084   4.585  1.00  0.00    -0.237 OA
ATOM     77  O   UNL     1      -1.682  16.716   5.077  1.00  0.00    -0.744 OA
ENDBRANCH  71  74
ENDBRANCH  53  67
BRANCH  54  78
ATOM     78  C   UNL     1     -10.339   8.190   8.754  1.00  0.00     0.023 A 
ATOM     79  C   UNL     1     -11.468   8.345   9.583  1.00  0.00     0.012 A 
ATOM     80  C   UNL     1      -9.841   6.897   8.508  1.00  0.00     0.148 A 
ATOM     81  C   UNL     1     -12.068   7.237  10.183  1.00  0.00     0.002 A 
ATOM     82  C   UNL     1     -10.476   5.793   9.065  1.00  0.00     0.091 A 
ATOM     83  F   UNL     1      -8.759   6.771   7.726  1.00  0.00    -0.205 F 
ATOM     84  C   UNL     1     -11.579   5.962   9.916  1.00  0.00     0.022 A 
BRANCH  82  85
ATOM     85  S   UNL     1      -9.997   4.106   8.675  1.00  0.00     0.127 S 
ATOM     86  O   UNL     1      -9.374   3.675   9.924  1.00  0.00    -0.237 OA
ATOM     87  O   UNL     1     -11.289   3.483   8.385  1.00  0.00    -0.237 OA
ATOM     88  O   UNL     1      -9.110   4.207   7.524  1.00  0.00    -0.744 OA
ENDBRANCH  82  85
ENDBRANCH  54  78
BRANCH  66  89
ATOM     89  C   UNL     1      -7.079  13.781  11.375  1.00  0.00     0.023 A 
ATOM     90  C   UNL     1      -6.054  13.123  12.083  1.00  0.00     0.012 A 
ATOM     91  C   UNL     1      -7.729  14.884  11.964  1.00  0.00     0.148 A 
ATOM     92  C   UNL     1      -5.704  13.535  13.368  1.00  0.00     0.002 A 
ATOM     93  C   UNL     1      -7.341  15.320  13.226  1.00  0.00     0.091 A 
ATOM     94  F   UNL     1      -8.714  15.486  11.282  1.00  0.00    -0.205 F 
ATOM     95  C   UNL     1      -6.337  14.639  13.934  1.00  0.00     0.022 A 
BRANCH  93  96
ATOM     96  S   UNL     1      -8.032  16.791  13.991  1.00  0.00     0.127 S 
ATOM     97  O   UNL     1      -8.880  16.214  15.033  1.00  0.00    -0.237 OA
ATOM     98  O   UNL     1      -6.837  17.475  14.486  1.00  0.00    -0.237 OA
ATOM     99  O   UNL     1      -8.737  17.500  12.931  1.00  0.00    -0.744 OA
ENDBRANCH  93  96
ENDBRANCH  66  89
ENDBRANCH  40  41
ENDBRANCH  32  35
ENDBRANCH  30  31
ENDBRANCH  29  30
ENDBRANCH  28  29
ENDBRANCH   1  28
TORSDOF 20
