REMARK SMILES CCOc1ccccc1NS(=O)(=O)c1ccc(C(=O)NCCCCCCNC(=O)c2ccc(-c3c4nc(c(-c5cccc(S(=O)(=O)[O-])c5F)c5ccc([nH]5)c(-c5cccc(S(=O)(=O)[O-])c5F)c5nc(c(-c6cccc(S(=O)(=O)[O-])c6F)c6ccc3[nH]6)C=C5)C=C4)cc2)cc1
REMARK SMILES IDX 22 1 21 2 20 3 18 4 19 5 17 7 14 8 15 9 94 10 16 11 93 12
REMARK SMILES IDX 11 13 12 14 13 15 10 16 9 18 4 19 5 20 6 21 8 22 7 23 3 24
REMARK SMILES IDX 2 25 1 26 23 27 24 28 25 29 26 30 27 31 28 32 29 34 30 35
REMARK SMILES IDX 31 36 92 37 32 38 91 39 33 40 34 41 35 42 85 43 36 44 90 45
REMARK SMILES IDX 84 46 86 47 37 48 89 49 83 50 82 51 38 53 70 54 50 55 69 56
REMARK SMILES IDX 51 57 54 58 68 59 87 60 52 61 53 62 67 64 88 65 55 66 39 67
REMARK SMILES IDX 40 68 48 69 41 70 43 71 49 72 42 73 44 74 45 75 46 76 47 77
REMARK SMILES IDX 71 78 72 79 80 80 73 81 75 82 81 83 74 84 76 85 77 86 78 87
REMARK SMILES IDX 79 88 56 89 57 90 65 91 58 92 60 93 66 94 59 95 61 96 62 97
REMARK SMILES IDX 63 98 64 99
REMARK H PARENT 20 6 10 17 27 33 86 52 54 63
REMARK Flexibility Score: inf
ROOT
ATOM      1  C   UNL     1      10.025   3.456   3.590  1.00  0.00     0.021 C 
ENDROOT
BRANCH   1   2
ATOM      2  C   UNL     1      10.016   2.713   2.256  1.00  0.00     0.116 C 
BRANCH   2   3
ATOM      3  N   UNL     1      10.048   1.283   2.491  1.00  0.00    -0.352 N 
ATOM      4  C   UNL     1       9.099   0.332   2.247  1.00  0.00     0.251 C 
ATOM      5  O   UNL     1       9.335  -0.847   2.501  1.00  0.00    -0.269 OA
ATOM      6  H   UNL     1      10.883   0.945   2.889  1.00  0.00     0.163 HD
BRANCH   4   7
ATOM      7  C   UNL     1       7.802   0.691   1.636  1.00  0.00     0.039 A 
ATOM      8  C   UNL     1       5.271   1.080   0.579  1.00  0.00     0.087 A 
ATOM      9  C   UNL     1       6.086   0.070   0.054  1.00  0.00     0.023 A 
ATOM     10  C   UNL     1       5.732   1.947   1.573  1.00  0.00     0.023 A 
ATOM     11  C   UNL     1       7.350  -0.130   0.596  1.00  0.00     0.015 A 
ATOM     12  C   UNL     1       6.995   1.731   2.122  1.00  0.00     0.015 A 
BRANCH   8  13
ATOM     13  S   UNL     1       3.548   1.081   0.163  1.00  0.00     0.262 S 
ATOM     14  O   UNL     1       3.341   0.131  -0.907  1.00  0.00    -0.201 OA
ATOM     15  O   UNL     1       3.124   2.460   0.038  1.00  0.00    -0.201 OA
BRANCH  13  16
ATOM     16  N   UNL     1       2.845   0.478   1.594  1.00  0.00    -0.276 N 
ATOM     17  H   UNL     1       2.323   1.057   2.196  1.00  0.00     0.180 HD
BRANCH  16  18
ATOM     18  C   UNL     1       3.048  -0.913   1.881  1.00  0.00     0.091 A 
ATOM     19  C   UNL     1       2.061  -1.850   1.558  1.00  0.00     0.143 A 
ATOM     20  C   UNL     1       2.294  -3.213   1.756  1.00  0.00     0.049 A 
ATOM     21  C   UNL     1       3.524  -3.640   2.267  1.00  0.00     0.004 A 
ATOM     22  C   UNL     1       4.255  -1.346   2.429  1.00  0.00     0.031 A 
ATOM     23  C   UNL     1       4.500  -2.706   2.612  1.00  0.00     0.002 A 
BRANCH  19  24
ATOM     24  O   UNL     1       0.819  -1.385   1.225  1.00  0.00    -0.492 OA
BRANCH  24  25
ATOM     25  C   UNL     1       0.441  -1.658  -0.126  1.00  0.00     0.226 C 
ATOM     26  C   UNL     1       0.035  -0.339  -0.764  1.00  0.00     0.049 C 
ENDBRANCH  24  25
ENDBRANCH  19  24
ENDBRANCH  16  18
ENDBRANCH  13  16
ENDBRANCH   8  13
ENDBRANCH   4   7
ENDBRANCH   2   3
ENDBRANCH   1   2
BRANCH   1  27
ATOM     27  C   UNL     1      11.400   3.451   4.270  1.00  0.00     0.002 C 
BRANCH  27  28
ATOM     28  C   UNL     1      12.513   4.125   3.458  1.00  0.00     0.002 C 
BRANCH  28  29
ATOM     29  C   UNL     1      12.204   5.559   3.019  1.00  0.00     0.021 C 
BRANCH  29  30
ATOM     30  C   UNL     1      11.936   6.520   4.172  1.00  0.00     0.116 C 
BRANCH  30  31
ATOM     31  N   UNL     1      13.105   6.666   5.027  1.00  0.00    -0.352 N 
ATOM     32  C   UNL     1      13.776   7.809   5.381  1.00  0.00     0.251 C 
ATOM     33  H   UNL     1      13.463   5.829   5.402  1.00  0.00     0.163 HD
ATOM     34  O   UNL     1      14.881   7.736   5.910  1.00  0.00    -0.269 OA
BRANCH  32  35
ATOM     35  C   UNL     1      13.161   9.125   5.115  1.00  0.00     0.039 A 
ATOM     36  C   UNL     1      13.939  10.137   4.549  1.00  0.00     0.014 A 
ATOM     37  C   UNL     1      11.819   9.357   5.431  1.00  0.00     0.014 A 
ATOM     38  C   UNL     1      13.355  11.370   4.252  1.00  0.00     0.010 A 
ATOM     39  C   UNL     1      11.223  10.561   5.073  1.00  0.00     0.010 A 
ATOM     40  C   UNL     1      11.986  11.582   4.487  1.00  0.00    -0.014 A 
BRANCH  40  41
ATOM     41  C   UNL     1      11.329  12.857   4.107  1.00  0.00     0.031 A 
ATOM     42  C   UNL     1      10.733  13.748   5.160  1.00  0.00     0.074 A 
ATOM     43  C   UNL     1      11.188  13.164   2.803  1.00  0.00     0.049 A 
ATOM     44  N   UNL     1      10.083  14.874   5.015  1.00  0.00    -0.248 NA
ATOM     45  C   UNL     1      10.858  13.305   6.559  1.00  0.00     0.031 C 
ATOM     46  C   UNL     1      11.649  12.336   1.686  1.00  0.00     0.029 A 
ATOM     47  N   UNL     1      10.593  14.240   2.195  1.00  0.00    -0.354 N 
ATOM     48  C   UNL     1       9.691  15.254   6.293  1.00  0.00     0.074 A 
ATOM     49  C   UNL     1      10.148  14.222   7.199  1.00  0.00     0.031 C 
ATOM     50  C   UNL     1      11.324  12.937   0.531  1.00  0.00     0.029 A 
ATOM     51  C   UNL     1      10.611  14.176   0.822  1.00  0.00     0.049 A 
ATOM     52  H   UNL     1      10.191  14.987   2.695  1.00  0.00     0.167 HD
ATOM     53  C   UNL     1       9.037  16.375   6.682  1.00  0.00     0.034 A 
ATOM     54  C   UNL     1      10.106  15.019  -0.100  1.00  0.00     0.034 A 
ATOM     55  C   UNL     1       8.625  17.418   5.782  1.00  0.00     0.049 A 
ATOM     56  C   UNL     1       9.421  16.277   0.358  1.00  0.00     0.074 A 
ATOM     57  C   UNL     1       8.052  18.641   6.085  1.00  0.00     0.029 A 
ATOM     58  N   UNL     1       8.731  17.359   4.400  1.00  0.00    -0.354 N 
ATOM     59  N   UNL     1       9.217  16.707   1.580  1.00  0.00    -0.248 NA
ATOM     60  C   UNL     1       8.928  17.184  -0.688  1.00  0.00     0.031 C 
ATOM     61  C   UNL     1       7.790  19.310   4.884  1.00  0.00     0.029 A 
ATOM     62  C   UNL     1       8.219  18.514   3.834  1.00  0.00     0.049 A 
ATOM     63  H   UNL     1       9.113  16.605   3.896  1.00  0.00     0.167 HD
ATOM     64  C   UNL     1       8.598  17.945   1.451  1.00  0.00     0.074 A 
ATOM     65  C   UNL     1       8.484  18.207   0.030  1.00  0.00     0.031 C 
ATOM     66  C   UNL     1       8.150  18.781   2.420  1.00  0.00     0.034 A 
BRANCH  53  67
ATOM     67  C   UNL     1       8.778  16.555   8.155  1.00  0.00     0.023 A 
ATOM     68  C   UNL     1       9.855  16.833   9.021  1.00  0.00     0.012 A 
ATOM     69  C   UNL     1       7.471  16.491   8.678  1.00  0.00     0.148 A 
ATOM     70  C   UNL     1       9.643  17.006  10.389  1.00  0.00     0.002 A 
ATOM     71  C   UNL     1       7.263  16.708  10.036  1.00  0.00     0.091 A 
ATOM     72  F   UNL     1       6.461  16.201   7.846  1.00  0.00    -0.205 F 
ATOM     73  C   UNL     1       8.348  16.953  10.893  1.00  0.00     0.022 A 
BRANCH  71  74
ATOM     74  S   UNL     1       5.622  16.736  10.767  1.00  0.00     0.127 S 
ATOM     75  O   UNL     1       5.589  15.453  11.467  1.00  0.00    -0.237 OA
ATOM     76  O   UNL     1       5.692  17.906  11.643  1.00  0.00    -0.237 OA
ATOM     77  O   UNL     1       4.692  16.869   9.655  1.00  0.00    -0.744 OA
ENDBRANCH  71  74
ENDBRANCH  53  67
BRANCH  54  78
ATOM     78  C   UNL     1      10.304  14.732  -1.549  1.00  0.00     0.023 A 
ATOM     79  C   UNL     1      11.203  15.524  -2.289  1.00  0.00     0.012 A 
ATOM     80  C   UNL     1       9.652  13.656  -2.181  1.00  0.00     0.148 A 
ATOM     81  C   UNL     1      11.432  15.264  -3.640  1.00  0.00     0.002 A 
ATOM     82  C   UNL     1       9.927  13.368  -3.513  1.00  0.00     0.091 A 
ATOM     83  F   UNL     1       8.793  12.922  -1.460  1.00  0.00    -0.205 F 
ATOM     84  C   UNL     1      10.804  14.180  -4.249  1.00  0.00     0.022 A 
BRANCH  82  85
ATOM     85  S   UNL     1       9.271  11.915  -4.341  1.00  0.00     0.127 S 
ATOM     86  O   UNL     1       8.334  12.509  -5.290  1.00  0.00    -0.237 OA
ATOM     87  O   UNL     1      10.476  11.341  -4.941  1.00  0.00    -0.237 OA
ATOM     88  O   UNL     1       8.677  11.099  -3.291  1.00  0.00    -0.744 OA
ENDBRANCH  82  85
ENDBRANCH  54  78
BRANCH  66  89
ATOM     89  C   UNL     1       7.506  20.071   1.983  1.00  0.00     0.023 A 
ATOM     90  C   UNL     1       6.218  20.048   1.411  1.00  0.00     0.012 A 
ATOM     91  C   UNL     1       8.143  21.308   2.203  1.00  0.00     0.148 A 
ATOM     92  C   UNL     1       5.587  21.234   1.037  1.00  0.00     0.002 A 
ATOM     93  C   UNL     1       7.489  22.488   1.872  1.00  0.00     0.091 A 
ATOM     94  F   UNL     1       9.376  21.308   2.730  1.00  0.00    -0.205 F 
ATOM     95  C   UNL     1       6.216  22.453   1.278  1.00  0.00     0.022 A 
BRANCH  93  96
ATOM     96  S   UNL     1       8.181  24.107   2.231  1.00  0.00     0.127 S 
ATOM     97  O   UNL     1       8.575  24.565   0.900  1.00  0.00    -0.237 OA
ATOM     98  O   UNL     1       7.037  24.814   2.807  1.00  0.00    -0.237 OA
ATOM     99  O   UNL     1       9.277  23.875   3.163  1.00  0.00    -0.744 OA
ENDBRANCH  93  96
ENDBRANCH  66  89
ENDBRANCH  40  41
ENDBRANCH  32  35
ENDBRANCH  30  31
ENDBRANCH  29  30
ENDBRANCH  28  29
ENDBRANCH  27  28
ENDBRANCH   1  27
TORSDOF 21
