REMARK SMILES CCc1ccc2c(c1)C=C(C(=O)NCCCCCCNC(=O)c1ccc(-c3c4nc(c(-c5cccc(S(=O)(=O)[O-])c5F)c5ccc([nH]5)c(-c5cccc(S(=O)(=O)[O-])c5F)c5nc(c(-c6cccc(S(=O)(=O)[O-])c6F)c6ccc3[nH]6)C=C5)C=C4)cc1)[C@H](C(F)(F)F)O2
REMARK SMILES IDX 17 1 16 2 15 3 14 4 13 5 11 6 12 7 10 9 3 10 4 11 8 12 5 13
REMARK SMILES IDX 7 14 6 15 9 16 91 17 86 18 2 19 1 20 87 21 88 22 89 23 90 24
REMARK SMILES IDX 18 25 19 26 20 27 21 28 22 30 23 31 24 32 85 33 25 34 84 35
REMARK SMILES IDX 26 36 27 37 28 38 78 39 29 40 83 41 77 42 79 43 30 44 82 45
REMARK SMILES IDX 76 46 75 47 31 49 63 50 43 51 62 52 44 53 47 54 61 55 80 56
REMARK SMILES IDX 45 57 46 58 60 60 81 61 48 62 32 63 33 64 41 65 34 66 36 67
REMARK SMILES IDX 42 68 35 69 37 70 38 71 39 72 40 73 64 74 65 75 73 76 66 77
REMARK SMILES IDX 68 78 74 79 67 80 69 81 70 82 71 83 72 84 49 85 50 86 58 87
REMARK SMILES IDX 51 88 53 89 59 90 52 91 54 92 55 93 56 94 57 95
REMARK H PARENT 13 8 20 29 79 48 47 59
REMARK Flexibility Score: inf
ROOT
ATOM      1  C   UNL     1       1.956  -8.648   6.226  1.00  0.00     0.002 C 
ENDROOT
BRANCH   1   2
ATOM      2  C   UNL     1       3.144  -7.718   5.953  1.00  0.00     0.002 C 
BRANCH   2   3
ATOM      3  C   UNL     1       2.771  -6.387   5.283  1.00  0.00     0.021 C 
BRANCH   3   4
ATOM      4  C   UNL     1       1.868  -5.509   6.158  1.00  0.00     0.116 C 
BRANCH   4   5
ATOM      5  N   UNL     1       2.677  -4.852   7.173  1.00  0.00    -0.352 N 
ATOM      6  C   UNL     1       3.292  -3.642   7.224  1.00  0.00     0.251 C 
ATOM      7  O   UNL     1       4.109  -3.454   8.122  1.00  0.00    -0.270 OA
ATOM      8  H   UNL     1       2.805  -5.393   7.985  1.00  0.00     0.163 HD
BRANCH   6   9
ATOM      9  C   UNL     1       2.949  -2.522   6.308  1.00  0.00     0.067 C 
ATOM     10  C   UNL     1       1.138  -0.716   2.198  1.00  0.00    -0.047 A 
ATOM     11  C   UNL     1       1.027   0.537   2.813  1.00  0.00     0.007 A 
ATOM     12  C   UNL     1       1.714  -1.771   2.920  1.00  0.00     0.015 A 
ATOM     13  C   UNL     1       1.475   0.727   4.123  1.00  0.00     0.047 A 
ATOM     14  C   UNL     1       2.162  -1.583   4.234  1.00  0.00     0.017 A 
ATOM     15  C   UNL     1       2.031  -0.335   4.833  1.00  0.00     0.128 A 
ATOM     16  C   UNL     1       2.638  -2.712   5.018  1.00  0.00     0.025 C 
ATOM     17  O   UNL     1       2.345  -0.096   6.138  1.00  0.00    -0.475 OA
ATOM     18  C   UNL     1       3.110  -1.106   6.859  1.00  0.00     0.314 C 
BRANCH  10  19
ATOM     19  C   UNL     1       0.569  -0.972   0.822  1.00  0.00     0.032 C 
ATOM     20  C   UNL     1       1.067  -0.003  -0.240  1.00  0.00     0.009 C 
ENDBRANCH  10  19
BRANCH  18  21
ATOM     21  C   UNL     1       2.830  -0.889   8.364  1.00  0.00     0.429 C 
ATOM     22  F   UNL     1       3.887  -1.201   9.147  1.00  0.00    -0.167 F 
ATOM     23  F   UNL     1       2.579   0.426   8.623  1.00  0.00    -0.167 F 
ATOM     24  F   UNL     1       1.754  -1.580   8.803  1.00  0.00    -0.167 F 
ENDBRANCH  18  21
ENDBRANCH   6   9
ENDBRANCH   4   5
ENDBRANCH   3   4
ENDBRANCH   2   3
ENDBRANCH   1   2
BRANCH   1  25
ATOM     25  C   UNL     1       1.109  -8.983   4.995  1.00  0.00     0.021 C 
BRANCH  25  26
ATOM     26  C   UNL     1       1.872  -9.715   3.896  1.00  0.00     0.116 C 
BRANCH  26  27
ATOM     27  N   UNL     1       2.320 -11.026   4.341  1.00  0.00    -0.352 N 
ATOM     28  C   UNL     1       2.048 -12.260   3.805  1.00  0.00     0.251 C 
ATOM     29  H   UNL     1       2.897 -11.029   5.139  1.00  0.00     0.163 HD
ATOM     30  O   UNL     1       2.293 -13.277   4.444  1.00  0.00    -0.269 OA
BRANCH  28  31
ATOM     31  C   UNL     1       1.454 -12.353   2.454  1.00  0.00     0.039 A 
ATOM     32  C   UNL     1       0.405 -13.247   2.232  1.00  0.00     0.014 A 
ATOM     33  C   UNL     1       1.942 -11.562   1.409  1.00  0.00     0.014 A 
ATOM     34  C   UNL     1      -0.189 -13.313   0.970  1.00  0.00     0.010 A 
ATOM     35  C   UNL     1       1.300 -11.575   0.175  1.00  0.00     0.010 A 
ATOM     36  C   UNL     1       0.236 -12.458  -0.061  1.00  0.00    -0.014 A 
BRANCH  36  37
ATOM     37  C   UNL     1      -0.422 -12.470  -1.392  1.00  0.00     0.031 A 
ATOM     38  C   UNL     1       0.360 -12.847  -2.621  1.00  0.00     0.074 A 
ATOM     39  C   UNL     1      -1.702 -12.064  -1.504  1.00  0.00     0.049 A 
ATOM     40  N   UNL     1      -0.025 -12.863  -3.870  1.00  0.00    -0.248 NA
ATOM     41  C   UNL     1       1.769 -13.231  -2.425  1.00  0.00     0.031 C 
ATOM     42  C   UNL     1      -2.543 -11.602  -0.397  1.00  0.00     0.029 A 
ATOM     43  N   UNL     1      -2.513 -11.948  -2.605  1.00  0.00    -0.354 N 
ATOM     44  C   UNL     1       1.095 -13.225  -4.610  1.00  0.00     0.074 A 
ATOM     45  C   UNL     1       2.186 -13.382  -3.673  1.00  0.00     0.031 C 
ATOM     46  C   UNL     1      -3.750 -11.259  -0.874  1.00  0.00     0.029 A 
ATOM     47  C   UNL     1      -3.761 -11.444  -2.321  1.00  0.00     0.049 A 
ATOM     48  H   UNL     1      -2.228 -12.202  -3.513  1.00  0.00     0.167 HD
ATOM     49  C   UNL     1       1.200 -13.435  -5.943  1.00  0.00     0.034 A 
ATOM     50  C   UNL     1      -4.794 -11.153  -3.136  1.00  0.00     0.034 A 
ATOM     51  C   UNL     1       0.103 -13.313  -6.865  1.00  0.00     0.049 A 
ATOM     52  C   UNL     1      -4.659 -11.424  -4.611  1.00  0.00     0.074 A 
ATOM     53  C   UNL     1       0.087 -13.585  -8.222  1.00  0.00     0.029 A 
ATOM     54  N   UNL     1      -1.169 -12.877  -6.529  1.00  0.00    -0.354 N 
ATOM     55  N   UNL     1      -3.636 -11.912  -5.270  1.00  0.00    -0.248 NA
ATOM     56  C   UNL     1      -5.832 -11.139  -5.449  1.00  0.00     0.031 C 
ATOM     57  C   UNL     1      -1.188 -13.283  -8.712  1.00  0.00     0.029 A 
ATOM     58  C   UNL     1      -1.976 -12.859  -7.654  1.00  0.00     0.049 A 
ATOM     59  H   UNL     1      -1.456 -12.617  -5.624  1.00  0.00     0.167 HD
ATOM     60  C   UNL     1      -4.054 -12.030  -6.590  1.00  0.00     0.074 A 
ATOM     61  C   UNL     1      -5.431 -11.580  -6.633  1.00  0.00     0.031 C 
ATOM     62  C   UNL     1      -3.359 -12.459  -7.672  1.00  0.00     0.034 A 
BRANCH  49  63
ATOM     63  C   UNL     1       2.540 -13.868  -6.482  1.00  0.00     0.023 A 
ATOM     64  C   UNL     1       3.022 -15.162  -6.195  1.00  0.00     0.012 A 
ATOM     65  C   UNL     1       3.292 -13.022  -7.320  1.00  0.00     0.148 A 
ATOM     66  C   UNL     1       4.246 -15.594  -6.703  1.00  0.00     0.002 A 
ATOM     67  C   UNL     1       4.489 -13.477  -7.862  1.00  0.00     0.091 A 
ATOM     68  F   UNL     1       2.828 -11.789  -7.566  1.00  0.00    -0.205 F 
ATOM     69  C   UNL     1       4.973 -14.757  -7.544  1.00  0.00     0.022 A 
BRANCH  67  70
ATOM     70  S   UNL     1       5.461 -12.508  -9.020  1.00  0.00     0.127 S 
ATOM     71  O   UNL     1       6.641 -12.188  -8.219  1.00  0.00    -0.237 OA
ATOM     72  O   UNL     1       5.698 -13.467 -10.099  1.00  0.00    -0.237 OA
ATOM     73  O   UNL     1       4.631 -11.370  -9.389  1.00  0.00    -0.744 OA
ENDBRANCH  67  70
ENDBRANCH  49  63
BRANCH  50  74
ATOM     74  C   UNL     1      -6.068 -10.627  -2.570  1.00  0.00     0.023 A 
ATOM     75  C   UNL     1      -7.220 -11.438  -2.583  1.00  0.00     0.012 A 
ATOM     76  C   UNL     1      -6.141  -9.340  -2.004  1.00  0.00     0.148 A 
ATOM     77  C   UNL     1      -8.430 -10.963  -2.078  1.00  0.00     0.002 A 
ATOM     78  C   UNL     1      -7.335  -8.894  -1.450  1.00  0.00     0.091 A 
ATOM     79  F   UNL     1      -5.037  -8.580  -2.009  1.00  0.00    -0.205 F 
ATOM     80  C   UNL     1      -8.486  -9.696  -1.503  1.00  0.00     0.022 A 
BRANCH  78  81
ATOM     81  S   UNL     1      -7.465  -7.332  -0.574  1.00  0.00     0.127 S 
ATOM     82  O   UNL     1      -8.278  -6.540  -1.494  1.00  0.00    -0.237 OA
ATOM     83  O   UNL     1      -8.142  -7.733   0.660  1.00  0.00    -0.237 OA
ATOM     84  O   UNL     1      -6.096  -6.872  -0.384  1.00  0.00    -0.744 OA
ENDBRANCH  78  81
ENDBRANCH  50  74
BRANCH  62  85
ATOM     85  C   UNL     1      -4.082 -12.508  -8.993  1.00  0.00     0.023 A 
ATOM     86  C   UNL     1      -4.405 -11.313  -9.665  1.00  0.00     0.012 A 
ATOM     87  C   UNL     1      -4.374 -13.745  -9.602  1.00  0.00     0.148 A 
ATOM     88  C   UNL     1      -5.040 -11.348 -10.906  1.00  0.00     0.002 A 
ATOM     89  C   UNL     1      -4.958 -13.773 -10.861  1.00  0.00     0.091 A 
ATOM     90  F   UNL     1      -4.073 -14.871  -8.938  1.00  0.00    -0.205 F 
ATOM     91  C   UNL     1      -5.305 -12.576 -11.509  1.00  0.00     0.022 A 
BRANCH  89  92
ATOM     92  S   UNL     1      -5.245 -15.303 -11.758  1.00  0.00     0.127 S 
ATOM     93  O   UNL     1      -6.702 -15.409 -11.706  1.00  0.00    -0.237 OA
ATOM     94  O   UNL     1      -4.702 -14.992 -13.081  1.00  0.00    -0.237 OA
ATOM     95  O   UNL     1      -4.518 -16.336 -11.034  1.00  0.00    -0.744 OA
ENDBRANCH  89  92
ENDBRANCH  62  85
ENDBRANCH  36  37
ENDBRANCH  28  31
ENDBRANCH  26  27
ENDBRANCH  25  26
ENDBRANCH   1  25
TORSDOF 18
