REMARK SMILES Cc1nsc(NC(=O)c2ccc(N)cc2)c1C(=O)NCCCCCCNC(=O)c1ccc(-c2c3nc(c(-c4cccc(S(=O)(=O)[O-])c4F)c4ccc([nH]4)c(-c4cccc(S(=O)(=O)[O-])c4F)c4nc(c(-c5cccc(S(=O)(=O)[O-])c5F)c5ccc2[nH]5)C=C4)C=C3)cc1
REMARK SMILES IDX 22 1 21 2 20 3 19 4 17 5 18 6 16 8 1 9 2 10 3 11 4 12 5 13
REMARK SMILES IDX 6 14 7 15 8 17 9 18 10 19 15 20 11 21 14 22 12 23 13 24
REMARK SMILES IDX 23 27 24 28 25 29 26 30 27 31 28 33 29 34 30 35 91 36 31 37
REMARK SMILES IDX 90 38 32 39 33 40 34 41 84 42 35 43 89 44 83 45 85 46 36 47
REMARK SMILES IDX 88 48 82 49 81 50 37 52 69 53 49 54 68 55 50 56 53 57 67 58
REMARK SMILES IDX 86 59 51 60 52 61 66 63 87 64 54 65 38 66 39 67 47 68 40 69
REMARK SMILES IDX 42 70 48 71 41 72 43 73 44 74 45 75 46 76 70 77 71 78 79 79
REMARK SMILES IDX 72 80 74 81 80 82 73 83 75 84 76 85 77 86 78 87 55 88 56 89
REMARK SMILES IDX 64 90 57 91 59 92 65 93 58 94 60 95 61 96 62 97 63 98
REMARK H PARENT 19 7 6 16 13 25 13 26 26 32 85 51 53 62
REMARK Flexibility Score: inf
ROOT
ATOM      1  C   UNL     1      -1.042   3.187  -1.904  1.00  0.00     0.002 C 
ENDROOT
BRANCH   1   2
ATOM      2  C   UNL     1      -0.222   1.975  -1.447  1.00  0.00     0.021 C 
BRANCH   2   3
ATOM      3  C   UNL     1      -0.921   1.149  -0.371  1.00  0.00     0.116 C 
BRANCH   3   4
ATOM      4  N   UNL     1      -1.798   0.176  -0.948  1.00  0.00    -0.352 N 
ATOM      5  C   UNL     1      -1.704  -1.159  -1.196  1.00  0.00     0.256 C 
ATOM      6  O   UNL     1      -2.762  -1.628  -1.645  1.00  0.00    -0.269 OA
ATOM      7  H   UNL     1      -2.662   0.557  -1.228  1.00  0.00     0.163 HD
BRANCH   5   8
ATOM      8  C   UNL     1      -0.541  -2.038  -0.964  1.00  0.00     0.097 A 
ATOM      9  C   UNL     1       1.655  -0.666  -0.151  1.00  0.00     0.069 C 
ATOM     10  C   UNL     1       0.858  -1.861  -0.546  1.00  0.00     0.066 A 
ATOM     11  N   UNL     1       1.591  -2.976  -0.490  1.00  0.00    -0.195 NA
ATOM     12  S   UNL     1       0.759  -4.206  -1.154  1.00  0.00    -0.017 S 
ATOM     13  C   UNL     1      -0.737  -3.417  -1.169  1.00  0.00     0.129 A 
BRANCH  13  14
ATOM     14  N   UNL     1      -1.928  -4.072  -1.460  1.00  0.00    -0.312 N 
ATOM     15  C   UNL     1      -2.271  -5.404  -1.489  1.00  0.00     0.256 C 
ATOM     16  H   UNL     1      -2.669  -3.466  -1.690  1.00  0.00     0.171 HD
ATOM     17  O   UNL     1      -3.369  -5.763  -1.917  1.00  0.00    -0.269 OA
BRANCH  15  18
ATOM     18  C   UNL     1      -1.373  -6.447  -0.965  1.00  0.00     0.040 A 
ATOM     19  C   UNL     1      -0.932  -6.417   0.361  1.00  0.00     0.016 A 
ATOM     20  C   UNL     1      -0.934  -7.444  -1.836  1.00  0.00     0.016 A 
ATOM     21  C   UNL     1       0.066  -7.306   0.768  1.00  0.00     0.026 A 
ATOM     22  C   UNL     1       0.045  -8.341  -1.409  1.00  0.00     0.026 A 
ATOM     23  C   UNL     1       0.607  -8.228  -0.133  1.00  0.00     0.031 A 
BRANCH  23  24
ATOM     24  N   UNL     1       1.599  -9.112   0.278  1.00  0.00    -0.399 N 
ATOM     25  H   UNL     1       1.991  -9.028   1.177  1.00  0.00     0.156 HD
ATOM     26  H   UNL     1       1.908  -9.822  -0.330  1.00  0.00     0.156 HD
ENDBRANCH  23  24
ENDBRANCH  15  18
ENDBRANCH  13  14
ENDBRANCH   5   8
ENDBRANCH   3   4
ENDBRANCH   2   3
ENDBRANCH   1   2
BRANCH   1  27
ATOM     27  C   UNL     1      -1.511   4.123  -0.775  1.00  0.00     0.002 C 
BRANCH  27  28
ATOM     28  C   UNL     1      -0.433   4.568   0.227  1.00  0.00     0.021 C 
BRANCH  28  29
ATOM     29  C   UNL     1       0.552   5.547  -0.380  1.00  0.00     0.116 C 
BRANCH  29  30
ATOM     30  N   UNL     1      -0.093   6.825  -0.721  1.00  0.00    -0.352 N 
ATOM     31  C   UNL     1       0.457   7.955  -1.308  1.00  0.00     0.251 C 
ATOM     32  H   UNL     1      -1.050   6.886  -0.502  1.00  0.00     0.163 HD
ATOM     33  O   UNL     1      -0.093   9.038  -1.236  1.00  0.00    -0.269 OA
BRANCH  31  34
ATOM     34  C   UNL     1       1.718   7.790  -2.048  1.00  0.00     0.039 A 
ATOM     35  C   UNL     1       2.746   8.737  -2.046  1.00  0.00     0.014 A 
ATOM     36  C   UNL     1       1.855   6.591  -2.728  1.00  0.00     0.014 A 
ATOM     37  C   UNL     1       3.922   8.426  -2.726  1.00  0.00     0.010 A 
ATOM     38  C   UNL     1       3.094   6.167  -3.069  1.00  0.00     0.010 A 
ATOM     39  C   UNL     1       4.067   7.132  -3.241  1.00  0.00    -0.014 A 
BRANCH  39  40
ATOM     40  C   UNL     1       5.225   6.674  -3.979  1.00  0.00     0.031 A 
ATOM     41  C   UNL     1       6.467   6.625  -3.182  1.00  0.00     0.074 A 
ATOM     42  C   UNL     1       5.071   6.059  -5.175  1.00  0.00     0.049 A 
ATOM     43  N   UNL     1       7.496   7.393  -3.299  1.00  0.00    -0.248 NA
ATOM     44  C   UNL     1       6.506   5.746  -2.003  1.00  0.00     0.031 C 
ATOM     45  C   UNL     1       3.825   5.742  -5.899  1.00  0.00     0.029 A 
ATOM     46  N   UNL     1       6.006   5.432  -5.927  1.00  0.00    -0.354 N 
ATOM     47  C   UNL     1       8.417   6.914  -2.375  1.00  0.00     0.074 A 
ATOM     48  C   UNL     1       7.673   6.095  -1.456  1.00  0.00     0.031 C 
ATOM     49  C   UNL     1       4.067   4.786  -6.823  1.00  0.00     0.029 A 
ATOM     50  C   UNL     1       5.495   4.552  -6.876  1.00  0.00     0.049 A 
ATOM     51  H   UNL     1       6.972   5.586  -5.812  1.00  0.00     0.167 HD
ATOM     52  C   UNL     1       9.756   6.998  -2.611  1.00  0.00     0.034 A 
ATOM     53  C   UNL     1       6.207   3.661  -7.609  1.00  0.00     0.034 A 
ATOM     54  C   UNL     1      10.030   7.851  -3.744  1.00  0.00     0.049 A 
ATOM     55  C   UNL     1       7.612   4.139  -7.603  1.00  0.00     0.074 A 
ATOM     56  C   UNL     1       9.777   9.172  -4.052  1.00  0.00     0.029 A 
ATOM     57  N   UNL     1      10.271   7.221  -4.944  1.00  0.00    -0.354 N 
ATOM     58  N   UNL     1       7.977   5.272  -8.140  1.00  0.00    -0.248 NA
ATOM     59  C   UNL     1       8.501   3.619  -6.575  1.00  0.00     0.031 C 
ATOM     60  C   UNL     1       9.399   9.159  -5.428  1.00  0.00     0.029 A 
ATOM     61  C   UNL     1       9.519   7.850  -5.902  1.00  0.00     0.049 A 
ATOM     62  H   UNL     1      10.875   6.457  -5.088  1.00  0.00     0.167 HD
ATOM     63  C   UNL     1       8.853   5.828  -7.215  1.00  0.00     0.074 A 
ATOM     64  C   UNL     1       9.219   4.720  -6.329  1.00  0.00     0.031 C 
ATOM     65  C   UNL     1       8.957   7.183  -7.060  1.00  0.00     0.034 A 
BRANCH  52  66
ATOM     66  C   UNL     1      10.798   6.039  -2.089  1.00  0.00     0.023 A 
ATOM     67  C   UNL     1      12.150   6.403  -2.278  1.00  0.00     0.012 A 
ATOM     68  C   UNL     1      10.543   4.712  -1.676  1.00  0.00     0.148 A 
ATOM     69  C   UNL     1      13.188   5.479  -2.121  1.00  0.00     0.002 A 
ATOM     70  C   UNL     1      11.583   3.818  -1.448  1.00  0.00     0.091 A 
ATOM     71  F   UNL     1       9.291   4.251  -1.629  1.00  0.00    -0.205 F 
ATOM     72  C   UNL     1      12.905   4.186  -1.700  1.00  0.00     0.022 A 
BRANCH  70  73
ATOM     73  S   UNL     1      11.275   2.144  -0.867  1.00  0.00     0.127 S 
ATOM     74  O   UNL     1      11.531   1.365  -2.074  1.00  0.00    -0.237 OA
ATOM     75  O   UNL     1      12.279   2.005   0.188  1.00  0.00    -0.237 OA
ATOM     76  O   UNL     1       9.900   2.146  -0.383  1.00  0.00    -0.744 OA
ENDBRANCH  70  73
ENDBRANCH  52  66
BRANCH  53  77
ATOM     77  C   UNL     1       5.818   2.303  -8.057  1.00  0.00     0.023 A 
ATOM     78  C   UNL     1       6.493   1.683  -9.127  1.00  0.00     0.012 A 
ATOM     79  C   UNL     1       4.962   1.507  -7.261  1.00  0.00     0.148 A 
ATOM     80  C   UNL     1       6.337   0.313  -9.382  1.00  0.00     0.002 A 
ATOM     81  C   UNL     1       4.806   0.148  -7.520  1.00  0.00     0.091 A 
ATOM     82  F   UNL     1       4.372   2.064  -6.195  1.00  0.00    -0.205 F 
ATOM     83  C   UNL     1       5.500  -0.456  -8.575  1.00  0.00     0.022 A 
BRANCH  81  84
ATOM     84  S   UNL     1       3.767  -0.908  -6.499  1.00  0.00     0.127 S 
ATOM     85  O   UNL     1       2.942  -1.580  -7.502  1.00  0.00    -0.237 OA
ATOM     86  O   UNL     1       4.757  -1.761  -5.846  1.00  0.00    -0.237 OA
ATOM     87  O   UNL     1       3.029  -0.011  -5.617  1.00  0.00    -0.744 OA
ENDBRANCH  81  84
ENDBRANCH  53  77
BRANCH  65  88
ATOM     88  C   UNL     1       8.206   8.068  -8.034  1.00  0.00     0.023 A 
ATOM     89  C   UNL     1       6.795   8.110  -8.076  1.00  0.00     0.012 A 
ATOM     90  C   UNL     1       8.925   9.018  -8.773  1.00  0.00     0.148 A 
ATOM     91  C   UNL     1       6.117   9.061  -8.845  1.00  0.00     0.002 A 
ATOM     92  C   UNL     1       8.250   9.991  -9.505  1.00  0.00     0.091 A 
ATOM     93  F   UNL     1      10.265   8.982  -8.712  1.00  0.00    -0.205 F 
ATOM     94  C   UNL     1       6.847  10.011  -9.551  1.00  0.00     0.022 A 
BRANCH  92  95
ATOM     95  S   UNL     1       9.119  11.323 -10.333  1.00  0.00     0.127 S 
ATOM     96  O   UNL     1       8.921  10.986 -11.742  1.00  0.00    -0.237 OA
ATOM     97  O   UNL     1       8.385  12.504  -9.877  1.00  0.00    -0.237 OA
ATOM     98  O   UNL     1      10.498  11.259  -9.865  1.00  0.00    -0.744 OA
ENDBRANCH  92  95
ENDBRANCH  65  88
ENDBRANCH  39  40
ENDBRANCH  31  34
ENDBRANCH  29  30
ENDBRANCH  28  29
ENDBRANCH  27  28
ENDBRANCH   1  27
TORSDOF 19
