REMARK SMILES C[C@@H](NC(=O)/C(=C/c1ccc(Cl)cc1)NC(=O)c1ccc(C(C)(C)C)cc1)C(=O)NCCCCCCNC(=O)c1ccc(-c2c3nc(c(-c4cccc(S(=O)(=O)[O-])c4F)c4ccc([nH]4)c(-c4cccc(S(=O)(=O)[O-])c4F)c4nc(c(-c5cccc(S(=O)(=O)[O-])c5F)c5ccc2[nH]5)C=C4)C=C3)cc1
REMARK SMILES IDX 32 1 31 2 30 3 28 4 29 5 2 7 1 8 3 9 4 10 5 12 6 13 7 14
REMARK SMILES IDX 15 15 16 16 17 18 18 19 19 20 27 21 20 22 26 23 21 24 22 25
REMARK SMILES IDX 23 26 24 27 25 28 8 29 9 30 14 31 10 32 13 33 11 34 12 35
REMARK SMILES IDX 33 36 34 37 35 38 36 39 37 40 38 41 39 43 40 44 41 45 102 46
REMARK SMILES IDX 42 47 101 48 43 49 44 50 45 51 95 52 46 53 100 54 94 55
REMARK SMILES IDX 96 56 47 57 99 58 93 59 92 60 48 62 80 63 60 64 79 65 61 66
REMARK SMILES IDX 64 67 78 68 97 69 62 70 63 71 77 73 98 74 65 75 49 76 50 77
REMARK SMILES IDX 58 78 51 79 53 80 59 81 52 82 54 83 55 84 56 85 57 86 81 87
REMARK SMILES IDX 82 88 90 89 83 90 85 91 91 92 84 93 86 94 87 95 88 96 89 97
REMARK SMILES IDX 66 98 67 99 75 100 68 101 70 102 76 103 69 104 71 105 72 106
REMARK SMILES IDX 73 107 74 108
REMARK H PARENT 30 6 3 11 15 17 37 42 96 61 64 72
REMARK Flexibility Score: inf
ROOT
ATOM      1  C   UNL     1      -1.496  -1.734   2.223  1.00  0.00     0.021 C 
ENDROOT
BRANCH   1   2
ATOM      2  C   UNL     1      -0.918  -1.666   0.817  1.00  0.00     0.116 C 
BRANCH   2   3
ATOM      3  N   UNL     1      -1.270  -0.405   0.200  1.00  0.00    -0.354 N 
ATOM      4  C   UNL     1      -0.631   0.271  -0.788  1.00  0.00     0.242 C 
ATOM      5  O   UNL     1      -1.052   1.392  -1.091  1.00  0.00    -0.273 OA
ATOM      6  H   UNL     1      -2.088   0.021   0.545  1.00  0.00     0.163 HD
BRANCH   4   7
ATOM      7  C   UNL     1       0.647  -0.285  -1.437  1.00  0.00     0.168 C 
ATOM      8  C   UNL     1       1.813   0.046  -0.497  1.00  0.00     0.041 C 
BRANCH   7   9
ATOM      9  N   UNL     1       0.662  -1.706  -1.838  1.00  0.00    -0.339 N 
ATOM     10  C   UNL     1      -0.066  -2.237  -2.886  1.00  0.00     0.268 C 
ATOM     11  H   UNL     1       1.233  -2.319  -1.321  1.00  0.00     0.164 HD
ATOM     12  O   UNL     1       0.516  -2.691  -3.866  1.00  0.00    -0.268 OA
BRANCH  10  13
ATOM     13  C   UNL     1      -1.554  -2.399  -2.716  1.00  0.00     0.107 C 
ATOM     14  C   UNL     1      -2.283  -1.266  -2.727  1.00  0.00     0.040 C 
BRANCH  13  15
ATOM     15  N   UNL     1      -2.163  -3.637  -2.664  1.00  0.00    -0.317 N 
ATOM     16  C   UNL     1      -1.737  -4.941  -2.646  1.00  0.00     0.255 C 
ATOM     17  H   UNL     1      -3.145  -3.567  -2.630  1.00  0.00     0.170 HD
ATOM     18  O   UNL     1      -2.579  -5.837  -2.719  1.00  0.00    -0.269 OA
BRANCH  16  19
ATOM     19  C   UNL     1      -0.322  -5.311  -2.576  1.00  0.00     0.040 A 
ATOM     20  C   UNL     1       0.224  -6.006  -3.652  1.00  0.00     0.014 A 
ATOM     21  C   UNL     1       0.449  -5.023  -1.454  1.00  0.00     0.014 A 
ATOM     22  C   UNL     1       1.585  -6.306  -3.655  1.00  0.00     0.005 A 
ATOM     23  C   UNL     1       1.815  -5.321  -1.467  1.00  0.00     0.005 A 
ATOM     24  C   UNL     1       2.421  -5.921  -2.588  1.00  0.00    -0.043 A 
BRANCH  24  25
ATOM     25  C   UNL     1       3.937  -6.156  -2.686  1.00  0.00    -0.013 C 
ATOM     26  C   UNL     1       4.229  -7.667  -2.646  1.00  0.00     0.016 C 
ATOM     27  C   UNL     1       4.472  -5.566  -4.013  1.00  0.00     0.016 C 
ATOM     28  C   UNL     1       4.738  -5.482  -1.550  1.00  0.00     0.016 C 
ENDBRANCH  24  25
ENDBRANCH  16  19
ENDBRANCH  13  15
BRANCH  14  29
ATOM     29  C   UNL     1      -3.703  -1.035  -2.372  1.00  0.00    -0.023 A 
ATOM     30  C   UNL     1      -4.443  -1.874  -1.524  1.00  0.00     0.010 A 
ATOM     31  C   UNL     1      -4.289   0.178  -2.764  1.00  0.00     0.010 A 
ATOM     32  C   UNL     1      -5.744  -1.547  -1.130  1.00  0.00     0.021 A 
ATOM     33  C   UNL     1      -5.583   0.519  -2.356  1.00  0.00     0.021 A 
ATOM     34  C   UNL     1      -6.310  -0.350  -1.548  1.00  0.00     0.041 A 
ATOM     35  Cl  UNL     1      -7.898   0.071  -1.042  1.00  0.00    -0.084 Cl
ENDBRANCH  14  29
ENDBRANCH  10  13
ENDBRANCH   7   9
ENDBRANCH   4   7
ENDBRANCH   2   3
ENDBRANCH   1   2
BRANCH   1  36
ATOM     36  C   UNL     1      -2.997  -2.039   2.228  1.00  0.00     0.002 C 
BRANCH  36  37
ATOM     37  C   UNL     1      -3.349  -3.459   1.772  1.00  0.00     0.002 C 
BRANCH  37  38
ATOM     38  C   UNL     1      -2.666  -4.580   2.553  1.00  0.00     0.021 C 
BRANCH  38  39
ATOM     39  C   UNL     1      -2.793  -4.463   4.066  1.00  0.00     0.116 C 
BRANCH  39  40
ATOM     40  N   UNL     1      -4.181  -4.427   4.498  1.00  0.00    -0.352 N 
ATOM     41  C   UNL     1      -4.788  -5.141   5.500  1.00  0.00     0.251 C 
ATOM     42  H   UNL     1      -4.764  -3.807   4.003  1.00  0.00     0.163 HD
ATOM     43  O   UNL     1      -6.006  -5.122   5.618  1.00  0.00    -0.269 OA
BRANCH  41  44
ATOM     44  C   UNL     1      -3.956  -5.946   6.418  1.00  0.00     0.039 A 
ATOM     45  C   UNL     1      -4.350  -7.252   6.708  1.00  0.00     0.014 A 
ATOM     46  C   UNL     1      -2.781  -5.422   6.966  1.00  0.00     0.014 A 
ATOM     47  C   UNL     1      -3.537  -8.050   7.513  1.00  0.00     0.010 A 
ATOM     48  C   UNL     1      -1.930  -6.247   7.693  1.00  0.00     0.010 A 
ATOM     49  C   UNL     1      -2.304  -7.565   7.985  1.00  0.00    -0.014 A 
BRANCH  49  50
ATOM     50  C   UNL     1      -1.397  -8.445   8.763  1.00  0.00     0.031 A 
ATOM     51  C   UNL     1      -1.033  -8.112  10.184  1.00  0.00     0.074 A 
ATOM     52  C   UNL     1      -0.859  -9.526   8.164  1.00  0.00     0.049 A 
ATOM     53  N   UNL     1      -0.302  -8.796  11.026  1.00  0.00    -0.248 NA
ATOM     54  C   UNL     1      -1.530  -6.836  10.723  1.00  0.00     0.031 C 
ATOM     55  C   UNL     1      -1.061  -9.904   6.763  1.00  0.00     0.029 A 
ATOM     56  N   UNL     1      -0.029 -10.501   8.654  1.00  0.00    -0.354 N 
ATOM     57  C   UNL     1      -0.223  -8.022  12.177  1.00  0.00     0.074 A 
ATOM     58  C   UNL     1      -0.948  -6.799  11.913  1.00  0.00     0.031 C 
ATOM     59  C   UNL     1      -0.403 -11.048   6.518  1.00  0.00     0.029 A 
ATOM     60  C   UNL     1       0.290 -11.468   7.730  1.00  0.00     0.049 A 
ATOM     61  H   UNL     1       0.307 -10.508   9.580  1.00  0.00     0.167 HD
ATOM     62  C   UNL     1       0.377  -8.313  13.357  1.00  0.00     0.034 A 
ATOM     63  C   UNL     1       1.049 -12.574   7.849  1.00  0.00     0.034 A 
ATOM     64  C   UNL     1       1.071  -9.544  13.623  1.00  0.00     0.049 A 
ATOM     65  C   UNL     1       1.665 -12.896   9.182  1.00  0.00     0.074 A 
ATOM     66  C   UNL     1       1.621  -9.982  14.815  1.00  0.00     0.029 A 
ATOM     67  N   UNL     1       1.332 -10.527  12.680  1.00  0.00    -0.354 N 
ATOM     68  N   UNL     1       1.575 -12.241  10.314  1.00  0.00    -0.248 NA
ATOM     69  C   UNL     1       2.458 -14.130   9.261  1.00  0.00     0.031 C 
ATOM     70  C   UNL     1       2.253 -11.209  14.580  1.00  0.00     0.029 A 
ATOM     71  C   UNL     1       2.058 -11.557  13.254  1.00  0.00     0.049 A 
ATOM     72  H   UNL     1       1.043 -10.496  11.739  1.00  0.00     0.167 HD
ATOM     73  C   UNL     1       2.272 -12.999  11.248  1.00  0.00     0.074 A 
ATOM     74  C   UNL     1       2.750 -14.177  10.553  1.00  0.00     0.031 C 
ATOM     75  C   UNL     1       2.506 -12.738  12.559  1.00  0.00     0.034 A 
BRANCH  62  76
ATOM     76  C   UNL     1       0.284  -7.288  14.459  1.00  0.00     0.023 A 
ATOM     77  C   UNL     1      -0.957  -7.031  15.079  1.00  0.00     0.012 A 
ATOM     78  C   UNL     1       1.432  -6.609  14.911  1.00  0.00     0.148 A 
ATOM     79  C   UNL     1      -1.062  -6.084  16.098  1.00  0.00     0.002 A 
ATOM     80  C   UNL     1       1.330  -5.704  15.961  1.00  0.00     0.091 A 
ATOM     81  F   UNL     1       2.599  -6.848  14.296  1.00  0.00    -0.205 F 
ATOM     82  C   UNL     1       0.083  -5.430  16.546  1.00  0.00     0.022 A 
BRANCH  80  83
ATOM     83  S   UNL     1       2.758  -4.873  16.664  1.00  0.00     0.127 S 
ATOM     84  O   UNL     1       2.557  -3.500  16.201  1.00  0.00    -0.237 OA
ATOM     85  O   UNL     1       2.552  -5.068  18.099  1.00  0.00    -0.237 OA
ATOM     86  O   UNL     1       3.926  -5.552  16.121  1.00  0.00    -0.744 OA
ENDBRANCH  80  83
ENDBRANCH  62  76
BRANCH  63  87
ATOM     87  C   UNL     1       1.200 -13.500   6.692  1.00  0.00     0.023 A 
ATOM     88  C   UNL     1       0.590 -14.769   6.737  1.00  0.00     0.012 A 
ATOM     89  C   UNL     1       1.918 -13.123   5.541  1.00  0.00     0.148 A 
ATOM     90  C   UNL     1       0.719 -15.659   5.670  1.00  0.00     0.002 A 
ATOM     91  C   UNL     1       1.995 -13.992   4.459  1.00  0.00     0.091 A 
ATOM     92  F   UNL     1       2.496 -11.914   5.522  1.00  0.00    -0.205 F 
ATOM     93  C   UNL     1       1.411 -15.267   4.528  1.00  0.00     0.022 A 
BRANCH  91  94
ATOM     94  S   UNL     1       2.757 -13.527   2.901  1.00  0.00     0.127 S 
ATOM     95  O   UNL     1       3.921 -14.409   2.862  1.00  0.00    -0.237 OA
ATOM     96  O   UNL     1       1.702 -13.856   1.942  1.00  0.00    -0.237 OA
ATOM     97  O   UNL     1       3.048 -12.104   3.012  1.00  0.00    -0.744 OA
ENDBRANCH  91  94
ENDBRANCH  63  87
BRANCH  75  98
ATOM     98  C   UNL     1       3.300 -13.759  13.334  1.00  0.00     0.023 A 
ATOM     99  C   UNL     1       4.670 -13.945  13.058  1.00  0.00     0.012 A 
ATOM    100  C   UNL     1       2.696 -14.514  14.359  1.00  0.00     0.148 A 
ATOM    101  C   UNL     1       5.412 -14.902  13.751  1.00  0.00     0.002 A 
ATOM    102  C   UNL     1       3.455 -15.425  15.085  1.00  0.00     0.091 A 
ATOM    103  F   UNL     1       1.389 -14.338  14.599  1.00  0.00    -0.205 F 
ATOM    104  C   UNL     1       4.808 -15.634  14.769  1.00  0.00     0.022 A 
BRANCH 102 105
ATOM    105  S   UNL     1       2.786 -16.337  16.479  1.00  0.00     0.127 S 
ATOM    106  O   UNL     1       2.647 -17.680  15.918  1.00  0.00    -0.237 OA
ATOM    107  O   UNL     1       3.848 -16.201  17.477  1.00  0.00    -0.237 OA
ATOM    108  O   UNL     1       1.540 -15.672  16.832  1.00  0.00    -0.744 OA
ENDBRANCH 102 105
ENDBRANCH  75  98
ENDBRANCH  49  50
ENDBRANCH  41  44
ENDBRANCH  39  40
ENDBRANCH  38  39
ENDBRANCH  37  38
ENDBRANCH  36  37
ENDBRANCH   1  36
TORSDOF 22
