REMARK SMILES C[C@@H]1[C@@H](C(=O)NCCCCCCNC(=O)c2ccc(-c3c4nc(c(-c5cccc(S(=O)(=O)[O-])c5F)c5ccc([nH]5)c(-c5cccc(S(=O)(=O)[O-])c5F)c5nc(c(-c6cccc(S(=O)(=O)[O-])c6F)c6ccc3[nH]6)C=C5)C=C4)cc2)CCN1c1nc2sccn2c1[N+](=O)[O-]
REMARK SMILES IDX 10 1 9 2 8 3 7 4 6 5 4 6 5 7 3 9 1 10 2 11 81 12 79 13 80 14
REMARK SMILES IDX 82 15 83 16 89 17 84 18 88 19 85 20 87 21 86 22 90 23 91 24
REMARK SMILES IDX 92 25 11 26 12 27 13 28 14 29 15 31 16 32 17 33 78 34 18 35
REMARK SMILES IDX 77 36 19 37 20 38 21 39 71 40 22 41 76 42 70 43 72 44 23 45
REMARK SMILES IDX 75 46 69 47 68 48 24 50 56 51 36 52 55 53 37 54 40 55 54 56
REMARK SMILES IDX 73 57 38 58 39 59 53 61 74 62 41 63 25 64 26 65 34 66 27 67
REMARK SMILES IDX 29 68 35 69 28 70 30 71 31 72 32 73 33 74 57 75 58 76 66 77
REMARK SMILES IDX 59 78 61 79 67 80 60 81 62 82 63 83 64 84 65 85 42 86 43 87
REMARK SMILES IDX 51 88 44 89 46 90 52 91 45 92 47 93 48 94 49 95 50 96
REMARK H PARENT 6 8 13 30 72 49 40 60
REMARK Flexibility Score: inf
ROOT
ATOM      1  C   UNL     1      -5.066   3.427  -2.538  1.00  0.00     0.002 C 
ENDROOT
BRANCH   1   2
ATOM      2  C   UNL     1      -3.807   4.286  -2.674  1.00  0.00     0.002 C 
BRANCH   2   3
ATOM      3  C   UNL     1      -2.878   4.331  -1.455  1.00  0.00     0.021 C 
BRANCH   3   4
ATOM      4  C   UNL     1      -2.434   2.978  -0.909  1.00  0.00     0.116 C 
BRANCH   4   5
ATOM      5  N   UNL     1      -1.723   2.186  -1.888  1.00  0.00    -0.356 N 
ATOM      6  C   UNL     1      -0.722   1.278  -1.719  1.00  0.00     0.225 C 
ATOM      7  O   UNL     1      -0.293   0.739  -2.740  1.00  0.00    -0.275 OA
ATOM      8  H   UNL     1      -2.006   2.324  -2.821  1.00  0.00     0.163 HD
BRANCH   6   9
ATOM      9  C   UNL     1      -0.123   1.038  -0.332  1.00  0.00     0.102 C 
ATOM     10  C   UNL     1       1.988   0.036   0.679  1.00  0.00     0.032 C 
ATOM     11  C   UNL     1       0.886  -0.136  -0.370  1.00  0.00     0.093 C 
ATOM     12  N   UNL     1       0.061  -1.323  -0.053  1.00  0.00    -0.346 N 
ATOM     13  C   UNL     1      -1.122   0.552   0.719  1.00  0.00     0.037 C 
ATOM     14  C   UNL     1      -1.260  -0.931   0.407  1.00  0.00     0.119 C 
BRANCH  12  15
ATOM     15  C   UNL     1       0.428  -2.565  -0.445  1.00  0.00     0.229 A 
ATOM     16  N   UNL     1       1.718  -2.743  -0.917  1.00  0.00    -0.173 NA
ATOM     17  C   UNL     1      -0.250  -3.773  -0.438  1.00  0.00     0.373 A 
ATOM     18  C   UNL     1       1.783  -4.016  -1.179  1.00  0.00     0.286 A 
ATOM     19  N   UNL     1       0.634  -4.696  -0.911  1.00  0.00    -0.166 N 
ATOM     20  S   UNL     1       3.022  -5.065  -1.794  1.00  0.00    -0.078 S 
ATOM     21  C   UNL     1       0.687  -6.050  -1.186  1.00  0.00     0.220 A 
ATOM     22  C   UNL     1       1.890  -6.417  -1.660  1.00  0.00     0.114 A 
BRANCH  17  23
ATOM     23  N   UNL     1      -1.556  -4.159  -0.079  1.00  0.00    -0.023 N 
ATOM     24  O   UNL     1      -2.489  -3.434  -0.433  1.00  0.00    -0.358 OA
ATOM     25  O   UNL     1      -1.671  -5.236   0.519  1.00  0.00    -0.358 OA
ENDBRANCH  17  23
ENDBRANCH  12  15
ENDBRANCH   6   9
ENDBRANCH   4   5
ENDBRANCH   3   4
ENDBRANCH   2   3
ENDBRANCH   1   2
BRANCH   1  26
ATOM     26  C   UNL     1      -5.959   3.726  -1.332  1.00  0.00     0.021 C 
BRANCH  26  27
ATOM     27  C   UNL     1      -6.357   5.186  -1.144  1.00  0.00     0.116 C 
BRANCH  27  28
ATOM     28  N   UNL     1      -7.057   5.736  -2.291  1.00  0.00    -0.352 N 
ATOM     29  C   UNL     1      -8.202   6.493  -2.337  1.00  0.00     0.251 C 
ATOM     30  H   UNL     1      -6.651   5.537  -3.166  1.00  0.00     0.163 HD
ATOM     31  O   UNL     1      -8.706   6.761  -3.423  1.00  0.00    -0.269 OA
BRANCH  29  32
ATOM     32  C   UNL     1      -8.844   6.963  -1.087  1.00  0.00     0.039 A 
ATOM     33  C   UNL     1     -10.237   6.894  -0.988  1.00  0.00     0.014 A 
ATOM     34  C   UNL     1      -8.097   7.491  -0.030  1.00  0.00     0.014 A 
ATOM     35  C   UNL     1     -10.873   7.311   0.184  1.00  0.00     0.010 A 
ATOM     36  C   UNL     1      -8.727   7.837   1.165  1.00  0.00     0.010 A 
ATOM     37  C   UNL     1     -10.122   7.763   1.282  1.00  0.00    -0.014 A 
BRANCH  37  38
ATOM     38  C   UNL     1     -10.789   8.162   2.549  1.00  0.00     0.031 A 
ATOM     39  C   UNL     1     -10.706   9.582   3.044  1.00  0.00     0.074 A 
ATOM     40  C   UNL     1     -11.425   7.230   3.288  1.00  0.00     0.049 A 
ATOM     41  N   UNL     1     -11.222  10.109   4.125  1.00  0.00    -0.248 NA
ATOM     42  C   UNL     1      -9.924  10.529   2.233  1.00  0.00     0.031 C 
ATOM     43  C   UNL     1     -11.508   5.805   2.962  1.00  0.00     0.029 A 
ATOM     44  N   UNL     1     -12.105   7.338   4.475  1.00  0.00    -0.354 N 
ATOM     45  C   UNL     1     -10.803  11.434   4.141  1.00  0.00     0.074 A 
ATOM     46  C   UNL     1      -9.960  11.623   2.981  1.00  0.00     0.031 C 
ATOM     47  C   UNL     1     -12.207   5.174   3.919  1.00  0.00     0.029 A 
ATOM     48  C   UNL     1     -12.602   6.142   4.938  1.00  0.00     0.049 A 
ATOM     49  H   UNL     1     -12.227   8.191   4.951  1.00  0.00     0.167 HD
ATOM     50  C   UNL     1     -11.117  12.415   5.021  1.00  0.00     0.034 A 
ATOM     51  C   UNL     1     -13.296   5.854   6.057  1.00  0.00     0.034 A 
ATOM     52  C   UNL     1     -11.991  12.237   6.149  1.00  0.00     0.049 A 
ATOM     53  C   UNL     1     -13.667   6.971   6.996  1.00  0.00     0.074 A 
ATOM     54  C   UNL     1     -12.444  13.190   7.045  1.00  0.00     0.029 A 
ATOM     55  N   UNL     1     -12.540  11.027   6.543  1.00  0.00    -0.354 N 
ATOM     56  N   UNL     1     -13.402   8.251   6.901  1.00  0.00    -0.248 NA
ATOM     57  C   UNL     1     -14.464   6.609   8.176  1.00  0.00     0.031 C 
ATOM     58  C   UNL     1     -13.246  12.550   7.996  1.00  0.00     0.029 A 
ATOM     59  C   UNL     1     -13.316  11.204   7.676  1.00  0.00     0.049 A 
ATOM     60  H   UNL     1     -12.398  10.167   6.084  1.00  0.00     0.167 HD
ATOM     61  C   UNL     1     -14.027   8.851   7.988  1.00  0.00     0.074 A 
ATOM     62  C   UNL     1     -14.706   7.797   8.713  1.00  0.00     0.031 C 
ATOM     63  C   UNL     1     -14.026  10.155   8.362  1.00  0.00     0.034 A 
BRANCH  50  64
ATOM     64  C   UNL     1     -10.556  13.791   4.766  1.00  0.00     0.023 A 
ATOM     65  C   UNL     1     -11.050  14.553   3.687  1.00  0.00     0.012 A 
ATOM     66  C   UNL     1      -9.591  14.354   5.624  1.00  0.00     0.148 A 
ATOM     67  C   UNL     1     -10.567  15.838   3.443  1.00  0.00     0.002 A 
ATOM     68  C   UNL     1      -9.147  15.653   5.401  1.00  0.00     0.091 A 
ATOM     69  F   UNL     1      -9.119  13.609   6.633  1.00  0.00    -0.205 F 
ATOM     70  C   UNL     1      -9.625  16.391   4.305  1.00  0.00     0.022 A 
BRANCH  68  71
ATOM     71  S   UNL     1      -7.994  16.485   6.498  1.00  0.00     0.127 S 
ATOM     72  O   UNL     1      -6.789  16.542   5.671  1.00  0.00    -0.237 OA
ATOM     73  O   UNL     1      -8.648  17.777   6.710  1.00  0.00    -0.237 OA
ATOM     74  O   UNL     1      -7.897  15.651   7.687  1.00  0.00    -0.744 OA
ENDBRANCH  68  71
ENDBRANCH  50  64
BRANCH  51  75
ATOM     75  C   UNL     1     -13.746   4.457   6.316  1.00  0.00     0.023 A 
ATOM     76  C   UNL     1     -15.117   4.145   6.232  1.00  0.00     0.012 A 
ATOM     77  C   UNL     1     -12.826   3.436   6.622  1.00  0.00     0.148 A 
ATOM     78  C   UNL     1     -15.568   2.848   6.481  1.00  0.00     0.002 A 
ATOM     79  C   UNL     1     -13.276   2.134   6.813  1.00  0.00     0.091 A 
ATOM     80  F   UNL     1     -11.528   3.756   6.710  1.00  0.00    -0.205 F 
ATOM     81  C   UNL     1     -14.648   1.841   6.761  1.00  0.00     0.022 A 
BRANCH  79  82
ATOM     82  S   UNL     1     -12.151   0.754   7.048  1.00  0.00     0.127 S 
ATOM     83  O   UNL     1     -12.362   0.432   8.457  1.00  0.00    -0.237 OA
ATOM     84  O   UNL     1     -12.680  -0.232   6.104  1.00  0.00    -0.237 OA
ATOM     85  O   UNL     1     -10.830   1.262   6.704  1.00  0.00    -0.744 OA
ENDBRANCH  79  82
ENDBRANCH  51  75
BRANCH  63  86
ATOM     86  C   UNL     1     -14.803  10.528   9.598  1.00  0.00     0.023 A 
ATOM     87  C   UNL     1     -14.321  10.152  10.868  1.00  0.00     0.012 A 
ATOM     88  C   UNL     1     -15.973  11.307   9.506  1.00  0.00     0.148 A 
ATOM     89  C   UNL     1     -15.010  10.516  12.024  1.00  0.00     0.002 A 
ATOM     90  C   UNL     1     -16.627  11.709  10.665  1.00  0.00     0.091 A 
ATOM     91  F   UNL     1     -16.427  11.640   8.289  1.00  0.00    -0.205 F 
ATOM     92  C   UNL     1     -16.154  11.303  11.924  1.00  0.00     0.022 A 
BRANCH  90  93
ATOM     93  S   UNL     1     -18.052  12.802  10.637  1.00  0.00     0.127 S 
ATOM     94  O   UNL     1     -19.138  11.886  10.979  1.00  0.00    -0.237 OA
ATOM     95  O   UNL     1     -17.720  13.771  11.682  1.00  0.00    -0.237 OA
ATOM     96  O   UNL     1     -18.103  13.360   9.292  1.00  0.00    -0.744 OA
ENDBRANCH  90  93
ENDBRANCH  63  86
ENDBRANCH  37  38
ENDBRANCH  29  32
ENDBRANCH  27  28
ENDBRANCH  26  27
ENDBRANCH   1  26
TORSDOF 18
