REMARK SMILES CC(C)(C)OC(=O)N1C[C@@H](Oc2cccnc2)C[C@H]1C(=O)NCCCCCCNC(=O)c1ccc(-c2c3nc(c(-c4cccc(S(=O)(=O)[O-])c4F)c4ccc([nH]4)c(-c4cccc(S(=O)(=O)[O-])c4F)c4nc(c(-c5cccc(S(=O)(=O)[O-])c5F)c5ccc2[nH]5)C=C4)C=C3)cc1
REMARK SMILES IDX 25 1 24 2 23 3 22 4 20 5 21 6 19 8 8 9 9 10 10 11 18 12 6 13
REMARK SMILES IDX 7 14 5 15 2 16 1 17 3 18 4 19 11 20 12 21 13 22 17 23 14 24
REMARK SMILES IDX 16 25 15 26 26 27 27 28 28 29 29 30 30 31 31 33 32 34 33 35
REMARK SMILES IDX 94 36 34 37 93 38 35 39 36 40 37 41 87 42 38 43 92 44 86 45
REMARK SMILES IDX 88 46 39 47 91 48 85 49 84 50 40 52 72 53 52 54 71 55 53 56
REMARK SMILES IDX 56 57 70 58 89 59 54 60 55 61 69 63 90 64 57 65 41 66 42 67
REMARK SMILES IDX 50 68 43 69 45 70 51 71 44 72 46 73 47 74 48 75 49 76 73 77
REMARK SMILES IDX 74 78 82 79 75 80 77 81 83 82 76 83 78 84 79 85 80 86 81 87
REMARK SMILES IDX 58 88 59 89 67 90 60 91 62 92 68 93 61 94 63 95 64 96 65 97
REMARK SMILES IDX 66 98
REMARK H PARENT 22 7 29 32 88 51 56 62
REMARK Flexibility Score: inf
ROOT
ATOM      1  C   UNL     1       0.415  -6.847   2.451  1.00  0.00     0.002 C 
ENDROOT
BRANCH   1   2
ATOM      2  C   UNL     1       0.358  -5.831   1.309  1.00  0.00     0.021 C 
BRANCH   2   3
ATOM      3  C   UNL     1       1.327  -6.134   0.169  1.00  0.00     0.116 C 
BRANCH   3   4
ATOM      4  N   UNL     1       0.704  -6.984  -0.826  1.00  0.00    -0.354 N 
ATOM      5  C   UNL     1       0.158  -6.726  -2.042  1.00  0.00     0.243 C 
ATOM      6  O   UNL     1      -0.441  -7.672  -2.573  1.00  0.00    -0.273 OA
ATOM      7  H   UNL     1       0.671  -7.934  -0.570  1.00  0.00     0.163 HD
BRANCH   5   8
ATOM      8  C   UNL     1       0.367  -5.420  -2.851  1.00  0.00     0.181 C 
ATOM      9  N   UNL     1       0.963  -4.252  -2.225  1.00  0.00    -0.292 N 
ATOM     10  C   UNL     1       2.340  -4.045  -2.642  1.00  0.00     0.169 C 
ATOM     11  C   UNL     1       2.429  -4.739  -3.996  1.00  0.00     0.195 C 
ATOM     12  C   UNL     1       1.266  -5.736  -4.063  1.00  0.00     0.082 C 
BRANCH   9  13
ATOM     13  C   UNL     1       0.230  -3.449  -1.380  1.00  0.00     0.411 C 
ATOM     14  O   UNL     1      -0.914  -3.728  -1.046  1.00  0.00    -0.224 OA
BRANCH  13  15
ATOM     15  O   UNL     1       0.934  -2.375  -0.958  1.00  0.00    -0.444 OA
BRANCH  15  16
ATOM     16  C   UNL     1       0.459  -1.427   0.045  1.00  0.00     0.106 C 
ATOM     17  C   UNL     1       1.107  -0.089  -0.339  1.00  0.00     0.056 C 
ATOM     18  C   UNL     1       0.992  -1.861   1.413  1.00  0.00     0.056 C 
ATOM     19  C   UNL     1      -1.061  -1.229   0.105  1.00  0.00     0.056 C 
ENDBRANCH  15  16
ENDBRANCH  13  15
ENDBRANCH   9  13
BRANCH  11  20
ATOM     20  O   UNL     1       3.716  -5.215  -4.381  1.00  0.00    -0.487 OA
BRANCH  20  21
ATOM     21  C   UNL     1       4.311  -6.321  -3.864  1.00  0.00     0.138 A 
ATOM     22  C   UNL     1       3.893  -7.087  -2.785  1.00  0.00     0.050 A 
ATOM     23  C   UNL     1       5.481  -6.728  -4.501  1.00  0.00     0.157 A 
ATOM     24  C   UNL     1       4.618  -8.223  -2.412  1.00  0.00     0.024 A 
ATOM     25  N   UNL     1       6.212  -7.823  -4.167  1.00  0.00    -0.261 NA
ATOM     26  C   UNL     1       5.759  -8.547  -3.126  1.00  0.00     0.111 A 
ENDBRANCH  20  21
ENDBRANCH  11  20
ENDBRANCH   5   8
ENDBRANCH   3   4
ENDBRANCH   2   3
ENDBRANCH   1   2
BRANCH   1  27
ATOM     27  C   UNL     1       1.785  -6.974   3.131  1.00  0.00     0.002 C 
BRANCH  27  28
ATOM     28  C   UNL     1       2.415  -5.655   3.592  1.00  0.00     0.021 C 
BRANCH  28  29
ATOM     29  C   UNL     1       1.573  -4.862   4.588  1.00  0.00     0.116 C 
BRANCH  29  30
ATOM     30  N   UNL     1       1.325  -5.623   5.803  1.00  0.00    -0.352 N 
ATOM     31  C   UNL     1       1.685  -5.346   7.097  1.00  0.00     0.251 C 
ATOM     32  H   UNL     1       0.824  -6.461   5.678  1.00  0.00     0.163 HD
ATOM     33  O   UNL     1       1.613  -6.224   7.952  1.00  0.00    -0.269 OA
BRANCH  31  34
ATOM     34  C   UNL     1       2.162  -3.994   7.461  1.00  0.00     0.039 A 
ATOM     35  C   UNL     1       3.253  -3.870   8.325  1.00  0.00     0.014 A 
ATOM     36  C   UNL     1       1.512  -2.853   6.981  1.00  0.00     0.014 A 
ATOM     37  C   UNL     1       3.722  -2.600   8.669  1.00  0.00     0.010 A 
ATOM     38  C   UNL     1       2.025  -1.591   7.268  1.00  0.00     0.010 A 
ATOM     39  C   UNL     1       3.127  -1.450   8.123  1.00  0.00    -0.014 A 
BRANCH  39  40
ATOM     40  C   UNL     1       3.647  -0.093   8.431  1.00  0.00     0.031 A 
ATOM     41  C   UNL     1       2.781   0.906   9.150  1.00  0.00     0.074 A 
ATOM     42  C   UNL     1       4.868   0.267   7.989  1.00  0.00     0.049 A 
ATOM     43  N   UNL     1       3.036   2.154   9.447  1.00  0.00    -0.248 NA
ATOM     44  C   UNL     1       1.443   0.454   9.565  1.00  0.00     0.031 C 
ATOM     45  C   UNL     1       5.771  -0.587   7.214  1.00  0.00     0.029 A 
ATOM     46  N   UNL     1       5.548   1.454   8.101  1.00  0.00    -0.354 N 
ATOM     47  C   UNL     1       1.885   2.645  10.052  1.00  0.00     0.074 A 
ATOM     48  C   UNL     1       0.916   1.570  10.047  1.00  0.00     0.031 C 
ATOM     49  C   UNL     1       6.884   0.104   6.919  1.00  0.00     0.029 A 
ATOM     50  C   UNL     1       6.762   1.457   7.454  1.00  0.00     0.049 A 
ATOM     51  H   UNL     1       5.199   2.230   8.597  1.00  0.00     0.167 HD
ATOM     52  C   UNL     1       1.662   3.868  10.589  1.00  0.00     0.034 A 
ATOM     53  C   UNL     1       7.669   2.441   7.298  1.00  0.00     0.034 A 
ATOM     54  C   UNL     1       2.641   4.921  10.626  1.00  0.00     0.049 A 
ATOM     55  C   UNL     1       7.412   3.779   7.935  1.00  0.00     0.074 A 
ATOM     56  C   UNL     1       2.542   6.167  11.219  1.00  0.00     0.029 A 
ATOM     57  N   UNL     1       3.896   4.857  10.039  1.00  0.00    -0.354 N 
ATOM     58  N   UNL     1       6.378   4.174   8.636  1.00  0.00    -0.248 NA
ATOM     59  C   UNL     1       8.464   4.796   7.792  1.00  0.00     0.031 C 
ATOM     60  C   UNL     1       3.727   6.866  10.969  1.00  0.00     0.029 A 
ATOM     61  C   UNL     1       4.577   6.043  10.247  1.00  0.00     0.049 A 
ATOM     62  H   UNL     1       4.250   4.081   9.547  1.00  0.00     0.167 HD
ATOM     63  C   UNL     1       6.669   5.470   9.049  1.00  0.00     0.074 A 
ATOM     64  C   UNL     1       7.986   5.785   8.536  1.00  0.00     0.031 C 
ATOM     65  C   UNL     1       5.909   6.325   9.776  1.00  0.00     0.034 A 
BRANCH  52  66
ATOM     66  C   UNL     1       0.321   4.119  11.229  1.00  0.00     0.023 A 
ATOM     67  C   UNL     1      -0.001   3.479  12.444  1.00  0.00     0.012 A 
ATOM     68  C   UNL     1      -0.595   5.029  10.666  1.00  0.00     0.148 A 
ATOM     69  C   UNL     1      -1.226   3.711  13.068  1.00  0.00     0.002 A 
ATOM     70  C   UNL     1      -1.794   5.292  11.318  1.00  0.00     0.091 A 
ATOM     71  F   UNL     1      -0.280   5.614   9.501  1.00  0.00    -0.205 F 
ATOM     72  C   UNL     1      -2.117   4.624  12.511  1.00  0.00     0.022 A 
BRANCH  70  73
ATOM     73  S   UNL     1      -2.974   6.511  10.726  1.00  0.00     0.127 S 
ATOM     74  O   UNL     1      -4.077   5.660  10.279  1.00  0.00    -0.237 OA
ATOM     75  O   UNL     1      -3.252   7.282  11.938  1.00  0.00    -0.237 OA
ATOM     76  O   UNL     1      -2.292   7.253   9.675  1.00  0.00    -0.744 OA
ENDBRANCH  70  73
ENDBRANCH  52  66
BRANCH  53  77
ATOM     77  C   UNL     1       8.930   2.177   6.548  1.00  0.00     0.023 A 
ATOM     78  C   UNL     1      10.153   2.124   7.244  1.00  0.00     0.012 A 
ATOM     79  C   UNL     1       8.919   1.951   5.159  1.00  0.00     0.148 A 
ATOM     80  C   UNL     1      11.348   1.886   6.564  1.00  0.00     0.002 A 
ATOM     81  C   UNL     1      10.105   1.657   4.496  1.00  0.00     0.091 A 
ATOM     82  F   UNL     1       7.746   2.015   4.513  1.00  0.00    -0.205 F 
ATOM     83  C   UNL     1      11.323   1.643   5.193  1.00  0.00     0.022 A 
BRANCH  81  84
ATOM     84  S   UNL     1      10.148   1.198   2.760  1.00  0.00     0.127 S 
ATOM     85  O   UNL     1      10.780   2.368   2.157  1.00  0.00    -0.237 OA
ATOM     86  O   UNL     1      10.977  -0.007   2.788  1.00  0.00    -0.237 OA
ATOM     87  O   UNL     1       8.761   0.961   2.382  1.00  0.00    -0.744 OA
ENDBRANCH  81  84
ENDBRANCH  53  77
BRANCH  65  88
ATOM     88  C   UNL     1       6.492   7.676  10.101  1.00  0.00     0.023 A 
ATOM     89  C   UNL     1       6.623   8.648   9.089  1.00  0.00     0.012 A 
ATOM     90  C   UNL     1       6.840   8.005  11.426  1.00  0.00     0.148 A 
ATOM     91  C   UNL     1       7.123   9.916   9.386  1.00  0.00     0.002 A 
ATOM     92  C   UNL     1       7.289   9.286  11.723  1.00  0.00     0.091 A 
ATOM     93  F   UNL     1       6.726   7.060  12.370  1.00  0.00    -0.205 F 
ATOM     94  C   UNL     1       7.443  10.238  10.703  1.00  0.00     0.022 A 
BRANCH  92  95
ATOM     95  S   UNL     1       7.632   9.821  13.403  1.00  0.00     0.127 S 
ATOM     96  O   UNL     1       9.090   9.920  13.392  1.00  0.00    -0.237 OA
ATOM     97  O   UNL     1       6.934  11.106  13.467  1.00  0.00    -0.237 OA
ATOM     98  O   UNL     1       7.082   8.791  14.274  1.00  0.00    -0.744 OA
ENDBRANCH  92  95
ENDBRANCH  65  88
ENDBRANCH  39  40
ENDBRANCH  31  34
ENDBRANCH  29  30
ENDBRANCH  28  29
ENDBRANCH  27  28
ENDBRANCH   1  27
TORSDOF 21
