REMARK SMILES O=C(Cc1ccc(NC(=O)Nc2ccc(Br)cc2)cc1)NCCCCCCNC(=O)c1ccc(-c2c3nc(c(-c4cccc(S(=O)(=O)[O-])c4F)c4ccc([nH]4)c(-c4cccc(S(=O)(=O)[O-])c4F)c4nc(c(-c5cccc(S(=O)(=O)[O-])c5F)c5ccc2[nH]5)C=C4)C=C3)cc1
REMARK SMILES IDX 24 1 23 2 22 3 21 4 1 5 2 6 3 8 4 9 5 10 20 11 6 12 19 13
REMARK SMILES IDX 7 14 8 15 9 16 10 18 11 19 12 21 13 22 18 23 14 24 17 25
REMARK SMILES IDX 15 26 16 27 25 28 26 29 27 30 28 31 29 32 30 34 31 35 32 36
REMARK SMILES IDX 93 37 33 38 92 39 34 40 35 41 36 42 86 43 37 44 91 45 85 46
REMARK SMILES IDX 87 47 38 48 90 49 84 50 83 51 39 53 71 54 51 55 70 56 52 57
REMARK SMILES IDX 55 58 69 59 88 60 53 61 54 62 68 64 89 65 56 66 40 67 41 68
REMARK SMILES IDX 49 69 42 70 44 71 50 72 43 73 45 74 46 75 47 76 48 77 72 78
REMARK SMILES IDX 73 79 81 80 74 81 76 82 82 83 75 84 77 85 78 86 79 87 80 88
REMARK SMILES IDX 57 89 58 90 66 91 59 92 61 93 67 94 60 95 62 96 63 97 64 98
REMARK SMILES IDX 65 99
REMARK H PARENT 21 7 8 17 11 20 28 33 87 52 55 63
REMARK Flexibility Score: inf
ROOT
ATOM      1  C   UNL     1       4.062   3.524   1.590  1.00  0.00     0.002 C 
ENDROOT
BRANCH   1   2
ATOM      2  C   UNL     1       2.547   3.286   1.695  1.00  0.00     0.021 C 
BRANCH   2   3
ATOM      3  C   UNL     1       1.944   2.522   0.519  1.00  0.00     0.116 C 
BRANCH   3   4
ATOM      4  N   UNL     1       2.649   1.278   0.319  1.00  0.00    -0.356 N 
ATOM      5  O   UNL     1       0.820  -0.074  -0.010  1.00  0.00    -0.275 OA
ATOM      6  C   UNL     1       2.034   0.079   0.061  1.00  0.00     0.224 C 
ATOM      7  H   UNL     1       3.632   1.291   0.370  1.00  0.00     0.163 HD
BRANCH   6   8
ATOM      8  C   UNL     1       3.010  -1.072  -0.057  1.00  0.00     0.135 C 
BRANCH   8   9
ATOM      9  C   UNL     1       4.116  -0.920  -1.083  1.00  0.00    -0.039 A 
ATOM     10  C   UNL     1       5.216  -1.784  -1.005  1.00  0.00     0.006 A 
ATOM     11  C   UNL     1       4.020  -0.059  -2.186  1.00  0.00     0.006 A 
ATOM     12  C   UNL     1       6.097  -1.902  -2.081  1.00  0.00     0.026 A 
ATOM     13  C   UNL     1       4.912  -0.169  -3.254  1.00  0.00     0.026 A 
ATOM     14  C   UNL     1       5.856  -1.193  -3.257  1.00  0.00     0.042 A 
BRANCH  14  15
ATOM     15  N   UNL     1       6.429  -1.529  -4.496  1.00  0.00    -0.308 N 
ATOM     16  C   UNL     1       6.901  -2.704  -4.985  1.00  0.00     0.323 C 
ATOM     17  H   UNL     1       6.500  -0.774  -5.123  1.00  0.00     0.171 HD
ATOM     18  O   UNL     1       7.659  -2.674  -5.959  1.00  0.00    -0.248 OA
ATOM     19  N   UNL     1       6.598  -3.912  -4.444  1.00  0.00    -0.308 N 
ATOM     20  H   UNL     1       7.273  -4.608  -4.618  1.00  0.00     0.171 HD
BRANCH  19  21
ATOM     21  C   UNL     1       5.503  -4.357  -3.683  1.00  0.00     0.042 A 
ATOM     22  C   UNL     1       5.745  -5.378  -2.757  1.00  0.00     0.027 A 
ATOM     23  C   UNL     1       4.226  -3.791  -3.763  1.00  0.00     0.027 A 
ATOM     24  C   UNL     1       4.769  -5.718  -1.816  1.00  0.00     0.018 A 
ATOM     25  C   UNL     1       3.239  -4.148  -2.837  1.00  0.00     0.018 A 
ATOM     26  C   UNL     1       3.529  -5.084  -1.846  1.00  0.00     0.018 A 
ATOM     27  Br  UNL     1       2.255  -5.460  -0.501  1.00  0.00    -0.051 Br
ENDBRANCH  19  21
ENDBRANCH  14  15
ENDBRANCH   8   9
ENDBRANCH   6   8
ENDBRANCH   3   4
ENDBRANCH   2   3
ENDBRANCH   1   2
BRANCH   1  28
ATOM     28  C   UNL     1       4.520   4.256   0.325  1.00  0.00     0.002 C 
BRANCH  28  29
ATOM     29  C   UNL     1       3.880   5.628   0.114  1.00  0.00     0.021 C 
BRANCH  29  30
ATOM     30  C   UNL     1       4.024   6.582   1.293  1.00  0.00     0.116 C 
BRANCH  30  31
ATOM     31  N   UNL     1       5.414   6.895   1.588  1.00  0.00    -0.352 N 
ATOM     32  C   UNL     1       5.979   8.121   1.840  1.00  0.00     0.251 C 
ATOM     33  H   UNL     1       6.030   6.128   1.611  1.00  0.00     0.163 HD
ATOM     34  O   UNL     1       7.200   8.237   1.915  1.00  0.00    -0.269 OA
BRANCH  32  35
ATOM     35  C   UNL     1       5.105   9.304   1.992  1.00  0.00     0.039 A 
ATOM     36  C   UNL     1       5.419  10.472   1.295  1.00  0.00     0.014 A 
ATOM     37  C   UNL     1       3.963   9.246   2.796  1.00  0.00     0.014 A 
ATOM     38  C   UNL     1       4.553  11.565   1.359  1.00  0.00     0.010 A 
ATOM     39  C   UNL     1       3.063  10.306   2.794  1.00  0.00     0.010 A 
ATOM     40  C   UNL     1       3.351  11.480   2.082  1.00  0.00    -0.014 A 
BRANCH  40  41
ATOM     41  C   UNL     1       2.378  12.603   2.094  1.00  0.00     0.031 A 
ATOM     42  C   UNL     1       2.030  13.291   3.386  1.00  0.00     0.074 A 
ATOM     43  C   UNL     1       1.744  12.947   0.955  1.00  0.00     0.049 A 
ATOM     44  N   UNL     1       1.171  14.254   3.601  1.00  0.00    -0.248 NA
ATOM     45  C   UNL     1       2.714  12.817   4.600  1.00  0.00     0.031 C 
ATOM     46  C   UNL     1       1.934  12.303  -0.346  1.00  0.00     0.029 A 
ATOM     47  N   UNL     1       0.792  13.906   0.714  1.00  0.00    -0.354 N 
ATOM     48  C   UNL     1       1.185  14.477   4.973  1.00  0.00     0.074 A 
ATOM     49  C   UNL     1       2.110  13.523   5.545  1.00  0.00     0.031 C 
ATOM     50  C   UNL     1       1.130  12.887  -1.248  1.00  0.00     0.029 A 
ATOM     51  C   UNL     1       0.344  13.924  -0.586  1.00  0.00     0.049 A 
ATOM     52  H   UNL     1       0.462  14.523   1.407  1.00  0.00     0.167 HD
ATOM     53  C   UNL     1       0.512  15.408   5.689  1.00  0.00     0.034 A 
ATOM     54  C   UNL     1      -0.601  14.681  -1.177  1.00  0.00     0.034 A 
ATOM     55  C   UNL     1      -0.381  16.377   5.112  1.00  0.00     0.049 A 
ATOM     56  C   UNL     1      -1.312  15.730  -0.366  1.00  0.00     0.074 A 
ATOM     57  C   UNL     1      -1.040  17.418   5.739  1.00  0.00     0.029 A 
ATOM     58  N   UNL     1      -0.751  16.415   3.777  1.00  0.00    -0.354 N 
ATOM     59  N   UNL     1      -1.165  16.032   0.901  1.00  0.00    -0.248 NA
ATOM     60  C   UNL     1      -2.292  16.567  -1.074  1.00  0.00     0.031 C 
ATOM     61  C   UNL     1      -1.837  18.066   4.789  1.00  0.00     0.029 A 
ATOM     62  C   UNL     1      -1.642  17.453   3.562  1.00  0.00     0.049 A 
ATOM     63  H   UNL     1      -0.428  15.796   3.083  1.00  0.00     0.167 HD
ATOM     64  C   UNL     1      -2.004  17.116   1.134  1.00  0.00     0.074 A 
ATOM     65  C   UNL     1      -2.641  17.429  -0.129  1.00  0.00     0.031 C 
ATOM     66  C   UNL     1      -2.233  17.785   2.291  1.00  0.00     0.034 A 
BRANCH  53  67
ATOM     67  C   UNL     1       0.748  15.450   7.178  1.00  0.00     0.023 A 
ATOM     68  C   UNL     1       1.995  15.884   7.675  1.00  0.00     0.012 A 
ATOM     69  C   UNL     1      -0.275  15.111   8.084  1.00  0.00     0.148 A 
ATOM     70  C   UNL     1       2.234  15.938   9.048  1.00  0.00     0.002 A 
ATOM     71  C   UNL     1      -0.046  15.214   9.451  1.00  0.00     0.091 A 
ATOM     72  F   UNL     1      -1.447  14.682   7.594  1.00  0.00    -0.205 F 
ATOM     73  C   UNL     1       1.211  15.613   9.934  1.00  0.00     0.022 A 
BRANCH  71  74
ATOM     74  S   UNL     1      -1.323  14.899  10.674  1.00  0.00     0.127 S 
ATOM     75  O   UNL     1      -0.858  13.648  11.270  1.00  0.00    -0.237 OA
ATOM     76  O   UNL     1      -1.209  16.069  11.546  1.00  0.00    -0.237 OA
ATOM     77  O   UNL     1      -2.575  14.813   9.935  1.00  0.00    -0.744 OA
ENDBRANCH  71  74
ENDBRANCH  53  67
BRANCH  54  78
ATOM     78  C   UNL     1      -0.886  14.512  -2.631  1.00  0.00     0.023 A 
ATOM     79  C   UNL     1      -0.507  15.525  -3.534  1.00  0.00     0.012 A 
ATOM     80  C   UNL     1      -1.498  13.345  -3.125  1.00  0.00     0.148 A 
ATOM     81  C   UNL     1      -0.763  15.393  -4.899  1.00  0.00     0.002 A 
ATOM     82  C   UNL     1      -1.698  13.194  -4.492  1.00  0.00     0.091 A 
ATOM     83  F   UNL     1      -1.857  12.397  -2.248  1.00  0.00    -0.205 F 
ATOM     84  C   UNL     1      -1.348  14.224  -5.379  1.00  0.00     0.022 A 
BRANCH  82  85
ATOM     85  S   UNL     1      -2.322  11.673  -5.215  1.00  0.00     0.127 S 
ATOM     86  O   UNL     1      -3.630  12.091  -5.711  1.00  0.00    -0.237 OA
ATOM     87  O   UNL     1      -1.325  11.403  -6.252  1.00  0.00    -0.237 OA
ATOM     88  O   UNL     1      -2.339  10.699  -4.131  1.00  0.00    -0.744 OA
ENDBRANCH  82  85
ENDBRANCH  54  78
BRANCH  66  89
ATOM     89  C   UNL     1      -3.183  18.955   2.248  1.00  0.00     0.023 A 
ATOM     90  C   UNL     1      -4.566  18.737   2.090  1.00  0.00     0.012 A 
ATOM     91  C   UNL     1      -2.707  20.268   2.439  1.00  0.00     0.148 A 
ATOM     92  C   UNL     1      -5.457  19.810   2.090  1.00  0.00     0.002 A 
ATOM     93  C   UNL     1      -3.606  21.326   2.491  1.00  0.00     0.091 A 
ATOM     94  F   UNL     1      -1.386  20.457   2.570  1.00  0.00    -0.205 F 
ATOM     95  C   UNL     1      -4.979  21.101   2.303  1.00  0.00     0.022 A 
BRANCH  93  96
ATOM     96  S   UNL     1      -3.094  23.008   2.859  1.00  0.00     0.127 S 
ATOM     97  O   UNL     1      -3.280  23.666   1.567  1.00  0.00    -0.237 OA
ATOM     98  O   UNL     1      -4.054  23.405   3.889  1.00  0.00    -0.237 OA
ATOM     99  O   UNL     1      -1.715  22.918   3.321  1.00  0.00    -0.744 OA
ENDBRANCH  93  96
ENDBRANCH  66  89
ENDBRANCH  40  41
ENDBRANCH  32  35
ENDBRANCH  30  31
ENDBRANCH  29  30
ENDBRANCH  28  29
ENDBRANCH   1  28
TORSDOF 19
