REMARK SMILES O=C(Cc1c[nH]c(=O)n(Cc2ccccc2)c1=O)NCCCCCCNC(=O)c1ccc(-c2c3nc(c(-c4cccc(S(=O)(=O)[O-])c4F)c4ccc([nH]4)c(-c4cccc(S(=O)(=O)[O-])c4F)c4nc(c(-c5cccc(S(=O)(=O)[O-])c5F)c5ccc2[nH]5)C=C4)C=C3)cc1
REMARK SMILES IDX 22 1 21 2 20 3 19 4 1 5 2 6 3 8 4 9 5 10 17 11 6 12 9 13
REMARK SMILES IDX 18 14 7 15 8 17 10 18 11 19 12 20 16 21 13 22 15 23 14 24
REMARK SMILES IDX 23 25 24 26 25 27 26 28 27 29 28 31 29 32 30 33 91 34 31 35
REMARK SMILES IDX 90 36 32 37 33 38 34 39 84 40 35 41 89 42 83 43 85 44 36 45
REMARK SMILES IDX 88 46 82 47 81 48 37 50 69 51 49 52 68 53 50 54 53 55 67 56
REMARK SMILES IDX 86 57 51 58 52 59 66 61 87 62 54 63 38 64 39 65 47 66 40 67
REMARK SMILES IDX 42 68 48 69 41 70 43 71 44 72 45 73 46 74 70 75 71 76 79 77
REMARK SMILES IDX 72 78 74 79 80 80 73 81 75 82 76 83 77 84 78 85 55 86 56 87
REMARK SMILES IDX 64 88 57 89 59 90 65 91 58 92 60 93 61 94 62 95 63 96
REMARK H PARENT 19 7 6 16 26 30 85 49 53 60
REMARK Flexibility Score: inf
ROOT
ATOM      1  C   UNL     1       4.128   3.790  -0.663  1.00  0.00     0.002 C 
ENDROOT
BRANCH   1   2
ATOM      2  C   UNL     1       2.614   3.586  -0.499  1.00  0.00     0.021 C 
BRANCH   2   3
ATOM      3  C   UNL     1       2.082   2.244  -1.002  1.00  0.00     0.116 C 
BRANCH   3   4
ATOM      4  N   UNL     1       2.680   1.134  -0.288  1.00  0.00    -0.356 N 
ATOM      5  O   UNL     1       1.058  -0.407  -0.811  1.00  0.00    -0.275 OA
ATOM      6  C   UNL     1       2.115  -0.124  -0.261  1.00  0.00     0.224 C 
ATOM      7  H   UNL     1       3.524   1.284   0.197  1.00  0.00     0.163 HD
BRANCH   6   8
ATOM      8  C   UNL     1       2.951  -1.136   0.505  1.00  0.00     0.142 C 
BRANCH   8   9
ATOM      9  C   UNL     1       3.933  -1.804  -0.412  1.00  0.00     0.043 A 
ATOM     10  C   UNL     1       5.051  -1.214  -0.850  1.00  0.00     0.097 A 
ATOM     11  C   UNL     1       3.693  -3.224  -0.803  1.00  0.00     0.260 A 
ATOM     12  N   UNL     1       5.956  -1.884  -1.610  1.00  0.00    -0.314 N 
ATOM     13  N   UNL     1       4.646  -3.811  -1.623  1.00  0.00    -0.256 N 
ATOM     14  O   UNL     1       2.719  -3.824  -0.352  1.00  0.00    -0.269 OA
ATOM     15  C   UNL     1       5.827  -3.190  -1.989  1.00  0.00     0.328 A 
ATOM     16  H   UNL     1       6.758  -1.396  -1.907  1.00  0.00     0.171 HD
ATOM     17  O   UNL     1       6.753  -3.730  -2.591  1.00  0.00    -0.248 OA
BRANCH  13  18
ATOM     18  C   UNL     1       4.430  -5.179  -2.070  1.00  0.00     0.166 C 
BRANCH  18  19
ATOM     19  C   UNL     1       3.795  -5.240  -3.444  1.00  0.00    -0.028 A 
ATOM     20  C   UNL     1       4.561  -5.007  -4.597  1.00  0.00     0.005 A 
ATOM     21  C   UNL     1       2.426  -5.508  -3.589  1.00  0.00     0.005 A 
ATOM     22  C   UNL     1       3.975  -5.034  -5.862  1.00  0.00     0.000 A 
ATOM     23  C   UNL     1       1.844  -5.549  -4.858  1.00  0.00     0.000 A 
ATOM     24  C   UNL     1       2.617  -5.308  -5.993  1.00  0.00     0.000 A 
ENDBRANCH  18  19
ENDBRANCH  13  18
ENDBRANCH   8   9
ENDBRANCH   6   8
ENDBRANCH   3   4
ENDBRANCH   2   3
ENDBRANCH   1   2
BRANCH   1  25
ATOM     25  C   UNL     1       4.653   3.732  -2.099  1.00  0.00     0.002 C 
BRANCH  25  26
ATOM     26  C   UNL     1       4.022   4.733  -3.066  1.00  0.00     0.021 C 
BRANCH  26  27
ATOM     27  C   UNL     1       4.088   6.191  -2.625  1.00  0.00     0.116 C 
BRANCH  27  28
ATOM     28  N   UNL     1       5.447   6.704  -2.535  1.00  0.00    -0.352 N 
ATOM     29  C   UNL     1       5.945   7.898  -3.008  1.00  0.00     0.251 C 
ATOM     30  H   UNL     1       6.095   6.121  -2.077  1.00  0.00     0.163 HD
ATOM     31  O   UNL     1       7.148   8.134  -2.949  1.00  0.00    -0.269 OA
BRANCH  29  32
ATOM     32  C   UNL     1       5.015   8.869  -3.626  1.00  0.00     0.039 A 
ATOM     33  C   UNL     1       3.826   9.213  -2.980  1.00  0.00     0.014 A 
ATOM     34  C   UNL     1       5.304   9.379  -4.894  1.00  0.00     0.014 A 
ATOM     35  C   UNL     1       2.851   9.924  -3.672  1.00  0.00     0.010 A 
ATOM     36  C   UNL     1       4.352  10.159  -5.557  1.00  0.00     0.010 A 
ATOM     37  C   UNL     1       3.096  10.392  -4.974  1.00  0.00    -0.014 A 
BRANCH  37  38
ATOM     38  C   UNL     1       2.025  11.115  -5.707  1.00  0.00     0.031 A 
ATOM     39  C   UNL     1       1.414  10.535  -6.956  1.00  0.00     0.074 A 
ATOM     40  C   UNL     1       1.570  12.286  -5.220  1.00  0.00     0.049 A 
ATOM     41  N   UNL     1       0.469  11.031  -7.713  1.00  0.00    -0.248 NA
ATOM     42  C   UNL     1       1.925   9.233  -7.418  1.00  0.00     0.031 C 
ATOM     43  C   UNL     1       2.088  12.957  -4.027  1.00  0.00     0.029 A 
ATOM     44  N   UNL     1       0.568  13.112  -5.659  1.00  0.00    -0.354 N 
ATOM     45  C   UNL     1       0.299  10.129  -8.757  1.00  0.00     0.074 A 
ATOM     46  C   UNL     1       1.240   9.052  -8.540  1.00  0.00     0.031 C 
ATOM     47  C   UNL     1       1.378  14.073  -3.808  1.00  0.00     0.029 A 
ATOM     48  C   UNL     1       0.388  14.223  -4.870  1.00  0.00     0.049 A 
ATOM     49  H   UNL     1       0.029  12.928  -6.462  1.00  0.00     0.167 HD
ATOM     50  C   UNL     1      -0.574  10.183  -9.789  1.00  0.00     0.034 A 
ATOM     51  C   UNL     1      -0.471  15.254  -4.987  1.00  0.00     0.034 A 
ATOM     52  C   UNL     1      -1.548  11.224  -9.977  1.00  0.00     0.049 A 
ATOM     53  C   UNL     1      -1.443  15.278  -6.128  1.00  0.00     0.074 A 
ATOM     54  C   UNL     1      -2.493  11.343 -10.982  1.00  0.00     0.029 A 
ATOM     55  N   UNL     1      -1.712  12.316  -9.141  1.00  0.00    -0.354 N 
ATOM     56  N   UNL     1      -1.622  14.386  -7.071  1.00  0.00    -0.248 NA
ATOM     57  C   UNL     1      -2.341  16.438  -6.216  1.00  0.00     0.031 C 
ATOM     58  C   UNL     1      -3.233  12.506 -10.750  1.00  0.00     0.029 A 
ATOM     59  C   UNL     1      -2.749  13.109  -9.600  1.00  0.00     0.049 A 
ATOM     60  H   UNL     1      -1.172  12.500  -8.339  1.00  0.00     0.167 HD
ATOM     61  C   UNL     1      -2.659  14.868  -7.858  1.00  0.00     0.074 A 
ATOM     62  C   UNL     1      -3.084  16.122  -7.270  1.00  0.00     0.031 C 
ATOM     63  C   UNL     1      -3.195  14.328  -8.978  1.00  0.00     0.034 A 
BRANCH  50  64
ATOM     64  C   UNL     1      -0.570   9.051 -10.780  1.00  0.00     0.023 A 
ATOM     65  C   UNL     1      -1.239   7.855 -10.456  1.00  0.00     0.012 A 
ATOM     66  C   UNL     1      -0.004   9.207 -12.061  1.00  0.00     0.148 A 
ATOM     67  C   UNL     1      -1.340   6.825 -11.390  1.00  0.00     0.002 A 
ATOM     68  C   UNL     1      -0.132   8.187 -12.996  1.00  0.00     0.091 A 
ATOM     69  F   UNL     1       0.639  10.350 -12.339  1.00  0.00    -0.205 F 
ATOM     70  C   UNL     1      -0.797   6.995 -12.661  1.00  0.00     0.022 A 
BRANCH  68  71
ATOM     71  S   UNL     1       0.483   8.324 -14.678  1.00  0.00     0.127 S 
ATOM     72  O   UNL     1       1.551   7.324 -14.683  1.00  0.00    -0.237 OA
ATOM     73  O   UNL     1      -0.695   7.962 -15.467  1.00  0.00    -0.237 OA
ATOM     74  O   UNL     1       0.924   9.702 -14.836  1.00  0.00    -0.744 OA
ENDBRANCH  68  71
ENDBRANCH  50  64
BRANCH  51  75
ATOM     75  C   UNL     1      -0.466  16.317  -3.947  1.00  0.00     0.023 A 
ATOM     76  C   UNL     1      -1.495  16.345  -2.988  1.00  0.00     0.012 A 
ATOM     77  C   UNL     1       0.601  17.230  -3.846  1.00  0.00     0.148 A 
ATOM     78  C   UNL     1      -1.463  17.269  -1.943  1.00  0.00     0.002 A 
ATOM     79  C   UNL     1       0.651  18.116  -2.777  1.00  0.00     0.091 A 
ATOM     80  F   UNL     1       1.564  17.184  -4.777  1.00  0.00    -0.205 F 
ATOM     81  C   UNL     1      -0.385  18.144  -1.830  1.00  0.00     0.022 A 
BRANCH  79  82
ATOM     82  S   UNL     1       2.057  19.193  -2.478  1.00  0.00     0.127 S 
ATOM     83  O   UNL     1       1.466  20.515  -2.670  1.00  0.00    -0.237 OA
ATOM     84  O   UNL     1       2.395  18.863  -1.093  1.00  0.00    -0.237 OA
ATOM     85  O   UNL     1       3.066  18.807  -3.455  1.00  0.00    -0.744 OA
ENDBRANCH  79  82
ENDBRANCH  51  75
BRANCH  63  86
ATOM     86  C   UNL     1      -4.311  15.073  -9.654  1.00  0.00     0.023 A 
ATOM     87  C   UNL     1      -4.002  16.162 -10.491  1.00  0.00     0.012 A 
ATOM     88  C   UNL     1      -5.642  14.625  -9.553  1.00  0.00     0.148 A 
ATOM     89  C   UNL     1      -5.006  16.803 -11.214  1.00  0.00     0.002 A 
ATOM     90  C   UNL     1      -6.633  15.249 -10.301  1.00  0.00     0.091 A 
ATOM     91  F   UNL     1      -5.909  13.594  -8.739  1.00  0.00    -0.205 F 
ATOM     92  C   UNL     1      -6.318  16.340 -11.129  1.00  0.00     0.022 A 
BRANCH  90  93
ATOM     93  S   UNL     1      -8.337  14.681 -10.313  1.00  0.00     0.127 S 
ATOM     94  O   UNL     1      -9.018  15.770  -9.613  1.00  0.00    -0.237 OA
ATOM     95  O   UNL     1      -8.627  14.600 -11.744  1.00  0.00    -0.237 OA
ATOM     96  O   UNL     1      -8.340  13.400  -9.620  1.00  0.00    -0.744 OA
ENDBRANCH  90  93
ENDBRANCH  63  86
ENDBRANCH  37  38
ENDBRANCH  29  32
ENDBRANCH  27  28
ENDBRANCH  26  27
ENDBRANCH  25  26
ENDBRANCH   1  25
TORSDOF 19
