REMARK SMILES Cc1c(C(=O)NCCCCCCNC(=O)c2ccc(-c3c4nc(c(-c5cccc(S(=O)(=O)[O-])c5F)c5ccc([nH]5)c(-c5cccc(S(=O)(=O)[O-])c5F)c5nc(c(-c6cccc(S(=O)(=O)[O-])c6F)c6ccc3[nH]6)C=C5)C=C4)cc2)cccc1-n1c(C)cc(/C=C2/C(=O)NC(=S)N=C2O)c1C
REMARK SMILES IDX 9 1 8 2 7 3 6 4 4 5 5 6 3 8 1 9 2 10 82 11 79 12 81 13 80 14
REMARK SMILES IDX 83 15 84 16 98 17 85 18 86 19 87 20 99 21 88 22 89 23 90 24
REMARK SMILES IDX 96 25 91 26 92 27 95 28 93 29 94 31 97 32 10 34 11 35 12 36
REMARK SMILES IDX 13 37 14 38 15 40 16 41 17 42 78 43 18 44 77 45 19 46 20 47
REMARK SMILES IDX 21 48 71 49 22 50 76 51 70 52 72 53 23 54 75 55 69 56 68 57
REMARK SMILES IDX 24 59 56 60 36 61 55 62 37 63 40 64 54 65 73 66 38 67 39 68
REMARK SMILES IDX 53 70 74 71 41 72 25 73 26 74 34 75 27 76 29 77 35 78 28 79
REMARK SMILES IDX 30 80 31 81 32 82 33 83 57 84 58 85 66 86 59 87 61 88 67 89
REMARK SMILES IDX 60 90 62 91 63 92 64 93 65 94 42 95 43 96 51 97 44 98 46 99
REMARK SMILES IDX 52 100 45 101 47 102 48 103 49 104 50 105
REMARK H PARENT 6 7 92 30 97 33 13 39 72 58 40 69
REMARK Flexibility Score: inf
ROOT
ATOM      1  C   UNL     1       5.424  -3.288   0.985  1.00  0.00     0.002 C 
ENDROOT
BRANCH   1   2
ATOM      2  C   UNL     1       4.206  -2.358   0.992  1.00  0.00     0.021 C 
BRANCH   2   3
ATOM      3  C   UNL     1       3.261  -2.533  -0.210  1.00  0.00     0.116 C 
BRANCH   3   4
ATOM      4  N   UNL     1       1.964  -2.996   0.227  1.00  0.00    -0.352 N 
ATOM      5  C   UNL     1       0.698  -2.496   0.298  1.00  0.00     0.251 C 
ATOM      6  O   UNL     1      -0.144  -3.323   0.673  1.00  0.00    -0.269 OA
ATOM      7  H   UNL     1       2.006  -3.920   0.565  1.00  0.00     0.163 HD
BRANCH   5   8
ATOM      8  C   UNL     1       0.211  -1.119  -0.068  1.00  0.00     0.044 A 
ATOM      9  C   UNL     1       2.274   0.314   0.502  1.00  0.00     0.047 C 
ATOM     10  C   UNL     1       0.868   0.130   0.011  1.00  0.00    -0.014 A 
ATOM     11  C   UNL     1       0.121   1.294  -0.331  1.00  0.00     0.049 A 
ATOM     12  C   UNL     1      -1.173  -1.118  -0.401  1.00  0.00     0.014 A 
ATOM     13  C   UNL     1      -1.242   1.263  -0.645  1.00  0.00     0.027 A 
ATOM     14  C   UNL     1      -1.894   0.047  -0.666  1.00  0.00     0.003 A 
BRANCH  11  15
ATOM     15  N   UNL     1       0.691   2.583  -0.194  1.00  0.00    -0.318 N 
ATOM     16  C   UNL     1       1.414   3.250  -1.164  1.00  0.00     0.020 A 
ATOM     17  C   UNL     1       0.691   3.323   0.983  1.00  0.00     0.027 A 
ATOM     18  C   UNL     1       1.767   2.662  -2.485  1.00  0.00     0.065 C 
ATOM     19  C   UNL     1       1.738   4.487  -0.645  1.00  0.00     0.031 A 
ATOM     20  C   UNL     1       1.267   4.550   0.696  1.00  0.00    -0.003 A 
ATOM     21  C   UNL     1       0.193   2.722   2.259  1.00  0.00     0.065 C 
BRANCH  20  22
ATOM     22  C   UNL     1       1.561   5.648   1.564  1.00  0.00     0.029 C 
ATOM     23  C   UNL     1       0.914   6.178   2.618  1.00  0.00     0.102 C 
ATOM     24  C   UNL     1       1.643   7.247   3.351  1.00  0.00     0.262 C 
ATOM     25  C   UNL     1      -0.368   5.837   3.226  1.00  0.00     0.226 C 
ATOM     26  O   UNL     1       2.535   7.924   2.855  1.00  0.00    -0.269 OA
ATOM     27  N   UNL     1       1.207   7.429   4.636  1.00  0.00    -0.297 N 
ATOM     28  N   UNL     1      -0.768   6.144   4.405  1.00  0.00    -0.184 NA
ATOM     29  C   UNL     1       0.075   6.885   5.195  1.00  0.00     0.203 C 
ATOM     30  H   UNL     1       1.756   8.005   5.216  1.00  0.00     0.172 HD
ATOM     31  S   UNL     1      -0.265   7.232   6.799  1.00  0.00    -0.038 S 
BRANCH  25  32
ATOM     32  O   UNL     1      -1.253   5.209   2.447  1.00  0.00    -0.493 OA
ATOM     33  H   UNL     1      -1.017   4.960   1.575  1.00  0.00     0.295 HD
ENDBRANCH  25  32
ENDBRANCH  20  22
ENDBRANCH  11  15
ENDBRANCH   5   8
ENDBRANCH   3   4
ENDBRANCH   2   3
ENDBRANCH   1   2
BRANCH   1  34
ATOM     34  C   UNL     1       6.266  -3.268  -0.297  1.00  0.00     0.002 C 
BRANCH  34  35
ATOM     35  C   UNL     1       6.533  -1.882  -0.882  1.00  0.00     0.021 C 
BRANCH  35  36
ATOM     36  C   UNL     1       7.511  -1.057  -0.060  1.00  0.00     0.116 C 
BRANCH  36  37
ATOM     37  N   UNL     1       8.880  -1.267  -0.498  1.00  0.00    -0.352 N 
ATOM     38  C   UNL     1      10.030  -0.586  -0.166  1.00  0.00     0.251 C 
ATOM     39  H   UNL     1       9.005  -2.012  -1.131  1.00  0.00     0.163 HD
ATOM     40  O   UNL     1      11.020  -0.700  -0.888  1.00  0.00    -0.269 OA
BRANCH  38  41
ATOM     41  C   UNL     1      10.113   0.101   1.141  1.00  0.00     0.039 A 
ATOM     42  C   UNL     1      11.198  -0.254   1.956  1.00  0.00     0.014 A 
ATOM     43  C   UNL     1       9.026   0.788   1.672  1.00  0.00     0.014 A 
ATOM     44  C   UNL     1      11.069  -0.192   3.337  1.00  0.00     0.010 A 
ATOM     45  C   UNL     1       8.866   0.791   3.038  1.00  0.00     0.010 A 
ATOM     46  C   UNL     1       9.848   0.214   3.855  1.00  0.00    -0.014 A 
BRANCH  46  47
ATOM     47  C   UNL     1       9.440   0.029   5.234  1.00  0.00     0.031 A 
ATOM     48  C   UNL     1       9.597   1.129   6.194  1.00  0.00     0.074 A 
ATOM     49  C   UNL     1       8.656  -1.039   5.501  1.00  0.00     0.049 A 
ATOM     50  N   UNL     1       9.351   1.028   7.454  1.00  0.00    -0.248 NA
ATOM     51  C   UNL     1      10.110   2.438   5.803  1.00  0.00     0.031 C 
ATOM     52  C   UNL     1       7.677  -1.169   6.570  1.00  0.00     0.029 A 
ATOM     53  N   UNL     1       8.735  -2.323   4.947  1.00  0.00    -0.354 N 
ATOM     54  C   UNL     1       9.335   2.308   7.960  1.00  0.00     0.074 A 
ATOM     55  C   UNL     1       9.976   3.109   6.950  1.00  0.00     0.031 C 
ATOM     56  C   UNL     1       7.434  -2.473   6.775  1.00  0.00     0.029 A 
ATOM     57  C   UNL     1       8.404  -3.212   5.985  1.00  0.00     0.049 A 
ATOM     58  H   UNL     1       8.974  -2.556   4.021  1.00  0.00     0.167 HD
ATOM     59  C   UNL     1       8.609   2.546   9.088  1.00  0.00     0.034 A 
ATOM     60  C   UNL     1       9.261  -4.153   6.481  1.00  0.00     0.034 A 
ATOM     61  C   UNL     1       8.224   1.277   9.729  1.00  0.00     0.049 A 
ATOM     62  C   UNL     1       9.552  -3.974   7.962  1.00  0.00     0.074 A 
ATOM     63  C   UNL     1       7.038   0.565   9.803  1.00  0.00     0.029 A 
ATOM     64  N   UNL     1       9.221   0.419  10.185  1.00  0.00    -0.354 N 
ATOM     65  N   UNL     1       9.132  -2.966   8.677  1.00  0.00    -0.248 NA
ATOM     66  C   UNL     1      10.361  -4.901   8.751  1.00  0.00     0.031 C 
ATOM     67  C   UNL     1       7.355  -0.771  10.186  1.00  0.00     0.029 A 
ATOM     68  C   UNL     1       8.722  -0.859  10.391  1.00  0.00     0.049 A 
ATOM     69  H   UNL     1      10.157   0.684  10.341  1.00  0.00     0.167 HD
ATOM     70  C   UNL     1       9.704  -3.001   9.921  1.00  0.00     0.074 A 
ATOM     71  C   UNL     1      10.390  -4.283   9.946  1.00  0.00     0.031 C 
ATOM     72  C   UNL     1       9.623  -1.942  10.788  1.00  0.00     0.034 A 
BRANCH  59  73
ATOM     73  C   UNL     1       8.018   3.893   9.500  1.00  0.00     0.023 A 
ATOM     74  C   UNL     1       7.149   3.894  10.617  1.00  0.00     0.012 A 
ATOM     75  C   UNL     1       8.138   5.134   8.823  1.00  0.00     0.148 A 
ATOM     76  C   UNL     1       6.415   5.024  11.005  1.00  0.00     0.002 A 
ATOM     77  C   UNL     1       7.430   6.272   9.226  1.00  0.00     0.091 A 
ATOM     78  F   UNL     1       8.900   5.243   7.739  1.00  0.00    -0.205 F 
ATOM     79  C   UNL     1       6.554   6.215  10.309  1.00  0.00     0.022 A 
BRANCH  77  80
ATOM     80  S   UNL     1       7.567   7.856   8.370  1.00  0.00     0.127 S 
ATOM     81  O   UNL     1       6.214   8.035   7.841  1.00  0.00    -0.237 OA
ATOM     82  O   UNL     1       7.922   8.768   9.457  1.00  0.00    -0.237 OA
ATOM     83  O   UNL     1       8.602   7.693   7.355  1.00  0.00    -0.744 OA
ENDBRANCH  77  80
ENDBRANCH  59  73
BRANCH  60  84
ATOM     84  C   UNL     1      10.208  -4.693   5.463  1.00  0.00     0.023 A 
ATOM     85  C   UNL     1       9.645  -5.470   4.422  1.00  0.00     0.012 A 
ATOM     86  C   UNL     1      11.481  -4.126   5.275  1.00  0.00     0.148 A 
ATOM     87  C   UNL     1      10.272  -5.568   3.179  1.00  0.00     0.002 A 
ATOM     88  C   UNL     1      12.093  -4.214   4.025  1.00  0.00     0.091 A 
ATOM     89  F   UNL     1      12.023  -3.427   6.281  1.00  0.00    -0.205 F 
ATOM     90  C   UNL     1      11.477  -4.907   2.970  1.00  0.00     0.022 A 
BRANCH  88  91
ATOM     91  S   UNL     1      13.601  -3.313   3.637  1.00  0.00     0.127 S 
ATOM     92  O   UNL     1      14.603  -4.373   3.708  1.00  0.00    -0.237 OA
ATOM     93  O   UNL     1      13.324  -2.816   2.290  1.00  0.00    -0.237 OA
ATOM     94  O   UNL     1      13.692  -2.273   4.650  1.00  0.00    -0.744 OA
ENDBRANCH  88  91
ENDBRANCH  60  84
BRANCH  72  95
ATOM     95  C   UNL     1      10.415  -1.799  12.078  1.00  0.00     0.023 A 
ATOM     96  C   UNL     1      11.621  -2.489  12.309  1.00  0.00     0.012 A 
ATOM     97  C   UNL     1      10.047  -0.830  13.049  1.00  0.00     0.148 A 
ATOM     98  C   UNL     1      12.390  -2.278  13.460  1.00  0.00     0.002 A 
ATOM     99  C   UNL     1      10.876  -0.540  14.131  1.00  0.00     0.091 A 
ATOM    100  F   UNL     1       8.874  -0.187  12.941  1.00  0.00    -0.205 F 
ATOM    101  C   UNL     1      12.032  -1.285  14.359  1.00  0.00     0.022 A 
BRANCH  99 102
ATOM    102  S   UNL     1      10.571   0.910  15.153  1.00  0.00     0.127 S 
ATOM    103  O   UNL     1       9.709   0.371  16.201  1.00  0.00    -0.237 OA
ATOM    104  O   UNL     1      11.917   1.274  15.600  1.00  0.00    -0.237 OA
ATOM    105  O   UNL     1       9.965   1.878  14.249  1.00  0.00    -0.744 OA
ENDBRANCH  99 102
ENDBRANCH  72  95
ENDBRANCH  46  47
ENDBRANCH  38  41
ENDBRANCH  36  37
ENDBRANCH  35  36
ENDBRANCH  34  35
ENDBRANCH   1  34
TORSDOF 19
