REMARK SMILES Cc1cccc(S(=O)(=O)Nc2cc(C(=O)NCCCCCCNC(=O)c3ccc(-c4c5nc(c(-c6cccc(S(=O)(=O)[O-])c6F)c6ccc([nH]6)c(-c6cccc(S(=O)(=O)[O-])c6F)c6nc(c(-c7cccc(S(=O)(=O)[O-])c7F)c7ccc4[nH]7)C=C6)C=C5)cc3)cnc2N2CCC[C@H](C)C2)c1
REMARK SMILES IDX 19 1 18 2 17 3 16 4 14 5 15 6 13 8 11 9 12 10 91 11 90 12
REMARK SMILES IDX 89 13 10 14 7 16 8 17 9 18 6 19 1 20 2 21 3 22 99 23 4 24
REMARK SMILES IDX 5 25 92 26 93 27 98 28 94 29 96 30 95 31 97 32 20 33 21 34
REMARK SMILES IDX 22 35 23 36 24 37 25 39 26 40 27 41 88 42 28 43 87 44 29 45
REMARK SMILES IDX 30 46 31 47 81 48 32 49 86 50 80 51 82 52 33 53 85 54 79 55
REMARK SMILES IDX 78 56 34 58 66 59 46 60 65 61 47 62 50 63 64 64 83 65 48 66
REMARK SMILES IDX 49 67 63 69 84 70 51 71 35 72 36 73 44 74 37 75 39 76 45 77
REMARK SMILES IDX 38 78 40 79 41 80 42 81 43 82 67 83 68 84 76 85 69 86 71 87
REMARK SMILES IDX 77 88 70 89 72 90 73 91 74 92 75 93 52 94 53 95 61 96 54 97
REMARK SMILES IDX 56 98 62 99 55 100 57 101 58 102 59 103 60 104
REMARK H PARENT 16 7 10 15 23 38 82 57 50 68
REMARK Flexibility Score: inf
ROOT
ATOM      1  C   UNL     1       1.117   0.089  -5.192  1.00  0.00     0.002 C 
ENDROOT
BRANCH   1   2
ATOM      2  C   UNL     1       0.767   1.181  -4.178  1.00  0.00     0.021 C 
BRANCH   2   3
ATOM      3  C   UNL     1       1.280   0.853  -2.780  1.00  0.00     0.116 C 
BRANCH   3   4
ATOM      4  N   UNL     1       2.673   1.236  -2.636  1.00  0.00    -0.352 N 
ATOM      5  C   UNL     1       3.296   2.228  -1.925  1.00  0.00     0.252 C 
ATOM      6  O   UNL     1       4.525   2.276  -1.938  1.00  0.00    -0.269 OA
ATOM      7  H   UNL     1       3.293   0.671  -3.152  1.00  0.00     0.163 HD
BRANCH   5   8
ATOM      8  C   UNL     1       2.554   3.170  -1.062  1.00  0.00     0.060 A 
ATOM      9  C   UNL     1       0.538   4.100  -0.179  1.00  0.00     0.092 A 
ATOM     10  C   UNL     1       1.217   3.488  -1.221  1.00  0.00     0.046 A 
ATOM     11  C   UNL     1       1.264   4.660   0.893  1.00  0.00     0.153 A 
ATOM     12  N   UNL     1       2.599   4.476   0.990  1.00  0.00    -0.236 NA
ATOM     13  C   UNL     1       3.203   3.706   0.044  1.00  0.00     0.127 A 
BRANCH   9  14
ATOM     14  N   UNL     1      -0.888   4.141  -0.261  1.00  0.00    -0.276 N 
ATOM     15  H   UNL     1      -1.322   4.959  -0.595  1.00  0.00     0.180 HD
BRANCH  14  16
ATOM     16  S   UNL     1      -1.862   2.824   0.197  1.00  0.00     0.262 S 
ATOM     17  O   UNL     1      -2.822   2.696  -0.889  1.00  0.00    -0.201 OA
ATOM     18  O   UNL     1      -2.328   3.100   1.535  1.00  0.00    -0.201 OA
BRANCH  16  19
ATOM     19  C   UNL     1      -1.027   1.246   0.286  1.00  0.00     0.088 A 
ATOM     20  C   UNL     1       2.394  -0.363   0.723  1.00  0.00     0.044 C 
ATOM     21  C   UNL     1       0.910  -0.195   0.554  1.00  0.00    -0.050 A 
ATOM     22  C   UNL     1       0.139  -1.303   0.180  1.00  0.00     0.003 A 
ATOM     23  C   UNL     1       0.298   1.065   0.686  1.00  0.00     0.025 A 
ATOM     24  C   UNL     1      -1.214  -1.151  -0.104  1.00  0.00     0.002 A 
ATOM     25  C   UNL     1      -1.787   0.121  -0.079  1.00  0.00     0.022 A 
ENDBRANCH  16  19
ENDBRANCH  14  16
ENDBRANCH   9  14
BRANCH  11  26
ATOM     26  N   UNL     1       0.664   5.560   1.743  1.00  0.00    -0.355 N 
ATOM     27  C   UNL     1      -0.236   5.185   2.816  1.00  0.00     0.118 C 
ATOM     28  C   UNL     1       1.229   6.900   1.807  1.00  0.00     0.121 C 
ATOM     29  C   UNL     1      -1.446   6.125   2.767  1.00  0.00     0.022 C 
ATOM     30  C   UNL     1       0.074   7.905   1.669  1.00  0.00     0.005 C 
ATOM     31  C   UNL     1      -1.034   7.603   2.701  1.00  0.00     0.007 C 
ATOM     32  C   UNL     1      -0.462   7.928   0.232  1.00  0.00     0.009 C 
ENDBRANCH  11  26
ENDBRANCH   5   8
ENDBRANCH   3   4
ENDBRANCH   2   3
ENDBRANCH   1   2
BRANCH   1  33
ATOM     33  C   UNL     1       0.651  -1.326  -4.806  1.00  0.00     0.002 C 
BRANCH  33  34
ATOM     34  C   UNL     1      -0.777  -1.418  -4.264  1.00  0.00     0.021 C 
BRANCH  34  35
ATOM     35  C   UNL     1      -1.827  -1.059  -5.295  1.00  0.00     0.116 C 
BRANCH  35  36
ATOM     36  N   UNL     1      -2.122  -2.175  -6.168  1.00  0.00    -0.352 N 
ATOM     37  C   UNL     1      -3.174  -2.373  -7.037  1.00  0.00     0.251 C 
ATOM     38  H   UNL     1      -1.467  -2.910  -6.137  1.00  0.00     0.163 HD
ATOM     39  O   UNL     1      -3.384  -3.517  -7.430  1.00  0.00    -0.269 OA
BRANCH  37  40
ATOM     40  C   UNL     1      -3.870  -1.208  -7.646  1.00  0.00     0.039 A 
ATOM     41  C   UNL     1      -4.113  -1.318  -9.022  1.00  0.00     0.014 A 
ATOM     42  C   UNL     1      -3.833   0.044  -7.046  1.00  0.00     0.014 A 
ATOM     43  C   UNL     1      -3.935  -0.206  -9.828  1.00  0.00     0.010 A 
ATOM     44  C   UNL     1      -3.530   1.119  -7.837  1.00  0.00     0.010 A 
ATOM     45  C   UNL     1      -3.490   0.955  -9.222  1.00  0.00    -0.014 A 
BRANCH  45  46
ATOM     46  C   UNL     1      -3.040   2.130  -9.923  1.00  0.00     0.031 A 
ATOM     47  C   UNL     1      -4.045   3.148 -10.218  1.00  0.00     0.074 A 
ATOM     48  C   UNL     1      -1.710   2.347  -9.976  1.00  0.00     0.049 A 
ATOM     49  N   UNL     1      -3.799   4.213 -10.881  1.00  0.00    -0.248 NA
ATOM     50  C   UNL     1      -5.434   3.030  -9.789  1.00  0.00     0.031 C 
ATOM     51  C   UNL     1      -0.989   3.604 -10.118  1.00  0.00     0.029 A 
ATOM     52  N   UNL     1      -0.713   1.382 -10.057  1.00  0.00    -0.354 N 
ATOM     53  C   UNL     1      -4.881   5.048 -10.726  1.00  0.00     0.074 A 
ATOM     54  C   UNL     1      -5.910   4.226 -10.145  1.00  0.00     0.031 C 
ATOM     55  C   UNL     1       0.276   3.343 -10.495  1.00  0.00     0.029 A 
ATOM     56  C   UNL     1       0.335   1.927 -10.818  1.00  0.00     0.049 A 
ATOM     57  H   UNL     1      -0.736   0.483  -9.655  1.00  0.00     0.167 HD
ATOM     58  C   UNL     1      -4.683   6.370 -10.980  1.00  0.00     0.034 A 
ATOM     59  C   UNL     1       0.564   1.424 -12.075  1.00  0.00     0.034 A 
ATOM     60  C   UNL     1      -3.344   6.563 -11.576  1.00  0.00     0.049 A 
ATOM     61  C   UNL     1       0.256   2.417 -13.196  1.00  0.00     0.074 A 
ATOM     62  C   UNL     1      -2.113   6.977 -11.094  1.00  0.00     0.029 A 
ATOM     63  N   UNL     1      -3.082   5.946 -12.791  1.00  0.00    -0.354 N 
ATOM     64  N   UNL     1      -0.238   3.616 -13.028  1.00  0.00    -0.248 NA
ATOM     65  C   UNL     1       0.429   2.096 -14.610  1.00  0.00     0.031 C 
ATOM     66  C   UNL     1      -1.110   6.572 -12.032  1.00  0.00     0.029 A 
ATOM     67  C   UNL     1      -1.732   5.950 -13.100  1.00  0.00     0.049 A 
ATOM     68  H   UNL     1      -3.775   5.550 -13.366  1.00  0.00     0.167 HD
ATOM     69  C   UNL     1      -0.603   4.153 -14.239  1.00  0.00     0.074 A 
ATOM     70  C   UNL     1      -0.133   3.164 -15.201  1.00  0.00     0.031 C 
ATOM     71  C   UNL     1      -1.310   5.327 -14.354  1.00  0.00     0.034 A 
BRANCH  58  72
ATOM     72  C   UNL     1      -5.561   7.519 -10.513  1.00  0.00     0.023 A 
ATOM     73  C   UNL     1      -5.007   8.814 -10.633  1.00  0.00     0.012 A 
ATOM     74  C   UNL     1      -6.839   7.454  -9.904  1.00  0.00     0.148 A 
ATOM     75  C   UNL     1      -5.637   9.957 -10.129  1.00  0.00     0.002 A 
ATOM     76  C   UNL     1      -7.468   8.593  -9.389  1.00  0.00     0.091 A 
ATOM     77  F   UNL     1      -7.490   6.296  -9.822  1.00  0.00    -0.205 F 
ATOM     78  C   UNL     1      -6.862   9.846  -9.493  1.00  0.00     0.022 A 
BRANCH  76  79
ATOM     79  S   UNL     1      -9.056   8.537  -8.531  1.00  0.00     0.127 S 
ATOM     80  O   UNL     1      -8.712   9.086  -7.218  1.00  0.00    -0.237 OA
ATOM     81  O   UNL     1      -9.887   9.414  -9.355  1.00  0.00    -0.237 OA
ATOM     82  O   UNL     1      -9.470   7.139  -8.508  1.00  0.00    -0.744 OA
ENDBRANCH  76  79
ENDBRANCH  58  72
BRANCH  59  83
ATOM     83  C   UNL     1       0.282  -0.060 -12.126  1.00  0.00     0.023 A 
ATOM     84  C   UNL     1       0.955  -0.871 -11.172  1.00  0.00     0.012 A 
ATOM     85  C   UNL     1      -0.890  -0.561 -12.717  1.00  0.00     0.148 A 
ATOM     86  C   UNL     1       0.345  -2.015 -10.651  1.00  0.00     0.002 A 
ATOM     87  C   UNL     1      -1.466  -1.733 -12.226  1.00  0.00     0.091 A 
ATOM     88  F   UNL     1      -1.463   0.128 -13.712  1.00  0.00    -0.205 F 
ATOM     89  C   UNL     1      -0.891  -2.419 -11.145  1.00  0.00     0.022 A 
BRANCH  87  90
ATOM     90  S   UNL     1      -3.013  -2.345 -12.908  1.00  0.00     0.127 S 
ATOM     91  O   UNL     1      -2.540  -3.143 -14.035  1.00  0.00    -0.237 OA
ATOM     92  O   UNL     1      -3.578  -3.123 -11.806  1.00  0.00    -0.237 OA
ATOM     93  O   UNL     1      -3.769  -1.145 -13.238  1.00  0.00    -0.744 OA
ENDBRANCH  87  90
ENDBRANCH  59  83
BRANCH  71  94
ATOM     94  C   UNL     1      -1.740   5.967 -15.677  1.00  0.00     0.023 A 
ATOM     95  C   UNL     1      -1.035   5.737 -16.872  1.00  0.00     0.012 A 
ATOM     96  C   UNL     1      -2.815   6.898 -15.767  1.00  0.00     0.148 A 
ATOM     97  C   UNL     1      -1.457   6.264 -18.100  1.00  0.00     0.002 A 
ATOM     98  C   UNL     1      -3.217   7.447 -16.980  1.00  0.00     0.091 A 
ATOM     99  F   UNL     1      -3.446   7.313 -14.667  1.00  0.00    -0.205 F 
ATOM    100  C   UNL     1      -2.561   7.102 -18.159  1.00  0.00     0.022 A 
BRANCH  98 101
ATOM    101  S   UNL     1      -4.554   8.648 -17.098  1.00  0.00     0.127 S 
ATOM    102  O   UNL     1      -3.828   9.851 -17.506  1.00  0.00    -0.237 OA
ATOM    103  O   UNL     1      -5.396   8.060 -18.140  1.00  0.00    -0.237 OA
ATOM    104  O   UNL     1      -5.170   8.713 -15.780  1.00  0.00    -0.744 OA
ENDBRANCH  98 101
ENDBRANCH  71  94
ENDBRANCH  45  46
ENDBRANCH  37  40
ENDBRANCH  35  36
ENDBRANCH  34  35
ENDBRANCH  33  34
ENDBRANCH   1  33
TORSDOF 20
