REMARK SMILES COC(=O)[C@@H]1CCN(C(=O)NC(=O)COCC(=O)NCCCCCCNC(=O)c2ccc(-c3c4nc(c(-c5cccc(S(=O)(=O)[O-])c5F)c5ccc([nH]5)c(-c5cccc(S(=O)(=O)[O-])c5F)c5nc(c(-c6cccc(S(=O)(=O)[O-])c6F)c6ccc3[nH]6)C=C5)C=C4)cc2)C1
REMARK SMILES IDX 21 1 20 2 19 3 17 4 18 5 16 7 15 8 14 9 12 10 9 11 10 12
REMARK SMILES IDX 11 13 13 15 8 16 5 17 6 18 92 19 7 20 3 21 4 22 2 23 1 24
REMARK SMILES IDX 22 25 23 26 24 27 25 28 26 29 27 30 28 32 29 33 30 34 91 35
REMARK SMILES IDX 31 36 90 37 32 38 33 39 34 40 84 41 35 42 89 43 83 44 85 45
REMARK SMILES IDX 36 46 88 47 82 48 81 49 37 51 69 52 49 53 68 54 50 55 53 56
REMARK SMILES IDX 67 57 86 58 51 59 52 60 66 62 87 63 54 64 38 65 39 66 47 67
REMARK SMILES IDX 40 68 42 69 48 70 41 71 43 72 44 73 45 74 46 75 70 76 71 77
REMARK SMILES IDX 79 78 72 79 74 80 80 81 73 82 75 83 76 84 77 85 78 86 55 87
REMARK SMILES IDX 56 88 64 89 57 90 59 91 65 92 58 93 60 94 61 95 62 96 63 97
REMARK H PARENT 19 6 11 14 26 31 85 50 53 61
REMARK Flexibility Score: inf
ROOT
ATOM      1  C   UNL     1       0.738  -1.502   2.498  1.00  0.00     0.021 C 
ENDROOT
BRANCH   1   2
ATOM      2  C   UNL     1       2.039  -2.270   2.740  1.00  0.00     0.116 C 
BRANCH   2   3
ATOM      3  N   UNL     1       1.972  -3.079   3.945  1.00  0.00    -0.354 N 
ATOM      4  C   UNL     1       1.966  -4.441   4.051  1.00  0.00     0.246 C 
ATOM      5  O   UNL     1       1.880  -4.959   5.165  1.00  0.00    -0.272 OA
ATOM      6  H   UNL     1       1.925  -2.582   4.793  1.00  0.00     0.163 HD
BRANCH   4   7
ATOM      7  C   UNL     1       2.062  -5.283   2.778  1.00  0.00     0.260 C 
BRANCH   7   8
ATOM      8  O   UNL     1       0.975  -5.047   1.896  1.00  0.00    -0.362 OA
BRANCH   8   9
ATOM      9  C   UNL     1      -0.200  -5.743   2.257  1.00  0.00     0.261 C 
BRANCH   9  10
ATOM     10  C   UNL     1      -0.417  -7.024   1.470  1.00  0.00     0.254 C 
ATOM     11  C   UNL     1       0.462  -6.410  -0.901  1.00  0.00     0.324 C 
ATOM     12  O   UNL     1       1.148  -7.068  -1.690  1.00  0.00    -0.248 OA
ATOM     13  N   UNL     1      -0.123  -7.117   0.122  1.00  0.00    -0.276 N 
ATOM     14  H   UNL     1      -0.440  -7.984  -0.222  1.00  0.00     0.174 HD
ATOM     15  O   UNL     1      -0.862  -8.032   2.034  1.00  0.00    -0.272 OA
BRANCH  11  16
ATOM     16  N   UNL     1       0.226  -5.085  -1.099  1.00  0.00    -0.324 N 
ATOM     17  C   UNL     1       0.052  -3.095  -2.426  1.00  0.00     0.120 C 
ATOM     18  C   UNL     1      -1.177  -3.264  -1.532  1.00  0.00     0.039 C 
ATOM     19  C   UNL     1       0.778  -4.435  -2.291  1.00  0.00     0.136 C 
ATOM     20  C   UNL     1      -0.691  -4.188  -0.431  1.00  0.00     0.122 C 
BRANCH  17  21
ATOM     21  C   UNL     1       0.984  -1.948  -2.089  1.00  0.00     0.310 C 
ATOM     22  O   UNL     1       2.104  -1.838  -2.561  1.00  0.00    -0.252 OA
BRANCH  21  23
ATOM     23  O   UNL     1       0.394  -1.029  -1.278  1.00  0.00    -0.469 OA
ATOM     24  C   UNL     1       1.153   0.171  -1.105  1.00  0.00     0.282 C 
ENDBRANCH  21  23
ENDBRANCH  17  21
ENDBRANCH  11  16
ENDBRANCH   9  10
ENDBRANCH   8   9
ENDBRANCH   7   8
ENDBRANCH   4   7
ENDBRANCH   2   3
ENDBRANCH   1   2
BRANCH   1  25
ATOM     25  C   UNL     1       0.356  -0.510   3.603  1.00  0.00     0.002 C 
BRANCH  25  26
ATOM     26  C   UNL     1       1.431   0.520   3.967  1.00  0.00     0.002 C 
BRANCH  26  27
ATOM     27  C   UNL     1       1.901   1.409   2.815  1.00  0.00     0.021 C 
BRANCH  27  28
ATOM     28  C   UNL     1       0.818   2.295   2.207  1.00  0.00     0.116 C 
BRANCH  28  29
ATOM     29  N   UNL     1       0.322   3.295   3.140  1.00  0.00    -0.352 N 
ATOM     30  C   UNL     1       0.241   4.659   2.988  1.00  0.00     0.251 C 
ATOM     31  H   UNL     1      -0.001   2.946   4.002  1.00  0.00     0.163 HD
ATOM     32  O   UNL     1      -0.060   5.370   3.941  1.00  0.00    -0.269 OA
BRANCH  30  33
ATOM     33  C   UNL     1       0.544   5.267   1.674  1.00  0.00     0.039 A 
ATOM     34  C   UNL     1       1.419   6.356   1.615  1.00  0.00     0.014 A 
ATOM     35  C   UNL     1      -0.015   4.749   0.503  1.00  0.00     0.014 A 
ATOM     36  C   UNL     1       1.792   6.877   0.373  1.00  0.00     0.010 A 
ATOM     37  C   UNL     1       0.414   5.222  -0.734  1.00  0.00     0.010 A 
ATOM     38  C   UNL     1       1.325   6.288  -0.813  1.00  0.00    -0.014 A 
BRANCH  38  39
ATOM     39  C   UNL     1       1.786   6.750  -2.149  1.00  0.00     0.031 A 
ATOM     40  C   UNL     1       0.797   7.304  -3.139  1.00  0.00     0.074 A 
ATOM     41  C   UNL     1       3.073   6.572  -2.512  1.00  0.00     0.049 A 
ATOM     42  N   UNL     1       0.983   7.644  -4.388  1.00  0.00    -0.248 NA
ATOM     43  C   UNL     1      -0.588   7.474  -2.670  1.00  0.00     0.031 C 
ATOM     44  C   UNL     1       4.118   5.993  -1.665  1.00  0.00     0.029 A 
ATOM     45  N   UNL     1       3.713   6.825  -3.700  1.00  0.00    -0.354 N 
ATOM     46  C   UNL     1      -0.264   8.028  -4.866  1.00  0.00     0.074 A 
ATOM     47  C   UNL     1      -1.204   7.853  -3.780  1.00  0.00     0.031 C 
ATOM     48  C   UNL     1       5.264   5.930  -2.362  1.00  0.00     0.029 A 
ATOM     49  C   UNL     1       5.029   6.422  -3.715  1.00  0.00     0.049 A 
ATOM     50  H   UNL     1       3.272   7.254  -4.469  1.00  0.00     0.167 HD
ATOM     51  C   UNL     1      -0.594   8.504  -6.090  1.00  0.00     0.034 A 
ATOM     52  C   UNL     1       5.937   6.425  -4.711  1.00  0.00     0.034 A 
ATOM     53  C   UNL     1       0.348   8.708  -7.157  1.00  0.00     0.049 A 
ATOM     54  C   UNL     1       5.545   6.964  -6.061  1.00  0.00     0.074 A 
ATOM     55  C   UNL     1       0.125   9.261  -8.405  1.00  0.00     0.029 A 
ATOM     56  N   UNL     1       1.688   8.357  -7.109  1.00  0.00    -0.354 N 
ATOM     57  N   UNL     1       4.394   7.454  -6.451  1.00  0.00    -0.248 NA
ATOM     58  C   UNL     1       6.585   6.979  -7.101  1.00  0.00     0.031 C 
ATOM     59  C   UNL     1       1.321   9.209  -9.126  1.00  0.00     0.029 A 
ATOM     60  C   UNL     1       2.301   8.665  -8.311  1.00  0.00     0.049 A 
ATOM     61  H   UNL     1       2.138   7.948  -6.334  1.00  0.00     0.167 HD
ATOM     62  C   UNL     1       4.582   7.874  -7.763  1.00  0.00     0.074 A 
ATOM     63  C   UNL     1       5.962   7.592  -8.098  1.00  0.00     0.031 C 
ATOM     64  C   UNL     1       3.689   8.434  -8.615  1.00  0.00     0.034 A 
BRANCH  51  65
ATOM     65  C   UNL     1      -2.035   8.871  -6.336  1.00  0.00     0.023 A 
ATOM     66  C   UNL     1      -2.587  10.003  -5.702  1.00  0.00     0.012 A 
ATOM     67  C   UNL     1      -2.823   8.134  -7.242  1.00  0.00     0.148 A 
ATOM     68  C   UNL     1      -3.910  10.374  -5.935  1.00  0.00     0.002 A 
ATOM     69  C   UNL     1      -4.126   8.539  -7.506  1.00  0.00     0.091 A 
ATOM     70  F   UNL     1      -2.288   7.051  -7.821  1.00  0.00    -0.205 F 
ATOM     71  C   UNL     1      -4.675   9.649  -6.844  1.00  0.00     0.022 A 
BRANCH  69  72
ATOM     72  S   UNL     1      -5.167   7.721  -8.720  1.00  0.00     0.127 S 
ATOM     73  O   UNL     1      -6.173   7.090  -7.867  1.00  0.00    -0.237 OA
ATOM     74  O   UNL     1      -5.660   8.849  -9.511  1.00  0.00    -0.237 OA
ATOM     75  O   UNL     1      -4.299   6.803  -9.443  1.00  0.00    -0.744 OA
ENDBRANCH  69  72
ENDBRANCH  51  65
BRANCH  52  76
ATOM     76  C   UNL     1       7.324   5.936  -4.460  1.00  0.00     0.023 A 
ATOM     77  C   UNL     1       8.393   6.853  -4.465  1.00  0.00     0.012 A 
ATOM     78  C   UNL     1       7.586   4.577  -4.204  1.00  0.00     0.148 A 
ATOM     79  C   UNL     1       9.703   6.419  -4.256  1.00  0.00     0.002 A 
ATOM     80  C   UNL     1       8.886   4.161  -3.939  1.00  0.00     0.091 A 
ATOM     81  F   UNL     1       6.556   3.719  -4.213  1.00  0.00    -0.205 F 
ATOM     82  C   UNL     1       9.948   5.076  -3.984  1.00  0.00     0.022 A 
BRANCH  80  83
ATOM     83  S   UNL     1       9.278   2.478  -3.448  1.00  0.00     0.127 S 
ATOM     84  O   UNL     1      10.022   1.994  -4.609  1.00  0.00    -0.237 OA
ATOM     85  O   UNL     1      10.084   2.697  -2.246  1.00  0.00    -0.237 OA
ATOM     86  O   UNL     1       7.997   1.831  -3.202  1.00  0.00    -0.744 OA
ENDBRANCH  80  83
ENDBRANCH  52  76
BRANCH  64  87
ATOM     87  C   UNL     1       4.175   8.842  -9.982  1.00  0.00     0.023 A 
ATOM     88  C   UNL     1       4.459   7.864 -10.954  1.00  0.00     0.012 A 
ATOM     89  C   UNL     1       4.253  10.206 -10.329  1.00  0.00     0.148 A 
ATOM     90  C   UNL     1       4.836   8.237 -12.244  1.00  0.00     0.002 A 
ATOM     91  C   UNL     1       4.578  10.570 -11.629  1.00  0.00     0.091 A 
ATOM     92  F   UNL     1       3.995  11.121  -9.383  1.00  0.00    -0.205 F 
ATOM     93  C   UNL     1       4.882   9.587 -12.585  1.00  0.00     0.022 A 
BRANCH  91  94
ATOM     94  S   UNL     1       4.563  12.277 -12.188  1.00  0.00     0.127 S 
ATOM     95  O   UNL     1       5.982  12.519 -12.444  1.00  0.00    -0.237 OA
ATOM     96  O   UNL     1       3.731  12.200 -13.389  1.00  0.00    -0.237 OA
ATOM     97  O   UNL     1       3.987  13.054 -11.099  1.00  0.00    -0.744 OA
ENDBRANCH  91  94
ENDBRANCH  64  87
ENDBRANCH  38  39
ENDBRANCH  30  33
ENDBRANCH  28  29
ENDBRANCH  27  28
ENDBRANCH  26  27
ENDBRANCH  25  26
ENDBRANCH   1  25
TORSDOF 22
