REMARK SMILES CCOc1ccc(C[N@H+]2CC[NH2+][C@H](C(=O)NCCCCCCNC(=O)c3ccc(-c4c5nc(c(-c6cccc(S(=O)(=O)[O-])c6F)c6ccc([nH]6)c(-c6cccc(S(=O)(=O)[O-])c6F)c6nc(c(-c7cccc(S(=O)(=O)[O-])c7F)c7ccc4[nH]7)C=C6)C=C5)cc3)C2)c(OCC)c1C
REMARK SMILES IDX 19 1 18 2 17 3 16 4 14 5 15 6 13 8 9 9 10 10 89 11 11 13
REMARK SMILES IDX 12 14 8 17 7 18 4 19 5 20 94 21 6 22 90 23 95 24 3 25 2 26
REMARK SMILES IDX 1 27 91 28 92 29 93 30 20 31 21 32 22 33 23 34 24 35 25 37
REMARK SMILES IDX 26 38 27 39 88 40 28 41 87 42 29 43 30 44 31 45 81 46 32 47
REMARK SMILES IDX 86 48 80 49 82 50 33 51 85 52 79 53 78 54 34 56 66 57 46 58
REMARK SMILES IDX 65 59 47 60 50 61 64 62 83 63 48 64 49 65 63 67 84 68 51 69
REMARK SMILES IDX 35 70 36 71 44 72 37 73 39 74 45 75 38 76 40 77 41 78 42 79
REMARK SMILES IDX 43 80 67 81 68 82 76 83 69 84 71 85 77 86 70 87 72 88 73 89
REMARK SMILES IDX 74 90 75 91 52 92 53 93 61 94 54 95 56 96 62 97 55 98 57 99
REMARK SMILES IDX 58 100 59 101 60 102
REMARK H PARENT 16 7 9 12 12 15 12 16 23 36 82 55 50 66
REMARK Flexibility Score: inf
ROOT
ATOM      1  C   UNL     1      -0.121   0.810  -7.589  1.00  0.00     0.002 C 
ENDROOT
BRANCH   1   2
ATOM      2  C   UNL     1       0.757   0.716  -6.340  1.00  0.00     0.021 C 
BRANCH   2   3
ATOM      3  C   UNL     1       1.835  -0.363  -6.344  1.00  0.00     0.116 C 
BRANCH   3   4
ATOM      4  N   UNL     1       2.885  -0.127  -7.319  1.00  0.00    -0.351 N 
ATOM      5  C   UNL     1       4.195  -0.533  -7.222  1.00  0.00     0.284 C 
ATOM      6  O   UNL     1       4.938  -0.409  -8.197  1.00  0.00    -0.268 OA
ATOM      7  H   UNL     1       2.635   0.372  -8.130  1.00  0.00     0.163 HD
BRANCH   5   8
ATOM      8  C   UNL     1       4.681  -1.093  -5.876  1.00  0.00     0.328 C 
ATOM      9  N   UNL     1       6.715  -1.440  -4.417  1.00  0.00    -0.321 N 
ATOM     10  C   UNL     1       6.080  -2.696  -3.970  1.00  0.00     0.324 C 
ATOM     11  C   UNL     1       6.219  -1.091  -5.763  1.00  0.00     0.339 C 
ATOM     12  H   UNL     1       7.717  -1.611  -4.504  1.00  0.00     0.348 HD
ATOM     13  C   UNL     1       4.566  -2.879  -4.290  1.00  0.00     0.323 C 
ATOM     14  N   UNL     1       4.157  -2.469  -5.648  1.00  0.00    -0.327 N 
ATOM     15  H   UNL     1       3.139  -2.470  -5.720  1.00  0.00     0.347 HD
ATOM     16  H   UNL     1       4.527  -3.114  -6.345  1.00  0.00     0.347 HD
BRANCH   9  17
ATOM     17  C   UNL     1       6.767  -0.343  -3.418  1.00  0.00     0.303 C 
BRANCH  17  18
ATOM     18  C   UNL     1       5.460   0.228  -2.893  1.00  0.00     0.049 A 
ATOM     19  C   UNL     1       2.765   0.557  -2.115  1.00  0.00     0.125 A 
ATOM     20  C   UNL     1       3.555  -0.373  -1.462  1.00  0.00     0.047 A 
ATOM     21  C   UNL     1       3.336   1.434  -3.049  1.00  0.00     0.034 A 
ATOM     22  C   UNL     1       4.890  -0.511  -1.826  1.00  0.00     0.017 A 
ATOM     23  C   UNL     1       4.711   1.301  -3.422  1.00  0.00     0.134 A 
ATOM     24  C   UNL     1       2.486   2.506  -3.691  1.00  0.00     0.052 C 
BRANCH  19  25
ATOM     25  O   UNL     1       1.405   0.413  -2.026  1.00  0.00    -0.493 OA
BRANCH  25  26
ATOM     26  C   UNL     1       0.800   1.142  -0.955  1.00  0.00     0.226 C 
ATOM     27  C   UNL     1       0.767   0.319   0.321  1.00  0.00     0.049 C 
ENDBRANCH  25  26
ENDBRANCH  19  25
BRANCH  23  28
ATOM     28  O   UNL     1       5.052   2.241  -4.353  1.00  0.00    -0.493 OA
BRANCH  28  29
ATOM     29  C   UNL     1       6.312   2.429  -4.961  1.00  0.00     0.226 C 
ATOM     30  C   UNL     1       7.234   3.307  -4.143  1.00  0.00     0.049 C 
ENDBRANCH  28  29
ENDBRANCH  23  28
ENDBRANCH  17  18
ENDBRANCH   9  17
ENDBRANCH   5   8
ENDBRANCH   3   4
ENDBRANCH   2   3
ENDBRANCH   1   2
BRANCH   1  31
ATOM     31  C   UNL     1      -0.784  -0.484  -8.072  1.00  0.00     0.002 C 
BRANCH  31  32
ATOM     32  C   UNL     1      -1.407  -1.379  -7.003  1.00  0.00     0.021 C 
BRANCH  32  33
ATOM     33  C   UNL     1      -2.452  -0.705  -6.136  1.00  0.00     0.116 C 
BRANCH  33  34
ATOM     34  N   UNL     1      -3.783  -0.791  -6.690  1.00  0.00    -0.352 N 
ATOM     35  C   UNL     1      -4.993  -0.638  -6.047  1.00  0.00     0.251 C 
ATOM     36  H   UNL     1      -3.833  -0.985  -7.654  1.00  0.00     0.163 HD
ATOM     37  O   UNL     1      -5.978  -1.192  -6.532  1.00  0.00    -0.269 OA
BRANCH  35  38
ATOM     38  C   UNL     1      -5.128   0.325  -4.919  1.00  0.00     0.039 A 
ATOM     39  C   UNL     1      -6.296   1.103  -4.898  1.00  0.00     0.014 A 
ATOM     40  C   UNL     1      -4.061   0.669  -4.095  1.00  0.00     0.014 A 
ATOM     41  C   UNL     1      -6.287   2.355  -4.291  1.00  0.00     0.010 A 
ATOM     42  C   UNL     1      -4.018   1.929  -3.551  1.00  0.00     0.010 A 
ATOM     43  C   UNL     1      -5.097   2.795  -3.731  1.00  0.00    -0.014 A 
BRANCH  43  44
ATOM     44  C   UNL     1      -4.819   4.157  -3.326  1.00  0.00     0.031 A 
ATOM     45  C   UNL     1      -5.108   4.577  -1.949  1.00  0.00     0.074 A 
ATOM     46  C   UNL     1      -4.027   4.876  -4.153  1.00  0.00     0.049 A 
ATOM     47  N   UNL     1      -5.106   5.799  -1.551  1.00  0.00    -0.248 NA
ATOM     48  C   UNL     1      -5.421   3.616  -0.896  1.00  0.00     0.031 C 
ATOM     49  C   UNL     1      -3.203   6.029  -3.826  1.00  0.00     0.029 A 
ATOM     50  N   UNL     1      -3.935   4.778  -5.547  1.00  0.00    -0.354 N 
ATOM     51  C   UNL     1      -5.121   5.774  -0.172  1.00  0.00     0.074 A 
ATOM     52  C   UNL     1      -5.395   4.401   0.185  1.00  0.00     0.031 C 
ATOM     53  C   UNL     1      -2.918   6.690  -4.961  1.00  0.00     0.029 A 
ATOM     54  C   UNL     1      -3.723   6.086  -6.011  1.00  0.00     0.049 A 
ATOM     55  H   UNL     1      -4.004   3.960  -6.090  1.00  0.00     0.167 HD
ATOM     56  C   UNL     1      -4.723   6.881   0.513  1.00  0.00     0.034 A 
ATOM     57  C   UNL     1      -4.631   6.750  -6.790  1.00  0.00     0.034 A 
ATOM     58  C   UNL     1      -4.384   7.967  -0.415  1.00  0.00     0.049 A 
ATOM     59  C   UNL     1      -5.161   8.007  -6.117  1.00  0.00     0.074 A 
ATOM     60  C   UNL     1      -3.186   8.372  -0.983  1.00  0.00     0.029 A 
ATOM     61  N   UNL     1      -5.392   8.567  -1.160  1.00  0.00    -0.354 N 
ATOM     62  N   UNL     1      -4.935   8.322  -4.870  1.00  0.00    -0.248 NA
ATOM     63  C   UNL     1      -5.995   9.002  -6.786  1.00  0.00     0.031 C 
ATOM     64  C   UNL     1      -3.487   9.135  -2.144  1.00  0.00     0.029 A 
ATOM     65  C   UNL     1      -4.864   9.222  -2.264  1.00  0.00     0.049 A 
ATOM     66  H   UNL     1      -6.350   8.533  -0.935  1.00  0.00     0.167 HD
ATOM     67  C   UNL     1      -5.652   9.436  -4.525  1.00  0.00     0.074 A 
ATOM     68  C   UNL     1      -6.237   9.868  -5.785  1.00  0.00     0.031 C 
ATOM     69  C   UNL     1      -5.749   9.869  -3.229  1.00  0.00     0.034 A 
BRANCH  56  70
ATOM     70  C   UNL     1      -4.301   6.854   1.969  1.00  0.00     0.023 A 
ATOM     71  C   UNL     1      -3.259   7.727   2.357  1.00  0.00     0.012 A 
ATOM     72  C   UNL     1      -4.812   6.003   2.977  1.00  0.00     0.148 A 
ATOM     73  C   UNL     1      -2.688   7.699   3.632  1.00  0.00     0.002 A 
ATOM     74  C   UNL     1      -4.200   5.930   4.235  1.00  0.00     0.091 A 
ATOM     75  F   UNL     1      -5.930   5.305   2.745  1.00  0.00    -0.205 F 
ATOM     76  C   UNL     1      -3.136   6.777   4.563  1.00  0.00     0.022 A 
BRANCH  74  77
ATOM     77  S   UNL     1      -4.651   4.697   5.469  1.00  0.00     0.127 S 
ATOM     78  O   UNL     1      -3.345   4.170   5.873  1.00  0.00    -0.237 OA
ATOM     79  O   UNL     1      -5.321   5.500   6.489  1.00  0.00    -0.237 OA
ATOM     80  O   UNL     1      -5.488   3.726   4.774  1.00  0.00    -0.744 OA
ENDBRANCH  74  77
ENDBRANCH  56  70
BRANCH  57  81
ATOM     81  C   UNL     1      -5.410   5.842  -7.691  1.00  0.00     0.023 A 
ATOM     82  C   UNL     1      -4.663   5.113  -8.649  1.00  0.00     0.012 A 
ATOM     83  C   UNL     1      -6.692   5.382  -7.343  1.00  0.00     0.148 A 
ATOM     84  C   UNL     1      -5.104   3.871  -9.111  1.00  0.00     0.002 A 
ATOM     85  C   UNL     1      -7.130   4.144  -7.818  1.00  0.00     0.091 A 
ATOM     86  F   UNL     1      -7.428   6.111  -6.495  1.00  0.00    -0.205 F 
ATOM     87  C   UNL     1      -6.318   3.367  -8.660  1.00  0.00     0.022 A 
BRANCH  85  88
ATOM     88  S   UNL     1      -8.692   3.434  -7.275  1.00  0.00     0.127 S 
ATOM     89  O   UNL     1      -9.601   3.895  -8.320  1.00  0.00    -0.237 OA
ATOM     90  O   UNL     1      -8.416   1.999  -7.293  1.00  0.00    -0.237 OA
ATOM     91  O   UNL     1      -8.903   3.983  -5.944  1.00  0.00    -0.744 OA
ENDBRANCH  85  88
ENDBRANCH  57  81
BRANCH  69  92
ATOM     92  C   UNL     1      -6.706  10.936  -2.733  1.00  0.00     0.023 A 
ATOM     93  C   UNL     1      -7.896  11.253  -3.414  1.00  0.00     0.012 A 
ATOM     94  C   UNL     1      -6.517  11.544  -1.463  1.00  0.00     0.148 A 
ATOM     95  C   UNL     1      -8.820  12.170  -2.900  1.00  0.00     0.002 A 
ATOM     96  C   UNL     1      -7.498  12.356  -0.901  1.00  0.00     0.091 A 
ATOM     97  F   UNL     1      -5.371  11.352  -0.793  1.00  0.00    -0.205 F 
ATOM     98  C   UNL     1      -8.635  12.701  -1.632  1.00  0.00     0.022 A 
BRANCH  96  99
ATOM     99  S   UNL     1      -7.418  12.833   0.832  1.00  0.00     0.127 S 
ATOM    100  O   UNL     1      -6.745  14.127   0.761  1.00  0.00    -0.237 OA
ATOM    101  O   UNL     1      -8.832  12.901   1.206  1.00  0.00    -0.237 OA
ATOM    102  O   UNL     1      -6.682  11.757   1.483  1.00  0.00    -0.744 OA
ENDBRANCH  96  99
ENDBRANCH  69  92
ENDBRANCH  43  44
ENDBRANCH  35  38
ENDBRANCH  33  34
ENDBRANCH  32  33
ENDBRANCH  31  32
ENDBRANCH   1  31
TORSDOF 22
