REMARK SMILES O=C(NCCCCCCNC(=O)[C@H]1[C@H]2CC[C@H](C2)[C@@H]1C(=O)Nc1sc2c(c1C(=O)NC1CCCCC1)CCCC2)c1ccc(-c2c3nc(c(-c4cccc(S(=O)(=O)[O-])c4F)c4ccc([nH]4)c(-c4cccc(S(=O)(=O)[O-])c4F)c4nc(c(-c5cccc(S(=O)(=O)[O-])c5F)c5ccc2[nH]5)C=C4)C=C3)cc1
REMARK SMILES IDX 7 1 6 2 5 3 4 4 3 5 1 6 2 7 41 9 42 10 103 11 43 12 102 13
REMARK SMILES IDX 44 14 45 15 46 16 96 17 47 18 101 19 95 20 97 21 48 22
REMARK SMILES IDX 100 23 94 24 93 25 49 27 81 28 61 29 80 30 62 31 65 32 79 33
REMARK SMILES IDX 98 34 63 35 64 36 78 38 99 39 66 40 50 41 51 42 59 43 52 44
REMARK SMILES IDX 54 45 60 46 53 47 55 48 56 49 57 50 58 51 82 52 83 53 91 54
REMARK SMILES IDX 84 55 86 56 92 57 85 58 87 59 88 60 89 61 90 62 67 63 68 64
REMARK SMILES IDX 76 65 69 66 71 67 77 68 70 69 72 70 73 71 74 72 75 73 8 74
REMARK SMILES IDX 9 75 10 76 11 77 12 79 13 80 14 81 19 82 15 83 18 84 17 85
REMARK SMILES IDX 16 86 20 87 21 88 22 89 23 91 24 92 27 93 25 94 26 95 40 96
REMARK SMILES IDX 37 97 39 98 38 99 28 100 29 101 30 102 31 104 32 105 36 106
REMARK SMILES IDX 33 107 35 108 34 109
REMARK H PARENT 3 8 97 26 65 37 10 78 22 90 30 103
REMARK Flexibility Score: inf
ROOT
ATOM      1  C   UNL     1       9.279  11.681   4.248  1.00  0.00     0.002 C 
ENDROOT
BRANCH   1   2
ATOM      2  C   UNL     1      10.637  12.122   3.693  1.00  0.00     0.002 C 
BRANCH   2   3
ATOM      3  C   UNL     1      10.624  12.683   2.271  1.00  0.00     0.021 C 
BRANCH   3   4
ATOM      4  C   UNL     1       9.614  13.795   2.030  1.00  0.00     0.116 C 
BRANCH   4   5
ATOM      5  N   UNL     1       9.863  14.958   2.861  1.00  0.00    -0.352 N 
ATOM      6  O   UNL     1      10.417  17.104   3.280  1.00  0.00    -0.269 OA
ATOM      7  C   UNL     1      10.022  16.264   2.473  1.00  0.00     0.251 C 
ATOM      8  H   UNL     1       9.926  14.788   3.829  1.00  0.00     0.163 HD
BRANCH   7   9
ATOM      9  C   UNL     1       9.728  16.641   1.075  1.00  0.00     0.039 A 
ATOM     10  C   UNL     1       8.567  16.170   0.453  1.00  0.00     0.014 A 
ATOM     11  C   UNL     1      10.613  17.469   0.382  1.00  0.00     0.014 A 
ATOM     12  C   UNL     1       8.350  16.429  -0.893  1.00  0.00     0.010 A 
ATOM     13  C   UNL     1      10.342  17.809  -0.947  1.00  0.00     0.010 A 
ATOM     14  C   UNL     1       9.212  17.286  -1.595  1.00  0.00    -0.014 A 
BRANCH  14  15
ATOM     15  C   UNL     1       8.817  17.745  -2.949  1.00  0.00     0.031 A 
ATOM     16  C   UNL     1       9.641  17.435  -4.164  1.00  0.00     0.074 A 
ATOM     17  C   UNL     1       7.692  18.482  -3.054  1.00  0.00     0.049 A 
ATOM     18  N   UNL     1       9.419  17.775  -5.407  1.00  0.00    -0.248 NA
ATOM     19  C   UNL     1      10.870  16.650  -3.969  1.00  0.00     0.031 C 
ATOM     20  C   UNL     1       6.843  18.885  -1.926  1.00  0.00     0.029 A 
ATOM     21  N   UNL     1       7.073  19.035  -4.144  1.00  0.00    -0.354 N 
ATOM     22  C   UNL     1      10.496  17.290  -6.137  1.00  0.00     0.074 A 
ATOM     23  C   UNL     1      11.370  16.618  -5.199  1.00  0.00     0.031 C 
ATOM     24  C   UNL     1       5.813  19.609  -2.383  1.00  0.00     0.029 A 
ATOM     25  C   UNL     1       5.964  19.783  -3.820  1.00  0.00     0.049 A 
ATOM     26  H   UNL     1       7.390  18.910  -5.067  1.00  0.00     0.167 HD
ATOM     27  C   UNL     1      10.727  17.399  -7.467  1.00  0.00     0.034 A 
ATOM     28  C   UNL     1       5.179  20.564  -4.585  1.00  0.00     0.034 A 
ATOM     29  C   UNL     1       9.836  18.053  -8.391  1.00  0.00     0.049 A 
ATOM     30  C   UNL     1       5.469  20.657  -6.054  1.00  0.00     0.074 A 
ATOM     31  C   UNL     1       9.940  18.131  -9.770  1.00  0.00     0.029 A 
ATOM     32  N   UNL     1       8.702  18.765  -8.036  1.00  0.00    -0.354 N 
ATOM     33  N   UNL     1       6.399  20.049  -6.749  1.00  0.00    -0.248 NA
ATOM     34  C   UNL     1       4.591  21.525  -6.848  1.00  0.00     0.031 C 
ATOM     35  C   UNL     1       8.895  18.930 -10.242  1.00  0.00     0.029 A 
ATOM     36  C   UNL     1       8.115  19.314  -9.164  1.00  0.00     0.049 A 
ATOM     37  H   UNL     1       8.363  18.865  -7.117  1.00  0.00     0.167 HD
ATOM     38  C   UNL     1       6.206  20.447  -8.065  1.00  0.00     0.074 A 
ATOM     39  C   UNL     1       5.045  21.313  -8.075  1.00  0.00     0.031 C 
ATOM     40  C   UNL     1       6.937  20.142  -9.164  1.00  0.00     0.034 A 
BRANCH  27  41
ATOM     41  C   UNL     1      11.984  16.791  -8.033  1.00  0.00     0.023 A 
ATOM     42  C   UNL     1      12.079  15.395  -8.192  1.00  0.00     0.012 A 
ATOM     43  C   UNL     1      13.012  17.617  -8.531  1.00  0.00     0.148 A 
ATOM     44  C   UNL     1      13.183  14.828  -8.829  1.00  0.00     0.002 A 
ATOM     45  C   UNL     1      14.088  17.048  -9.202  1.00  0.00     0.091 A 
ATOM     46  F   UNL     1      12.907  18.942  -8.356  1.00  0.00    -0.205 F 
ATOM     47  C   UNL     1      14.178  15.654  -9.345  1.00  0.00     0.022 A 
BRANCH  45  48
ATOM     48  S   UNL     1      15.379  18.027  -9.977  1.00  0.00     0.127 S 
ATOM     49  O   UNL     1      16.550  17.649  -9.186  1.00  0.00    -0.237 OA
ATOM     50  O   UNL     1      15.375  17.509 -11.345  1.00  0.00    -0.237 OA
ATOM     51  O   UNL     1      14.967  19.418  -9.847  1.00  0.00    -0.744 OA
ENDBRANCH  45  48
ENDBRANCH  27  41
BRANCH  28  52
ATOM     52  C   UNL     1       4.056  21.327  -3.972  1.00  0.00     0.023 A 
ATOM     53  C   UNL     1       2.728  21.015  -4.314  1.00  0.00     0.012 A 
ATOM     54  C   UNL     1       4.304  22.361  -3.047  1.00  0.00     0.148 A 
ATOM     55  C   UNL     1       1.667  21.749  -3.781  1.00  0.00     0.002 A 
ATOM     56  C   UNL     1       3.241  23.043  -2.470  1.00  0.00     0.091 A 
ATOM     57  F   UNL     1       5.577  22.654  -2.745  1.00  0.00    -0.205 F 
ATOM     58  C   UNL     1       1.923  22.755  -2.853  1.00  0.00     0.022 A 
BRANCH  56  59
ATOM     59  S   UNL     1       3.480  24.249  -1.161  1.00  0.00     0.127 S 
ATOM     60  O   UNL     1       3.249  25.505  -1.868  1.00  0.00    -0.237 OA
ATOM     61  O   UNL     1       2.433  23.874  -0.209  1.00  0.00    -0.237 OA
ATOM     62  O   UNL     1       4.835  24.030  -0.674  1.00  0.00    -0.744 OA
ENDBRANCH  56  59
ENDBRANCH  28  52
BRANCH  40  63
ATOM     63  C   UNL     1       6.489  20.730 -10.475  1.00  0.00     0.023 A 
ATOM     64  C   UNL     1       6.650  22.109 -10.715  1.00  0.00     0.012 A 
ATOM     65  C   UNL     1       5.959  19.908 -11.487  1.00  0.00     0.148 A 
ATOM     66  C   UNL     1       6.253  22.667 -11.929  1.00  0.00     0.002 A 
ATOM     67  C   UNL     1       5.617  20.461 -12.714  1.00  0.00     0.091 A 
ATOM     68  F   UNL     1       5.799  18.601 -11.231  1.00  0.00    -0.205 F 
ATOM     69  C   UNL     1       5.748  21.843 -12.932  1.00  0.00     0.022 A 
BRANCH  67  70
ATOM     70  S   UNL     1       5.048  19.466 -14.096  1.00  0.00     0.127 S 
ATOM     71  O   UNL     1       3.653  19.889 -14.213  1.00  0.00    -0.237 OA
ATOM     72  O   UNL     1       5.917  19.921 -15.181  1.00  0.00    -0.237 OA
ATOM     73  O   UNL     1       5.245  18.078 -13.703  1.00  0.00    -0.744 OA
ENDBRANCH  67  70
ENDBRANCH  40  63
ENDBRANCH  14  15
ENDBRANCH   7   9
ENDBRANCH   4   5
ENDBRANCH   3   4
ENDBRANCH   2   3
ENDBRANCH   1   2
BRANCH   1  74
ATOM     74  C   UNL     1       8.466  10.738   3.360  1.00  0.00     0.021 C 
BRANCH  74  75
ATOM     75  C   UNL     1       9.190   9.476   2.929  1.00  0.00     0.116 C 
BRANCH  75  76
ATOM     76  N   UNL     1       9.474   8.571   4.023  1.00  0.00    -0.356 N 
ATOM     77  C   UNL     1       9.508   7.204   3.992  1.00  0.00     0.224 C 
ATOM     78  H   UNL     1       9.665   8.990   4.893  1.00  0.00     0.163 HD
ATOM     79  O   UNL     1       9.809   6.601   5.020  1.00  0.00    -0.275 OA
BRANCH  77  80
ATOM     80  C   UNL     1       9.152   6.506   2.685  1.00  0.00     0.094 C 
ATOM     81  C   UNL     1      10.165   6.875   1.555  1.00  0.00     0.002 C 
ATOM     82  C   UNL     1       9.247   4.958   2.722  1.00  0.00     0.094 C 
ATOM     83  C   UNL     1      11.608   6.492   1.892  1.00  0.00     0.005 C 
ATOM     84  C   UNL     1       9.831   5.821   0.532  1.00  0.00     0.009 C 
ATOM     85  C   UNL     1      10.101   4.649   1.475  1.00  0.00     0.002 C 
ATOM     86  C   UNL     1      11.579   4.956   1.824  1.00  0.00     0.005 C 
BRANCH  82  87
ATOM     87  C   UNL     1       7.934   4.173   2.968  1.00  0.00     0.229 C 
ATOM     88  O   UNL     1       7.886   3.438   3.969  1.00  0.00    -0.274 OA
ATOM     89  N   UNL     1       6.765   4.293   2.281  1.00  0.00    -0.317 N 
ATOM     90  H   UNL     1       5.971   4.007   2.787  1.00  0.00     0.170 HD
BRANCH  89  91
ATOM     91  C   UNL     1       6.489   4.740   1.011  1.00  0.00     0.108 A 
ATOM     92  S   UNL     1       7.338   4.022  -0.279  1.00  0.00    -0.122 S 
ATOM     93  C   UNL     1       5.386   5.477   0.554  1.00  0.00     0.078 A 
ATOM     94  C   UNL     1       6.854   5.309  -1.270  1.00  0.00     0.011 A 
ATOM     95  C   UNL     1       5.630   5.817  -0.854  1.00  0.00    -0.019 A 
ATOM     96  C   UNL     1       7.653   5.770  -2.452  1.00  0.00     0.047 C 
ATOM     97  C   UNL     1       4.865   6.680  -1.817  1.00  0.00     0.037 C 
ATOM     98  C   UNL     1       7.054   7.077  -2.987  1.00  0.00     0.006 C 
ATOM     99  C   UNL     1       5.548   6.887  -3.178  1.00  0.00     0.005 C 
BRANCH  93 100
ATOM    100  C   UNL     1       4.314   5.782   1.531  1.00  0.00     0.254 C 
ATOM    101  O   UNL     1       4.075   4.982   2.443  1.00  0.00    -0.269 OA
ATOM    102  N   UNL     1       3.579   6.942   1.580  1.00  0.00    -0.349 N 
ATOM    103  H   UNL     1       2.962   6.987   2.346  1.00  0.00     0.164 HD
BRANCH 102 104
ATOM    104  C   UNL     1       3.533   8.109   0.729  1.00  0.00     0.082 C 
ATOM    105  C   UNL     1       2.294   8.982   0.957  1.00  0.00     0.025 C 
ATOM    106  C   UNL     1       4.792   8.977   0.850  1.00  0.00     0.025 C 
ATOM    107  C   UNL     1       2.237  10.059  -0.131  1.00  0.00     0.002 C 
ATOM    108  C   UNL     1       4.787  10.125  -0.163  1.00  0.00     0.002 C 
ATOM    109  C   UNL     1       3.492  10.933  -0.137  1.00  0.00     0.000 C 
ENDBRANCH 102 104
ENDBRANCH  93 100
ENDBRANCH  89  91
ENDBRANCH  82  87
ENDBRANCH  77  80
ENDBRANCH  75  76
ENDBRANCH  74  75
ENDBRANCH   1  74
TORSDOF 20
