REMARK SMILES O=C(NCCCCCCNC(=O)[C@@H]1CC2(CCN(C(=O)C3(c4ccccc4F)CC3)CC2)C[NH2+]1)c1ccc(-c2c3nc(c(-c4cccc(S(=O)(=O)[O-])c4F)c4ccc([nH]4)c(-c4cccc(S(=O)(=O)[O-])c4F)c4nc(c(-c5cccc(S(=O)(=O)[O-])c5F)c5ccc2[nH]5)C=C4)C=C3)cc1
REMARK SMILES IDX 6 1 5 2 4 3 3 4 1 5 2 6 35 8 36 9 97 10 37 11 96 12 38 13
REMARK SMILES IDX 39 14 40 15 90 16 41 17 95 18 89 19 91 20 42 21 94 22 88 23
REMARK SMILES IDX 87 24 43 26 75 27 55 28 74 29 56 30 59 31 73 32 92 33 57 34
REMARK SMILES IDX 58 35 72 37 93 38 60 39 44 40 45 41 53 42 46 43 48 44 54 45
REMARK SMILES IDX 47 46 49 47 50 48 51 49 52 50 76 51 77 52 85 53 78 54 80 55
REMARK SMILES IDX 86 56 79 57 81 58 82 59 83 60 84 61 61 62 62 63 70 64 63 65
REMARK SMILES IDX 65 66 71 67 64 68 66 69 67 70 68 71 69 72 7 73 8 74 9 75
REMARK SMILES IDX 10 76 11 77 12 79 13 80 14 81 34 82 15 83 33 84 16 87 32 88
REMARK SMILES IDX 17 89 31 90 18 91 19 92 20 93 21 94 29 95 30 96 22 97 23 98
REMARK SMILES IDX 27 99 24 100 26 101 28 102 25 103
REMARK H PARENT 3 7 91 25 59 36 10 78 34 85 34 86
REMARK Flexibility Score: inf
ROOT
ATOM      1  C   UNL     1       4.213  -1.988   3.191  1.00  0.00     0.002 C 
ENDROOT
BRANCH   1   2
ATOM      2  C   UNL     1       4.646  -0.757   2.393  1.00  0.00     0.021 C 
BRANCH   2   3
ATOM      3  C   UNL     1       4.427  -0.882   0.892  1.00  0.00     0.116 C 
BRANCH   3   4
ATOM      4  N   UNL     1       3.017  -0.996   0.566  1.00  0.00    -0.352 N 
ATOM      5  O   UNL     1       1.013  -0.253  -0.141  1.00  0.00    -0.269 OA
ATOM      6  C   UNL     1       2.237  -0.143  -0.171  1.00  0.00     0.251 C 
ATOM      7  H   UNL     1       2.560  -1.792   0.923  1.00  0.00     0.163 HD
BRANCH   6   8
ATOM      8  C   UNL     1       2.879   0.912  -0.981  1.00  0.00     0.039 A 
ATOM      9  C   UNL     1       3.988   0.617  -1.782  1.00  0.00     0.014 A 
ATOM     10  C   UNL     1       2.358   2.206  -0.948  1.00  0.00     0.014 A 
ATOM     11  C   UNL     1       4.643   1.638  -2.462  1.00  0.00     0.010 A 
ATOM     12  C   UNL     1       2.974   3.215  -1.691  1.00  0.00     0.010 A 
ATOM     13  C   UNL     1       4.131   2.944  -2.439  1.00  0.00    -0.014 A 
BRANCH  13  14
ATOM     14  C   UNL     1       4.755   4.010  -3.261  1.00  0.00     0.031 A 
ATOM     15  C   UNL     1       5.371   5.219  -2.615  1.00  0.00     0.074 A 
ATOM     16  C   UNL     1       4.716   3.901  -4.604  1.00  0.00     0.049 A 
ATOM     17  N   UNL     1       5.849   6.298  -3.179  1.00  0.00    -0.248 NA
ATOM     18  C   UNL     1       5.463   5.222  -1.145  1.00  0.00     0.031 C 
ATOM     19  C   UNL     1       4.136   2.777  -5.344  1.00  0.00     0.029 A 
ATOM     20  N   UNL     1       5.148   4.756  -5.587  1.00  0.00    -0.354 N 
ATOM     21  C   UNL     1       6.264   7.122  -2.140  1.00  0.00     0.074 A 
ATOM     22  C   UNL     1       5.981   6.421  -0.906  1.00  0.00     0.031 C 
ATOM     23  C   UNL     1       4.245   3.012  -6.660  1.00  0.00     0.029 A 
ATOM     24  C   UNL     1       4.842   4.327  -6.857  1.00  0.00     0.049 A 
ATOM     25  H   UNL     1       5.629   5.594  -5.400  1.00  0.00     0.167 HD
ATOM     26  C   UNL     1       6.838   8.346  -2.214  1.00  0.00     0.034 A 
ATOM     27  C   UNL     1       4.989   4.938  -8.048  1.00  0.00     0.034 A 
ATOM     28  C   UNL     1       7.139   9.026  -3.447  1.00  0.00     0.049 A 
ATOM     29  C   UNL     1       5.603   6.309  -8.089  1.00  0.00     0.074 A 
ATOM     30  C   UNL     1       7.750  10.256  -3.620  1.00  0.00     0.029 A 
ATOM     31  N   UNL     1       6.852   8.543  -4.714  1.00  0.00    -0.354 N 
ATOM     32  N   UNL     1       6.071   7.035  -7.102  1.00  0.00    -0.248 NA
ATOM     33  C   UNL     1       5.735   6.936  -9.411  1.00  0.00     0.031 C 
ATOM     34  C   UNL     1       7.811  10.527  -4.990  1.00  0.00     0.029 A 
ATOM     35  C   UNL     1       7.269   9.451  -5.673  1.00  0.00     0.049 A 
ATOM     36  H   UNL     1       6.416   7.681  -4.904  1.00  0.00     0.167 HD
ATOM     37  C   UNL     1       6.579   8.189  -7.688  1.00  0.00     0.074 A 
ATOM     38  C   UNL     1       6.394   8.048  -9.117  1.00  0.00     0.031 C 
ATOM     39  C   UNL     1       7.128   9.277  -7.095  1.00  0.00     0.034 A 
BRANCH  26  40
ATOM     40  C   UNL     1       7.234   9.034  -0.933  1.00  0.00     0.023 A 
ATOM     41  C   UNL     1       8.382   8.599  -0.242  1.00  0.00     0.012 A 
ATOM     42  C   UNL     1       6.560  10.193  -0.498  1.00  0.00     0.148 A 
ATOM     43  C   UNL     1       8.852   9.305   0.865  1.00  0.00     0.002 A 
ATOM     44  C   UNL     1       7.060  10.915   0.579  1.00  0.00     0.091 A 
ATOM     45  F   UNL     1       5.463  10.581  -1.164  1.00  0.00    -0.205 F 
ATOM     46  C   UNL     1       8.201  10.469   1.266  1.00  0.00     0.022 A 
BRANCH  44  47
ATOM     47  S   UNL     1       6.350  12.474   1.124  1.00  0.00     0.127 S 
ATOM     48  O   UNL     1       5.927  12.145   2.485  1.00  0.00    -0.237 OA
ATOM     49  O   UNL     1       7.499  13.375   1.044  1.00  0.00    -0.237 OA
ATOM     50  O   UNL     1       5.267  12.771   0.198  1.00  0.00    -0.744 OA
ENDBRANCH  44  47
ENDBRANCH  26  40
BRANCH  27  51
ATOM     51  C   UNL     1       4.571   4.249  -9.302  1.00  0.00     0.023 A 
ATOM     52  C   UNL     1       5.552   3.868 -10.238  1.00  0.00     0.012 A 
ATOM     53  C   UNL     1       3.218   3.960  -9.569  1.00  0.00     0.148 A 
ATOM     54  C   UNL     1       5.191   3.246 -11.433  1.00  0.00     0.002 A 
ATOM     55  C   UNL     1       2.872   3.283 -10.733  1.00  0.00     0.091 A 
ATOM     56  F   UNL     1       2.296   4.344  -8.675  1.00  0.00    -0.205 F 
ATOM     57  C   UNL     1       3.854   2.944 -11.676  1.00  0.00     0.022 A 
BRANCH  55  58
ATOM     58  S   UNL     1       1.196   2.728 -11.061  1.00  0.00     0.127 S 
ATOM     59  O   UNL     1       0.789   3.625 -12.138  1.00  0.00    -0.237 OA
ATOM     60  O   UNL     1       1.412   1.338 -11.464  1.00  0.00    -0.237 OA
ATOM     61  O   UNL     1       0.479   2.881  -9.802  1.00  0.00    -0.744 OA
ENDBRANCH  55  58
ENDBRANCH  27  51
BRANCH  39  62
ATOM     62  C   UNL     1       7.601  10.394  -7.990  1.00  0.00     0.023 A 
ATOM     63  C   UNL     1       6.660  11.191  -8.672  1.00  0.00     0.012 A 
ATOM     64  C   UNL     1       8.973  10.694  -8.105  1.00  0.00     0.148 A 
ATOM     65  C   UNL     1       7.079  12.242  -9.487  1.00  0.00     0.002 A 
ATOM     66  C   UNL     1       9.379  11.778  -8.873  1.00  0.00     0.091 A 
ATOM     67  F   UNL     1       9.855   9.915  -7.463  1.00  0.00    -0.205 F 
ATOM     68  C   UNL     1       8.435  12.543  -9.578  1.00  0.00     0.022 A 
BRANCH  66  69
ATOM     69  S   UNL     1      11.094  12.305  -8.964  1.00  0.00     0.127 S 
ATOM     70  O   UNL     1      11.465  11.883 -10.313  1.00  0.00    -0.237 OA
ATOM     71  O   UNL     1      10.984  13.754  -8.787  1.00  0.00    -0.237 OA
ATOM     72  O   UNL     1      11.782  11.615  -7.881  1.00  0.00    -0.744 OA
ENDBRANCH  66  69
ENDBRANCH  39  62
ENDBRANCH  13  14
ENDBRANCH   6   8
ENDBRANCH   3   4
ENDBRANCH   2   3
ENDBRANCH   1   2
BRANCH   1  73
ATOM     73  C   UNL     1       4.885  -3.297   2.763  1.00  0.00     0.002 C 
BRANCH  73  74
ATOM     74  C   UNL     1       6.420  -3.254   2.723  1.00  0.00     0.021 C 
BRANCH  74  75
ATOM     75  C   UNL     1       7.061  -2.736   4.009  1.00  0.00     0.116 C 
BRANCH  75  76
ATOM     76  N   UNL     1       6.703  -3.579   5.127  1.00  0.00    -0.351 N 
ATOM     77  C   UNL     1       7.449  -4.466   5.830  1.00  0.00     0.278 C 
ATOM     78  H   UNL     1       5.768  -3.496   5.425  1.00  0.00     0.163 HD
ATOM     79  O   UNL     1       6.843  -5.188   6.625  1.00  0.00    -0.268 OA
BRANCH  77  80
ATOM     80  C   UNL     1       8.985  -4.485   5.673  1.00  0.00     0.273 C 
ATOM     81  C   UNL     1       9.532  -5.894   5.538  1.00  0.00     0.088 C 
ATOM     82  N   UNL     1       9.646  -3.983   6.894  1.00  0.00    -0.336 N 
ATOM     83  C   UNL     1       9.830  -6.367   6.979  1.00  0.00     0.029 C 
ATOM     84  C   UNL     1       9.648  -5.104   7.838  1.00  0.00     0.268 C 
ATOM     85  H   UNL     1       9.126  -3.195   7.280  1.00  0.00     0.346 HD
ATOM     86  H   UNL     1      10.592  -3.654   6.700  1.00  0.00     0.346 HD
ATOM     87  C   UNL     1      11.271  -6.910   7.091  1.00  0.00     0.034 C 
ATOM     88  C   UNL     1       8.874  -7.486   7.433  1.00  0.00     0.034 C 
ATOM     89  C   UNL     1      11.463  -8.239   6.352  1.00  0.00     0.120 C 
ATOM     90  C   UNL     1       9.078  -8.752   6.613  1.00  0.00     0.120 C 
ATOM     91  N   UNL     1      10.457  -9.223   6.740  1.00  0.00    -0.342 N 
ATOM     92  C   UNL     1      10.617 -10.514   7.245  1.00  0.00     0.233 C 
ATOM     93  O   UNL     1       9.623 -11.108   7.672  1.00  0.00    -0.274 OA
BRANCH  92  94
ATOM     94  C   UNL     1      11.933 -11.286   7.314  1.00  0.00     0.077 C 
ATOM     95  C   UNL     1      13.327 -10.886   6.843  1.00  0.00     0.023 C 
ATOM     96  C   UNL     1      12.966 -10.707   8.281  1.00  0.00     0.023 C 
BRANCH  94  97
ATOM     97  C   UNL     1      11.702 -12.812   7.257  1.00  0.00     0.003 A 
ATOM     98  C   UNL     1      11.858 -13.522   6.051  1.00  0.00     0.008 A 
ATOM     99  C   UNL     1      11.193 -13.523   8.356  1.00  0.00     0.127 A 
ATOM    100  C   UNL     1      11.492 -14.867   5.947  1.00  0.00     0.001 A 
ATOM    101  C   UNL     1      10.802 -14.855   8.255  1.00  0.00     0.039 A 
ATOM    102  F   UNL     1      11.034 -12.900   9.535  1.00  0.00    -0.207 F 
ATOM    103  C   UNL     1      10.946 -15.528   7.044  1.00  0.00     0.003 A 
ENDBRANCH  94  97
ENDBRANCH  92  94
ENDBRANCH  77  80
ENDBRANCH  75  76
ENDBRANCH  74  75
ENDBRANCH  73  74
ENDBRANCH   1  73
TORSDOF 18
