REMARK SMILES O=C(NCCCCCCNC(=O)[C@H]1COCCN1C(=O)c1ccc(Br)nc1)c1ccc(-c2c3nc(c(-c4cccc(S(=O)(=O)[O-])c4F)c4ccc([nH]4)c(-c4cccc(S(=O)(=O)[O-])c4F)c4nc(c(-c5cccc(S(=O)(=O)[O-])c5F)c5ccc2[nH]5)C=C4)C=C3)cc1
REMARK SMILES IDX 6 1 5 2 4 3 3 4 1 5 2 6 28 8 29 9 90 10 30 11 89 12 31 13
REMARK SMILES IDX 32 14 33 15 83 16 34 17 88 18 82 19 84 20 35 21 87 22 81 23
REMARK SMILES IDX 80 24 36 26 68 27 48 28 67 29 49 30 52 31 66 32 85 33 50 34
REMARK SMILES IDX 51 35 65 37 86 38 53 39 37 40 38 41 46 42 39 43 41 44 47 45
REMARK SMILES IDX 40 46 42 47 43 48 44 49 45 50 69 51 70 52 78 53 71 54 73 55
REMARK SMILES IDX 79 56 72 57 74 58 75 59 76 60 77 61 54 62 55 63 63 64 56 65
REMARK SMILES IDX 58 66 64 67 57 68 59 69 60 70 61 71 62 72 7 73 8 74 9 75
REMARK SMILES IDX 10 76 11 77 12 79 13 80 14 81 18 82 15 83 17 84 16 85 19 86
REMARK SMILES IDX 20 87 21 88 22 89 27 90 23 91 26 92 24 93 25 94
REMARK H PARENT 3 7 84 25 52 36 10 78
REMARK Flexibility Score: inf
ROOT
ATOM      1  C   UNL     1       9.630  10.959   1.665  1.00  0.00     0.002 C 
ENDROOT
BRANCH   1   2
ATOM      2  C   UNL     1       9.480  12.309   0.964  1.00  0.00     0.021 C 
BRANCH   2   3
ATOM      3  C   UNL     1       8.307  13.162   1.431  1.00  0.00     0.116 C 
BRANCH   3   4
ATOM      4  N   UNL     1       8.414  13.559   2.823  1.00  0.00    -0.352 N 
ATOM      5  O   UNL     1       8.508  14.985   4.565  1.00  0.00    -0.269 OA
ATOM      6  C   UNL     1       8.246  14.805   3.378  1.00  0.00     0.251 C 
ATOM      7  H   UNL     1       8.636  12.837   3.455  1.00  0.00     0.163 HD
BRANCH   6   8
ATOM      8  C   UNL     1       7.781  15.929   2.534  1.00  0.00     0.039 A 
ATOM      9  C   UNL     1       6.710  15.766   1.651  1.00  0.00     0.014 A 
ATOM     10  C   UNL     1       8.429  17.164   2.629  1.00  0.00     0.014 A 
ATOM     11  C   UNL     1       6.372  16.793   0.776  1.00  0.00     0.010 A 
ATOM     12  C   UNL     1       8.035  18.221   1.803  1.00  0.00     0.010 A 
ATOM     13  C   UNL     1       7.021  18.037   0.851  1.00  0.00    -0.014 A 
BRANCH  13  14
ATOM     14  C   UNL     1       6.561  19.153  -0.015  1.00  0.00     0.031 A 
ATOM     15  C   UNL     1       7.451  19.750  -1.069  1.00  0.00     0.074 A 
ATOM     16  C   UNL     1       5.315  19.633   0.170  1.00  0.00     0.049 A 
ATOM     17  N   UNL     1       7.183  20.704  -1.924  1.00  0.00    -0.248 NA
ATOM     18  C   UNL     1       8.819  19.217  -1.179  1.00  0.00     0.031 C 
ATOM     19  C   UNL     1       4.382  19.169   1.199  1.00  0.00     0.029 A 
ATOM     20  N   UNL     1       4.620  20.612  -0.492  1.00  0.00    -0.354 N 
ATOM     21  C   UNL     1       8.351  20.913  -2.646  1.00  0.00     0.074 A 
ATOM     22  C   UNL     1       9.336  19.988  -2.127  1.00  0.00     0.031 C 
ATOM     23  C   UNL     1       3.230  19.844   1.086  1.00  0.00     0.029 A 
ATOM     24  C   UNL     1       3.356  20.819   0.009  1.00  0.00     0.049 A 
ATOM     25  H   UNL     1       4.989  21.117  -1.251  1.00  0.00     0.167 HD
ATOM     26  C   UNL     1       8.575  21.783  -3.661  1.00  0.00     0.034 A 
ATOM     27  C   UNL     1       2.405  21.703  -0.349  1.00  0.00     0.034 A 
ATOM     28  C   UNL     1       7.579  22.675  -4.197  1.00  0.00     0.049 A 
ATOM     29  C   UNL     1       2.672  22.631  -1.497  1.00  0.00     0.074 A 
ATOM     30  C   UNL     1       7.690  23.544  -5.269  1.00  0.00     0.029 A 
ATOM     31  N   UNL     1       6.293  22.821  -3.698  1.00  0.00    -0.354 N 
ATOM     32  N   UNL     1       3.735  22.712  -2.260  1.00  0.00    -0.248 NA
ATOM     33  C   UNL     1       1.600  23.571  -1.853  1.00  0.00     0.031 C 
ATOM     34  C   UNL     1       6.475  24.224  -5.410  1.00  0.00     0.029 A 
ATOM     35  C   UNL     1       5.603  23.770  -4.434  1.00  0.00     0.049 A 
ATOM     36  H   UNL     1       5.925  22.323  -2.933  1.00  0.00     0.167 HD
ATOM     37  C   UNL     1       3.455  23.697  -3.198  1.00  0.00     0.074 A 
ATOM     38  C   UNL     1       2.109  24.161  -2.927  1.00  0.00     0.031 C 
ATOM     39  C   UNL     1       4.248  24.188  -4.181  1.00  0.00     0.034 A 
BRANCH  26  40
ATOM     40  C   UNL     1       9.938  21.785  -4.301  1.00  0.00     0.023 A 
ATOM     41  C   UNL     1      10.291  20.738  -5.177  1.00  0.00     0.012 A 
ATOM     42  C   UNL     1      10.835  22.854  -4.107  1.00  0.00     0.148 A 
ATOM     43  C   UNL     1      11.523  20.743  -5.831  1.00  0.00     0.002 A 
ATOM     44  C   UNL     1      12.046  22.870  -4.790  1.00  0.00     0.091 A 
ATOM     45  F   UNL     1      10.491  23.830  -3.254  1.00  0.00    -0.205 F 
ATOM     46  C   UNL     1      12.395  21.813  -5.646  1.00  0.00     0.022 A 
BRANCH  44  47
ATOM     47  S   UNL     1      13.205  24.239  -4.672  1.00  0.00     0.127 S 
ATOM     48  O   UNL     1      14.255  23.664  -3.833  1.00  0.00    -0.237 OA
ATOM     49  O   UNL     1      13.587  24.444  -6.070  1.00  0.00    -0.237 OA
ATOM     50  O   UNL     1      12.460  25.341  -4.081  1.00  0.00    -0.744 OA
ENDBRANCH  44  47
ENDBRANCH  26  40
BRANCH  27  51
ATOM     51  C   UNL     1       1.096  21.700   0.361  1.00  0.00     0.023 A 
ATOM     52  C   UNL     1      -0.054  21.241  -0.310  1.00  0.00     0.012 A 
ATOM     53  C   UNL     1       0.996  22.088   1.711  1.00  0.00     0.148 A 
ATOM     54  C   UNL     1      -1.284  21.186   0.347  1.00  0.00     0.002 A 
ATOM     55  C   UNL     1      -0.219  21.973   2.376  1.00  0.00     0.091 A 
ATOM     56  F   UNL     1       2.097  22.541   2.327  1.00  0.00    -0.205 F 
ATOM     57  C   UNL     1      -1.364  21.537   1.692  1.00  0.00     0.022 A 
BRANCH  55  58
ATOM     58  S   UNL     1      -0.364  22.261   4.143  1.00  0.00     0.127 S 
ATOM     59  O   UNL     1      -0.964  23.591   4.182  1.00  0.00    -0.237 OA
ATOM     60  O   UNL     1      -1.250  21.172   4.560  1.00  0.00    -0.237 OA
ATOM     61  O   UNL     1       0.993  22.153   4.662  1.00  0.00    -0.744 OA
ENDBRANCH  55  58
ENDBRANCH  27  51
BRANCH  39  62
ATOM     62  C   UNL     1       3.678  25.280  -5.046  1.00  0.00     0.023 A 
ATOM     63  C   UNL     1       3.552  26.583  -4.525  1.00  0.00     0.012 A 
ATOM     64  C   UNL     1       3.324  25.032  -6.386  1.00  0.00     0.148 A 
ATOM     65  C   UNL     1       3.053  27.617  -5.316  1.00  0.00     0.002 A 
ATOM     66  C   UNL     1       2.868  26.077  -7.181  1.00  0.00     0.091 A 
ATOM     67  F   UNL     1       3.429  23.780  -6.856  1.00  0.00    -0.205 F 
ATOM     68  C   UNL     1       2.723  27.367  -6.646  1.00  0.00     0.022 A 
BRANCH  66  69
ATOM     69  S   UNL     1       2.503  25.859  -8.927  1.00  0.00     0.127 S 
ATOM     70  O   UNL     1       1.042  25.812  -8.922  1.00  0.00    -0.237 OA
ATOM     71  O   UNL     1       3.072  27.070  -9.520  1.00  0.00    -0.237 OA
ATOM     72  O   UNL     1       3.171  24.626  -9.320  1.00  0.00    -0.744 OA
ENDBRANCH  66  69
ENDBRANCH  39  62
ENDBRANCH  13  14
ENDBRANCH   6   8
ENDBRANCH   3   4
ENDBRANCH   2   3
ENDBRANCH   1   2
BRANCH   1  73
ATOM     73  C   UNL     1       8.384  10.068   1.671  1.00  0.00     0.002 C 
BRANCH  73  74
ATOM     74  C   UNL     1       7.738   9.801   0.306  1.00  0.00     0.021 C 
BRANCH  74  75
ATOM     75  C   UNL     1       8.669   9.232  -0.761  1.00  0.00     0.116 C 
BRANCH  75  76
ATOM     76  N   UNL     1       9.213   7.944  -0.384  1.00  0.00    -0.354 N 
ATOM     77  C   UNL     1       9.460   6.836  -1.143  1.00  0.00     0.245 C 
ATOM     78  H   UNL     1       9.440   7.852   0.570  1.00  0.00     0.163 HD
ATOM     79  O   UNL     1       9.892   5.844  -0.551  1.00  0.00    -0.273 OA
BRANCH  77  80
ATOM     80  C   UNL     1       9.154   6.847  -2.663  1.00  0.00     0.200 C 
ATOM     81  C   UNL     1      10.063   7.830  -3.423  1.00  0.00     0.195 C 
ATOM     82  N   UNL     1       9.288   5.491  -3.261  1.00  0.00    -0.322 N 
ATOM     83  O   UNL     1      11.422   7.377  -3.499  1.00  0.00    -0.377 OA
ATOM     84  C   UNL     1      10.675   5.046  -3.447  1.00  0.00     0.149 C 
ATOM     85  C   UNL     1      11.505   6.110  -4.165  1.00  0.00     0.181 C 
BRANCH  82  86
ATOM     86  C   UNL     1       8.276   4.553  -3.416  1.00  0.00     0.256 C 
ATOM     87  O   UNL     1       8.484   3.370  -3.677  1.00  0.00    -0.269 OA
BRANCH  86  88
ATOM     88  C   UNL     1       6.865   4.961  -3.315  1.00  0.00     0.058 A 
ATOM     89  C   UNL     1       6.323   5.986  -4.091  1.00  0.00     0.018 A 
ATOM     90  C   UNL     1       6.008   4.216  -2.519  1.00  0.00     0.126 A 
ATOM     91  C   UNL     1       4.959   6.264  -3.992  1.00  0.00     0.037 A 
ATOM     92  N   UNL     1       4.680   4.466  -2.404  1.00  0.00    -0.249 NA
ATOM     93  C   UNL     1       4.184   5.485  -3.141  1.00  0.00     0.106 A 
ATOM     94  Br  UNL     1       2.328   5.846  -3.007  1.00  0.00    -0.029 Br
ENDBRANCH  86  88
ENDBRANCH  82  86
ENDBRANCH  77  80
ENDBRANCH  75  76
ENDBRANCH  74  75
ENDBRANCH  73  74
ENDBRANCH   1  73
TORSDOF 18
