REMARK SMILES Cc1nn(C)c(=O)c(C(=O)N[C@H]2C=C[C@H](C(=O)NCCCCCCNC(=O)c3ccc(-c4c5nc(c(-c6cccc(S(=O)(=O)[O-])c6F)c6ccc([nH]6)c(-c6cccc(S(=O)(=O)[O-])c6F)c6nc(c(-c7cccc(S(=O)(=O)[O-])c7F)c7ccc4[nH]7)C=C6)C=C5)cc3)C2)c1C
REMARK SMILES IDX 22 1 21 2 20 3 19 4 18 5 16 6 17 7 15 9 12 10 13 11 91 12
REMARK SMILES IDX 14 13 11 14 9 15 10 16 8 18 1 19 2 20 3 21 92 22 4 23 93 24
REMARK SMILES IDX 5 25 6 26 7 27 23 28 24 29 25 30 26 31 27 33 28 34 29 35
REMARK SMILES IDX 90 36 30 37 89 38 31 39 32 40 33 41 83 42 34 43 88 44 82 45
REMARK SMILES IDX 84 46 35 47 87 48 81 49 80 50 36 52 68 53 48 54 67 55 49 56
REMARK SMILES IDX 52 57 66 58 85 59 50 60 51 61 65 63 86 64 53 65 37 66 38 67
REMARK SMILES IDX 46 68 39 69 41 70 47 71 40 72 42 73 43 74 44 75 45 76 69 77
REMARK SMILES IDX 70 78 78 79 71 80 73 81 79 82 72 83 74 84 75 85 76 86 77 87
REMARK SMILES IDX 54 88 55 89 63 90 56 91 58 92 64 93 57 94 59 95 60 96 61 97
REMARK SMILES IDX 62 98
REMARK H PARENT 18 8 11 17 25 32 84 51 52 62
REMARK Flexibility Score: inf
ROOT
ATOM      1  C   UNL     1       6.119   5.229  -1.135  1.00  0.00     0.002 C 
ENDROOT
BRANCH   1   2
ATOM      2  C   UNL     1       5.542   3.879  -0.697  1.00  0.00     0.002 C 
BRANCH   2   3
ATOM      3  C   UNL     1       5.085   3.795   0.763  1.00  0.00     0.021 C 
BRANCH   3   4
ATOM      4  C   UNL     1       4.055   4.836   1.189  1.00  0.00     0.116 C 
BRANCH   4   5
ATOM      5  N   UNL     1       2.780   4.668   0.515  1.00  0.00    -0.356 N 
ATOM      6  C   UNL     1       1.523   4.785   1.040  1.00  0.00     0.227 C 
ATOM      7  O   UNL     1       0.561   4.652   0.282  1.00  0.00    -0.274 OA
ATOM      8  H   UNL     1       2.827   4.441  -0.442  1.00  0.00     0.163 HD
BRANCH   6   9
ATOM      9  C   UNL     1       1.375   4.962   2.560  1.00  0.00     0.103 C 
ATOM     10  C   UNL     1      -0.264   3.341   3.217  1.00  0.00     0.106 C 
ATOM     11  C   UNL     1      -0.798   4.722   3.430  1.00  0.00    -0.006 C 
ATOM     12  C   UNL     1       1.243   3.573   3.212  1.00  0.00     0.047 C 
ATOM     13  C   UNL     1       0.087   5.621   2.979  1.00  0.00    -0.016 C 
BRANCH  10  14
ATOM     14  N   UNL     1      -0.784   2.413   4.176  1.00  0.00    -0.346 N 
ATOM     15  C   UNL     1      -1.001   1.066   4.121  1.00  0.00     0.257 C 
ATOM     16  O   UNL     1      -1.811   0.621   4.939  1.00  0.00    -0.269 OA
ATOM     17  H   UNL     1      -1.032   2.823   5.036  1.00  0.00     0.164 HD
BRANCH  15  18
ATOM     18  C   UNL     1      -0.278   0.122   3.195  1.00  0.00     0.111 A 
ATOM     19  C   UNL     1       1.297  -0.539  -0.164  1.00  0.00     0.069 C 
ATOM     20  C   UNL     1       0.628  -0.832   1.164  1.00  0.00     0.062 A 
ATOM     21  N   UNL     1       0.826  -2.015   1.642  1.00  0.00    -0.175 NA
ATOM     22  C   UNL     1      -0.165   0.229   1.854  1.00  0.00    -0.010 A 
ATOM     23  N   UNL     1       0.415  -2.237   2.921  1.00  0.00    -0.232 N 
ATOM     24  C   UNL     1      -0.854   1.181   0.932  1.00  0.00     0.047 C 
ATOM     25  C   UNL     1       0.519  -3.614   3.373  1.00  0.00     0.178 C 
ATOM     26  C   UNL     1       0.118  -1.208   3.811  1.00  0.00     0.279 A 
ATOM     27  O   UNL     1       0.114  -1.378   5.029  1.00  0.00    -0.267 OA
ENDBRANCH  15  18
ENDBRANCH  10  14
ENDBRANCH   6   9
ENDBRANCH   4   5
ENDBRANCH   3   4
ENDBRANCH   2   3
ENDBRANCH   1   2
BRANCH   1  28
ATOM     28  C   UNL     1       7.253   5.777  -0.267  1.00  0.00     0.021 C 
BRANCH  28  29
ATOM     29  C   UNL     1       8.450   4.848  -0.100  1.00  0.00     0.116 C 
BRANCH  29  30
ATOM     30  N   UNL     1       9.131   4.589  -1.358  1.00  0.00    -0.352 N 
ATOM     31  C   UNL     1      10.447   4.805  -1.698  1.00  0.00     0.251 C 
ATOM     32  H   UNL     1       8.570   4.204  -2.070  1.00  0.00     0.163 HD
ATOM     33  O   UNL     1      10.807   4.684  -2.861  1.00  0.00    -0.269 OA
BRANCH  31  34
ATOM     34  C   UNL     1      11.418   5.207  -0.655  1.00  0.00     0.039 A 
ATOM     35  C   UNL     1      12.287   6.269  -0.917  1.00  0.00     0.014 A 
ATOM     36  C   UNL     1      11.471   4.543   0.574  1.00  0.00     0.014 A 
ATOM     37  C   UNL     1      13.170   6.701   0.076  1.00  0.00     0.010 A 
ATOM     38  C   UNL     1      12.298   5.022   1.586  1.00  0.00     0.010 A 
ATOM     39  C   UNL     1      13.163   6.101   1.346  1.00  0.00    -0.014 A 
BRANCH  39  40
ATOM     40  C   UNL     1      14.056   6.590   2.429  1.00  0.00     0.031 A 
ATOM     41  C   UNL     1      15.127   5.693   2.991  1.00  0.00     0.074 A 
ATOM     42  C   UNL     1      13.866   7.819   2.948  1.00  0.00     0.049 A 
ATOM     43  N   UNL     1      15.983   5.938   3.948  1.00  0.00    -0.248 NA
ATOM     44  C   UNL     1      15.239   4.339   2.421  1.00  0.00     0.031 C 
ATOM     45  C   UNL     1      12.815   8.754   2.540  1.00  0.00     0.029 A 
ATOM     46  N   UNL     1      14.534   8.487   3.946  1.00  0.00    -0.354 N 
ATOM     47  C   UNL     1      16.713   4.768   4.115  1.00  0.00     0.074 A 
ATOM     48  C   UNL     1      16.179   3.799   3.184  1.00  0.00     0.031 C 
ATOM     49  C   UNL     1      12.913   9.874   3.274  1.00  0.00     0.029 A 
ATOM     50  C   UNL     1      14.011   9.729   4.226  1.00  0.00     0.049 A 
ATOM     51  H   UNL     1      15.313   8.113   4.416  1.00  0.00     0.167 HD
ATOM     52  C   UNL     1      17.755   4.532   4.945  1.00  0.00     0.034 A 
ATOM     53  C   UNL     1      14.369  10.646   5.148  1.00  0.00     0.034 A 
ATOM     54  C   UNL     1      18.317   5.515   5.830  1.00  0.00     0.049 A 
ATOM     55  C   UNL     1      15.554  10.369   6.035  1.00  0.00     0.074 A 
ATOM     56  C   UNL     1      19.436   5.397   6.637  1.00  0.00     0.029 A 
ATOM     57  N   UNL     1      17.807   6.786   6.035  1.00  0.00    -0.354 N 
ATOM     58  N   UNL     1      16.338   9.318   6.057  1.00  0.00    -0.248 NA
ATOM     59  C   UNL     1      15.929  11.413   7.000  1.00  0.00     0.031 C 
ATOM     60  C   UNL     1      19.580   6.584   7.357  1.00  0.00     0.029 A 
ATOM     61  C   UNL     1      18.574   7.456   6.972  1.00  0.00     0.049 A 
ATOM     62  H   UNL     1      17.016   7.157   5.582  1.00  0.00     0.167 HD
ATOM     63  C   UNL     1      17.309   9.584   7.016  1.00  0.00     0.074 A 
ATOM     64  C   UNL     1      17.035  10.908   7.532  1.00  0.00     0.031 C 
ATOM     65  C   UNL     1      18.324   8.793   7.443  1.00  0.00     0.034 A 
BRANCH  52  66
ATOM     66  C   UNL     1      18.414   3.178   4.902  1.00  0.00     0.023 A 
ATOM     67  C   UNL     1      19.223   2.836   3.800  1.00  0.00     0.012 A 
ATOM     68  C   UNL     1      18.340   2.306   6.006  1.00  0.00     0.148 A 
ATOM     69  C   UNL     1      19.939   1.640   3.791  1.00  0.00     0.002 A 
ATOM     70  C   UNL     1      19.094   1.139   6.010  1.00  0.00     0.091 A 
ATOM     71  F   UNL     1      17.550   2.645   7.035  1.00  0.00    -0.205 F 
ATOM     72  C   UNL     1      19.887   0.801   4.901  1.00  0.00     0.022 A 
BRANCH  70  73
ATOM     73  S   UNL     1      19.173   0.037   7.426  1.00  0.00     0.127 S 
ATOM     74  O   UNL     1      18.570  -1.181   6.885  1.00  0.00    -0.237 OA
ATOM     75  O   UNL     1      20.613  -0.050   7.665  1.00  0.00    -0.237 OA
ATOM     76  O   UNL     1      18.412   0.684   8.486  1.00  0.00    -0.744 OA
ENDBRANCH  70  73
ENDBRANCH  52  66
BRANCH  53  77
ATOM     77  C   UNL     1      13.627  11.938   5.239  1.00  0.00     0.023 A 
ATOM     78  C   UNL     1      14.267  13.135   4.864  1.00  0.00     0.012 A 
ATOM     79  C   UNL     1      12.282  11.982   5.654  1.00  0.00     0.148 A 
ATOM     80  C   UNL     1      13.591  14.355   4.929  1.00  0.00     0.002 A 
ATOM     81  C   UNL     1      11.595  13.190   5.656  1.00  0.00     0.091 A 
ATOM     82  F   UNL     1      11.693  10.835   6.022  1.00  0.00    -0.205 F 
ATOM     83  C   UNL     1      12.253  14.381   5.312  1.00  0.00     0.022 A 
BRANCH  81  84
ATOM     84  S   UNL     1       9.832  13.295   5.990  1.00  0.00     0.127 S 
ATOM     85  O   UNL     1       9.811  13.972   7.284  1.00  0.00    -0.237 OA
ATOM     86  O   UNL     1       9.360  14.102   4.863  1.00  0.00    -0.237 OA
ATOM     87  O   UNL     1       9.348  11.921   5.986  1.00  0.00    -0.744 OA
ENDBRANCH  81  84
ENDBRANCH  53  77
BRANCH  65  88
ATOM     88  C   UNL     1      19.236   9.323   8.520  1.00  0.00     0.023 A 
ATOM     89  C   UNL     1      18.764   9.427   9.842  1.00  0.00     0.012 A 
ATOM     90  C   UNL     1      20.593   9.591   8.246  1.00  0.00     0.148 A 
ATOM     91  C   UNL     1      19.621   9.808  10.874  1.00  0.00     0.002 A 
ATOM     92  C   UNL     1      21.454   9.918   9.287  1.00  0.00     0.091 A 
ATOM     93  F   UNL     1      21.020   9.499   6.979  1.00  0.00    -0.205 F 
ATOM     94  C   UNL     1      20.967  10.038  10.599  1.00  0.00     0.022 A 
BRANCH  92  95
ATOM     95  S   UNL     1      23.224  10.122   9.052  1.00  0.00     0.127 S 
ATOM     96  O   UNL     1      23.392  11.555   9.293  1.00  0.00    -0.237 OA
ATOM     97  O   UNL     1      23.776   9.259  10.097  1.00  0.00    -0.237 OA
ATOM     98  O   UNL     1      23.504   9.684   7.691  1.00  0.00    -0.744 OA
ENDBRANCH  92  95
ENDBRANCH  65  88
ENDBRANCH  39  40
ENDBRANCH  31  34
ENDBRANCH  29  30
ENDBRANCH  28  29
ENDBRANCH   1  28
TORSDOF 18
