REMARK SMILES Cc1nn(CC(=O)NCCCCCCNC(=O)c2ccc(-c3c4nc(c(-c5cccc(S(=O)(=O)[O-])c5F)c5ccc([nH]5)c(-c5cccc(S(=O)(=O)[O-])c5F)c5nc(c(-c6cccc(S(=O)(=O)[O-])c6F)c6ccc3[nH]6)C=C5)C=C4)cc2)c(C)c1NS(=O)(=O)c1cccc2cccnc12
REMARK SMILES IDX 11 1 10 2 9 3 8 4 6 5 7 6 5 8 4 9 1 10 2 11 3 12 83 13 81 14
REMARK SMILES IDX 82 15 84 16 85 18 86 19 87 20 88 21 89 22 97 23 90 24 92 25
REMARK SMILES IDX 96 26 91 27 93 28 95 29 94 30 12 31 13 32 14 33 15 34 16 35
REMARK SMILES IDX 17 37 18 38 19 39 80 40 20 41 79 42 21 43 22 44 23 45 73 46
REMARK SMILES IDX 24 47 78 48 72 49 74 50 25 51 77 52 71 53 70 54 26 56 58 57
REMARK SMILES IDX 38 58 57 59 39 60 42 61 56 62 75 63 40 64 41 65 55 67 76 68
REMARK SMILES IDX 43 69 27 70 28 71 36 72 29 73 31 74 37 75 30 76 32 77 33 78
REMARK SMILES IDX 34 79 35 80 59 81 60 82 68 83 61 84 63 85 69 86 62 87 64 88
REMARK SMILES IDX 65 89 66 90 67 91 44 92 45 93 53 94 46 95 48 96 54 97 47 98
REMARK SMILES IDX 49 99 50 100 51 101 52 102
REMARK H PARENT 8 7 84 17 15 36 74 55 42 66
REMARK Flexibility Score: inf
ROOT
ATOM      1  C   UNL     1       3.127  -3.883  -5.109  1.00  0.00     0.002 C 
ENDROOT
BRANCH   1   2
ATOM      2  C   UNL     1       2.196  -3.292  -4.047  1.00  0.00     0.021 C 
BRANCH   2   3
ATOM      3  C   UNL     1       1.499  -4.333  -3.183  1.00  0.00     0.116 C 
BRANCH   3   4
ATOM      4  N   UNL     1       2.397  -5.060  -2.293  1.00  0.00    -0.354 N 
ATOM      5  C   UNL     1       2.383  -5.307  -0.952  1.00  0.00     0.241 C 
ATOM      6  O   UNL     1       3.250  -6.110  -0.565  1.00  0.00    -0.273 OA
ATOM      7  H   UNL     1       3.172  -5.454  -2.755  1.00  0.00     0.163 HD
BRANCH   5   8
ATOM      8  C   UNL     1       1.320  -4.867   0.048  1.00  0.00     0.244 C 
BRANCH   8   9
ATOM      9  N   UNL     1       0.713  -3.581  -0.172  1.00  0.00    -0.258 N 
ATOM     10  C   UNL     1       1.056  -0.128  -0.621  1.00  0.00     0.071 C 
ATOM     11  C   UNL     1       0.653  -1.557  -0.693  1.00  0.00     0.084 A 
ATOM     12  N   UNL     1       1.464  -2.478  -0.144  1.00  0.00    -0.175 NA
ATOM     13  C   UNL     1      -0.564  -2.171  -1.151  1.00  0.00     0.093 A 
ATOM     14  C   UNL     1      -0.613  -3.272  -0.330  1.00  0.00     0.060 A 
ATOM     15  C   UNL     1      -1.738  -3.901   0.385  1.00  0.00     0.069 C 
BRANCH  13  16
ATOM     16  N   UNL     1      -1.580  -1.618  -1.921  1.00  0.00    -0.276 N 
ATOM     17  H   UNL     1      -1.803  -0.681  -1.714  1.00  0.00     0.180 HD
BRANCH  16  18
ATOM     18  S   UNL     1      -2.492  -2.323  -3.164  1.00  0.00     0.264 S 
ATOM     19  O   UNL     1      -3.691  -1.497  -3.099  1.00  0.00    -0.201 OA
ATOM     20  O   UNL     1      -1.708  -2.309  -4.382  1.00  0.00    -0.201 OA
BRANCH  18  21
ATOM     21  C   UNL     1      -3.156  -3.980  -2.997  1.00  0.00     0.114 A 
ATOM     22  C   UNL     1      -4.502  -4.080  -3.426  1.00  0.00     0.024 A 
ATOM     23  C   UNL     1      -2.503  -5.149  -2.579  1.00  0.00     0.091 A 
ATOM     24  C   UNL     1      -5.262  -5.218  -3.207  1.00  0.00     0.002 A 
ATOM     25  C   UNL     1      -3.347  -6.227  -2.179  1.00  0.00     0.002 A 
ATOM     26  N   UNL     1      -1.170  -5.373  -2.545  1.00  0.00    -0.255 NA
ATOM     27  C   UNL     1      -4.708  -6.248  -2.480  1.00  0.00     0.010 A 
ATOM     28  C   UNL     1      -2.818  -7.332  -1.499  1.00  0.00     0.012 A 
ATOM     29  C   UNL     1      -0.695  -6.560  -2.071  1.00  0.00     0.112 A 
ATOM     30  C   UNL     1      -1.456  -7.511  -1.441  1.00  0.00     0.021 A 
ENDBRANCH  18  21
ENDBRANCH  16  18
ENDBRANCH  13  16
ENDBRANCH   8   9
ENDBRANCH   5   8
ENDBRANCH   3   4
ENDBRANCH   2   3
ENDBRANCH   1   2
BRANCH   1  31
ATOM     31  C   UNL     1       2.491  -4.850  -6.122  1.00  0.00     0.002 C 
BRANCH  31  32
ATOM     32  C   UNL     1       1.296  -4.331  -6.935  1.00  0.00     0.021 C 
BRANCH  32  33
ATOM     33  C   UNL     1       1.585  -3.084  -7.758  1.00  0.00     0.116 C 
BRANCH  33  34
ATOM     34  N   UNL     1       2.641  -3.297  -8.752  1.00  0.00    -0.352 N 
ATOM     35  C   UNL     1       3.235  -2.374  -9.598  1.00  0.00     0.251 C 
ATOM     36  H   UNL     1       2.972  -4.221  -8.829  1.00  0.00     0.163 HD
ATOM     37  O   UNL     1       3.834  -2.730 -10.593  1.00  0.00    -0.269 OA
BRANCH  35  38
ATOM     38  C   UNL     1       3.139  -0.944  -9.249  1.00  0.00     0.039 A 
ATOM     39  C   UNL     1       2.931   0.038 -10.225  1.00  0.00     0.014 A 
ATOM     40  C   UNL     1       3.257  -0.602  -7.907  1.00  0.00     0.014 A 
ATOM     41  C   UNL     1       2.771   1.363  -9.822  1.00  0.00     0.010 A 
ATOM     42  C   UNL     1       2.932   0.660  -7.498  1.00  0.00     0.010 A 
ATOM     43  C   UNL     1       2.766   1.657  -8.453  1.00  0.00    -0.014 A 
BRANCH  43  44
ATOM     44  C   UNL     1       2.492   2.995  -7.949  1.00  0.00     0.031 A 
ATOM     45  C   UNL     1       1.102   3.465  -8.198  1.00  0.00     0.074 A 
ATOM     46  C   UNL     1       3.331   3.575  -7.061  1.00  0.00     0.049 A 
ATOM     47  N   UNL     1       0.710   4.447  -8.942  1.00  0.00    -0.248 NA
ATOM     48  C   UNL     1      -0.003   2.633  -7.689  1.00  0.00     0.031 C 
ATOM     49  C   UNL     1       4.546   2.988  -6.472  1.00  0.00     0.029 A 
ATOM     50  N   UNL     1       3.184   4.724  -6.350  1.00  0.00    -0.354 N 
ATOM     51  C   UNL     1      -0.675   4.507  -8.771  1.00  0.00     0.074 A 
ATOM     52  C   UNL     1      -1.060   3.232  -8.237  1.00  0.00     0.031 C 
ATOM     53  C   UNL     1       4.855   3.642  -5.332  1.00  0.00     0.029 A 
ATOM     54  C   UNL     1       3.972   4.784  -5.201  1.00  0.00     0.049 A 
ATOM     55  H   UNL     1       2.576   5.449  -6.622  1.00  0.00     0.167 HD
ATOM     56  C   UNL     1      -1.335   5.702  -8.776  1.00  0.00     0.034 A 
ATOM     57  C   UNL     1       3.857   5.669  -4.179  1.00  0.00     0.034 A 
ATOM     58  C   UNL     1      -0.485   6.748  -9.295  1.00  0.00     0.049 A 
ATOM     59  C   UNL     1       3.046   6.801  -4.670  1.00  0.00     0.074 A 
ATOM     60  C   UNL     1       0.196   6.976 -10.474  1.00  0.00     0.029 A 
ATOM     61  N   UNL     1       0.073   7.589  -8.363  1.00  0.00    -0.354 N 
ATOM     62  N   UNL     1       3.444   7.620  -5.601  1.00  0.00    -0.248 NA
ATOM     63  C   UNL     1       1.612   6.758  -4.439  1.00  0.00     0.031 C 
ATOM     64  C   UNL     1       1.415   7.601 -10.078  1.00  0.00     0.029 A 
ATOM     65  C   UNL     1       1.383   7.788  -8.694  1.00  0.00     0.049 A 
ATOM     66  H   UNL     1      -0.391   7.981  -7.588  1.00  0.00     0.167 HD
ATOM     67  C   UNL     1       2.313   7.824  -6.378  1.00  0.00     0.074 A 
ATOM     68  C   UNL     1       1.195   7.379  -5.546  1.00  0.00     0.031 C 
ATOM     69  C   UNL     1       2.423   8.036  -7.722  1.00  0.00     0.034 A 
BRANCH  56  70
ATOM     70  C   UNL     1      -2.549   6.054  -7.923  1.00  0.00     0.023 A 
ATOM     71  C   UNL     1      -3.069   7.363  -8.081  1.00  0.00     0.012 A 
ATOM     72  C   UNL     1      -3.012   5.329  -6.801  1.00  0.00     0.148 A 
ATOM     73  C   UNL     1      -3.901   7.953  -7.123  1.00  0.00     0.002 A 
ATOM     74  C   UNL     1      -3.890   5.897  -5.882  1.00  0.00     0.091 A 
ATOM     75  F   UNL     1      -2.531   4.117  -6.529  1.00  0.00    -0.205 F 
ATOM     76  C   UNL     1      -4.306   7.222  -6.017  1.00  0.00     0.022 A 
BRANCH  74  77
ATOM     77  S   UNL     1      -4.477   4.987  -4.444  1.00  0.00     0.127 S 
ATOM     78  O   UNL     1      -3.782   5.678  -3.361  1.00  0.00    -0.237 OA
ATOM     79  O   UNL     1      -5.918   5.227  -4.511  1.00  0.00    -0.237 OA
ATOM     80  O   UNL     1      -4.088   3.601  -4.666  1.00  0.00    -0.744 OA
ENDBRANCH  74  77
ENDBRANCH  56  70
BRANCH  57  81
ATOM     81  C   UNL     1       4.174   5.512  -2.743  1.00  0.00     0.023 A 
ATOM     82  C   UNL     1       4.421   6.645  -1.943  1.00  0.00     0.012 A 
ATOM     83  C   UNL     1       3.963   4.277  -2.096  1.00  0.00     0.148 A 
ATOM     84  C   UNL     1       4.431   6.555  -0.544  1.00  0.00     0.002 A 
ATOM     85  C   UNL     1       3.990   4.190  -0.708  1.00  0.00     0.091 A 
ATOM     86  F   UNL     1       3.630   3.212  -2.838  1.00  0.00    -0.205 F 
ATOM     87  C   UNL     1       4.211   5.328   0.074  1.00  0.00     0.022 A 
BRANCH  85  88
ATOM     88  S   UNL     1       3.718   2.632   0.137  1.00  0.00     0.127 S 
ATOM     89  O   UNL     1       4.749   2.656   1.173  1.00  0.00    -0.237 OA
ATOM     90  O   UNL     1       2.349   2.786   0.623  1.00  0.00    -0.237 OA
ATOM     91  O   UNL     1       3.920   1.612  -0.885  1.00  0.00    -0.744 OA
ENDBRANCH  85  88
ENDBRANCH  57  81
BRANCH  69  92
ATOM     92  C   UNL     1       3.793   8.322  -8.280  1.00  0.00     0.023 A 
ATOM     93  C   UNL     1       4.828   7.363  -8.293  1.00  0.00     0.012 A 
ATOM     94  C   UNL     1       3.972   9.527  -8.975  1.00  0.00     0.148 A 
ATOM     95  C   UNL     1       6.022   7.611  -8.976  1.00  0.00     0.002 A 
ATOM     96  C   UNL     1       5.138   9.749  -9.693  1.00  0.00     0.091 A 
ATOM     97  F   UNL     1       2.976  10.426  -8.948  1.00  0.00    -0.205 F 
ATOM     98  C   UNL     1       6.171   8.797  -9.690  1.00  0.00     0.022 A 
BRANCH  96  99
ATOM     99  S   UNL     1       5.326  11.194 -10.738  1.00  0.00     0.127 S 
ATOM    100  O   UNL     1       6.250  12.015  -9.960  1.00  0.00    -0.237 OA
ATOM    101  O   UNL     1       5.893  10.625 -11.962  1.00  0.00    -0.237 OA
ATOM    102  O   UNL     1       3.986  11.743 -10.906  1.00  0.00    -0.744 OA
ENDBRANCH  96  99
ENDBRANCH  69  92
ENDBRANCH  43  44
ENDBRANCH  35  38
ENDBRANCH  33  34
ENDBRANCH  32  33
ENDBRANCH  31  32
ENDBRANCH   1  31
TORSDOF 20
