REMARK SMILES Cn1ncc(SCC(=O)NCCCCCCNC(=O)c2ccc(-c3c4nc(c(-c5cccc(S(=O)(=O)[O-])c5F)c5ccc([nH]5)c(-c5cccc(S(=O)(=O)[O-])c5F)c5nc(c(-c6cccc(S(=O)(=O)[O-])c6F)c6ccc3[nH]6)C=C5)C=C4)cc2)c(Cl)c1=O
REMARK SMILES IDX 14 1 13 2 12 3 11 4 10 5 8 6 9 7 7 9 6 10 5 11 1 12 2 13
REMARK SMILES IDX 3 14 85 15 4 16 83 17 86 18 84 19 15 20 16 21 17 22 18 23
REMARK SMILES IDX 19 25 20 26 21 27 82 28 22 29 81 30 23 31 24 32 25 33 75 34
REMARK SMILES IDX 26 35 80 36 74 37 76 38 27 39 79 40 73 41 72 42 28 44 60 45
REMARK SMILES IDX 40 46 59 47 41 48 44 49 58 50 77 51 42 52 43 53 57 55 78 56
REMARK SMILES IDX 45 57 29 58 30 59 38 60 31 61 33 62 39 63 32 64 34 65 35 66
REMARK SMILES IDX 36 67 37 68 61 69 62 70 70 71 63 72 65 73 71 74 64 75 66 76
REMARK SMILES IDX 67 77 68 78 69 79 46 80 47 81 55 82 48 83 50 84 56 85 49 86
REMARK SMILES IDX 51 87 52 88 53 89 54 90
REMARK H PARENT 10 8 17 24 76 43 44 54
REMARK Flexibility Score: inf
ROOT
ATOM      1  C   UNL     1       4.498  -2.757   8.057  1.00  0.00     0.002 C 
ENDROOT
BRANCH   1   2
ATOM      2  C   UNL     1       4.033  -2.529   6.615  1.00  0.00     0.002 C 
BRANCH   2   3
ATOM      3  C   UNL     1       2.883  -3.432   6.143  1.00  0.00     0.021 C 
BRANCH   3   4
ATOM      4  C   UNL     1       1.623  -3.357   7.007  1.00  0.00     0.116 C 
BRANCH   4   5
ATOM      5  N   UNL     1       1.087  -2.009   7.001  1.00  0.00    -0.355 N 
ATOM      6  C   UNL     1      -0.093  -1.536   6.520  1.00  0.00     0.230 C 
ATOM      7  O   UNL     1      -0.260  -0.315   6.522  1.00  0.00    -0.274 OA
ATOM      8  H   UNL     1       1.670  -1.329   7.411  1.00  0.00     0.163 HD
BRANCH   6   9
ATOM      9  C   UNL     1      -1.185  -2.481   6.072  1.00  0.00     0.175 C 
BRANCH   9  10
ATOM     10  S   UNL     1      -0.924  -3.288   4.480  1.00  0.00    -0.113 SA
BRANCH  10  11
ATOM     11  C   UNL     1      -0.355  -2.103   3.362  1.00  0.00     0.052 A 
ATOM     12  C   UNL     1       1.274  -0.077  -0.003  1.00  0.00     0.178 C 
ATOM     13  N   UNL     1       0.731  -0.719   1.183  1.00  0.00    -0.232 N 
ATOM     14  N   UNL     1       1.180  -1.990   1.416  1.00  0.00    -0.177 NA
ATOM     15  C   UNL     1      -0.201  -0.062   1.981  1.00  0.00     0.286 A 
ATOM     16  C   UNL     1       0.682  -2.610   2.434  1.00  0.00     0.150 A 
ATOM     17  C   UNL     1      -0.804  -0.872   3.091  1.00  0.00     0.123 A 
ATOM     18  O   UNL     1      -0.549   1.102   1.782  1.00  0.00    -0.266 OA
ATOM     19  Cl  UNL     1      -2.157  -0.137   3.884  1.00  0.00    -0.077 Cl
ENDBRANCH  10  11
ENDBRANCH   9  10
ENDBRANCH   6   9
ENDBRANCH   4   5
ENDBRANCH   3   4
ENDBRANCH   2   3
ENDBRANCH   1   2
BRANCH   1  20
ATOM     20  C   UNL     1       4.897  -4.197   8.389  1.00  0.00     0.021 C 
BRANCH  20  21
ATOM     21  C   UNL     1       6.001  -4.768   7.505  1.00  0.00     0.116 C 
BRANCH  21  22
ATOM     22  N   UNL     1       7.263  -4.070   7.695  1.00  0.00    -0.352 N 
ATOM     23  C   UNL     1       8.474  -4.585   8.085  1.00  0.00     0.251 C 
ATOM     24  H   UNL     1       7.246  -3.101   7.522  1.00  0.00     0.163 HD
ATOM     25  O   UNL     1       9.397  -3.837   8.393  1.00  0.00    -0.269 OA
BRANCH  23  26
ATOM     26  C   UNL     1       8.652  -6.050   8.143  1.00  0.00     0.039 A 
ATOM     27  C   UNL     1       9.180  -6.624   9.302  1.00  0.00     0.014 A 
ATOM     28  C   UNL     1       8.297  -6.849   7.051  1.00  0.00     0.014 A 
ATOM     29  C   UNL     1       9.314  -8.011   9.382  1.00  0.00     0.010 A 
ATOM     30  C   UNL     1       8.384  -8.235   7.153  1.00  0.00     0.010 A 
ATOM     31  C   UNL     1       8.905  -8.825   8.313  1.00  0.00    -0.014 A 
BRANCH  31  32
ATOM     32  C   UNL     1       9.053 -10.298   8.379  1.00  0.00     0.031 A 
ATOM     33  C   UNL     1      10.071 -10.984   7.512  1.00  0.00     0.074 A 
ATOM     34  C   UNL     1       8.243 -11.021   9.175  1.00  0.00     0.049 A 
ATOM     35  N   UNL     1      10.337 -12.260   7.412  1.00  0.00    -0.248 NA
ATOM     36  C   UNL     1      10.886 -10.129   6.632  1.00  0.00     0.031 C 
ATOM     37  C   UNL     1       7.181 -10.473  10.022  1.00  0.00     0.029 A 
ATOM     38  N   UNL     1       8.176 -12.374   9.389  1.00  0.00    -0.354 N 
ATOM     39  C   UNL     1      11.332 -12.363   6.449  1.00  0.00     0.074 A 
ATOM     40  C   UNL     1      11.605 -11.026   5.972  1.00  0.00     0.031 C 
ATOM     41  C   UNL     1       6.572 -11.482  10.666  1.00  0.00     0.029 A 
ATOM     42  C   UNL     1       7.187 -12.746  10.269  1.00  0.00     0.049 A 
ATOM     43  H   UNL     1       8.779 -13.019   8.953  1.00  0.00     0.167 HD
ATOM     44  C   UNL     1      11.986 -13.469   6.026  1.00  0.00     0.034 A 
ATOM     45  C   UNL     1       6.821 -13.966  10.708  1.00  0.00     0.034 A 
ATOM     46  C   UNL     1      11.750 -14.791   6.534  1.00  0.00     0.049 A 
ATOM     47  C   UNL     1       7.575 -15.178  10.236  1.00  0.00     0.074 A 
ATOM     48  C   UNL     1      12.418 -15.961   6.218  1.00  0.00     0.029 A 
ATOM     49  N   UNL     1      10.774 -15.120   7.459  1.00  0.00    -0.354 N 
ATOM     50  N   UNL     1       8.600 -15.241   9.421  1.00  0.00    -0.248 NA
ATOM     51  C   UNL     1       7.145 -16.482  10.762  1.00  0.00     0.031 C 
ATOM     52  C   UNL     1      11.839 -17.002   6.950  1.00  0.00     0.029 A 
ATOM     53  C   UNL     1      10.816 -16.477   7.724  1.00  0.00     0.049 A 
ATOM     54  H   UNL     1      10.145 -14.483   7.868  1.00  0.00     0.167 HD
ATOM     55  C   UNL     1       8.950 -16.584   9.352  1.00  0.00     0.074 A 
ATOM     56  C   UNL     1       8.038 -17.300  10.219  1.00  0.00     0.031 C 
ATOM     57  C   UNL     1       9.931 -17.169   8.623  1.00  0.00     0.034 A 
BRANCH  44  58
ATOM     58  C   UNL     1      13.077 -13.291   5.010  1.00  0.00     0.023 A 
ATOM     59  C   UNL     1      14.333 -12.813   5.433  1.00  0.00     0.012 A 
ATOM     60  C   UNL     1      12.893 -13.674   3.668  1.00  0.00     0.148 A 
ATOM     61  C   UNL     1      15.390 -12.708   4.532  1.00  0.00     0.002 A 
ATOM     62  C   UNL     1      13.960 -13.594   2.782  1.00  0.00     0.091 A 
ATOM     63  F   UNL     1      11.683 -14.110   3.289  1.00  0.00    -0.205 F 
ATOM     64  C   UNL     1      15.207 -13.108   3.211  1.00  0.00     0.022 A 
BRANCH  62  65
ATOM     65  S   UNL     1      13.848 -14.129   1.071  1.00  0.00     0.127 S 
ATOM     66  O   UNL     1      14.054 -12.870   0.355  1.00  0.00    -0.237 OA
ATOM     67  O   UNL     1      14.959 -15.075   0.974  1.00  0.00    -0.237 OA
ATOM     68  O   UNL     1      12.525 -14.717   0.917  1.00  0.00    -0.744 OA
ENDBRANCH  62  65
ENDBRANCH  44  58
BRANCH  45  69
ATOM     69  C   UNL     1       5.731 -14.083  11.713  1.00  0.00     0.023 A 
ATOM     70  C   UNL     1       6.064 -14.336  13.058  1.00  0.00     0.012 A 
ATOM     71  C   UNL     1       4.383 -13.881  11.360  1.00  0.00     0.148 A 
ATOM     72  C   UNL     1       5.070 -14.397  14.035  1.00  0.00     0.002 A 
ATOM     73  C   UNL     1       3.401 -13.905  12.344  1.00  0.00     0.091 A 
ATOM     74  F   UNL     1       4.095 -13.643  10.073  1.00  0.00    -0.205 F 
ATOM     75  C   UNL     1       3.742 -14.173  13.680  1.00  0.00     0.022 A 
BRANCH  73  76
ATOM     76  S   UNL     1       1.677 -13.531  12.007  1.00  0.00     0.127 S 
ATOM     77  O   UNL     1       1.024 -14.791  12.351  1.00  0.00    -0.237 OA
ATOM     78  O   UNL     1       1.425 -12.431  12.938  1.00  0.00    -0.237 OA
ATOM     79  O   UNL     1       1.618 -13.160  10.600  1.00  0.00    -0.744 OA
ENDBRANCH  73  76
ENDBRANCH  45  69
BRANCH  57  80
ATOM     80  C   UNL     1      10.089 -18.661   8.717  1.00  0.00     0.023 A 
ATOM     81  C   UNL     1       9.216 -19.492   7.989  1.00  0.00     0.012 A 
ATOM     82  C   UNL     1      11.175 -19.229   9.411  1.00  0.00     0.148 A 
ATOM     83  C   UNL     1       9.418 -20.870   7.955  1.00  0.00     0.002 A 
ATOM     84  C   UNL     1      11.390 -20.601   9.345  1.00  0.00     0.091 A 
ATOM     85  F   UNL     1      11.986 -18.416  10.103  1.00  0.00    -0.205 F 
ATOM     86  C   UNL     1      10.510 -21.422   8.620  1.00  0.00     0.022 A 
BRANCH  84  87
ATOM     87  S   UNL     1      12.811 -21.397  10.103  1.00  0.00     0.127 S 
ATOM     88  O   UNL     1      12.181 -22.183  11.162  1.00  0.00    -0.237 OA
ATOM     89  O   UNL     1      13.351 -22.185   8.995  1.00  0.00    -0.237 OA
ATOM     90  O   UNL     1      13.680 -20.321  10.562  1.00  0.00    -0.744 OA
ENDBRANCH  84  87
ENDBRANCH  57  80
ENDBRANCH  31  32
ENDBRANCH  23  26
ENDBRANCH  21  22
ENDBRANCH  20  21
ENDBRANCH   1  20
TORSDOF 18
