REMARK SMILES Cc1c(/C=C/C(=O)NCCCCCCNC(=O)c2ccc(-c3c4nc(c(-c5cccc(S(=O)(=O)[O-])c5F)c5ccc([nH]5)c(-c5cccc(S(=O)(=O)[O-])c5F)c5nc(c(-c6cccc(S(=O)(=O)[O-])c6F)c6ccc3[nH]6)C=C5)C=C4)cc2)cccc1C(=O)N1C[C@@H](C)[C@@H](C)C1
REMARK SMILES IDX 11 1 10 2 9 3 8 4 6 5 7 6 5 8 4 9 3 10 1 11 2 12 84 13 81 14
REMARK SMILES IDX 83 15 82 16 85 17 86 18 87 19 88 20 93 21 89 22 91 23 90 24
REMARK SMILES IDX 92 25 12 26 13 27 14 28 15 29 16 30 17 32 18 33 19 34 80 35
REMARK SMILES IDX 20 36 79 37 21 38 22 39 23 40 73 41 24 42 78 43 72 44 74 45
REMARK SMILES IDX 25 46 77 47 71 48 70 49 26 51 58 52 38 53 57 54 39 55 42 56
REMARK SMILES IDX 56 57 75 58 40 59 41 60 55 62 76 63 43 64 27 65 28 66 36 67
REMARK SMILES IDX 29 68 31 69 37 70 30 71 32 72 33 73 34 74 35 75 59 76 60 77
REMARK SMILES IDX 68 78 61 79 63 80 69 81 62 82 64 83 65 84 66 85 67 86 44 87
REMARK SMILES IDX 45 88 53 89 46 90 48 91 54 92 47 93 49 94 50 95 51 96 52 97
REMARK H PARENT 8 7 15 31 74 50 42 61
REMARK Flexibility Score: inf
ROOT
ATOM      1  C   UNL     1       5.056  -5.286   1.020  1.00  0.00     0.002 C 
ENDROOT
BRANCH   1   2
ATOM      2  C   UNL     1       4.043  -4.138   0.914  1.00  0.00     0.021 C 
BRANCH   2   3
ATOM      3  C   UNL     1       3.103  -4.239  -0.286  1.00  0.00     0.116 C 
BRANCH   3   4
ATOM      4  N   UNL     1       2.024  -5.181  -0.045  1.00  0.00    -0.353 N 
ATOM      5  C   UNL     1       0.677  -4.981  -0.076  1.00  0.00     0.243 C 
ATOM      6  O   UNL     1      -0.100  -5.928  -0.012  1.00  0.00    -0.270 OA
ATOM      7  H   UNL     1       2.308  -6.098   0.173  1.00  0.00     0.163 HD
BRANCH   5   8
ATOM      8  C   UNL     1       0.159  -3.614  -0.297  1.00  0.00     0.072 C 
ATOM      9  C   UNL     1       0.496  -2.587   0.498  1.00  0.00     0.014 C 
BRANCH   9  10
ATOM     10  C   UNL     1       0.068  -1.196   0.252  1.00  0.00    -0.022 A 
ATOM     11  C   UNL     1       2.419  -0.357   0.689  1.00  0.00     0.046 C 
ATOM     12  C   UNL     1       0.975  -0.098   0.333  1.00  0.00    -0.031 A 
ATOM     13  C   UNL     1       0.486   1.208   0.065  1.00  0.00     0.043 A 
ATOM     14  C   UNL     1      -1.293  -0.968  -0.014  1.00  0.00     0.008 A 
ATOM     15  C   UNL     1      -0.884   1.387  -0.221  1.00  0.00     0.014 A 
ATOM     16  C   UNL     1      -1.768   0.314  -0.252  1.00  0.00     0.001 A 
BRANCH  13  17
ATOM     17  C   UNL     1       1.240   2.491   0.266  1.00  0.00     0.254 C 
ATOM     18  O   UNL     1       0.615   3.465   0.690  1.00  0.00    -0.269 OA
BRANCH  17  19
ATOM     19  N   UNL     1       2.604   2.552   0.056  1.00  0.00    -0.338 N 
ATOM     20  C   UNL     1       3.419   3.385   0.924  1.00  0.00     0.123 C 
ATOM     21  C   UNL     1       3.259   2.312  -1.220  1.00  0.00     0.123 C 
ATOM     22  C   UNL     1       4.582   3.862   0.063  1.00  0.00     0.010 C 
ATOM     23  C   UNL     1       4.714   2.770  -1.020  1.00  0.00     0.010 C 
ATOM     24  C   UNL     1       5.820   4.150   0.901  1.00  0.00     0.010 C 
ATOM     25  C   UNL     1       5.630   1.605  -0.652  1.00  0.00     0.010 C 
ENDBRANCH  17  19
ENDBRANCH  13  17
ENDBRANCH   9  10
ENDBRANCH   5   8
ENDBRANCH   3   4
ENDBRANCH   2   3
ENDBRANCH   1   2
BRANCH   1  26
ATOM     26  C   UNL     1       5.931  -5.532  -0.220  1.00  0.00     0.002 C 
BRANCH  26  27
ATOM     27  C   UNL     1       6.495  -4.284  -0.901  1.00  0.00     0.021 C 
BRANCH  27  28
ATOM     28  C   UNL     1       7.515  -3.523  -0.066  1.00  0.00     0.116 C 
BRANCH  28  29
ATOM     29  N   UNL     1       8.878  -3.789  -0.491  1.00  0.00    -0.352 N 
ATOM     30  C   UNL     1      10.047  -3.134  -0.165  1.00  0.00     0.251 C 
ATOM     31  H   UNL     1       8.984  -4.552  -1.104  1.00  0.00     0.163 HD
ATOM     32  O   UNL     1      11.035  -3.288  -0.883  1.00  0.00    -0.269 OA
BRANCH  30  33
ATOM     33  C   UNL     1      10.151  -2.425   1.132  1.00  0.00     0.039 A 
ATOM     34  C   UNL     1      11.243  -2.774   1.941  1.00  0.00     0.014 A 
ATOM     35  C   UNL     1       9.077  -1.724   1.668  1.00  0.00     0.014 A 
ATOM     36  C   UNL     1      11.127  -2.699   3.323  1.00  0.00     0.010 A 
ATOM     37  C   UNL     1       8.927  -1.711   3.036  1.00  0.00     0.010 A 
ATOM     38  C   UNL     1       9.911  -2.288   3.849  1.00  0.00    -0.014 A 
BRANCH  38  39
ATOM     39  C   UNL     1       9.506  -2.472   5.228  1.00  0.00     0.031 A 
ATOM     40  C   UNL     1       9.660  -1.371   6.188  1.00  0.00     0.074 A 
ATOM     41  C   UNL     1       8.718  -3.538   5.495  1.00  0.00     0.049 A 
ATOM     42  N   UNL     1       9.410  -1.470   7.447  1.00  0.00    -0.248 NA
ATOM     43  C   UNL     1      10.173  -0.063   5.795  1.00  0.00     0.031 C 
ATOM     44  C   UNL     1       7.736  -3.666   6.561  1.00  0.00     0.029 A 
ATOM     45  N   UNL     1       8.793  -4.821   4.939  1.00  0.00    -0.354 N 
ATOM     46  C   UNL     1       9.392  -0.189   7.950  1.00  0.00     0.074 A 
ATOM     47  C   UNL     1      10.036   0.611   6.940  1.00  0.00     0.031 C 
ATOM     48  C   UNL     1       7.488  -4.968   6.764  1.00  0.00     0.029 A 
ATOM     49  C   UNL     1       8.457  -5.710   5.976  1.00  0.00     0.049 A 
ATOM     50  H   UNL     1       9.032  -5.054   4.012  1.00  0.00     0.167 HD
ATOM     51  C   UNL     1       8.664   0.051   9.076  1.00  0.00     0.034 A 
ATOM     52  C   UNL     1       9.312  -6.652   6.473  1.00  0.00     0.034 A 
ATOM     53  C   UNL     1       8.276  -1.218   9.718  1.00  0.00     0.049 A 
ATOM     54  C   UNL     1       9.602  -6.472   7.955  1.00  0.00     0.074 A 
ATOM     55  C   UNL     1       7.090  -1.930   9.789  1.00  0.00     0.029 A 
ATOM     56  N   UNL     1       9.272  -2.076  10.176  1.00  0.00    -0.354 N 
ATOM     57  N   UNL     1       9.182  -5.464   8.669  1.00  0.00    -0.248 NA
ATOM     58  C   UNL     1      10.410  -7.398   8.745  1.00  0.00     0.031 C 
ATOM     59  C   UNL     1       7.405  -3.265  10.173  1.00  0.00     0.029 A 
ATOM     60  C   UNL     1       8.772  -3.354  10.381  1.00  0.00     0.049 A 
ATOM     61  H   UNL     1      10.207  -1.812  10.335  1.00  0.00     0.167 HD
ATOM     62  C   UNL     1       9.753  -5.497   9.913  1.00  0.00     0.074 A 
ATOM     63  C   UNL     1      10.438  -6.779   9.939  1.00  0.00     0.031 C 
ATOM     64  C   UNL     1       9.672  -4.437  10.779  1.00  0.00     0.034 A 
BRANCH  51  65
ATOM     65  C   UNL     1       8.073   1.399   9.488  1.00  0.00     0.023 A 
ATOM     66  C   UNL     1       7.199   1.401  10.599  1.00  0.00     0.012 A 
ATOM     67  C   UNL     1       8.203   2.641   8.815  1.00  0.00     0.148 A 
ATOM     68  C   UNL     1       6.467   2.533  10.986  1.00  0.00     0.002 A 
ATOM     69  C   UNL     1       7.498   3.781   9.217  1.00  0.00     0.091 A 
ATOM     70  F   UNL     1       8.973   2.749   7.736  1.00  0.00    -0.205 F 
ATOM     71  C   UNL     1       6.615   3.725  10.294  1.00  0.00     0.022 A 
BRANCH  69  72
ATOM     72  S   UNL     1       7.654   5.367   8.367  1.00  0.00     0.127 S 
ATOM     73  O   UNL     1       6.301   5.570   7.849  1.00  0.00    -0.237 OA
ATOM     74  O   UNL     1       8.031   6.268   9.456  1.00  0.00    -0.237 OA
ATOM     75  O   UNL     1       8.677   5.194   7.343  1.00  0.00    -0.744 OA
ENDBRANCH  69  72
ENDBRANCH  51  65
BRANCH  52  76
ATOM     76  C   UNL     1      10.260  -7.193   5.455  1.00  0.00     0.023 A 
ATOM     77  C   UNL     1       9.697  -7.969   4.415  1.00  0.00     0.012 A 
ATOM     78  C   UNL     1      11.533  -6.626   5.268  1.00  0.00     0.148 A 
ATOM     79  C   UNL     1      10.323  -8.065   3.171  1.00  0.00     0.002 A 
ATOM     80  C   UNL     1      12.145  -6.713   4.018  1.00  0.00     0.091 A 
ATOM     81  F   UNL     1      12.075  -5.928   6.274  1.00  0.00    -0.205 F 
ATOM     82  C   UNL     1      11.527  -7.404   2.962  1.00  0.00     0.022 A 
BRANCH  80  83
ATOM     83  S   UNL     1      13.653  -5.812   3.631  1.00  0.00     0.127 S 
ATOM     84  O   UNL     1      14.655  -6.871   3.706  1.00  0.00    -0.237 OA
ATOM     85  O   UNL     1      13.380  -5.317   2.283  1.00  0.00    -0.237 OA
ATOM     86  O   UNL     1      13.742  -4.770   4.643  1.00  0.00    -0.744 OA
ENDBRANCH  80  83
ENDBRANCH  52  76
BRANCH  64  87
ATOM     87  C   UNL     1      10.464  -4.294  12.069  1.00  0.00     0.023 A 
ATOM     88  C   UNL     1      11.669  -4.985  12.301  1.00  0.00     0.012 A 
ATOM     89  C   UNL     1      10.096  -3.324  13.039  1.00  0.00     0.148 A 
ATOM     90  C   UNL     1      12.438  -4.774  13.452  1.00  0.00     0.002 A 
ATOM     91  C   UNL     1      10.925  -3.033  14.120  1.00  0.00     0.091 A 
ATOM     92  F   UNL     1       8.924  -2.680  12.930  1.00  0.00    -0.205 F 
ATOM     93  C   UNL     1      12.080  -3.779  14.351  1.00  0.00     0.022 A 
BRANCH  91  94
ATOM     94  S   UNL     1      10.622  -1.582  15.141  1.00  0.00     0.127 S 
ATOM     95  O   UNL     1       9.761  -2.119  16.191  1.00  0.00    -0.237 OA
ATOM     96  O   UNL     1      11.969  -1.218  15.585  1.00  0.00    -0.237 OA
ATOM     97  O   UNL     1      10.015  -0.615  14.236  1.00  0.00    -0.744 OA
ENDBRANCH  91  94
ENDBRANCH  64  87
ENDBRANCH  38  39
ENDBRANCH  30  33
ENDBRANCH  28  29
ENDBRANCH  27  28
ENDBRANCH  26  27
ENDBRANCH   1  26
TORSDOF 19
