REMARK SMILES CCCCCCOC(=O)Nc1cccc(-c2ccc([C@@H](C)C(=O)NCCCCCCNC(=O)c3ccc(-c4c5nc(c(-c6cccc(S(=O)(=O)[O-])c6F)c6ccc([nH]6)c(-c6cccc(S(=O)(=O)[O-])c6F)c6nc(c(-c7cccc(S(=O)(=O)[O-])c7F)c7ccc4[nH]7)C=C6)C=C5)cc3)cc2F)c1
REMARK SMILES IDX 22 1 23 2 24 3 20 5 21 6 19 7 16 8 17 9 98 10 18 11 97 12
REMARK SMILES IDX 99 13 15 14 11 15 12 16 100 17 13 18 14 19 10 20 8 21 9 22
REMARK SMILES IDX 7 24 6 25 5 26 4 27 3 28 2 29 1 30 25 31 26 32 27 33 28 34
REMARK SMILES IDX 29 35 30 36 31 37 32 38 33 40 34 41 35 42 96 43 36 44 95 45
REMARK SMILES IDX 37 46 38 47 39 48 89 49 40 50 94 51 88 52 90 53 41 54 93 55
REMARK SMILES IDX 87 56 86 57 42 59 74 60 54 61 73 62 55 63 58 64 72 65 91 66
REMARK SMILES IDX 56 67 57 68 71 70 92 71 59 72 43 73 44 74 52 75 45 76 47 77
REMARK SMILES IDX 53 78 46 79 48 80 49 81 50 82 51 83 75 84 76 85 84 86 77 87
REMARK SMILES IDX 79 88 85 89 78 90 80 91 81 92 82 93 83 94 60 95 61 96 69 97
REMARK SMILES IDX 62 98 64 99 70 100 63 101 65 102 66 103 67 104 68 105
REMARK H PARENT 24 4 10 23 31 39 90 58 58 69
REMARK Flexibility Score: inf
ROOT
ATOM      1  C   UNL     1      -7.172   1.182  -9.566  1.00  0.00     0.227 C 
ATOM      2  O   UNL     1      -7.062   2.350  -9.171  1.00  0.00    -0.274 OA
ATOM      3  N   UNL     1      -8.060   0.396  -8.899  1.00  0.00    -0.356 N 
ATOM      4  H   UNL     1      -8.584   0.869  -8.212  1.00  0.00     0.163 HD
ENDROOT
BRANCH   1   5
ATOM      5  C   UNL     1      -6.338   0.697 -10.762  1.00  0.00     0.105 C 
ATOM      6  C   UNL     1      -7.173   0.257 -11.964  1.00  0.00     0.023 C 
BRANCH   5   7
ATOM      7  C   UNL     1      -5.191  -0.221 -10.371  1.00  0.00    -0.033 A 
ATOM      8  C   UNL     1      -3.021  -1.854  -9.466  1.00  0.00     0.018 A 
ATOM      9  C   UNL     1      -4.237  -2.414  -9.882  1.00  0.00     0.012 A 
ATOM     10  C   UNL     1      -2.908  -0.458  -9.566  1.00  0.00     0.131 A 
ATOM     11  C   UNL     1      -5.289  -1.616 -10.353  1.00  0.00     0.005 A 
ATOM     12  C   UNL     1      -3.969   0.346  -9.986  1.00  0.00     0.044 A 
ATOM     13  F   UNL     1      -1.756   0.160  -9.255  1.00  0.00    -0.206 F 
BRANCH   8  14
ATOM     14  C   UNL     1      -1.930  -2.699  -8.935  1.00  0.00    -0.013 A 
ATOM     15  C   UNL     1      -0.062  -3.005  -7.377  1.00  0.00     0.045 A 
ATOM     16  C   UNL     1       0.241  -4.230  -7.962  1.00  0.00     0.026 A 
ATOM     17  C   UNL     1      -1.145  -2.259  -7.856  1.00  0.00     0.035 A 
ATOM     18  C   UNL     1      -0.561  -4.722  -8.990  1.00  0.00     0.003 A 
ATOM     19  C   UNL     1      -1.628  -3.959  -9.477  1.00  0.00     0.009 A 
BRANCH  15  20
ATOM     20  N   UNL     1       0.795  -2.498  -6.389  1.00  0.00    -0.291 N 
ATOM     21  C   UNL     1       0.499  -1.557  -5.439  1.00  0.00     0.411 C 
ATOM     22  O   UNL     1       1.370  -0.866  -4.932  1.00  0.00    -0.224 OA
ATOM     23  H   UNL     1       1.711  -2.858  -6.378  1.00  0.00     0.173 HD
BRANCH  21  24
ATOM     24  O   UNL     1      -0.805  -1.584  -5.059  1.00  0.00    -0.449 OA
BRANCH  24  25
ATOM     25  C   UNL     1      -1.216  -0.760  -3.959  1.00  0.00     0.235 C 
BRANCH  25  26
ATOM     26  C   UNL     1      -0.999  -1.450  -2.607  1.00  0.00     0.042 C 
BRANCH  26  27
ATOM     27  C   UNL     1       0.451  -1.499  -2.111  1.00  0.00     0.003 C 
BRANCH  27  28
ATOM     28  C   UNL     1       1.123  -0.131  -1.931  1.00  0.00    -0.000 C 
BRANCH  28  29
ATOM     29  C   UNL     1       0.575   0.709  -0.778  1.00  0.00    -0.003 C 
ATOM     30  C   UNL     1       0.931   0.138   0.584  1.00  0.00     0.004 C 
ENDBRANCH  28  29
ENDBRANCH  27  28
ENDBRANCH  26  27
ENDBRANCH  25  26
ENDBRANCH  24  25
ENDBRANCH  21  24
ENDBRANCH  15  20
ENDBRANCH   8  14
ENDBRANCH   5   7
ENDBRANCH   1   5
BRANCH   3  31
ATOM     31  C   UNL     1      -8.369  -1.014  -9.021  1.00  0.00     0.116 C 
BRANCH  31  32
ATOM     32  C   UNL     1      -7.708  -1.835  -7.911  1.00  0.00     0.021 C 
BRANCH  32  33
ATOM     33  C   UNL     1      -8.567  -1.975  -6.650  1.00  0.00     0.002 C 
BRANCH  33  34
ATOM     34  C   UNL     1      -9.879  -2.750  -6.838  1.00  0.00     0.002 C 
BRANCH  34  35
ATOM     35  C   UNL     1      -9.737  -4.161  -7.418  1.00  0.00     0.021 C 
BRANCH  35  36
ATOM     36  C   UNL     1      -8.880  -5.113  -6.587  1.00  0.00     0.116 C 
BRANCH  36  37
ATOM     37  N   UNL     1      -9.451  -5.342  -5.266  1.00  0.00    -0.352 N 
ATOM     38  C   UNL     1      -9.948  -6.498  -4.716  1.00  0.00     0.251 C 
ATOM     39  H   UNL     1      -9.486  -4.551  -4.682  1.00  0.00     0.163 HD
ATOM     40  O   UNL     1     -10.605  -6.451  -3.679  1.00  0.00    -0.269 OA
BRANCH  38  41
ATOM     41  C   UNL     1      -9.700  -7.798  -5.375  1.00  0.00     0.039 A 
ATOM     42  C   UNL     1     -10.761  -8.694  -5.535  1.00  0.00     0.014 A 
ATOM     43  C   UNL     1      -8.420  -8.135  -5.821  1.00  0.00     0.014 A 
ATOM     44  C   UNL     1     -10.552  -9.901  -6.209  1.00  0.00     0.010 A 
ATOM     45  C   UNL     1      -8.227  -9.310  -6.543  1.00  0.00     0.010 A 
ATOM     46  C   UNL     1      -9.291 -10.201  -6.750  1.00  0.00    -0.014 A 
BRANCH  46  47
ATOM     47  C   UNL     1      -9.068 -11.415  -7.575  1.00  0.00     0.031 A 
ATOM     48  C   UNL     1      -8.123 -12.488  -7.114  1.00  0.00     0.074 A 
ATOM     49  C   UNL     1      -9.633 -11.493  -8.797  1.00  0.00     0.049 A 
ATOM     50  N   UNL     1      -7.731 -13.566  -7.741  1.00  0.00    -0.248 NA
ATOM     51  C   UNL     1      -7.520 -12.313  -5.782  1.00  0.00     0.031 C 
ATOM     52  C   UNL     1     -10.514 -10.482  -9.385  1.00  0.00     0.029 A 
ATOM     53  N   UNL     1      -9.521 -12.448  -9.777  1.00  0.00    -0.354 N 
ATOM     54  C   UNL     1      -6.813 -14.182  -6.900  1.00  0.00     0.074 A 
ATOM     55  C   UNL     1      -6.685 -13.342  -5.728  1.00  0.00     0.031 C 
ATOM     56  C   UNL     1     -10.859 -10.867 -10.624  1.00  0.00     0.029 A 
ATOM     57  C   UNL     1     -10.199 -12.132 -10.931  1.00  0.00     0.049 A 
ATOM     58  H   UNL     1      -9.006 -13.279  -9.664  1.00  0.00     0.167 HD
ATOM     59  C   UNL     1      -6.158 -15.355  -7.073  1.00  0.00     0.034 A 
ATOM     60  C   UNL     1     -10.269 -12.779 -12.111  1.00  0.00     0.034 A 
ATOM     61  C   UNL     1      -6.317 -16.206  -8.222  1.00  0.00     0.049 A 
ATOM     62  C   UNL     1      -9.535 -14.081 -12.278  1.00  0.00     0.074 A 
ATOM     63  C   UNL     1      -5.779 -17.461  -8.445  1.00  0.00     0.029 A 
ATOM     64  N   UNL     1      -7.058 -15.884  -9.349  1.00  0.00    -0.354 N 
ATOM     65  N   UNL     1      -8.805 -14.733 -11.406  1.00  0.00    -0.248 NA
ATOM     66  C   UNL     1      -9.652 -14.748 -13.583  1.00  0.00     0.031 C 
ATOM     67  C   UNL     1      -6.175 -17.887  -9.718  1.00  0.00     0.029 A 
ATOM     68  C   UNL     1      -6.973 -16.904 -10.281  1.00  0.00     0.049 A 
ATOM     69  H   UNL     1      -7.570 -15.052  -9.468  1.00  0.00     0.167 HD
ATOM     70  C   UNL     1      -8.392 -15.895 -12.046  1.00  0.00     0.074 A 
ATOM     71  C   UNL     1      -8.977 -15.871 -13.372  1.00  0.00     0.031 C 
ATOM     72  C   UNL     1      -7.587 -16.884 -11.585  1.00  0.00     0.034 A 
BRANCH  59  73
ATOM     73  C   UNL     1      -5.247 -15.813  -5.965  1.00  0.00     0.023 A 
ATOM     74  C   UNL     1      -5.806 -16.276  -4.756  1.00  0.00     0.012 A 
ATOM     75  C   UNL     1      -3.848 -15.829  -6.128  1.00  0.00     0.148 A 
ATOM     76  C   UNL     1      -4.989 -16.712  -3.714  1.00  0.00     0.002 A 
ATOM     77  C   UNL     1      -3.041 -16.303  -5.099  1.00  0.00     0.091 A 
ATOM     78  F   UNL     1      -3.331 -15.364  -7.274  1.00  0.00    -0.205 F 
ATOM     79  C   UNL     1      -3.608 -16.734  -3.889  1.00  0.00     0.022 A 
BRANCH  77  80
ATOM     80  S   UNL     1      -1.256 -16.437  -5.258  1.00  0.00     0.127 S 
ATOM     81  O   UNL     1      -0.803 -15.301  -4.457  1.00  0.00    -0.237 OA
ATOM     82  O   UNL     1      -0.988 -17.747  -4.664  1.00  0.00    -0.237 OA
ATOM     83  O   UNL     1      -0.977 -16.352  -6.685  1.00  0.00    -0.744 OA
ENDBRANCH  77  80
ENDBRANCH  59  73
BRANCH  60  84
ATOM     84  C   UNL     1     -11.115 -12.227 -13.206  1.00  0.00     0.023 A 
ATOM     85  C   UNL     1     -12.315 -12.883 -13.542  1.00  0.00     0.012 A 
ATOM     86  C   UNL     1     -10.771 -11.037 -13.876  1.00  0.00     0.148 A 
ATOM     87  C   UNL     1     -13.148 -12.374 -14.539  1.00  0.00     0.002 A 
ATOM     88  C   UNL     1     -11.631 -10.506 -14.830  1.00  0.00     0.091 A 
ATOM     89  F   UNL     1      -9.617 -10.436 -13.550  1.00  0.00    -0.205 F 
ATOM     90  C   UNL     1     -12.813 -11.181 -15.174  1.00  0.00     0.022 A 
BRANCH  88  91
ATOM     91  S   UNL     1     -11.348  -8.908 -15.601  1.00  0.00     0.127 S 
ATOM     92  O   UNL     1     -11.023  -9.290 -16.972  1.00  0.00    -0.237 OA
ATOM     93  O   UNL     1     -12.647  -8.257 -15.432  1.00  0.00    -0.237 OA
ATOM     94  O   UNL     1     -10.267  -8.291 -14.843  1.00  0.00    -0.744 OA
ENDBRANCH  88  91
ENDBRANCH  60  84
BRANCH  72  95
ATOM     95  C   UNL     1      -7.282 -18.027 -12.518  1.00  0.00     0.023 A 
ATOM     96  C   UNL     1      -6.389 -17.826 -13.588  1.00  0.00     0.012 A 
ATOM     97  C   UNL     1      -7.812 -19.312 -12.290  1.00  0.00     0.148 A 
ATOM     98  C   UNL     1      -6.045 -18.880 -14.433  1.00  0.00     0.002 A 
ATOM     99  C   UNL     1      -7.431 -20.368 -13.110  1.00  0.00     0.091 A 
ATOM    100  F   UNL     1      -8.674 -19.478 -11.277  1.00  0.00    -0.205 F 
ATOM    101  C   UNL     1      -6.556 -20.152 -14.187  1.00  0.00     0.022 A 
BRANCH  99 102
ATOM    102  S   UNL     1      -7.965 -22.059 -12.821  1.00  0.00     0.127 S 
ATOM    103  O   UNL     1      -8.868 -22.283 -13.949  1.00  0.00    -0.237 OA
ATOM    104  O   UNL     1      -6.705 -22.799 -12.891  1.00  0.00    -0.237 OA
ATOM    105  O   UNL     1      -8.597 -22.063 -11.508  1.00  0.00    -0.744 OA
ENDBRANCH  99 102
ENDBRANCH  72  95
ENDBRANCH  46  47
ENDBRANCH  38  41
ENDBRANCH  36  37
ENDBRANCH  35  36
ENDBRANCH  34  35
ENDBRANCH  33  34
ENDBRANCH  32  33
ENDBRANCH  31  32
ENDBRANCH   3  31
TORSDOF 25
