REMARK SMILES NC(=O)C[C@H](NC(=O)c1cccc2[nH]ccc12)C(=O)NCCCCCCNC(=O)c1ccc(-c2c3nc(c(-c4cccc(S(=O)(=O)[O-])c4F)c4ccc([nH]4)c(-c4cccc(S(=O)(=O)[O-])c4F)c4nc(c(-c5cccc(S(=O)(=O)[O-])c5F)c5ccc2[nH]5)C=C4)C=C3)cc1
REMARK SMILES IDX 24 1 23 2 22 3 21 4 20 5 18 6 19 7 5 9 4 10 2 11 1 12 3 15
REMARK SMILES IDX 6 16 7 17 8 19 9 20 10 21 17 22 11 23 13 24 16 25 12 26
REMARK SMILES IDX 14 27 15 28 25 30 26 31 27 32 28 33 29 35 30 36 31 37 92 38
REMARK SMILES IDX 32 39 91 40 33 41 34 42 35 43 85 44 36 45 90 46 84 47 86 48
REMARK SMILES IDX 37 49 89 50 83 51 82 52 38 54 70 55 50 56 69 57 51 58 54 59
REMARK SMILES IDX 68 60 87 61 52 62 53 63 67 65 88 66 55 67 39 68 40 69 48 70
REMARK SMILES IDX 41 71 43 72 49 73 42 74 44 75 45 76 46 77 47 78 71 79 72 80
REMARK SMILES IDX 80 81 73 82 75 83 81 84 74 85 76 86 77 87 78 88 79 89 56 90
REMARK SMILES IDX 57 91 65 92 58 93 60 94 66 95 59 96 61 97 62 98 63 99 64 100
REMARK H PARENT 20 8 1 13 1 14 6 18 14 29 27 34 86 53 54 64
REMARK Flexibility Score: inf
ROOT
ATOM      1  C   UNL     1       6.006  -3.639  -4.160  1.00  0.00     0.002 C 
ENDROOT
BRANCH   1   2
ATOM      2  C   UNL     1       4.508  -3.549  -4.452  1.00  0.00     0.002 C 
BRANCH   2   3
ATOM      3  C   UNL     1       3.634  -3.132  -3.264  1.00  0.00     0.021 C 
BRANCH   3   4
ATOM      4  C   UNL     1       4.043  -1.831  -2.575  1.00  0.00     0.116 C 
BRANCH   4   5
ATOM      5  N   UNL     1       4.172  -0.706  -3.479  1.00  0.00    -0.354 N 
ATOM      6  C   UNL     1       3.357   0.366  -3.669  1.00  0.00     0.243 C 
ATOM      7  O   UNL     1       3.763   1.271  -4.406  1.00  0.00    -0.273 OA
ATOM      8  H   UNL     1       4.977  -0.720  -4.046  1.00  0.00     0.163 HD
BRANCH   6   9
ATOM      9  C   UNL     1       2.041   0.534  -2.889  1.00  0.00     0.180 C 
BRANCH   9  10
ATOM     10  C   UNL     1       2.404   1.162  -1.523  1.00  0.00     0.134 C 
BRANCH  10  11
ATOM     11  C   UNL     1       2.224   0.289  -0.308  1.00  0.00     0.220 C 
ATOM     12  N   UNL     1       0.959   0.227   0.191  1.00  0.00    -0.370 N 
ATOM     13  H   UNL     1       0.769  -0.325   0.984  1.00  0.00     0.159 HD
ATOM     14  H   UNL     1       0.234   0.734  -0.241  1.00  0.00     0.159 HD
ATOM     15  O   UNL     1       3.134  -0.347   0.207  1.00  0.00    -0.275 OA
ENDBRANCH  10  11
ENDBRANCH   9  10
BRANCH   9  16
ATOM     16  N   UNL     1       1.138  -0.626  -2.847  1.00  0.00    -0.340 N 
ATOM     17  C   UNL     1       0.298  -1.119  -3.825  1.00  0.00     0.252 C 
ATOM     18  H   UNL     1       1.132  -1.123  -1.997  1.00  0.00     0.164 HD
ATOM     19  O   UNL     1      -0.658  -1.809  -3.478  1.00  0.00    -0.269 OA
BRANCH  17  20
ATOM     20  C   UNL     1       0.537  -0.873  -5.269  1.00  0.00     0.049 A 
ATOM     21  C   UNL     1       1.795  -1.121  -5.835  1.00  0.00     0.014 A 
ATOM     22  C   UNL     1      -0.525  -0.560  -6.148  1.00  0.00     0.012 A 
ATOM     23  C   UNL     1       2.055  -0.934  -7.189  1.00  0.00     0.003 A 
ATOM     24  C   UNL     1      -0.241  -0.392  -7.510  1.00  0.00     0.046 A 
ATOM     25  C   UNL     1      -1.933  -0.381  -6.007  1.00  0.00     0.029 A 
ATOM     26  C   UNL     1       1.040  -0.540  -8.052  1.00  0.00     0.027 A 
ATOM     27  N   UNL     1      -1.426  -0.097  -8.145  1.00  0.00    -0.361 N 
ATOM     28  C   UNL     1      -2.459  -0.113  -7.250  1.00  0.00     0.083 A 
ATOM     29  H   UNL     1      -1.516   0.097  -9.106  1.00  0.00     0.166 HD
ENDBRANCH  17  20
ENDBRANCH   9  16
ENDBRANCH   6   9
ENDBRANCH   4   5
ENDBRANCH   3   4
ENDBRANCH   2   3
ENDBRANCH   1   2
BRANCH   1  30
ATOM     30  C   UNL     1       6.378  -4.505  -2.958  1.00  0.00     0.021 C 
BRANCH  30  31
ATOM     31  C   UNL     1       5.851  -5.932  -3.018  1.00  0.00     0.116 C 
BRANCH  31  32
ATOM     32  N   UNL     1       6.429  -6.680  -4.122  1.00  0.00    -0.352 N 
ATOM     33  C   UNL     1       7.113  -7.871  -4.088  1.00  0.00     0.251 C 
ATOM     34  H   UNL     1       6.316  -6.279  -5.014  1.00  0.00     0.163 HD
ATOM     35  O   UNL     1       7.711  -8.270  -5.081  1.00  0.00    -0.269 OA
BRANCH  33  36
ATOM     36  C   UNL     1       7.135  -8.658  -2.836  1.00  0.00     0.039 A 
ATOM     37  C   UNL     1       8.351  -9.168  -2.377  1.00  0.00     0.014 A 
ATOM     38  C   UNL     1       5.959  -8.878  -2.111  1.00  0.00     0.014 A 
ATOM     39  C   UNL     1       8.397  -9.853  -1.161  1.00  0.00     0.010 A 
ATOM     40  C   UNL     1       6.021  -9.493  -0.864  1.00  0.00     0.010 A 
ATOM     41  C   UNL     1       7.237  -9.996  -0.380  1.00  0.00    -0.014 A 
BRANCH  41  42
ATOM     42  C   UNL     1       7.280 -10.661   0.948  1.00  0.00     0.031 A 
ATOM     43  C   UNL     1       6.492 -11.920   1.192  1.00  0.00     0.074 A 
ATOM     44  C   UNL     1       7.958 -10.083   1.960  1.00  0.00     0.049 A 
ATOM     45  N   UNL     1       6.369 -12.613   2.295  1.00  0.00    -0.248 NA
ATOM     46  C   UNL     1       5.719 -12.457   0.060  1.00  0.00     0.031 C 
ATOM     47  C   UNL     1       8.686  -8.814   1.875  1.00  0.00     0.029 A 
ATOM     48  N   UNL     1       8.117 -10.468   3.268  1.00  0.00    -0.354 N 
ATOM     49  C   UNL     1       5.475 -13.636   2.003  1.00  0.00     0.074 A 
ATOM     50  C   UNL     1       5.066 -13.461   0.627  1.00  0.00     0.031 C 
ATOM     51  C   UNL     1       9.210  -8.526   3.077  1.00  0.00     0.029 A 
ATOM     52  C   UNL     1       8.834  -9.571   4.025  1.00  0.00     0.049 A 
ATOM     53  H   UNL     1       7.752 -11.308   3.630  1.00  0.00     0.167 HD
ATOM     54  C   UNL     1       5.052 -14.646   2.800  1.00  0.00     0.034 A 
ATOM     55  C   UNL     1       9.144  -9.580   5.337  1.00  0.00     0.034 A 
ATOM     56  C   UNL     1       5.501 -14.847   4.151  1.00  0.00     0.049 A 
ATOM     57  C   UNL     1       8.711 -10.748   6.182  1.00  0.00     0.074 A 
ATOM     58  C   UNL     1       5.220 -15.902   5.001  1.00  0.00     0.029 A 
ATOM     59  N   UNL     1       6.313 -13.972   4.854  1.00  0.00    -0.354 N 
ATOM     60  N   UNL     1       8.017 -11.804   5.837  1.00  0.00    -0.248 NA
ATOM     61  C   UNL     1       9.139 -10.745   7.589  1.00  0.00     0.031 C 
ATOM     62  C   UNL     1       5.838 -15.649   6.230  1.00  0.00     0.029 A 
ATOM     63  C   UNL     1       6.532 -14.454   6.133  1.00  0.00     0.049 A 
ATOM     64  H   UNL     1       6.681 -13.131   4.497  1.00  0.00     0.167 HD
ATOM     65  C   UNL     1       7.954 -12.607   6.969  1.00  0.00     0.074 A 
ATOM     66  C   UNL     1       8.701 -11.926   8.006  1.00  0.00     0.031 C 
ATOM     67  C   UNL     1       7.323 -13.795   7.140  1.00  0.00     0.034 A 
BRANCH  54  68
ATOM     68  C   UNL     1       4.087 -15.647   2.221  1.00  0.00     0.023 A 
ATOM     69  C   UNL     1       4.536 -16.572   1.256  1.00  0.00     0.012 A 
ATOM     70  C   UNL     1       2.761 -15.725   2.689  1.00  0.00     0.148 A 
ATOM     71  C   UNL     1       3.672 -17.539   0.744  1.00  0.00     0.002 A 
ATOM     72  C   UNL     1       1.919 -16.721   2.208  1.00  0.00     0.091 A 
ATOM     73  F   UNL     1       2.347 -14.824   3.592  1.00  0.00    -0.205 F 
ATOM     74  C   UNL     1       2.369 -17.621   1.228  1.00  0.00     0.022 A 
BRANCH  72  75
ATOM     75  S   UNL     1       0.251 -16.965   2.828  1.00  0.00     0.127 S 
ATOM     76  O   UNL     1      -0.554 -16.566   1.674  1.00  0.00    -0.237 OA
ATOM     77  O   UNL     1       0.236 -18.400   3.114  1.00  0.00    -0.237 OA
ATOM     78  O   UNL     1       0.127 -16.110   4.000  1.00  0.00    -0.744 OA
ENDBRANCH  72  75
ENDBRANCH  54  68
BRANCH  55  79
ATOM     79  C   UNL     1       9.953  -8.473   5.920  1.00  0.00     0.023 A 
ATOM     80  C   UNL     1      11.277  -8.721   6.333  1.00  0.00     0.012 A 
ATOM     81  C   UNL     1       9.426  -7.173   6.050  1.00  0.00     0.148 A 
ATOM     82  C   UNL     1      12.048  -7.705   6.899  1.00  0.00     0.002 A 
ATOM     83  C   UNL     1      10.219  -6.152   6.561  1.00  0.00     0.091 A 
ATOM     84  F   UNL     1       8.161  -6.959   5.662  1.00  0.00    -0.205 F 
ATOM     85  C   UNL     1      11.524  -6.420   7.004  1.00  0.00     0.022 A 
BRANCH  83  86
ATOM     86  S   UNL     1       9.671  -4.443   6.609  1.00  0.00     0.127 S 
ATOM     87  O   UNL     1       9.451  -4.239   8.038  1.00  0.00    -0.237 OA
ATOM     88  O   UNL     1      10.829  -3.738   6.056  1.00  0.00    -0.237 OA
ATOM     89  O   UNL     1       8.482  -4.390   5.769  1.00  0.00    -0.744 OA
ENDBRANCH  83  86
ENDBRANCH  55  79
BRANCH  67  90
ATOM     90  C   UNL     1       7.441 -14.466   8.483  1.00  0.00     0.023 A 
ATOM     91  C   UNL     1       6.752 -13.941   9.594  1.00  0.00     0.012 A 
ATOM     92  C   UNL     1       8.171 -15.663   8.624  1.00  0.00     0.148 A 
ATOM     93  C   UNL     1       6.815 -14.579  10.833  1.00  0.00     0.002 A 
ATOM     94  C   UNL     1       8.187 -16.321   9.847  1.00  0.00     0.091 A 
ATOM     95  F   UNL     1       8.834 -16.137   7.559  1.00  0.00    -0.205 F 
ATOM     96  C   UNL     1       7.521 -15.774  10.956  1.00  0.00     0.022 A 
BRANCH  94  97
ATOM     97  S   UNL     1       8.986 -17.914  10.073  1.00  0.00     0.127 S 
ATOM     98  O   UNL     1      10.156 -17.550  10.869  1.00  0.00    -0.237 OA
ATOM     99  O   UNL     1       7.966 -18.672  10.799  1.00  0.00    -0.237 OA
ATOM    100  O   UNL     1       9.271 -18.413   8.734  1.00  0.00    -0.744 OA
ENDBRANCH  94  97
ENDBRANCH  67  90
ENDBRANCH  41  42
ENDBRANCH  33  36
ENDBRANCH  31  32
ENDBRANCH  30  31
ENDBRANCH   1  30
TORSDOF 20
