REMARK SMILES COc1cc([C@@H]2CC(=O)Nc3c(C(=O)NCCCCCCNC(=O)c4ccc(-c5c6nc(c(-c7cccc(S(=O)(=O)[O-])c7F)c7ccc([nH]7)c(-c7cccc(S(=O)(=O)[O-])c7F)c7nc(c(-c8cccc(S(=O)(=O)[O-])c8F)c8ccc5[nH]8)C=C7)C=C6)cc4)cn(-c4ccc(F)cc4)c32)c(OC)c2c1OCO2
REMARK SMILES IDX 19 1 18 2 17 3 16 4 15 5 13 6 14 7 12 9 6 10 7 11 97 12 8 13
REMARK SMILES IDX 11 14 89 15 9 16 10 17 88 18 5 20 3 21 4 22 102 23 101 24
REMARK SMILES IDX 103 25 98 26 105 27 104 28 2 29 1 30 99 31 100 32 90 33
REMARK SMILES IDX 91 34 96 35 92 36 95 37 93 38 94 39 20 40 21 41 22 42 23 43
REMARK SMILES IDX 24 45 25 46 26 47 87 48 27 49 86 50 28 51 29 52 30 53 80 54
REMARK SMILES IDX 31 55 85 56 79 57 81 58 32 59 84 60 78 61 77 62 33 64 65 65
REMARK SMILES IDX 45 66 64 67 46 68 49 69 63 70 82 71 47 72 48 73 62 75 83 76
REMARK SMILES IDX 50 77 34 78 35 79 43 80 36 81 38 82 44 83 37 84 39 85 40 86
REMARK SMILES IDX 41 87 42 88 66 89 67 90 75 91 68 92 70 93 76 94 69 95 71 96
REMARK SMILES IDX 72 97 73 98 74 99 51 100 52 101 60 102 53 103 55 104 61 105
REMARK SMILES IDX 54 106 56 107 57 108 58 109 59 110
REMARK H PARENT 15 8 10 19 22 44 81 63 49 74
REMARK Flexibility Score: inf
ROOT
ATOM      1  C   UNL     1       3.556   5.741  11.422  1.00  0.00     0.002 C 
ENDROOT
BRANCH   1   2
ATOM      2  C   UNL     1       2.025   5.626  11.431  1.00  0.00     0.002 C 
BRANCH   2   3
ATOM      3  C   UNL     1       1.418   5.130  10.118  1.00  0.00     0.021 C 
BRANCH   3   4
ATOM      4  C   UNL     1       1.843   3.707   9.739  1.00  0.00     0.116 C 
BRANCH   4   5
ATOM      5  N   UNL     1       0.892   2.750  10.247  1.00  0.00    -0.352 N 
ATOM      6  C   UNL     1      -0.170   2.096   9.682  1.00  0.00     0.254 C 
ATOM      7  O   UNL     1      -0.751   1.306  10.433  1.00  0.00    -0.269 OA
ATOM      8  H   UNL     1       1.036   2.520  11.194  1.00  0.00     0.163 HD
BRANCH   6   9
ATOM      9  C   UNL     1      -0.551   2.205   8.270  1.00  0.00     0.081 A 
ATOM     10  C   UNL     1      -0.587   3.130   4.654  1.00  0.00     0.082 C 
ATOM     11  C   UNL     1      -0.393   4.648   4.768  1.00  0.00     0.115 C 
ATOM     12  C   UNL     1      -0.764   2.524   6.018  1.00  0.00     0.055 A 
ATOM     13  C   UNL     1       0.415   5.069   5.975  1.00  0.00     0.225 C 
ATOM     14  C   UNL     1      -0.341   3.115   7.194  1.00  0.00     0.076 A 
ATOM     15  N   UNL     1      -1.498   1.411   6.356  1.00  0.00    -0.317 N 
ATOM     16  O   UNL     1       1.153   6.054   5.973  1.00  0.00    -0.275 OA
ATOM     17  N   UNL     1       0.218   4.368   7.135  1.00  0.00    -0.324 N 
ATOM     18  C   UNL     1      -1.369   1.225   7.711  1.00  0.00     0.107 A 
ATOM     19  H   UNL     1       0.495   4.790   7.981  1.00  0.00     0.170 HD
BRANCH  10  20
ATOM     20  C   UNL     1       0.524   2.501   3.801  1.00  0.00     0.012 A 
ATOM     21  C   UNL     1       1.101   1.593   1.585  1.00  0.00     0.165 A 
ATOM     22  C   UNL     1       0.195   2.207   2.449  1.00  0.00     0.059 A 
ATOM     23  C   UNL     1       2.373   1.350   2.061  1.00  0.00     0.211 A 
ATOM     24  C   UNL     1       2.731   1.664   3.359  1.00  0.00     0.211 A 
ATOM     25  O   UNL     1       3.410   0.813   1.357  1.00  0.00    -0.449 OA
ATOM     26  C   UNL     1       1.836   2.235   4.259  1.00  0.00     0.168 A 
ATOM     27  O   UNL     1       4.033   1.330   3.606  1.00  0.00    -0.449 OA
ATOM     28  C   UNL     1       4.479   0.926   2.305  1.00  0.00     0.468 C 
BRANCH  21  29
ATOM     29  O   UNL     1       0.646   1.332   0.326  1.00  0.00    -0.493 OA
ATOM     30  C   UNL     1       1.035   0.061  -0.182  1.00  0.00     0.278 C 
ENDBRANCH  21  29
BRANCH  26  31
ATOM     31  O   UNL     1       2.111   2.547   5.556  1.00  0.00    -0.492 OA
ATOM     32  C   UNL     1       3.464   2.575   5.982  1.00  0.00     0.278 C 
ENDBRANCH  26  31
ENDBRANCH  10  20
BRANCH  15  33
ATOM     33  C   UNL     1      -2.322   0.624   5.522  1.00  0.00     0.046 A 
ATOM     34  C   UNL     1      -1.824   0.083   4.335  1.00  0.00     0.029 A 
ATOM     35  C   UNL     1      -3.658   0.419   5.895  1.00  0.00     0.029 A 
ATOM     36  C   UNL     1      -2.677  -0.622   3.488  1.00  0.00     0.041 A 
ATOM     37  C   UNL     1      -4.509  -0.276   5.036  1.00  0.00     0.041 A 
ATOM     38  C   UNL     1      -4.013  -0.784   3.839  1.00  0.00     0.123 A 
ATOM     39  F   UNL     1      -4.833  -1.446   3.012  1.00  0.00    -0.207 F 
ENDBRANCH  15  33
ENDBRANCH   6   9
ENDBRANCH   4   5
ENDBRANCH   3   4
ENDBRANCH   2   3
ENDBRANCH   1   2
BRANCH   1  40
ATOM     40  C   UNL     1       4.158   6.558  10.268  1.00  0.00     0.021 C 
BRANCH  40  41
ATOM     41  C   UNL     1       3.849   8.048  10.357  1.00  0.00     0.116 C 
BRANCH  41  42
ATOM     42  N   UNL     1       4.506   8.642  11.517  1.00  0.00    -0.352 N 
ATOM     43  C   UNL     1       4.406   9.921  12.013  1.00  0.00     0.251 C 
ATOM     44  H   UNL     1       5.107   8.042  12.015  1.00  0.00     0.163 HD
ATOM     45  O   UNL     1       5.259  10.357  12.769  1.00  0.00    -0.269 OA
BRANCH  43  46
ATOM     46  C   UNL     1       3.264  10.759  11.610  1.00  0.00     0.039 A 
ATOM     47  C   UNL     1       3.482  12.094  11.261  1.00  0.00     0.014 A 
ATOM     48  C   UNL     1       1.982  10.208  11.577  1.00  0.00     0.014 A 
ATOM     49  C   UNL     1       2.413  12.850  10.796  1.00  0.00     0.010 A 
ATOM     50  C   UNL     1       0.941  10.930  11.033  1.00  0.00     0.010 A 
ATOM     51  C   UNL     1       1.149  12.255  10.655  1.00  0.00    -0.014 A 
BRANCH  51  52
ATOM     52  C   UNL     1       0.105  12.972   9.925  1.00  0.00     0.031 A 
ATOM     53  C   UNL     1       0.518  13.397   8.560  1.00  0.00     0.074 A 
ATOM     54  C   UNL     1      -1.175  13.078  10.337  1.00  0.00     0.049 A 
ATOM     55  N   UNL     1       0.745  14.602   8.150  1.00  0.00    -0.248 NA
ATOM     56  C   UNL     1       0.893  12.359   7.586  1.00  0.00     0.031 C 
ATOM     57  C   UNL     1      -1.784  12.437  11.507  1.00  0.00     0.029 A 
ATOM     58  N   UNL     1      -2.244  13.659   9.716  1.00  0.00    -0.354 N 
ATOM     59  C   UNL     1       1.016  14.484   6.789  1.00  0.00     0.074 A 
ATOM     60  C   UNL     1       1.329  13.100   6.566  1.00  0.00     0.031 C 
ATOM     61  C   UNL     1      -3.127  12.441  11.370  1.00  0.00     0.029 A 
ATOM     62  C   UNL     1      -3.475  13.219  10.196  1.00  0.00     0.049 A 
ATOM     63  H   UNL     1      -2.152  14.327   8.998  1.00  0.00     0.167 HD
ATOM     64  C   UNL     1       0.649  15.470   5.923  1.00  0.00     0.034 A 
ATOM     65  C   UNL     1      -4.691  13.432   9.638  1.00  0.00     0.034 A 
ATOM     66  C   UNL     1       0.318  16.682   6.636  1.00  0.00     0.049 A 
ATOM     67  C   UNL     1      -4.569  14.621   8.770  1.00  0.00     0.074 A 
ATOM     68  C   UNL     1       0.959  17.529   7.516  1.00  0.00     0.029 A 
ATOM     69  N   UNL     1      -1.024  16.948   6.748  1.00  0.00    -0.354 N 
ATOM     70  N   UNL     1      -4.363  15.825   9.221  1.00  0.00    -0.248 NA
ATOM     71  C   UNL     1      -4.327  14.433   7.349  1.00  0.00     0.031 C 
ATOM     72  C   UNL     1      -0.059  17.986   8.405  1.00  0.00     0.029 A 
ATOM     73  C   UNL     1      -1.280  17.451   7.989  1.00  0.00     0.049 A 
ATOM     74  H   UNL     1      -1.695  16.798   6.044  1.00  0.00     0.167 HD
ATOM     75  C   UNL     1      -3.517  16.393   8.281  1.00  0.00     0.074 A 
ATOM     76  C   UNL     1      -3.676  15.569   7.088  1.00  0.00     0.031 C 
ATOM     77  C   UNL     1      -2.547  17.273   8.667  1.00  0.00     0.034 A 
BRANCH  64  78
ATOM     78  C   UNL     1       0.117  15.249   4.511  1.00  0.00     0.023 A 
ATOM     79  C   UNL     1      -0.218  16.413   3.774  1.00  0.00     0.012 A 
ATOM     80  C   UNL     1      -0.372  14.022   4.006  1.00  0.00     0.148 A 
ATOM     81  C   UNL     1      -1.081  16.371   2.673  1.00  0.00     0.002 A 
ATOM     82  C   UNL     1      -1.171  13.977   2.867  1.00  0.00     0.091 A 
ATOM     83  F   UNL     1      -0.181  12.889   4.678  1.00  0.00    -0.205 F 
ATOM     84  C   UNL     1      -1.562  15.151   2.221  1.00  0.00     0.022 A 
BRANCH  82  85
ATOM     85  S   UNL     1      -1.791  12.423   2.207  1.00  0.00     0.127 S 
ATOM     86  O   UNL     1      -3.214  12.523   2.520  1.00  0.00    -0.237 OA
ATOM     87  O   UNL     1      -1.456  12.550   0.788  1.00  0.00    -0.237 OA
ATOM     88  O   UNL     1      -1.057  11.375   2.903  1.00  0.00    -0.744 OA
ENDBRANCH  82  85
ENDBRANCH  64  78
BRANCH  65  89
ATOM     89  C   UNL     1      -5.912  12.590   9.631  1.00  0.00     0.023 A 
ATOM     90  C   UNL     1      -7.146  13.167   9.266  1.00  0.00     0.012 A 
ATOM     91  C   UNL     1      -5.825  11.182   9.682  1.00  0.00     0.148 A 
ATOM     92  C   UNL     1      -8.239  12.370   8.907  1.00  0.00     0.002 A 
ATOM     93  C   UNL     1      -6.917  10.393   9.330  1.00  0.00     0.091 A 
ATOM     94  F   UNL     1      -4.650  10.615   9.982  1.00  0.00    -0.205 F 
ATOM     95  C   UNL     1      -8.120  10.983   8.925  1.00  0.00     0.022 A 
BRANCH  93  96
ATOM     96  S   UNL     1      -6.826   8.597   9.303  1.00  0.00     0.127 S 
ATOM     97  O   UNL     1      -8.063   8.219   9.989  1.00  0.00    -0.237 OA
ATOM     98  O   UNL     1      -6.810   8.315   7.870  1.00  0.00    -0.237 OA
ATOM     99  O   UNL     1      -5.611   8.250  10.030  1.00  0.00    -0.744 OA
ENDBRANCH  93  96
ENDBRANCH  65  89
BRANCH  77 100
ATOM    100  C   UNL     1      -2.684  17.938  10.010  1.00  0.00     0.023 A 
ATOM    101  C   UNL     1      -2.673  17.228  11.227  1.00  0.00     0.012 A 
ATOM    102  C   UNL     1      -2.677  19.343  10.040  1.00  0.00     0.148 A 
ATOM    103  C   UNL     1      -2.680  17.909  12.447  1.00  0.00     0.002 A 
ATOM    104  C   UNL     1      -2.629  20.015  11.252  1.00  0.00     0.091 A 
ATOM    105  F   UNL     1      -2.696  20.003   8.871  1.00  0.00    -0.205 F 
ATOM    106  C   UNL     1      -2.643  19.302  12.460  1.00  0.00     0.022 A 
BRANCH 104 107
ATOM    107  S   UNL     1      -2.445  21.797  11.318  1.00  0.00     0.127 S 
ATOM    108  O   UNL     1      -3.802  22.234  11.637  1.00  0.00    -0.237 OA
ATOM    109  O   UNL     1      -1.474  21.976  12.399  1.00  0.00    -0.237 OA
ATOM    110  O   UNL     1      -1.948  22.195  10.006  1.00  0.00    -0.744 OA
ENDBRANCH 104 107
ENDBRANCH  77 100
ENDBRANCH  51  52
ENDBRANCH  43  46
ENDBRANCH  41  42
ENDBRANCH  40  41
ENDBRANCH   1  40
TORSDOF 20
