REMARK SMILES C[NH2+][C@@]1(C(=O)NCCCCCCNC(=O)c2ccc(-c3c4nc(c(-c5cccc(S(=O)(=O)[O-])c5F)c5ccc([nH]5)c(-c5cccc(S(=O)(=O)[O-])c5F)c5nc(c(-c6cccc(S(=O)(=O)[O-])c6F)c6ccc3[nH]6)C=C5)C=C4)cc2)CC[C@H]([NH+]2CC[NH+](C)CC2)C1
REMARK SMILES IDX 10 1 9 2 8 3 7 4 6 5 4 6 5 7 3 9 79 10 89 11 80 12 81 13
REMARK SMILES IDX 2 14 1 15 82 18 83 19 88 20 84 22 87 23 85 24 86 25 11 27
REMARK SMILES IDX 12 28 13 29 14 30 15 32 16 33 17 34 78 35 18 36 77 37 19 38
REMARK SMILES IDX 20 39 21 40 71 41 22 42 76 43 70 44 72 45 23 46 75 47 69 48
REMARK SMILES IDX 68 49 24 51 56 52 36 53 55 54 37 55 40 56 54 57 73 58 38 59
REMARK SMILES IDX 39 60 53 62 74 63 41 64 25 65 26 66 34 67 27 68 29 69 35 70
REMARK SMILES IDX 28 71 30 72 31 73 32 74 33 75 57 76 58 77 66 78 59 79 61 80
REMARK SMILES IDX 67 81 60 82 62 83 63 84 64 85 65 86 42 87 43 88 51 89 44 90
REMARK SMILES IDX 46 91 52 92 45 93 47 94 48 95 49 96 50 97
REMARK H PARENT 6 8 2 16 2 17 82 21 85 26 13 31 72 50 40 61
REMARK Flexibility Score: inf
ROOT
ATOM      1  C   UNL     1      -6.785  -2.010   3.240  1.00  0.00     0.002 C 
ENDROOT
BRANCH   1   2
ATOM      2  C   UNL     1      -5.722  -2.772   2.411  1.00  0.00     0.002 C 
BRANCH   2   3
ATOM      3  C   UNL     1      -5.069  -2.117   0.967  1.00  0.00     0.021 C 
BRANCH   3   4
ATOM      4  C   UNL     1      -3.616  -0.664   0.406  1.00  0.00     0.116 C 
BRANCH   4   5
ATOM      5  N   UNL     1      -2.138  -0.361   0.918  1.00  0.00    -0.351 N 
ATOM      6  C   UNL     1      -0.857  -0.718   0.661  1.00  0.00     0.281 C 
ATOM      7  O   UNL     1      -0.089  -0.462   1.601  1.00  0.00    -0.268 OA
ATOM      8  H   UNL     1      -2.164   0.292   1.654  1.00  0.00     0.163 HD
BRANCH   6   9
ATOM      9  C   UNL     1      -0.387  -1.398  -0.652  1.00  0.00     0.181 C 
ATOM     10  C   UNL     1      -1.021  -0.732  -1.884  1.00  0.00     0.085 C 
ATOM     11  C   UNL     1      -0.845  -2.869  -0.723  1.00  0.00     0.144 C 
ATOM     12  C   UNL     1      -1.985  -1.769  -2.455  1.00  0.00     0.072 C 
ATOM     13  C   UNL     1      -2.240  -2.821  -1.346  1.00  0.00     0.191 C 
BRANCH   9  14
ATOM     14  N   UNL     1       1.108  -1.378  -0.744  1.00  0.00    -0.336 N 
ATOM     15  C   UNL     1       1.711  -0.050  -0.649  1.00  0.00     0.331 C 
ATOM     16  H   UNL     1       1.480  -1.951   0.014  1.00  0.00     0.346 HD
ATOM     17  H   UNL     1       1.343  -1.735  -1.670  1.00  0.00     0.346 HD
ENDBRANCH   9  14
BRANCH  13  18
ATOM     18  N   UNL     1      -3.358  -2.610  -0.418  1.00  0.00    -0.323 N 
ATOM     19  C   UNL     1      -4.807  -1.738  -1.147  1.00  0.00     0.324 C 
ATOM     20  C   UNL     1      -3.061  -2.469   1.416  1.00  0.00     0.324 C 
ATOM     21  H   UNL     1      -3.678  -3.573  -0.315  1.00  0.00     0.348 HD
ATOM     22  C   UNL     1      -5.668  -0.290  -0.167  1.00  0.00     0.324 C 
ATOM     23  C   UNL     1      -3.969  -1.022   2.435  1.00  0.00     0.324 C 
ATOM     24  N   UNL     1      -5.388  -0.124   1.649  1.00  0.00    -0.328 N 
ATOM     25  C   UNL     1      -5.511   1.262   2.078  1.00  0.00     0.333 C 
ATOM     26  H   UNL     1      -6.157  -0.673   2.035  1.00  0.00     0.348 HD
ENDBRANCH  13  18
ENDBRANCH   6   9
ENDBRANCH   4   5
ENDBRANCH   3   4
ENDBRANCH   2   3
ENDBRANCH   1   2
BRANCH   1  27
ATOM     27  C   UNL     1      -8.034  -1.574   2.480  1.00  0.00     0.021 C 
BRANCH  27  28
ATOM     28  C   UNL     1      -8.855  -2.740   1.969  1.00  0.00     0.116 C 
BRANCH  28  29
ATOM     29  N   UNL     1      -9.588  -3.362   3.062  1.00  0.00    -0.352 N 
ATOM     30  C   UNL     1     -10.951  -3.476   3.173  1.00  0.00     0.251 C 
ATOM     31  H   UNL     1      -9.052  -3.738   3.796  1.00  0.00     0.163 HD
ATOM     32  O   UNL     1     -11.485  -3.712   4.250  1.00  0.00    -0.269 OA
BRANCH  30  33
ATOM     33  C   UNL     1     -11.754  -3.312   1.946  1.00  0.00     0.039 A 
ATOM     34  C   UNL     1     -12.855  -2.457   1.944  1.00  0.00     0.014 A 
ATOM     35  C   UNL     1     -11.364  -3.987   0.784  1.00  0.00     0.014 A 
ATOM     36  C   UNL     1     -13.571  -2.274   0.760  1.00  0.00     0.010 A 
ATOM     37  C   UNL     1     -12.024  -3.737  -0.409  1.00  0.00     0.010 A 
ATOM     38  C   UNL     1     -13.159  -2.913  -0.421  1.00  0.00    -0.014 A 
BRANCH  38  39
ATOM     39  C   UNL     1     -13.946  -2.808  -1.671  1.00  0.00     0.031 A 
ATOM     40  C   UNL     1     -14.594  -4.047  -2.232  1.00  0.00     0.074 A 
ATOM     41  C   UNL     1     -14.014  -1.638  -2.332  1.00  0.00     0.049 A 
ATOM     42  N   UNL     1     -15.276  -4.193  -3.337  1.00  0.00    -0.248 NA
ATOM     43  C   UNL     1     -14.417  -5.297  -1.470  1.00  0.00     0.031 C 
ATOM     44  C   UNL     1     -13.353  -0.396  -1.926  1.00  0.00     0.029 A 
ATOM     45  N   UNL     1     -14.652  -1.310  -3.499  1.00  0.00    -0.354 N 
ATOM     46  C   UNL     1     -15.569  -5.549  -3.422  1.00  0.00     0.074 A 
ATOM     47  C   UNL     1     -14.952  -6.192  -2.285  1.00  0.00     0.031 C 
ATOM     48  C   UNL     1     -13.629   0.562  -2.827  1.00  0.00     0.029 A 
ATOM     49  C   UNL     1     -14.468  -0.002  -3.880  1.00  0.00     0.049 A 
ATOM     50  H   UNL     1     -15.192  -1.950  -4.017  1.00  0.00     0.167 HD
ATOM     51  C   UNL     1     -16.323  -6.197  -4.340  1.00  0.00     0.034 A 
ATOM     52  C   UNL     1     -14.933   0.664  -4.956  1.00  0.00     0.034 A 
ATOM     53  C   UNL     1     -16.993  -5.536  -5.425  1.00  0.00     0.049 A 
ATOM     54  C   UNL     1     -15.832  -0.061  -5.922  1.00  0.00     0.074 A 
ATOM     55  C   UNL     1     -17.862  -6.074  -6.356  1.00  0.00     0.029 A 
ATOM     56  N   UNL     1     -16.872  -4.186  -5.718  1.00  0.00    -0.354 N 
ATOM     57  N   UNL     1     -16.233  -1.310  -5.898  1.00  0.00    -0.248 NA
ATOM     58  C   UNL     1     -16.378   0.723  -7.039  1.00  0.00     0.031 C 
ATOM     59  C   UNL     1     -18.259  -5.048  -7.220  1.00  0.00     0.029 A 
ATOM     60  C   UNL     1     -17.649  -3.870  -6.817  1.00  0.00     0.049 A 
ATOM     61  H   UNL     1     -16.314  -3.547  -5.218  1.00  0.00     0.167 HD
ATOM     62  C   UNL     1     -17.103  -1.453  -6.972  1.00  0.00     0.074 A 
ATOM     63  C   UNL     1     -17.188  -0.157  -7.614  1.00  0.00     0.031 C 
ATOM     64  C   UNL     1     -17.761  -2.558  -7.401  1.00  0.00     0.034 A 
BRANCH  51  65
ATOM     65  C   UNL     1     -16.517  -7.680  -4.166  1.00  0.00     0.023 A 
ATOM     66  C   UNL     1     -17.319  -8.155  -3.108  1.00  0.00     0.012 A 
ATOM     67  C   UNL     1     -15.944  -8.600  -5.065  1.00  0.00     0.148 A 
ATOM     68  C   UNL     1     -17.517  -9.522  -2.923  1.00  0.00     0.002 A 
ATOM     69  C   UNL     1     -16.184  -9.960  -4.902  1.00  0.00     0.091 A 
ATOM     70  F   UNL     1     -15.164  -8.132  -6.049  1.00  0.00    -0.205 F 
ATOM     71  C   UNL     1     -16.959 -10.423  -3.825  1.00  0.00     0.022 A 
BRANCH  69  72
ATOM     72  S   UNL     1     -15.576 -11.196  -6.054  1.00  0.00     0.127 S 
ATOM     73  O   UNL     1     -14.535 -11.851  -5.263  1.00  0.00    -0.237 OA
ATOM     74  O   UNL     1     -16.768 -12.012  -6.288  1.00  0.00    -0.237 OA
ATOM     75  O   UNL     1     -15.106 -10.460  -7.220  1.00  0.00    -0.744 OA
ENDBRANCH  69  72
ENDBRANCH  51  65
BRANCH  52  76
ATOM     76  C   UNL     1     -14.632   2.114  -5.120  1.00  0.00     0.023 A 
ATOM     77  C   UNL     1     -15.663   3.056  -4.933  1.00  0.00     0.012 A 
ATOM     78  C   UNL     1     -13.334   2.569  -5.417  1.00  0.00     0.148 A 
ATOM     79  C   UNL     1     -15.414   4.422  -5.071  1.00  0.00     0.002 A 
ATOM     80  C   UNL     1     -13.080   3.934  -5.500  1.00  0.00     0.091 A 
ATOM     81  F   UNL     1     -12.367   1.659  -5.603  1.00  0.00    -0.205 F 
ATOM     82  C   UNL     1     -14.121   4.862  -5.344  1.00  0.00     0.022 A 
BRANCH  80  83
ATOM     83  S   UNL     1     -11.421   4.590  -5.715  1.00  0.00     0.127 S 
ATOM     84  O   UNL     1     -11.454   5.042  -7.104  1.00  0.00    -0.237 OA
ATOM     85  O   UNL     1     -11.385   5.662  -4.719  1.00  0.00    -0.237 OA
ATOM     86  O   UNL     1     -10.522   3.480  -5.429  1.00  0.00    -0.744 OA
ENDBRANCH  80  83
ENDBRANCH  52  76
BRANCH  64  87
ATOM     87  C   UNL     1     -18.654  -2.416  -8.603  1.00  0.00     0.023 A 
ATOM     88  C   UNL     1     -18.083  -2.288  -9.884  1.00  0.00     0.012 A 
ATOM     89  C   UNL     1     -20.054  -2.498  -8.471  1.00  0.00     0.148 A 
ATOM     90  C   UNL     1     -18.894  -2.216 -11.015  1.00  0.00     0.002 A 
ATOM     91  C   UNL     1     -20.854  -2.474  -9.607  1.00  0.00     0.091 A 
ATOM     92  F   UNL     1     -20.577  -2.601  -7.240  1.00  0.00    -0.205 F 
ATOM     93  C   UNL     1     -20.277  -2.322 -10.878  1.00  0.00     0.022 A 
BRANCH  91  94
ATOM     94  S   UNL     1     -22.634  -2.703  -9.531  1.00  0.00     0.127 S 
ATOM     95  O   UNL     1     -23.119  -1.344  -9.768  1.00  0.00    -0.237 OA
ATOM     96  O   UNL     1     -22.875  -3.638 -10.631  1.00  0.00    -0.237 OA
ATOM     97  O   UNL     1     -22.911  -3.246  -8.208  1.00  0.00    -0.744 OA
ENDBRANCH  91  94
ENDBRANCH  64  87
ENDBRANCH  38  39
ENDBRANCH  30  33
ENDBRANCH  28  29
ENDBRANCH  27  28
ENDBRANCH   1  27
TORSDOF 18
