REMARK SMILES CC1(C(=O)N2CC[C@H](C(=O)NCCCCCCNC(=O)c3ccc(-c4c5nc(c(-c6cccc(S(=O)(=O)[O-])c6F)c6ccc([nH]6)c(-c6cccc(S(=O)(=O)[O-])c6F)c6nc(c(-c7cccc(S(=O)(=O)[O-])c7F)c7ccc4[nH]7)C=C6)C=C5)cc3)C2)CCCC1
REMARK SMILES IDX 15 1 14 2 13 3 12 4 11 5 9 6 10 7 8 9 5 10 6 11 84 12 7 13
REMARK SMILES IDX 3 14 4 15 2 16 1 17 85 18 88 19 86 20 87 21 16 22 17 23
REMARK SMILES IDX 18 24 19 25 20 27 21 28 22 29 83 30 23 31 82 32 24 33 25 34
REMARK SMILES IDX 26 35 76 36 27 37 81 38 75 39 77 40 28 41 80 42 74 43 73 44
REMARK SMILES IDX 29 46 61 47 41 48 60 49 42 50 45 51 59 52 78 53 43 54 44 55
REMARK SMILES IDX 58 57 79 58 46 59 30 60 31 61 39 62 32 63 34 64 40 65 33 66
REMARK SMILES IDX 35 67 36 68 37 69 38 70 62 71 63 72 71 73 64 74 66 75 72 76
REMARK SMILES IDX 65 77 67 78 68 79 69 80 70 81 47 82 48 83 56 84 49 85 51 86
REMARK SMILES IDX 57 87 50 88 52 89 53 90 54 91 55 92
REMARK H PARENT 11 8 18 26 77 45 45 56
REMARK Flexibility Score: inf
ROOT
ATOM      1  C   UNL     1      -1.158  -6.061   1.359  1.00  0.00     0.002 C 
ENDROOT
BRANCH   1   2
ATOM      2  C   UNL     1       0.185  -6.323   0.668  1.00  0.00     0.002 C 
BRANCH   2   3
ATOM      3  C   UNL     1       1.011  -5.073   0.358  1.00  0.00     0.021 C 
BRANCH   3   4
ATOM      4  C   UNL     1       1.348  -4.221   1.579  1.00  0.00     0.116 C 
BRANCH   4   5
ATOM      5  N   UNL     1       2.348  -4.842   2.425  1.00  0.00    -0.356 N 
ATOM      6  C   UNL     1       3.555  -4.381   2.850  1.00  0.00     0.224 C 
ATOM      7  O   UNL     1       4.224  -5.127   3.573  1.00  0.00    -0.275 OA
ATOM      8  H   UNL     1       2.115  -5.744   2.744  1.00  0.00     0.163 HD
BRANCH   6   9
ATOM      9  C   UNL     1       4.104  -3.019   2.451  1.00  0.00     0.099 C 
ATOM     10  N   UNL     1       2.883  -1.171   1.606  1.00  0.00    -0.341 N 
ATOM     11  C   UNL     1       3.924  -1.440   0.638  1.00  0.00     0.120 C 
ATOM     12  C   UNL     1       3.207  -1.849   2.853  1.00  0.00     0.133 C 
ATOM     13  C   UNL     1       4.358  -2.863   0.947  1.00  0.00     0.037 C 
BRANCH  10  14
ATOM     14  C   UNL     1       1.962  -0.141   1.611  1.00  0.00     0.228 C 
ATOM     15  O   UNL     1       1.772   0.479   2.662  1.00  0.00    -0.274 OA
BRANCH  14  16
ATOM     16  C   UNL     1       1.018   0.037   0.389  1.00  0.00     0.047 C 
ATOM     17  C   UNL     1       1.717   0.201  -0.965  1.00  0.00     0.022 C 
ATOM     18  C   UNL     1       0.048   1.221   0.610  1.00  0.00     0.016 C 
ATOM     19  C   UNL     1       0.022  -1.140   0.359  1.00  0.00     0.016 C 
ATOM     20  C   UNL     1      -1.197   0.893  -0.214  1.00  0.00     0.001 C 
ATOM     21  C   UNL     1      -1.239  -0.626  -0.326  1.00  0.00     0.001 C 
ENDBRANCH  14  16
ENDBRANCH  10  14
ENDBRANCH   6   9
ENDBRANCH   4   5
ENDBRANCH   3   4
ENDBRANCH   2   3
ENDBRANCH   1   2
BRANCH   1  22
ATOM     22  C   UNL     1      -2.084  -5.071   0.646  1.00  0.00     0.021 C 
BRANCH  22  23
ATOM     23  C   UNL     1      -2.439  -5.439  -0.792  1.00  0.00     0.116 C 
BRANCH  23  24
ATOM     24  N   UNL     1      -3.124  -6.721  -0.880  1.00  0.00    -0.352 N 
ATOM     25  C   UNL     1      -4.360  -7.019  -1.397  1.00  0.00     0.251 C 
ATOM     26  H   UNL     1      -2.627  -7.488  -0.514  1.00  0.00     0.163 HD
ATOM     27  O   UNL     1      -4.852  -8.131  -1.210  1.00  0.00    -0.269 OA
BRANCH  25  28
ATOM     28  C   UNL     1      -5.109  -5.998  -2.160  1.00  0.00     0.039 A 
ATOM     29  C   UNL     1      -6.457  -5.788  -1.863  1.00  0.00     0.014 A 
ATOM     30  C   UNL     1      -4.481  -5.242  -3.153  1.00  0.00     0.014 A 
ATOM     31  C   UNL     1      -7.154  -4.761  -2.503  1.00  0.00     0.010 A 
ATOM     32  C   UNL     1      -5.157  -4.175  -3.741  1.00  0.00     0.010 A 
ATOM     33  C   UNL     1      -6.496  -3.914  -3.411  1.00  0.00    -0.014 A 
BRANCH  33  34
ATOM     34  C   UNL     1      -7.169  -2.707  -3.958  1.00  0.00     0.031 A 
ATOM     35  C   UNL     1      -7.409  -2.557  -5.434  1.00  0.00     0.074 A 
ATOM     36  C   UNL     1      -7.477  -1.696  -3.121  1.00  0.00     0.049 A 
ATOM     37  N   UNL     1      -7.925  -1.546  -6.084  1.00  0.00    -0.248 NA
ATOM     38  C   UNL     1      -6.999  -3.678  -6.295  1.00  0.00     0.031 C 
ATOM     39  C   UNL     1      -7.220  -1.686  -1.679  1.00  0.00     0.029 A 
ATOM     40  N   UNL     1      -8.043  -0.468  -3.364  1.00  0.00    -0.354 N 
ATOM     41  C   UNL     1      -7.880  -1.894  -7.428  1.00  0.00     0.074 A 
ATOM     42  C   UNL     1      -7.258  -3.199  -7.504  1.00  0.00     0.031 C 
ATOM     43  C   UNL     1      -7.622  -0.513  -1.167  1.00  0.00     0.029 A 
ATOM     44  C   UNL     1      -8.129   0.329  -2.246  1.00  0.00     0.049 A 
ATOM     45  H   UNL     1      -8.357  -0.186  -4.253  1.00  0.00     0.167 HD
ATOM     46  C   UNL     1      -8.337  -1.201  -8.500  1.00  0.00     0.034 A 
ATOM     47  C   UNL     1      -8.545   1.602  -2.104  1.00  0.00     0.034 A 
ATOM     48  C   UNL     1      -8.973   0.087  -8.419  1.00  0.00     0.049 A 
ATOM     49  C   UNL     1      -9.051   2.346  -3.309  1.00  0.00     0.074 A 
ATOM     50  C   UNL     1      -9.545   0.828  -9.439  1.00  0.00     0.029 A 
ATOM     51  N   UNL     1      -9.103   0.838  -7.261  1.00  0.00    -0.354 N 
ATOM     52  N   UNL     1      -9.155   1.933  -4.548  1.00  0.00    -0.248 NA
ATOM     53  C   UNL     1      -9.524   3.721  -3.091  1.00  0.00     0.031 C 
ATOM     54  C   UNL     1      -9.987   2.043  -8.903  1.00  0.00     0.029 A 
ATOM     55  C   UNL     1      -9.723   2.044  -7.544  1.00  0.00     0.049 A 
ATOM     56  H   UNL     1      -8.800   0.555  -6.368  1.00  0.00     0.167 HD
ATOM     57  C   UNL     1      -9.725   2.987  -5.254  1.00  0.00     0.074 A 
ATOM     58  C   UNL     1      -9.974   4.044  -4.296  1.00  0.00     0.031 C 
ATOM     59  C   UNL     1      -9.998   3.078  -6.579  1.00  0.00     0.034 A 
BRANCH  46  60
ATOM     60  C   UNL     1      -8.205  -1.843  -9.858  1.00  0.00     0.023 A 
ATOM     61  C   UNL     1      -9.011  -2.953 -10.184  1.00  0.00     0.012 A 
ATOM     62  C   UNL     1      -7.339  -1.308 -10.832  1.00  0.00     0.148 A 
ATOM     63  C   UNL     1      -8.933  -3.542 -11.446  1.00  0.00     0.002 A 
ATOM     64  C   UNL     1      -7.301  -1.872 -12.102  1.00  0.00     0.091 A 
ATOM     65  F   UNL     1      -6.568  -0.264 -10.498  1.00  0.00    -0.205 F 
ATOM     66  C   UNL     1      -8.087  -2.995 -12.407  1.00  0.00     0.022 A 
BRANCH  64  67
ATOM     67  S   UNL     1      -6.303  -1.197 -13.435  1.00  0.00     0.127 S 
ATOM     68  O   UNL     1      -5.290  -2.239 -13.601  1.00  0.00    -0.237 OA
ATOM     69  O   UNL     1      -7.272  -1.110 -14.528  1.00  0.00    -0.237 OA
ATOM     70  O   UNL     1      -5.806   0.085 -12.957  1.00  0.00    -0.744 OA
ENDBRANCH  64  67
ENDBRANCH  46  60
BRANCH  47  71
ATOM     71  C   UNL     1      -8.523   2.246  -0.761  1.00  0.00     0.023 A 
ATOM     72  C   UNL     1      -9.735   2.548  -0.111  1.00  0.00     0.012 A 
ATOM     73  C   UNL     1      -7.306   2.537  -0.115  1.00  0.00     0.148 A 
ATOM     74  C   UNL     1      -9.735   3.159   1.144  1.00  0.00     0.002 A 
ATOM     75  C   UNL     1      -7.313   3.089   1.159  1.00  0.00     0.091 A 
ATOM     76  F   UNL     1      -6.163   2.254  -0.757  1.00  0.00    -0.205 F 
ATOM     77  C   UNL     1      -8.526   3.419   1.783  1.00  0.00     0.022 A 
BRANCH  75  78
ATOM     78  S   UNL     1      -5.809   3.328   2.111  1.00  0.00     0.127 S 
ATOM     79  O   UNL     1      -5.697   4.784   2.131  1.00  0.00    -0.237 OA
ATOM     80  O   UNL     1      -6.165   2.717   3.392  1.00  0.00    -0.237 OA
ATOM     81  O   UNL     1      -4.766   2.621   1.379  1.00  0.00    -0.744 OA
ENDBRANCH  75  78
ENDBRANCH  47  71
BRANCH  59  82
ATOM     82  C   UNL     1     -10.613   4.361  -7.076  1.00  0.00     0.023 A 
ATOM     83  C   UNL     1      -9.834   5.534  -7.133  1.00  0.00     0.012 A 
ATOM     84  C   UNL     1     -11.941   4.391  -7.547  1.00  0.00     0.148 A 
ATOM     85  C   UNL     1     -10.376   6.724  -7.617  1.00  0.00     0.002 A 
ATOM     86  C   UNL     1     -12.458   5.567  -8.076  1.00  0.00     0.091 A 
ATOM     87  F   UNL     1     -12.671   3.269  -7.470  1.00  0.00    -0.205 F 
ATOM     88  C   UNL     1     -11.683   6.737  -8.099  1.00  0.00     0.022 A 
BRANCH  86  89
ATOM     89  S   UNL     1     -14.098   5.662  -8.805  1.00  0.00     0.127 S 
ATOM     90  O   UNL     1     -14.801   6.513  -7.846  1.00  0.00    -0.237 OA
ATOM     91  O   UNL     1     -13.824   6.293 -10.096  1.00  0.00    -0.237 OA
ATOM     92  O   UNL     1     -14.582   4.291  -8.890  1.00  0.00    -0.744 OA
ENDBRANCH  86  89
ENDBRANCH  59  82
ENDBRANCH  33  34
ENDBRANCH  25  28
ENDBRANCH  23  24
ENDBRANCH  22  23
ENDBRANCH   1  22
TORSDOF 18
