REMARK SMILES C[NH+]1CCC2(CC1)OC[C@H](C(=O)NCCCCCCNC(=O)c1ccc(-c3c4nc(c(-c5cccc(S(=O)(=O)[O-])c5F)c5ccc([nH]5)c(-c5cccc(S(=O)(=O)[O-])c5F)c5nc(c(-c6cccc(S(=O)(=O)[O-])c6F)c6ccc3[nH]6)C=C5)C=C4)cc1)N2C(=O)c1cc(C(F)(F)F)cc(C(F)(F)F)c1
REMARK SMILES IDX 16 1 15 2 14 3 13 4 11 5 12 6 10 8 1 9 2 10 3 11 7 12 4 14
REMARK SMILES IDX 6 15 5 16 8 17 86 18 9 19 87 20 88 21 89 22 90 23 102 24
REMARK SMILES IDX 91 25 97 26 96 27 92 28 93 29 94 30 95 31 98 32 99 33 100 34
REMARK SMILES IDX 101 35 17 36 18 37 19 38 20 39 21 40 22 42 23 43 24 44 85 45
REMARK SMILES IDX 25 46 84 47 26 48 27 49 28 50 78 51 29 52 83 53 77 54 79 55
REMARK SMILES IDX 30 56 82 57 76 58 75 59 31 61 63 62 43 63 62 64 44 65 47 66
REMARK SMILES IDX 61 67 80 68 45 69 46 70 60 72 81 73 48 74 32 75 33 76 41 77
REMARK SMILES IDX 34 78 36 79 42 80 35 81 37 82 38 83 39 84 40 85 64 86 65 87
REMARK SMILES IDX 73 88 66 89 68 90 74 91 67 92 69 93 70 94 71 95 72 96 49 97
REMARK SMILES IDX 50 98 58 99 51 100 53 101 59 102 52 103 54 104 55 105 56 106
REMARK SMILES IDX 57 107
REMARK H PARENT 13 7 2 13 20 41 79 60 47 71
REMARK Flexibility Score: inf
ROOT
ATOM      1  C   UNL     1       7.496  -4.788   0.591  1.00  0.00     0.002 C 
ENDROOT
BRANCH   1   2
ATOM      2  C   UNL     1       7.087  -3.959   1.810  1.00  0.00     0.021 C 
BRANCH   2   3
ATOM      3  C   UNL     1       5.617  -3.563   1.849  1.00  0.00     0.116 C 
BRANCH   3   4
ATOM      4  N   UNL     1       4.746  -4.616   2.354  1.00  0.00    -0.354 N 
ATOM      5  C   UNL     1       3.665  -4.631   3.187  1.00  0.00     0.245 C 
ATOM      6  O   UNL     1       3.011  -5.684   3.150  1.00  0.00    -0.273 OA
ATOM      7  H   UNL     1       4.991  -5.510   2.024  1.00  0.00     0.163 HD
BRANCH   5   8
ATOM      8  C   UNL     1       3.160  -3.449   4.066  1.00  0.00     0.203 C 
ATOM      9  C   UNL     1       1.294   0.519  -0.536  1.00  0.00     0.332 C 
ATOM     10  N   UNL     1       0.905  -0.409   0.521  1.00  0.00    -0.337 N 
ATOM     11  C   UNL     1       1.562  -1.698   0.377  1.00  0.00     0.267 C 
ATOM     12  C   UNL     1       0.911   0.208   1.846  1.00  0.00     0.267 C 
ATOM     13  H   UNL     1      -0.082  -0.643   0.408  1.00  0.00     0.347 HD
ATOM     14  C   UNL     1       2.785  -1.907   1.235  1.00  0.00     0.120 C 
ATOM     15  C   UNL     1       1.991  -0.179   2.850  1.00  0.00     0.120 C 
ATOM     16  C   UNL     1       2.571  -1.583   2.715  1.00  0.00     0.155 C 
ATOM     17  O   UNL     1       3.926  -1.418   3.271  1.00  0.00    -0.352 OA
ATOM     18  N   UNL     1       2.030  -2.710   3.503  1.00  0.00    -0.295 N 
ATOM     19  C   UNL     1       4.110  -2.334   4.361  1.00  0.00     0.198 C 
BRANCH  18  20
ATOM     20  C   UNL     1       0.758  -3.097   3.906  1.00  0.00     0.256 C 
ATOM     21  O   UNL     1       0.551  -4.032   4.679  1.00  0.00    -0.269 OA
BRANCH  20  22
ATOM     22  C   UNL     1      -0.445  -2.353   3.510  1.00  0.00     0.041 A 
ATOM     23  C   UNL     1      -1.060  -1.489   4.425  1.00  0.00     0.027 A 
ATOM     24  C   UNL     1      -1.031  -2.586   2.268  1.00  0.00     0.027 A 
ATOM     25  C   UNL     1      -2.200  -0.757   4.049  1.00  0.00     0.057 A 
ATOM     26  C   UNL     1      -2.089  -1.779   1.826  1.00  0.00     0.057 A 
ATOM     27  C   UNL     1      -2.682  -0.883   2.733  1.00  0.00     0.026 A 
BRANCH  25  28
ATOM     28  C   UNL     1      -2.877   0.160   5.040  1.00  0.00     0.416 C 
ATOM     29  F   UNL     1      -3.473  -0.526   6.054  1.00  0.00    -0.166 F 
ATOM     30  F   UNL     1      -2.010   1.026   5.630  1.00  0.00    -0.166 F 
ATOM     31  F   UNL     1      -3.857   0.928   4.487  1.00  0.00    -0.166 F 
ENDBRANCH  25  28
BRANCH  26  32
ATOM     32  C   UNL     1      -2.518  -1.795   0.376  1.00  0.00     0.416 C 
ATOM     33  F   UNL     1      -3.815  -2.182   0.227  1.00  0.00    -0.166 F 
ATOM     34  F   UNL     1      -2.430  -0.568  -0.206  1.00  0.00    -0.166 F 
ATOM     35  F   UNL     1      -1.785  -2.638  -0.403  1.00  0.00    -0.166 F 
ENDBRANCH  26  32
ENDBRANCH  20  22
ENDBRANCH  18  20
ENDBRANCH   5   8
ENDBRANCH   3   4
ENDBRANCH   2   3
ENDBRANCH   1   2
BRANCH   1  36
ATOM     36  C   UNL     1       7.194  -4.163  -0.777  1.00  0.00     0.002 C 
BRANCH  36  37
ATOM     37  C   UNL     1       7.682  -2.726  -0.986  1.00  0.00     0.021 C 
BRANCH  37  38
ATOM     38  C   UNL     1       9.176  -2.504  -0.767  1.00  0.00     0.116 C 
BRANCH  38  39
ATOM     39  N   UNL     1       9.990  -3.336  -1.638  1.00  0.00    -0.352 N 
ATOM     40  C   UNL     1      10.989  -2.979  -2.510  1.00  0.00     0.251 C 
ATOM     41  H   UNL     1       9.796  -4.300  -1.597  1.00  0.00     0.163 HD
ATOM     42  O   UNL     1      11.433  -3.807  -3.299  1.00  0.00    -0.269 OA
BRANCH  40  43
ATOM     43  C   UNL     1      11.520  -1.598  -2.508  1.00  0.00     0.039 A 
ATOM     44  C   UNL     1      11.742  -0.960  -3.731  1.00  0.00     0.014 A 
ATOM     45  C   UNL     1      11.818  -0.942  -1.310  1.00  0.00     0.014 A 
ATOM     46  C   UNL     1      12.209   0.356  -3.752  1.00  0.00     0.010 A 
ATOM     47  C   UNL     1      12.218   0.392  -1.331  1.00  0.00     0.010 A 
ATOM     48  C   UNL     1      12.422   1.054  -2.551  1.00  0.00    -0.014 A 
BRANCH  48  49
ATOM     49  C   UNL     1      12.838   2.480  -2.552  1.00  0.00     0.031 A 
ATOM     50  C   UNL     1      14.161   2.888  -1.963  1.00  0.00     0.074 A 
ATOM     51  C   UNL     1      11.983   3.419  -3.003  1.00  0.00     0.049 A 
ATOM     52  N   UNL     1      14.664   4.087  -1.818  1.00  0.00    -0.248 NA
ATOM     53  C   UNL     1      15.022   1.811  -1.446  1.00  0.00     0.031 C 
ATOM     54  C   UNL     1      10.641   3.157  -3.529  1.00  0.00     0.029 A 
ATOM     55  N   UNL     1      12.101   4.785  -3.065  1.00  0.00    -0.354 N 
ATOM     56  C   UNL     1      15.878   3.914  -1.165  1.00  0.00     0.074 A 
ATOM     57  C   UNL     1      16.023   2.497  -0.913  1.00  0.00     0.031 C 
ATOM     58  C   UNL     1      10.062   4.322  -3.859  1.00  0.00     0.029 A 
ATOM     59  C   UNL     1      10.974   5.415  -3.538  1.00  0.00     0.049 A 
ATOM     60  H   UNL     1      12.916   5.268  -2.796  1.00  0.00     0.167 HD
ATOM     61  C   UNL     1      16.801   4.847  -0.828  1.00  0.00     0.034 A 
ATOM     62  C   UNL     1      10.699   6.726  -3.685  1.00  0.00     0.034 A 
ATOM     63  C   UNL     1      16.669   6.251  -1.112  1.00  0.00     0.049 A 
ATOM     64  C   UNL     1      11.754   7.739  -3.331  1.00  0.00     0.074 A 
ATOM     65  C   UNL     1      17.587   7.263  -0.892  1.00  0.00     0.029 A 
ATOM     66  N   UNL     1      15.546   6.844  -1.667  1.00  0.00    -0.354 N 
ATOM     67  N   UNL     1      12.962   7.542  -2.861  1.00  0.00    -0.248 NA
ATOM     68  C   UNL     1      11.421   9.152  -3.559  1.00  0.00     0.031 C 
ATOM     69  C   UNL     1      17.007   8.473  -1.286  1.00  0.00     0.029 A 
ATOM     70  C   UNL     1      15.741   8.210  -1.784  1.00  0.00     0.049 A 
ATOM     71  H   UNL     1      14.730   6.365  -1.939  1.00  0.00     0.167 HD
ATOM     72  C   UNL     1      13.545   8.800  -2.770  1.00  0.00     0.074 A 
ATOM     73  C   UNL     1      12.566   9.750  -3.256  1.00  0.00     0.031 C 
ATOM     74  C   UNL     1      14.776   9.140  -2.312  1.00  0.00     0.034 A 
BRANCH  61  75
ATOM     75  C   UNL     1      18.062   4.373  -0.151  1.00  0.00     0.023 A 
ATOM     76  C   UNL     1      19.016   3.642  -0.889  1.00  0.00     0.012 A 
ATOM     77  C   UNL     1      18.333   4.702   1.191  1.00  0.00     0.148 A 
ATOM     78  C   UNL     1      20.202   3.214  -0.293  1.00  0.00     0.002 A 
ATOM     79  C   UNL     1      19.538   4.312   1.766  1.00  0.00     0.091 A 
ATOM     80  F   UNL     1      17.407   5.380   1.883  1.00  0.00    -0.205 F 
ATOM     81  C   UNL     1      20.467   3.558   1.030  1.00  0.00     0.022 A 
BRANCH  79  82
ATOM     82  S   UNL     1      20.010   4.773   3.437  1.00  0.00     0.127 S 
ATOM     83  O   UNL     1      19.931   3.487   4.130  1.00  0.00    -0.237 OA
ATOM     84  O   UNL     1      21.369   5.279   3.244  1.00  0.00    -0.237 OA
ATOM     85  O   UNL     1      19.043   5.773   3.866  1.00  0.00    -0.744 OA
ENDBRANCH  79  82
ENDBRANCH  61  75
BRANCH  62  86
ATOM     86  C   UNL     1       9.385   7.153  -4.246  1.00  0.00     0.023 A 
ATOM     87  C   UNL     1       9.333   7.724  -5.532  1.00  0.00     0.012 A 
ATOM     88  C   UNL     1       8.188   6.971  -3.527  1.00  0.00     0.148 A 
ATOM     89  C   UNL     1       8.118   8.137  -6.078  1.00  0.00     0.002 A 
ATOM     90  C   UNL     1       6.974   7.332  -4.100  1.00  0.00     0.091 A 
ATOM     91  F   UNL     1       8.259   6.435  -2.300  1.00  0.00    -0.205 F 
ATOM     92  C   UNL     1       6.938   7.932  -5.368  1.00  0.00     0.022 A 
BRANCH  90  93
ATOM     93  S   UNL     1       5.397   6.980  -3.315  1.00  0.00     0.127 S 
ATOM     94  O   UNL     1       4.944   8.317  -2.942  1.00  0.00    -0.237 OA
ATOM     95  O   UNL     1       4.648   6.357  -4.407  1.00  0.00    -0.237 OA
ATOM     96  O   UNL     1       5.698   6.082  -2.208  1.00  0.00    -0.744 OA
ENDBRANCH  90  93
ENDBRANCH  62  86
BRANCH  74  97
ATOM     97  C   UNL     1      15.153  10.599  -2.342  1.00  0.00     0.023 A 
ATOM     98  C   UNL     1      14.557  11.498  -1.435  1.00  0.00     0.012 A 
ATOM     99  C   UNL     1      16.151  11.064  -3.222  1.00  0.00     0.148 A 
ATOM    100  C   UNL     1      14.923  12.843  -1.428  1.00  0.00     0.002 A 
ATOM    101  C   UNL     1      16.547  12.395  -3.174  1.00  0.00     0.091 A 
ATOM    102  F   UNL     1      16.693  10.197  -4.090  1.00  0.00    -0.205 F 
ATOM    103  C   UNL     1      15.925  13.289  -2.287  1.00  0.00     0.022 A 
BRANCH 101 104
ATOM    104  S   UNL     1      17.895  13.037  -4.173  1.00  0.00     0.127 S 
ATOM    105  O   UNL     1      17.179  13.867  -5.140  1.00  0.00    -0.237 OA
ATOM    106  O   UNL     1      18.680  13.784  -3.190  1.00  0.00    -0.237 OA
ATOM    107  O   UNL     1      18.572  11.873  -4.729  1.00  0.00    -0.744 OA
ENDBRANCH 101 104
ENDBRANCH  74  97
ENDBRANCH  48  49
ENDBRANCH  40  43
ENDBRANCH  38  39
ENDBRANCH  37  38
ENDBRANCH  36  37
ENDBRANCH   1  36
TORSDOF 20
