REMARK SMILES CC[C@H](C(=O)NCc1ccc(C(=O)NCCCCCCNC(=O)c2ccc(-c3c4nc(c(-c5cccc(S(=O)(=O)[O-])c5F)c5ccc([nH]5)c(-c5cccc(S(=O)(=O)[O-])c5F)c5nc(c(-c6cccc(S(=O)(=O)[O-])c6F)c6ccc3[nH]6)C=C5)C=C4)cc2)o1)c1ccccc1
REMARK SMILES IDX 17 1 16 2 15 3 14 4 12 5 13 6 11 8 8 9 9 10 87 11 10 12 7 13
REMARK SMILES IDX 6 14 4 15 5 16 3 18 2 19 1 20 88 21 89 22 93 23 90 24 92 25
REMARK SMILES IDX 91 26 18 27 19 28 20 29 21 30 22 31 23 33 24 34 25 35 86 36
REMARK SMILES IDX 26 37 85 38 27 39 28 40 29 41 79 42 30 43 84 44 78 45 80 46
REMARK SMILES IDX 31 47 83 48 77 49 76 50 32 52 64 53 44 54 63 55 45 56 48 57
REMARK SMILES IDX 62 58 81 59 46 60 47 61 61 63 82 64 49 65 33 66 34 67 42 68
REMARK SMILES IDX 35 69 37 70 43 71 36 72 38 73 39 74 40 75 41 76 65 77 66 78
REMARK SMILES IDX 74 79 67 80 69 81 75 82 68 83 70 84 71 85 72 86 73 87 50 88
REMARK SMILES IDX 51 89 59 90 52 91 54 92 60 93 53 94 55 95 56 96 57 97 58 98
REMARK H PARENT 14 7 6 17 21 32 80 51 48 62
REMARK Flexibility Score: inf
ROOT
ATOM      1  C   UNL     1      -7.959  -1.704   5.311  1.00  0.00     0.002 C 
ENDROOT
BRANCH   1   2
ATOM      2  C   UNL     1      -6.816  -1.242   4.399  1.00  0.00     0.021 C 
BRANCH   2   3
ATOM      3  C   UNL     1      -5.483  -1.891   4.766  1.00  0.00     0.116 C 
BRANCH   3   4
ATOM      4  N   UNL     1      -5.348  -3.168   4.112  1.00  0.00    -0.349 N 
ATOM      5  C   UNL     1      -4.754  -3.507   2.922  1.00  0.00     0.286 C 
ATOM      6  O   UNL     1      -4.850  -4.695   2.605  1.00  0.00    -0.266 OA
ATOM      7  H   UNL     1      -5.750  -3.923   4.599  1.00  0.00     0.163 HD
BRANCH   5   8
ATOM      8  C   UNL     1      -4.045  -2.528   2.114  1.00  0.00     0.191 A 
ATOM      9  C   UNL     1      -2.715  -2.021   0.418  1.00  0.00     0.124 A 
ATOM     10  C   UNL     1      -2.956  -0.840   1.075  1.00  0.00     0.048 A 
ATOM     11  O   UNL     1      -3.375  -3.037   1.029  1.00  0.00    -0.454 OA
ATOM     12  C   UNL     1      -3.835  -1.158   2.135  1.00  0.00     0.056 A 
BRANCH   9  13
ATOM     13  C   UNL     1      -1.893  -2.408  -0.743  1.00  0.00     0.191 C 
BRANCH  13  14
ATOM     14  N   UNL     1      -0.940  -1.353  -1.033  1.00  0.00    -0.348 N 
ATOM     15  C   UNL     1       0.419  -1.342  -0.907  1.00  0.00     0.227 C 
ATOM     16  O   UNL     1       1.010  -0.300  -1.208  1.00  0.00    -0.274 OA
ATOM     17  H   UNL     1      -1.334  -0.517  -1.372  1.00  0.00     0.163 HD
BRANCH  15  18
ATOM     18  C   UNL     1       1.195  -2.571  -0.401  1.00  0.00     0.108 C 
BRANCH  18  19
ATOM     19  C   UNL     1       0.920  -2.732   1.120  1.00  0.00     0.015 C 
ATOM     20  C   UNL     1       1.732  -1.764   1.973  1.00  0.00     0.005 C 
ENDBRANCH  18  19
BRANCH  18  21
ATOM     21  C   UNL     1       0.966  -3.840  -1.237  1.00  0.00    -0.036 A 
ATOM     22  C   UNL     1       0.356  -3.799  -2.505  1.00  0.00     0.004 A 
ATOM     23  C   UNL     1       1.348  -5.098  -0.746  1.00  0.00     0.004 A 
ATOM     24  C   UNL     1      -0.037  -4.970  -3.155  1.00  0.00     0.000 A 
ATOM     25  C   UNL     1       0.981  -6.271  -1.409  1.00  0.00     0.000 A 
ATOM     26  C   UNL     1       0.254  -6.207  -2.593  1.00  0.00     0.000 A 
ENDBRANCH  18  21
ENDBRANCH  15  18
ENDBRANCH  13  14
ENDBRANCH   9  13
ENDBRANCH   5   8
ENDBRANCH   3   4
ENDBRANCH   2   3
ENDBRANCH   1   2
BRANCH   1  27
ATOM     27  C   UNL     1      -7.716  -1.448   6.805  1.00  0.00     0.002 C 
BRANCH  27  28
ATOM     28  C   UNL     1      -7.321  -0.008   7.144  1.00  0.00     0.021 C 
BRANCH  28  29
ATOM     29  C   UNL     1      -8.389   1.016   6.782  1.00  0.00     0.116 C 
BRANCH  29  30
ATOM     30  N   UNL     1      -9.621   0.765   7.514  1.00  0.00    -0.352 N 
ATOM     31  C   UNL     1     -10.284   1.583   8.391  1.00  0.00     0.251 C 
ATOM     32  H   UNL     1     -10.036  -0.115   7.358  1.00  0.00     0.163 HD
ATOM     33  O   UNL     1     -11.136   1.122   9.141  1.00  0.00    -0.269 OA
BRANCH  31  34
ATOM     34  C   UNL     1      -9.961   3.024   8.416  1.00  0.00     0.039 A 
ATOM     35  C   UNL     1      -9.846   3.675   9.645  1.00  0.00     0.014 A 
ATOM     36  C   UNL     1      -9.788   3.728   7.221  1.00  0.00     0.014 A 
ATOM     37  C   UNL     1      -9.522   5.031   9.675  1.00  0.00     0.010 A 
ATOM     38  C   UNL     1      -9.383   5.056   7.255  1.00  0.00     0.010 A 
ATOM     39  C   UNL     1      -9.268   5.726   8.480  1.00  0.00    -0.014 A 
BRANCH  39  40
ATOM     40  C   UNL     1      -8.892   7.161   8.491  1.00  0.00     0.031 A 
ATOM     41  C   UNL     1      -9.780   8.177   7.827  1.00  0.00     0.074 A 
ATOM     42  C   UNL     1      -7.715   7.535   9.027  1.00  0.00     0.049 A 
ATOM     43  N   UNL     1      -9.599   9.465   7.690  1.00  0.00    -0.248 NA
ATOM     44  C   UNL     1     -11.020   7.678   7.208  1.00  0.00     0.031 C 
ATOM     45  C   UNL     1      -6.734   6.629   9.628  1.00  0.00     0.029 A 
ATOM     46  N   UNL     1      -7.132   8.772   9.128  1.00  0.00    -0.354 N 
ATOM     47  C   UNL     1     -10.677   9.922   6.941  1.00  0.00     0.074 A 
ATOM     48  C   UNL     1     -11.486   8.768   6.617  1.00  0.00     0.031 C 
ATOM     49  C   UNL     1      -5.674   7.341  10.041  1.00  0.00     0.029 A 
ATOM     50  C   UNL     1      -5.884   8.746   9.705  1.00  0.00     0.049 A 
ATOM     51  H   UNL     1      -7.565   9.600   8.818  1.00  0.00     0.167 HD
ATOM     52  C   UNL     1     -10.981  11.190   6.578  1.00  0.00     0.034 A 
ATOM     53  C   UNL     1      -5.003   9.741   9.928  1.00  0.00     0.034 A 
ATOM     54  C   UNL     1     -10.189  12.336   6.932  1.00  0.00     0.049 A 
ATOM     55  C   UNL     1      -5.379  11.146   9.549  1.00  0.00     0.074 A 
ATOM     56  C   UNL     1     -10.453  13.673   6.693  1.00  0.00     0.029 A 
ATOM     57  N   UNL     1      -8.968  12.281   7.588  1.00  0.00    -0.354 N 
ATOM     58  N   UNL     1      -6.477  11.581   8.979  1.00  0.00    -0.248 NA
ATOM     59  C   UNL     1      -4.413  12.204   9.877  1.00  0.00     0.031 C 
ATOM     60  C   UNL     1      -9.375  14.423   7.172  1.00  0.00     0.029 A 
ATOM     61  C   UNL     1      -8.459  13.558   7.750  1.00  0.00     0.049 A 
ATOM     62  H   UNL     1      -8.529  11.456   7.895  1.00  0.00     0.167 HD
ATOM     63  C   UNL     1      -6.352  12.964   8.915  1.00  0.00     0.074 A 
ATOM     64  C   UNL     1      -5.078  13.295   9.520  1.00  0.00     0.031 C 
ATOM     65  C   UNL     1      -7.210  13.876   8.395  1.00  0.00     0.034 A 
BRANCH  52  66
ATOM     66  C   UNL     1     -12.246  11.405   5.786  1.00  0.00     0.023 A 
ATOM     67  C   UNL     1     -13.500  11.202   6.398  1.00  0.00     0.012 A 
ATOM     68  C   UNL     1     -12.195  11.842   4.448  1.00  0.00     0.148 A 
ATOM     69  C   UNL     1     -14.681  11.384   5.679  1.00  0.00     0.002 A 
ATOM     70  C   UNL     1     -13.377  12.072   3.753  1.00  0.00     0.091 A 
ATOM     71  F   UNL     1     -10.995  12.011   3.874  1.00  0.00    -0.205 F 
ATOM     72  C   UNL     1     -14.620  11.828   4.361  1.00  0.00     0.022 A 
BRANCH  70  73
ATOM     73  S   UNL     1     -13.405  12.724   2.080  1.00  0.00     0.127 S 
ATOM     74  O   UNL     1     -13.841  11.556   1.316  1.00  0.00    -0.237 OA
ATOM     75  O   UNL     1     -14.401  13.791   2.184  1.00  0.00    -0.237 OA
ATOM     76  O   UNL     1     -12.051  13.182   1.805  1.00  0.00    -0.744 OA
ENDBRANCH  70  73
ENDBRANCH  52  66
BRANCH  53  77
ATOM     77  C   UNL     1      -3.707   9.443  10.599  1.00  0.00     0.023 A 
ATOM     78  C   UNL     1      -3.489   9.888  11.917  1.00  0.00     0.012 A 
ATOM     79  C   UNL     1      -2.709   8.687   9.954  1.00  0.00     0.148 A 
ATOM     80  C   UNL     1      -2.288   9.611  12.571  1.00  0.00     0.002 A 
ATOM     81  C   UNL     1      -1.539   8.367  10.630  1.00  0.00     0.091 A 
ATOM     82  F   UNL     1      -2.937   8.278   8.698  1.00  0.00    -0.205 F 
ATOM     83  C   UNL     1      -1.318   8.843  11.932  1.00  0.00     0.022 A 
BRANCH  81  84
ATOM     84  S   UNL     1      -0.294   7.271   9.940  1.00  0.00     0.127 S 
ATOM     85  O   UNL     1       0.834   8.180   9.755  1.00  0.00    -0.237 OA
ATOM     86  O   UNL     1      -0.129   6.292  11.014  1.00  0.00    -0.237 OA
ATOM     87  O   UNL     1      -0.876   6.732   8.718  1.00  0.00    -0.744 OA
ENDBRANCH  81  84
ENDBRANCH  53  77
BRANCH  65  88
ATOM     88  C   UNL     1      -6.829  15.331   8.494  1.00  0.00     0.023 A 
ATOM     89  C   UNL     1      -5.784  15.845   7.701  1.00  0.00     0.012 A 
ATOM     90  C   UNL     1      -7.561  16.203   9.325  1.00  0.00     0.148 A 
ATOM     91  C   UNL     1      -5.451  17.198   7.760  1.00  0.00     0.002 A 
ATOM     92  C   UNL     1      -7.259  17.559   9.337  1.00  0.00     0.091 A 
ATOM     93  F   UNL     1      -8.540  15.691  10.085  1.00  0.00    -0.205 F 
ATOM     94  C   UNL     1      -6.196  18.056   8.566  1.00  0.00     0.022 A 
BRANCH  92  95
ATOM     95  S   UNL     1      -8.228  18.753  10.265  1.00  0.00     0.127 S 
ATOM     96  O   UNL     1      -7.301  19.121  11.334  1.00  0.00    -0.237 OA
ATOM     97  O   UNL     1      -8.462  19.801   9.272  1.00  0.00    -0.237 OA
ATOM     98  O   UNL     1      -9.429  18.049  10.696  1.00  0.00    -0.744 OA
ENDBRANCH  92  95
ENDBRANCH  65  88
ENDBRANCH  39  40
ENDBRANCH  31  34
ENDBRANCH  29  30
ENDBRANCH  28  29
ENDBRANCH  27  28
ENDBRANCH   1  27
TORSDOF 21
