REMARK SMILES Nc1nccc(N2CCC[C@@](Cc3ccc(F)cc3F)(C(=O)NCCCCCCNC(=O)c3ccc(-c4c5nc(c(-c6cccc(S(=O)(=O)[O-])c6F)c6ccc([nH]6)c(-c6cccc(S(=O)(=O)[O-])c6F)c6nc(c(-c7cccc(S(=O)(=O)[O-])c7F)c7ccc4[nH]7)C=C6)C=C5)cc3)C2)n1
REMARK SMILES IDX 27 1 26 2 25 3 24 4 23 5 21 6 22 7 11 9 7 10 8 11 96 12 9 13
REMARK SMILES IDX 10 14 6 15 2 16 3 17 97 18 4 19 5 20 1 21 12 24 13 25 14 26
REMARK SMILES IDX 19 27 15 28 18 29 20 30 16 31 17 32 28 33 29 34 30 35 31 36
REMARK SMILES IDX 32 38 33 39 34 40 95 41 35 42 94 43 36 44 37 45 38 46 88 47
REMARK SMILES IDX 39 48 93 49 87 50 89 51 40 52 92 53 86 54 85 55 41 57 73 58
REMARK SMILES IDX 53 59 72 60 54 61 57 62 71 63 90 64 55 65 56 66 70 68 91 69
REMARK SMILES IDX 58 70 42 71 43 72 51 73 44 74 46 75 52 76 45 77 47 78 48 79
REMARK SMILES IDX 49 80 50 81 74 82 75 83 83 84 76 85 78 86 84 87 77 88 79 89
REMARK SMILES IDX 80 90 81 91 82 92 59 93 60 94 68 95 61 96 63 97 69 98 62 99
REMARK SMILES IDX 64 100 65 101 66 102 67 103
REMARK H PARENT 23 8 1 22 1 23 30 37 89 56 57 67
REMARK Flexibility Score: inf
ROOT
ATOM      1  C   UNL     1       6.032  -7.446  -5.428  1.00  0.00     0.002 C 
ENDROOT
BRANCH   1   2
ATOM      2  C   UNL     1       5.342  -8.123  -4.234  1.00  0.00     0.002 C 
BRANCH   2   3
ATOM      3  C   UNL     1       5.347  -7.332  -2.922  1.00  0.00     0.021 C 
BRANCH   3   4
ATOM      4  C   UNL     1       4.857  -5.899  -3.061  1.00  0.00     0.116 C 
BRANCH   4   5
ATOM      5  N   UNL     1       3.420  -5.780  -3.168  1.00  0.00    -0.356 N 
ATOM      6  C   UNL     1       2.554  -4.835  -2.708  1.00  0.00     0.228 C 
ATOM      7  O   UNL     1       1.427  -4.870  -3.216  1.00  0.00    -0.274 OA
ATOM      8  H   UNL     1       2.989  -6.514  -3.662  1.00  0.00     0.163 HD
BRANCH   6   9
ATOM      9  C   UNL     1       2.917  -3.775  -1.641  1.00  0.00     0.071 C 
ATOM     10  N   UNL     1       1.780  -2.325  -0.009  1.00  0.00    -0.355 N 
ATOM     11  C   UNL     1       2.323  -2.911   1.199  1.00  0.00     0.118 C 
ATOM     12  C   UNL     1       1.533  -3.228  -1.129  1.00  0.00     0.135 C 
ATOM     13  C   UNL     1       3.669  -3.524   0.849  1.00  0.00     0.023 C 
ATOM     14  C   UNL     1       3.611  -4.412  -0.401  1.00  0.00     0.021 C 
BRANCH  10  15
ATOM     15  C   UNL     1       1.064  -1.151   0.080  1.00  0.00     0.134 A 
ATOM     16  C   UNL     1      -0.910  -0.004   0.007  1.00  0.00     0.221 A 
ATOM     17  N   UNL     1      -0.325   1.190   0.142  1.00  0.00    -0.222 NA
ATOM     18  N   UNL     1      -0.271  -1.176  -0.048  1.00  0.00    -0.196 NA
ATOM     19  C   UNL     1       1.012   1.182   0.246  1.00  0.00     0.119 A 
ATOM     20  C   UNL     1       1.757   0.032   0.241  1.00  0.00     0.067 A 
BRANCH  16  21
ATOM     21  N   UNL     1      -2.272  -0.025  -0.066  1.00  0.00    -0.368 N 
ATOM     22  H   UNL     1      -2.781   0.817  -0.028  1.00  0.00     0.159 HD
ATOM     23  H   UNL     1      -2.747  -0.883  -0.156  1.00  0.00     0.159 HD
ENDBRANCH  16  21
ENDBRANCH  10  15
BRANCH   9  24
ATOM     24  C   UNL     1       3.642  -2.539  -2.272  1.00  0.00     0.057 C 
BRANCH  24  25
ATOM     25  C   UNL     1       4.974  -2.694  -2.960  1.00  0.00    -0.011 A 
ATOM     26  C   UNL     1       5.040  -2.881  -4.351  1.00  0.00     0.010 A 
ATOM     27  C   UNL     1       6.173  -2.627  -2.237  1.00  0.00     0.129 A 
ATOM     28  C   UNL     1       6.275  -3.069  -4.976  1.00  0.00     0.040 A 
ATOM     29  C   UNL     1       7.406  -2.809  -2.853  1.00  0.00     0.078 A 
ATOM     30  F   UNL     1       6.142  -2.404  -0.917  1.00  0.00    -0.207 F 
ATOM     31  C   UNL     1       7.442  -3.046  -4.219  1.00  0.00     0.126 A 
ATOM     32  F   UNL     1       8.614  -3.290  -4.817  1.00  0.00    -0.207 F 
ENDBRANCH  24  25
ENDBRANCH   9  24
ENDBRANCH   6   9
ENDBRANCH   4   5
ENDBRANCH   3   4
ENDBRANCH   2   3
ENDBRANCH   1   2
BRANCH   1  33
ATOM     33  C   UNL     1       7.449  -6.922  -5.172  1.00  0.00     0.021 C 
BRANCH  33  34
ATOM     34  C   UNL     1       8.449  -7.970  -4.702  1.00  0.00     0.116 C 
BRANCH  34  35
ATOM     35  N   UNL     1       8.595  -9.057  -5.656  1.00  0.00    -0.352 N 
ATOM     36  C   UNL     1       9.736  -9.612  -6.171  1.00  0.00     0.251 C 
ATOM     37  H   UNL     1       7.752  -9.451  -5.978  1.00  0.00     0.163 HD
ATOM     38  O   UNL     1       9.657 -10.408  -7.108  1.00  0.00    -0.269 OA
BRANCH  36  39
ATOM     39  C   UNL     1      11.058  -9.249  -5.616  1.00  0.00     0.039 A 
ATOM     40  C   UNL     1      12.121  -9.028  -6.496  1.00  0.00     0.014 A 
ATOM     41  C   UNL     1      11.257  -9.146  -4.237  1.00  0.00     0.014 A 
ATOM     42  C   UNL     1      13.372  -8.664  -5.994  1.00  0.00     0.010 A 
ATOM     43  C   UNL     1      12.482  -8.705  -3.743  1.00  0.00     0.010 A 
ATOM     44  C   UNL     1      13.557  -8.476  -4.614  1.00  0.00    -0.014 A 
BRANCH  44  45
ATOM     45  C   UNL     1      14.868  -8.048  -4.066  1.00  0.00     0.031 A 
ATOM     46  C   UNL     1      15.628  -8.948  -3.128  1.00  0.00     0.074 A 
ATOM     47  C   UNL     1      15.338  -6.817  -4.350  1.00  0.00     0.049 A 
ATOM     48  N   UNL     1      16.768  -8.735  -2.525  1.00  0.00    -0.248 NA
ATOM     49  C   UNL     1      15.014 -10.246  -2.803  1.00  0.00     0.031 C 
ATOM     50  C   UNL     1      14.659  -5.825  -5.186  1.00  0.00     0.029 A 
ATOM     51  N   UNL     1      16.488  -6.183  -3.951  1.00  0.00    -0.354 N 
ATOM     52  C   UNL     1      16.986  -9.846  -1.718  1.00  0.00     0.074 A 
ATOM     53  C   UNL     1      15.845 -10.718  -1.885  1.00  0.00     0.031 C 
ATOM     54  C   UNL     1      15.412  -4.715  -5.250  1.00  0.00     0.029 A 
ATOM     55  C   UNL     1      16.608  -4.902  -4.436  1.00  0.00     0.049 A 
ATOM     56  H   UNL     1      17.163  -6.606  -3.372  1.00  0.00     0.167 HD
ATOM     57  C   UNL     1      18.049 -10.127  -0.928  1.00  0.00     0.034 A 
ATOM     58  C   UNL     1      17.572  -3.981  -4.244  1.00  0.00     0.034 A 
ATOM     59  C   UNL     1      19.202  -9.277  -0.803  1.00  0.00     0.049 A 
ATOM     60  C   UNL     1      18.761  -4.335  -3.392  1.00  0.00     0.074 A 
ATOM     61  C   UNL     1      20.378  -9.520  -0.115  1.00  0.00     0.029 A 
ATOM     62  N   UNL     1      19.321  -8.016  -1.366  1.00  0.00    -0.354 N 
ATOM     63  N   UNL     1      19.028  -5.459  -2.773  1.00  0.00    -0.248 NA
ATOM     64  C   UNL     1      19.799  -3.305  -3.241  1.00  0.00     0.031 C 
ATOM     65  C   UNL     1      21.193  -8.389  -0.232  1.00  0.00     0.029 A 
ATOM     66  C   UNL     1      20.541  -7.458  -1.025  1.00  0.00     0.049 A 
ATOM     67  H   UNL     1      18.638  -7.581  -1.926  1.00  0.00     0.167 HD
ATOM     68  C   UNL     1      20.281  -5.288  -2.195  1.00  0.00     0.074 A 
ATOM     69  C   UNL     1      20.727  -3.957  -2.553  1.00  0.00     0.031 C 
ATOM     70  C   UNL     1      20.994  -6.151  -1.429  1.00  0.00     0.034 A 
BRANCH  57  71
ATOM     71  C   UNL     1      18.032 -11.425  -0.162  1.00  0.00     0.023 A 
ATOM     72  C   UNL     1      18.162 -12.649  -0.850  1.00  0.00     0.012 A 
ATOM     73  C   UNL     1      17.939 -11.431   1.244  1.00  0.00     0.148 A 
ATOM     74  C   UNL     1      18.158 -13.859  -0.156  1.00  0.00     0.002 A 
ATOM     75  C   UNL     1      17.985 -12.637   1.932  1.00  0.00     0.091 A 
ATOM     76  F   UNL     1      17.793 -10.260   1.880  1.00  0.00    -0.205 F 
ATOM     77  C   UNL     1      18.081 -13.852   1.234  1.00  0.00     0.022 A 
BRANCH  75  78
ATOM     78  S   UNL     1      17.975 -12.728   3.726  1.00  0.00     0.127 S 
ATOM     79  O   UNL     1      16.642 -13.269   3.986  1.00  0.00    -0.237 OA
ATOM     80  O   UNL     1      19.073 -13.659   3.993  1.00  0.00    -0.237 OA
ATOM     81  O   UNL     1      18.203 -11.370   4.199  1.00  0.00    -0.744 OA
ENDBRANCH  75  78
ENDBRANCH  57  71
BRANCH  58  82
ATOM     82  C   UNL     1      17.493  -2.662  -4.933  1.00  0.00     0.023 A 
ATOM     83  C   UNL     1      18.400  -2.372  -5.971  1.00  0.00     0.012 A 
ATOM     84  C   UNL     1      16.518  -1.707  -4.587  1.00  0.00     0.148 A 
ATOM     85  C   UNL     1      18.360  -1.143  -6.630  1.00  0.00     0.002 A 
ATOM     86  C   UNL     1      16.449  -0.505  -5.284  1.00  0.00     0.091 A 
ATOM     87  F   UNL     1      15.669  -1.998  -3.591  1.00  0.00    -0.205 F 
ATOM     88  C   UNL     1      17.380  -0.214  -6.293  1.00  0.00     0.022 A 
BRANCH  86  89
ATOM     89  S   UNL     1      15.146   0.700  -5.005  1.00  0.00     0.127 S 
ATOM     90  O   UNL     1      15.888   1.808  -4.409  1.00  0.00    -0.237 OA
ATOM     91  O   UNL     1      14.664   0.941  -6.365  1.00  0.00    -0.237 OA
ATOM     92  O   UNL     1      14.182   0.044  -4.131  1.00  0.00    -0.744 OA
ENDBRANCH  86  89
ENDBRANCH  58  82
BRANCH  70  93
ATOM     93  C   UNL     1      22.355  -5.709  -0.958  1.00  0.00     0.023 A 
ATOM     94  C   UNL     1      22.469  -4.717   0.036  1.00  0.00     0.012 A 
ATOM     95  C   UNL     1      23.519  -6.332  -1.450  1.00  0.00     0.148 A 
ATOM     96  C   UNL     1      23.723  -4.327   0.507  1.00  0.00     0.002 A 
ATOM     97  C   UNL     1      24.760  -5.977  -0.938  1.00  0.00     0.091 A 
ATOM     98  F   UNL     1      23.391  -7.261  -2.409  1.00  0.00    -0.205 F 
ATOM     99  C   UNL     1      24.866  -4.965   0.030  1.00  0.00     0.022 A 
BRANCH  97 100
ATOM    100  S   UNL     1      26.275  -6.815  -1.418  1.00  0.00     0.127 S 
ATOM    101  O   UNL     1      26.936  -5.794  -2.228  1.00  0.00    -0.237 OA
ATOM    102  O   UNL     1      26.909  -7.072  -0.124  1.00  0.00    -0.237 OA
ATOM    103  O   UNL     1      25.862  -8.012  -2.136  1.00  0.00    -0.744 OA
ENDBRANCH  97 100
ENDBRANCH  70  93
ENDBRANCH  44  45
ENDBRANCH  36  39
ENDBRANCH  34  35
ENDBRANCH  33  34
ENDBRANCH   1  33
TORSDOF 20
