REMARK SMILES Cc1nc(CSCC(=O)N2CCCC[C@@H]2C(=O)NCCCCCCNC(=O)c2ccc(-c3c4nc(c(-c5cccc(S(=O)(=O)[O-])c5F)c5ccc([nH]5)c(-c5cccc(S(=O)(=O)[O-])c5F)c5nc(c(-c6cccc(S(=O)(=O)[O-])c6F)c6ccc3[nH]6)C=C5)C=C4)cc2)cs1
REMARK SMILES IDX 20 1 19 2 18 3 16 4 17 5 15 7 10 8 11 9 12 10 14 11 13 12
REMARK SMILES IDX 8 13 9 14 7 15 6 16 5 17 4 18 1 19 2 20 3 21 92 22 91 23
REMARK SMILES IDX 21 24 22 25 23 26 24 27 25 28 26 29 27 31 28 32 29 33 90 34
REMARK SMILES IDX 30 35 89 36 31 37 32 38 33 39 83 40 34 41 88 42 82 43 84 44
REMARK SMILES IDX 35 45 87 46 81 47 80 48 36 50 68 51 48 52 67 53 49 54 52 55
REMARK SMILES IDX 66 56 85 57 50 58 51 59 65 61 86 62 53 63 37 64 38 65 46 66
REMARK SMILES IDX 39 67 41 68 47 69 40 70 42 71 43 72 44 73 45 74 69 75 70 76
REMARK SMILES IDX 78 77 71 78 73 79 79 80 72 81 74 82 75 83 76 84 77 85 54 86
REMARK SMILES IDX 55 87 63 88 56 89 58 90 64 91 57 92 59 93 60 94 61 95 62 96
REMARK H PARENT 18 6 25 30 84 49 52 60
REMARK Flexibility Score: inf
ROOT
ATOM      1  C   UNL     1       0.397  -5.446   1.458  1.00  0.00     0.021 C 
ENDROOT
BRANCH   1   2
ATOM      2  C   UNL     1       1.018  -5.162   0.095  1.00  0.00     0.116 C 
BRANCH   2   3
ATOM      3  N   UNL     1       2.368  -4.633   0.248  1.00  0.00    -0.354 N 
ATOM      4  C   UNL     1       3.401  -4.580  -0.640  1.00  0.00     0.242 C 
ATOM      5  O   UNL     1       4.480  -4.147  -0.221  1.00  0.00    -0.273 OA
ATOM      6  H   UNL     1       2.565  -4.253   1.134  1.00  0.00     0.163 HD
BRANCH   4   7
ATOM      7  C   UNL     1       3.307  -5.237  -2.034  1.00  0.00     0.174 C 
ATOM      8  N   UNL     1       2.043  -5.010  -2.765  1.00  0.00    -0.330 N 
ATOM      9  C   UNL     1       1.705  -5.988  -3.799  1.00  0.00     0.120 C 
ATOM     10  C   UNL     1       1.757  -7.420  -3.304  1.00  0.00     0.022 C 
ATOM     11  C   UNL     1       3.550  -6.741  -1.702  1.00  0.00     0.035 C 
ATOM     12  C   UNL     1       3.146  -7.733  -2.778  1.00  0.00     0.004 C 
BRANCH   8  13
ATOM     13  C   UNL     1       1.394  -3.785  -2.919  1.00  0.00     0.233 C 
ATOM     14  O   UNL     1       0.158  -3.773  -2.972  1.00  0.00    -0.274 OA
BRANCH  13  15
ATOM     15  C   UNL     1       2.148  -2.518  -3.302  1.00  0.00     0.170 C 
BRANCH  15  16
ATOM     16  S   UNL     1       3.105  -1.620  -2.061  1.00  0.00    -0.146 SA
BRANCH  16  17
ATOM     17  C   UNL     1       1.985  -1.615  -0.642  1.00  0.00     0.127 C 
BRANCH  17  18
ATOM     18  C   UNL     1       1.073  -0.448  -0.505  1.00  0.00     0.061 A 
ATOM     19  C   UNL     1      -2.450   0.390  -0.042  1.00  0.00     0.079 C 
ATOM     20  C   UNL     1      -0.970   0.368  -0.196  1.00  0.00     0.090 A 
ATOM     21  N   UNL     1      -0.289  -0.702  -0.533  1.00  0.00    -0.246 NA
ATOM     22  S   UNL     1      -0.025   1.769   0.100  1.00  0.00    -0.127 S 
ATOM     23  C   UNL     1       1.402   0.856  -0.184  1.00  0.00     0.091 A 
ENDBRANCH  17  18
ENDBRANCH  16  17
ENDBRANCH  15  16
ENDBRANCH  13  15
ENDBRANCH   8  13
ENDBRANCH   4   7
ENDBRANCH   2   3
ENDBRANCH   1   2
BRANCH   1  24
ATOM     24  C   UNL     1       0.053  -4.177   2.251  1.00  0.00     0.002 C 
BRANCH  24  25
ATOM     25  C   UNL     1      -1.118  -3.363   1.693  1.00  0.00     0.002 C 
BRANCH  25  26
ATOM     26  C   UNL     1      -2.434  -4.124   1.539  1.00  0.00     0.021 C 
BRANCH  26  27
ATOM     27  C   UNL     1      -2.871  -4.905   2.771  1.00  0.00     0.116 C 
BRANCH  27  28
ATOM     28  N   UNL     1      -3.092  -4.051   3.929  1.00  0.00    -0.352 N 
ATOM     29  C   UNL     1      -4.133  -4.087   4.824  1.00  0.00     0.251 C 
ATOM     30  H   UNL     1      -2.409  -3.361   4.090  1.00  0.00     0.163 HD
ATOM     31  O   UNL     1      -4.258  -3.207   5.672  1.00  0.00    -0.269 OA
BRANCH  29  32
ATOM     32  C   UNL     1      -5.117  -5.185   4.734  1.00  0.00     0.039 A 
ATOM     33  C   UNL     1      -6.479  -4.878   4.718  1.00  0.00     0.014 A 
ATOM     34  C   UNL     1      -4.687  -6.510   4.616  1.00  0.00     0.014 A 
ATOM     35  C   UNL     1      -7.411  -5.899   4.525  1.00  0.00     0.010 A 
ATOM     36  C   UNL     1      -5.611  -7.510   4.341  1.00  0.00     0.010 A 
ATOM     37  C   UNL     1      -6.983  -7.218   4.304  1.00  0.00    -0.014 A 
BRANCH  37  38
ATOM     38  C   UNL     1      -7.952  -8.311   4.035  1.00  0.00     0.031 A 
ATOM     39  C   UNL     1      -8.057  -9.475   4.982  1.00  0.00     0.074 A 
ATOM     40  C   UNL     1      -8.673  -8.300   2.897  1.00  0.00     0.049 A 
ATOM     41  N   UNL     1      -8.805 -10.544   4.897  1.00  0.00    -0.248 NA
ATOM     42  C   UNL     1      -7.181  -9.450   6.165  1.00  0.00     0.031 C 
ATOM     43  C   UNL     1      -8.605  -7.267   1.862  1.00  0.00     0.029 A 
ATOM     44  N   UNL     1      -9.589  -9.199   2.410  1.00  0.00    -0.354 N 
ATOM     45  C   UNL     1      -8.463 -11.334   5.987  1.00  0.00     0.074 A 
ATOM     46  C   UNL     1      -7.409 -10.641   6.696  1.00  0.00     0.031 C 
ATOM     47  C   UNL     1      -9.456  -7.580   0.872  1.00  0.00     0.029 A 
ATOM     48  C   UNL     1     -10.104  -8.850   1.184  1.00  0.00     0.049 A 
ATOM     49  H   UNL     1      -9.852 -10.015   2.893  1.00  0.00     0.167 HD
ATOM     50  C   UNL     1      -8.996 -12.514   6.384  1.00  0.00     0.034 A 
ATOM     51  C   UNL     1     -10.998  -9.483   0.399  1.00  0.00     0.034 A 
ATOM     52  C   UNL     1     -10.069 -13.179   5.697  1.00  0.00     0.049 A 
ATOM     53  C   UNL     1     -11.599 -10.779   0.872  1.00  0.00     0.074 A 
ATOM     54  C   UNL     1     -10.747 -14.328   6.064  1.00  0.00     0.029 A 
ATOM     55  N   UNL     1     -10.614 -12.763   4.491  1.00  0.00    -0.354 N 
ATOM     56  N   UNL     1     -11.379 -11.432   1.987  1.00  0.00    -0.248 NA
ATOM     57  C   UNL     1     -12.596 -11.408  -0.006  1.00  0.00     0.031 C 
ATOM     58  C   UNL     1     -11.678 -14.624   5.063  1.00  0.00     0.029 A 
ATOM     59  C   UNL     1     -11.607 -13.640   4.090  1.00  0.00     0.049 A 
ATOM     60  H   UNL     1     -10.335 -11.961   3.993  1.00  0.00     0.167 HD
ATOM     61  C   UNL     1     -12.236 -12.527   1.965  1.00  0.00     0.074 A 
ATOM     62  C   UNL     1     -12.990 -12.439   0.730  1.00  0.00     0.031 C 
ATOM     63  C   UNL     1     -12.380 -13.518   2.879  1.00  0.00     0.034 A 
BRANCH  50  64
ATOM     64  C   UNL     1      -8.445 -13.135   7.643  1.00  0.00     0.023 A 
ATOM     65  C   UNL     1      -8.677 -12.515   8.889  1.00  0.00     0.012 A 
ATOM     66  C   UNL     1      -7.712 -14.336   7.598  1.00  0.00     0.148 A 
ATOM     67  C   UNL     1      -8.142 -13.049  10.061  1.00  0.00     0.002 A 
ATOM     68  C   UNL     1      -7.226 -14.890   8.778  1.00  0.00     0.091 A 
ATOM     69  F   UNL     1      -7.480 -14.903   6.406  1.00  0.00    -0.205 F 
ATOM     70  C   UNL     1      -7.425 -14.240  10.006  1.00  0.00     0.022 A 
BRANCH  68  71
ATOM     71  S   UNL     1      -6.362 -16.465   8.818  1.00  0.00     0.127 S 
ATOM     72  O   UNL     1      -4.980 -16.038   9.025  1.00  0.00    -0.237 OA
ATOM     73  O   UNL     1      -6.976 -17.124   9.972  1.00  0.00    -0.237 OA
ATOM     74  O   UNL     1      -6.640 -17.104   7.540  1.00  0.00    -0.744 OA
ENDBRANCH  68  71
ENDBRANCH  50  64
BRANCH  51  75
ATOM     75  C   UNL     1     -11.442  -8.850  -0.875  1.00  0.00     0.023 A 
ATOM     76  C   UNL     1     -12.742  -8.316  -0.959  1.00  0.00     0.012 A 
ATOM     77  C   UNL     1     -10.576  -8.729  -1.979  1.00  0.00     0.148 A 
ATOM     78  C   UNL     1     -13.182  -7.694  -2.127  1.00  0.00     0.002 A 
ATOM     79  C   UNL     1     -11.003  -8.062  -3.122  1.00  0.00     0.091 A 
ATOM     80  F   UNL     1      -9.344  -9.248  -1.878  1.00  0.00    -0.205 F 
ATOM     81  C   UNL     1     -12.310  -7.557  -3.204  1.00  0.00     0.022 A 
BRANCH  79  82
ATOM     82  S   UNL     1      -9.916  -7.729  -4.513  1.00  0.00     0.127 S 
ATOM     83  O   UNL     1     -10.546  -8.507  -5.577  1.00  0.00    -0.237 OA
ATOM     84  O   UNL     1     -10.046  -6.278  -4.651  1.00  0.00    -0.237 OA
ATOM     85  O   UNL     1      -8.595  -8.182  -4.102  1.00  0.00    -0.744 OA
ENDBRANCH  79  82
ENDBRANCH  51  75
BRANCH  63  86
ATOM     86  C   UNL     1     -13.418 -14.577   2.606  1.00  0.00     0.023 A 
ATOM     87  C   UNL     1     -13.198 -15.534   1.596  1.00  0.00     0.012 A 
ATOM     88  C   UNL     1     -14.575 -14.667   3.405  1.00  0.00     0.148 A 
ATOM     89  C   UNL     1     -14.130 -16.546   1.364  1.00  0.00     0.002 A 
ATOM     90  C   UNL     1     -15.474 -15.708   3.202  1.00  0.00     0.091 A 
ATOM     91  F   UNL     1     -14.775 -13.735   4.348  1.00  0.00    -0.205 F 
ATOM     92  C   UNL     1     -15.260 -16.640   2.174  1.00  0.00     0.022 A 
BRANCH  90  93
ATOM     93  S   UNL     1     -16.902 -15.967   4.261  1.00  0.00     0.127 S 
ATOM     94  O   UNL     1     -18.002 -15.596   3.373  1.00  0.00    -0.237 OA
ATOM     95  O   UNL     1     -16.812 -17.398   4.556  1.00  0.00    -0.237 OA
ATOM     96  O   UNL     1     -16.711 -15.099   5.415  1.00  0.00    -0.744 OA
ENDBRANCH  90  93
ENDBRANCH  63  86
ENDBRANCH  37  38
ENDBRANCH  29  32
ENDBRANCH  27  28
ENDBRANCH  26  27
ENDBRANCH  25  26
ENDBRANCH  24  25
ENDBRANCH   1  24
TORSDOF 21
