REMARK SMILES Nn1c(S[C@@H](C(=O)NCCCCCCNC(=O)c2ccc(-c3c4nc(c(-c5cccc(S(=O)(=O)[O-])c5F)c5ccc([nH]5)c(-c5cccc(S(=O)(=O)[O-])c5F)c5nc(c(-c6cccc(S(=O)(=O)[O-])c6F)c6ccc3[nH]6)C=C5)C=C4)cc2)c2ccccc2)nc2ccc(Br)cc2c1=O
REMARK SMILES IDX 11 1 10 2 9 3 8 4 6 5 7 6 5 8 4 9 3 10 2 11 95 12 87 13
REMARK SMILES IDX 94 14 96 15 88 16 93 17 89 18 91 19 90 20 92 21 1 22 81 25
REMARK SMILES IDX 82 26 86 27 83 28 85 29 84 30 12 31 13 32 14 33 15 34 16 35
REMARK SMILES IDX 17 37 18 38 19 39 80 40 20 41 79 42 21 43 22 44 23 45 73 46
REMARK SMILES IDX 24 47 78 48 72 49 74 50 25 51 77 52 71 53 70 54 26 56 58 57
REMARK SMILES IDX 38 58 57 59 39 60 42 61 56 62 75 63 40 64 41 65 55 67 76 68
REMARK SMILES IDX 43 69 27 70 28 71 36 72 29 73 31 74 37 75 30 76 32 77 33 78
REMARK SMILES IDX 34 79 35 80 59 81 60 82 68 83 61 84 63 85 69 86 62 87 64 88
REMARK SMILES IDX 65 89 66 90 67 91 44 92 45 93 53 94 46 95 48 96 54 97 47 98
REMARK SMILES IDX 49 99 50 100 51 101 52 102
REMARK H PARENT 8 7 1 23 1 24 15 36 74 55 42 66
REMARK Flexibility Score: inf
ROOT
ATOM      1  C   UNL     1       5.440  -3.035   1.073  1.00  0.00     0.002 C 
ENDROOT
BRANCH   1   2
ATOM      2  C   UNL     1       4.751  -2.255   2.198  1.00  0.00     0.021 C 
BRANCH   2   3
ATOM      3  C   UNL     1       4.967  -0.737   2.183  1.00  0.00     0.116 C 
BRANCH   3   4
ATOM      4  N   UNL     1       4.467  -0.114   0.968  1.00  0.00    -0.355 N 
ATOM      5  C   UNL     1       3.342   0.622   0.724  1.00  0.00     0.238 C 
ATOM      6  O   UNL     1       3.216   1.035  -0.435  1.00  0.00    -0.273 OA
ATOM      7  H   UNL     1       5.042  -0.246   0.180  1.00  0.00     0.163 HD
BRANCH   5   8
ATOM      8  C   UNL     1       2.289   0.923   1.813  1.00  0.00     0.174 C 
BRANCH   8   9
ATOM      9  S   UNL     1       1.695  -0.552   2.639  1.00  0.00    -0.068 SA
BRANCH   9  10
ATOM     10  C   UNL     1       0.489  -1.452   1.770  1.00  0.00     0.191 A 
ATOM     11  N   UNL     1       0.352  -1.522   0.384  1.00  0.00    -0.202 N 
ATOM     12  C   UNL     1      -0.765  -2.139  -0.203  1.00  0.00     0.280 A 
ATOM     13  N   UNL     1      -0.286  -2.109   2.576  1.00  0.00    -0.222 NA
ATOM     14  C   UNL     1      -1.606  -2.938   0.703  1.00  0.00     0.069 A 
ATOM     15  O   UNL     1      -1.083  -2.065  -1.389  1.00  0.00    -0.267 OA
ATOM     16  C   UNL     1      -1.285  -2.927   2.055  1.00  0.00     0.079 A 
ATOM     17  C   UNL     1      -2.651  -3.729   0.212  1.00  0.00     0.031 A 
ATOM     18  C   UNL     1      -1.990  -3.761   2.925  1.00  0.00     0.030 A 
ATOM     19  C   UNL     1      -3.356  -4.543   1.095  1.00  0.00     0.018 A 
ATOM     20  C   UNL     1      -3.021  -4.575   2.449  1.00  0.00     0.018 A 
ATOM     21  Br  UNL     1      -4.767  -5.623   0.453  1.00  0.00    -0.051 Br
BRANCH  11  22
ATOM     22  N   UNL     1       1.307  -1.051  -0.530  1.00  0.00    -0.334 N 
ATOM     23  H   UNL     1       2.122  -0.605  -0.205  1.00  0.00     0.178 HD
ATOM     24  H   UNL     1       1.162  -1.167  -1.497  1.00  0.00     0.178 HD
ENDBRANCH  11  22
ENDBRANCH   9  10
ENDBRANCH   8   9
BRANCH   8  25
ATOM     25  C   UNL     1       1.289   2.013   1.413  1.00  0.00    -0.025 A 
ATOM     26  C   UNL     1      -0.069   1.801   1.135  1.00  0.00     0.005 A 
ATOM     27  C   UNL     1       1.778   3.328   1.256  1.00  0.00     0.005 A 
ATOM     28  C   UNL     1      -0.891   2.840   0.681  1.00  0.00     0.000 A 
ATOM     29  C   UNL     1       0.955   4.369   0.816  1.00  0.00     0.000 A 
ATOM     30  C   UNL     1      -0.379   4.121   0.517  1.00  0.00     0.000 A 
ENDBRANCH   8  25
ENDBRANCH   5   8
ENDBRANCH   3   4
ENDBRANCH   2   3
ENDBRANCH   1   2
BRANCH   1  31
ATOM     31  C   UNL     1       6.960  -2.879   0.976  1.00  0.00     0.002 C 
BRANCH  31  32
ATOM     32  C   UNL     1       7.735  -3.120   2.271  1.00  0.00     0.021 C 
BRANCH  32  33
ATOM     33  C   UNL     1       7.534  -4.490   2.911  1.00  0.00     0.116 C 
BRANCH  33  34
ATOM     34  N   UNL     1       8.121  -5.573   2.136  1.00  0.00    -0.352 N 
ATOM     35  C   UNL     1       8.998  -6.555   2.540  1.00  0.00     0.251 C 
ATOM     36  H   UNL     1       7.853  -5.609   1.189  1.00  0.00     0.163 HD
ATOM     37  O   UNL     1       9.493  -7.313   1.711  1.00  0.00    -0.269 OA
BRANCH  35  38
ATOM     38  C   UNL     1       9.376  -6.663   3.969  1.00  0.00     0.039 A 
ATOM     39  C   UNL     1       8.403  -6.608   4.970  1.00  0.00     0.014 A 
ATOM     40  C   UNL     1      10.726  -6.783   4.312  1.00  0.00     0.014 A 
ATOM     41  C   UNL     1       8.791  -6.489   6.301  1.00  0.00     0.010 A 
ATOM     42  C   UNL     1      11.108  -6.744   5.658  1.00  0.00     0.010 A 
ATOM     43  C   UNL     1      10.149  -6.537   6.661  1.00  0.00    -0.014 A 
BRANCH  43  44
ATOM     44  C   UNL     1      10.535  -6.349   8.086  1.00  0.00     0.031 A 
ATOM     45  C   UNL     1      11.340  -5.150   8.518  1.00  0.00     0.074 A 
ATOM     46  C   UNL     1      10.105  -7.232   9.009  1.00  0.00     0.049 A 
ATOM     47  N   UNL     1      11.707  -4.801   9.726  1.00  0.00    -0.248 NA
ATOM     48  C   UNL     1      11.794  -4.223   7.468  1.00  0.00     0.031 C 
ATOM     49  C   UNL     1       9.333  -8.442   8.719  1.00  0.00     0.029 A 
ATOM     50  N   UNL     1      10.235  -7.239  10.375  1.00  0.00    -0.354 N 
ATOM     51  C   UNL     1      12.459  -3.642   9.579  1.00  0.00     0.074 A 
ATOM     52  C   UNL     1      12.506  -3.346   8.164  1.00  0.00     0.031 C 
ATOM     53  C   UNL     1       9.013  -9.045   9.874  1.00  0.00     0.029 A 
ATOM     54  C   UNL     1       9.593  -8.293  10.982  1.00  0.00     0.049 A 
ATOM     55  H   UNL     1      10.739  -6.556  10.873  1.00  0.00     0.167 HD
ATOM     56  C   UNL     1      13.037  -2.878  10.535  1.00  0.00     0.034 A 
ATOM     57  C   UNL     1       9.476  -8.619  12.284  1.00  0.00     0.034 A 
ATOM     58  C   UNL     1      12.944  -3.133  11.947  1.00  0.00     0.049 A 
ATOM     59  C   UNL     1      10.114  -7.747  13.326  1.00  0.00     0.074 A 
ATOM     60  C   UNL     1      13.463  -2.383  12.988  1.00  0.00     0.029 A 
ATOM     61  N   UNL     1      12.286  -4.210  12.516  1.00  0.00    -0.354 N 
ATOM     62  N   UNL     1      10.755  -6.616  13.167  1.00  0.00    -0.248 NA
ATOM     63  C   UNL     1      10.004  -8.187  14.725  1.00  0.00     0.031 C 
ATOM     64  C   UNL     1      13.116  -3.007  14.190  1.00  0.00     0.029 A 
ATOM     65  C   UNL     1      12.383  -4.145  13.895  1.00  0.00     0.049 A 
ATOM     66  H   UNL     1      11.820  -4.917  12.015  1.00  0.00     0.167 HD
ATOM     67  C   UNL     1      11.119  -6.203  14.443  1.00  0.00     0.074 A 
ATOM     68  C   UNL     1      10.608  -7.194  15.367  1.00  0.00     0.031 C 
ATOM     69  C   UNL     1      11.832  -5.111  14.808  1.00  0.00     0.034 A 
BRANCH  56  70
ATOM     70  C   UNL     1      13.774  -1.641  10.103  1.00  0.00     0.023 A 
ATOM     71  C   UNL     1      13.038  -0.475   9.811  1.00  0.00     0.012 A 
ATOM     72  C   UNL     1      15.181  -1.598  10.088  1.00  0.00     0.148 A 
ATOM     73  C   UNL     1      13.693   0.716   9.502  1.00  0.00     0.002 A 
ATOM     74  C   UNL     1      15.827  -0.400   9.804  1.00  0.00     0.091 A 
ATOM     75  F   UNL     1      15.857  -2.724  10.358  1.00  0.00    -0.205 F 
ATOM     76  C   UNL     1      15.085   0.756   9.508  1.00  0.00     0.022 A 
BRANCH  74  77
ATOM     77  S   UNL     1      17.615  -0.225   9.837  1.00  0.00     0.127 S 
ATOM     78  O   UNL     1      17.912   0.014   8.425  1.00  0.00    -0.237 OA
ATOM     79  O   UNL     1      17.794   0.940  10.703  1.00  0.00    -0.237 OA
ATOM     80  O   UNL     1      18.133  -1.474  10.377  1.00  0.00    -0.744 OA
ENDBRANCH  74  77
ENDBRANCH  56  70
BRANCH  57  81
ATOM     81  C   UNL     1       8.657  -9.802  12.663  1.00  0.00     0.023 A 
ATOM     82  C   UNL     1       7.377  -9.602  13.213  1.00  0.00     0.012 A 
ATOM     83  C   UNL     1       9.101 -11.112  12.398  1.00  0.00     0.148 A 
ATOM     84  C   UNL     1       6.550 -10.689  13.493  1.00  0.00     0.002 A 
ATOM     85  C   UNL     1       8.255 -12.187  12.639  1.00  0.00     0.091 A 
ATOM     86  F   UNL     1      10.326 -11.272  11.880  1.00  0.00    -0.205 F 
ATOM     87  C   UNL     1       6.982 -11.979  13.195  1.00  0.00     0.022 A 
BRANCH  85  88
ATOM     88  S   UNL     1       8.675 -13.872  12.180  1.00  0.00     0.127 S 
ATOM     89  O   UNL     1       8.744 -14.527  13.483  1.00  0.00    -0.237 OA
ATOM     90  O   UNL     1       7.526 -14.252  11.358  1.00  0.00    -0.237 OA
ATOM     91  O   UNL     1       9.935 -13.783  11.455  1.00  0.00    -0.744 OA
ENDBRANCH  85  88
ENDBRANCH  57  81
BRANCH  69  92
ATOM     92  C   UNL     1      12.119  -4.909  16.268  1.00  0.00     0.023 A 
ATOM     93  C   UNL     1      13.187  -5.612  16.858  1.00  0.00     0.012 A 
ATOM     94  C   UNL     1      11.431  -3.932  17.012  1.00  0.00     0.148 A 
ATOM     95  C   UNL     1      13.565  -5.346  18.173  1.00  0.00     0.002 A 
ATOM     96  C   UNL     1      11.833  -3.651  18.312  1.00  0.00     0.091 A 
ATOM     97  F   UNL     1      10.415  -3.282  16.425  1.00  0.00    -0.205 F 
ATOM     98  C   UNL     1      12.898  -4.359  18.895  1.00  0.00     0.022 A 
BRANCH  96  99
ATOM     99  S   UNL     1      11.086  -2.350  19.300  1.00  0.00     0.127 S 
ATOM    100  O   UNL     1      10.469  -3.115  20.383  1.00  0.00    -0.237 OA
ATOM    101  O   UNL     1      12.250  -1.558  19.698  1.00  0.00    -0.237 OA
ATOM    102  O   UNL     1      10.151  -1.660  18.422  1.00  0.00    -0.744 OA
ENDBRANCH  96  99
ENDBRANCH  69  92
ENDBRANCH  43  44
ENDBRANCH  35  38
ENDBRANCH  33  34
ENDBRANCH  32  33
ENDBRANCH  31  32
ENDBRANCH   1  31
TORSDOF 20
