REMARK SMILES Cc1nnc(S[C@H]2CCC[C@@]([NH2+]C3CC3)(C(=O)NCCCCCCNC(=O)c3ccc(-c4c5nc(c(-c6cccc(S(=O)(=O)[O-])c6F)c6ccc([nH]6)c(-c6cccc(S(=O)(=O)[O-])c6F)c6nc(c(-c7cccc(S(=O)(=O)[O-])c7F)c7ccc4[nH]7)C=C6)C=C5)cc3)C2)n1C
REMARK SMILES IDX 22 1 21 2 20 3 19 4 18 5 16 6 17 7 11 9 7 10 8 11 91 12 9 13
REMARK SMILES IDX 10 14 6 15 5 16 1 17 2 18 3 19 92 20 4 21 93 22 12 23 13 26
REMARK SMILES IDX 14 27 15 28 23 29 24 30 25 31 26 32 27 34 28 35 29 36 90 37
REMARK SMILES IDX 30 38 89 39 31 40 32 41 33 42 83 43 34 44 88 45 82 46 84 47
REMARK SMILES IDX 35 48 87 49 81 50 80 51 36 53 68 54 48 55 67 56 49 57 52 58
REMARK SMILES IDX 66 59 85 60 50 61 51 62 65 64 86 65 53 66 37 67 38 68 46 69
REMARK SMILES IDX 39 70 41 71 47 72 40 73 42 74 43 75 44 76 45 77 69 78 70 79
REMARK SMILES IDX 78 80 71 81 73 82 79 83 72 84 74 85 75 86 76 87 77 88 54 89
REMARK SMILES IDX 55 90 63 91 56 92 58 93 64 94 57 95 59 96 60 97 61 98 62 99
REMARK H PARENT 18 8 12 24 12 25 25 33 84 52 52 63
REMARK Flexibility Score: inf
ROOT
ATOM      1  C   UNL     1      -7.318   3.344  -6.804  1.00  0.00     0.002 C 
ENDROOT
BRANCH   1   2
ATOM      2  C   UNL     1      -5.878   2.944  -7.169  1.00  0.00     0.002 C 
BRANCH   2   3
ATOM      3  C   UNL     1      -4.853   3.010  -6.027  1.00  0.00     0.021 C 
BRANCH   3   4
ATOM      4  C   UNL     1      -5.286   2.263  -4.764  1.00  0.00     0.116 C 
BRANCH   4   5
ATOM      5  N   UNL     1      -5.461   0.855  -5.058  1.00  0.00    -0.351 N 
ATOM      6  C   UNL     1      -4.771  -0.256  -4.672  1.00  0.00     0.281 C 
ATOM      7  O   UNL     1      -5.185  -1.301  -5.185  1.00  0.00    -0.268 OA
ATOM      8  H   UNL     1      -6.224   0.664  -5.650  1.00  0.00     0.163 HD
BRANCH   6   9
ATOM      9  C   UNL     1      -3.618  -0.199  -3.596  1.00  0.00     0.176 C 
ATOM     10  C   UNL     1      -2.025  -2.221  -4.270  1.00  0.00     0.061 C 
ATOM     11  C   UNL     1      -1.113  -1.215  -4.977  1.00  0.00     0.015 C 
ATOM     12  C   UNL     1      -2.923  -1.545  -3.206  1.00  0.00     0.094 C 
ATOM     13  C   UNL     1      -1.764   0.119  -5.310  1.00  0.00     0.008 C 
ATOM     14  C   UNL     1      -2.470   0.717  -4.092  1.00  0.00     0.079 C 
BRANCH  10  15
ATOM     15  S   UNL     1      -3.112  -3.310  -5.227  1.00  0.00    -0.082 SA
BRANCH  15  16
ATOM     16  C   UNL     1      -2.357  -3.679  -6.716  1.00  0.00     0.191 A 
ATOM     17  C   UNL     1      -2.620  -5.065 -10.050  1.00  0.00     0.090 C 
ATOM     18  C   UNL     1      -2.244  -4.493  -8.738  1.00  0.00     0.130 A 
ATOM     19  N   UNL     1      -1.040  -4.542  -8.201  1.00  0.00    -0.135 NA
ATOM     20  N   UNL     1      -3.095  -3.877  -7.853  1.00  0.00    -0.309 N 
ATOM     21  N   UNL     1      -1.116  -4.043  -6.919  1.00  0.00    -0.123 NA
ATOM     22  C   UNL     1      -4.490  -3.561  -8.030  1.00  0.00     0.154 C 
ENDBRANCH  15  16
ENDBRANCH  10  15
BRANCH   9  23
ATOM     23  N   UNL     1      -4.213   0.365  -2.346  1.00  0.00    -0.331 N 
ATOM     24  H   UNL     1      -4.336   1.365  -2.505  1.00  0.00     0.347 HD
ATOM     25  H   UNL     1      -3.552   0.079  -1.624  1.00  0.00     0.347 HD
BRANCH  23  26
ATOM     26  C   UNL     1      -5.500  -0.145  -1.842  1.00  0.00     0.183 C 
ATOM     27  C   UNL     1      -6.168  -1.441  -2.221  1.00  0.00     0.071 C 
ATOM     28  C   UNL     1      -5.513  -1.310  -0.883  1.00  0.00     0.071 C 
ENDBRANCH  23  26
ENDBRANCH   9  23
ENDBRANCH   6   9
ENDBRANCH   4   5
ENDBRANCH   3   4
ENDBRANCH   2   3
ENDBRANCH   1   2
BRANCH   1  29
ATOM     29  C   UNL     1      -7.500   4.704  -6.113  1.00  0.00     0.021 C 
BRANCH  29  30
ATOM     30  C   UNL     1      -7.092   5.889  -6.969  1.00  0.00     0.116 C 
BRANCH  30  31
ATOM     31  N   UNL     1      -7.964   6.074  -8.139  1.00  0.00    -0.352 N 
ATOM     32  C   UNL     1      -7.837   6.985  -9.180  1.00  0.00     0.251 C 
ATOM     33  H   UNL     1      -8.741   5.471  -8.191  1.00  0.00     0.163 HD
ATOM     34  O   UNL     1      -8.795   7.302  -9.864  1.00  0.00    -0.269 OA
BRANCH  32  35
ATOM     35  C   UNL     1      -6.497   7.536  -9.452  1.00  0.00     0.039 A 
ATOM     36  C   UNL     1      -6.264   8.848  -9.873  1.00  0.00     0.014 A 
ATOM     37  C   UNL     1      -5.439   6.672  -9.220  1.00  0.00     0.014 A 
ATOM     38  C   UNL     1      -4.940   9.263 -10.019  1.00  0.00     0.010 A 
ATOM     39  C   UNL     1      -4.199   7.183  -9.020  1.00  0.00     0.010 A 
ATOM     40  C   UNL     1      -3.916   8.405  -9.592  1.00  0.00    -0.014 A 
BRANCH  40  41
ATOM     41  C   UNL     1      -2.505   8.737  -9.657  1.00  0.00     0.031 A 
ATOM     42  C   UNL     1      -2.158   9.917  -8.839  1.00  0.00     0.074 A 
ATOM     43  C   UNL     1      -1.592   7.878 -10.172  1.00  0.00     0.049 A 
ATOM     44  N   UNL     1      -1.937  11.120  -9.252  1.00  0.00    -0.248 NA
ATOM     45  C   UNL     1      -2.302   9.805  -7.378  1.00  0.00     0.031 C 
ATOM     46  C   UNL     1      -1.807   6.496 -10.645  1.00  0.00     0.029 A 
ATOM     47  N   UNL     1      -0.242   8.000 -10.249  1.00  0.00    -0.354 N 
ATOM     48  C   UNL     1      -1.608  11.832  -8.103  1.00  0.00     0.074 A 
ATOM     49  C   UNL     1      -2.137  11.075  -7.003  1.00  0.00     0.031 C 
ATOM     50  C   UNL     1      -0.624   5.846 -10.710  1.00  0.00     0.029 A 
ATOM     51  C   UNL     1       0.436   6.803 -10.470  1.00  0.00     0.049 A 
ATOM     52  H   UNL     1       0.221   8.864 -10.157  1.00  0.00     0.167 HD
ATOM     53  C   UNL     1      -0.623  12.771  -8.132  1.00  0.00     0.034 A 
ATOM     54  C   UNL     1       1.778   6.612 -10.415  1.00  0.00     0.034 A 
ATOM     55  C   UNL     1      -0.246  13.068  -9.495  1.00  0.00     0.049 A 
ATOM     56  C   UNL     1       2.400   7.944 -10.564  1.00  0.00     0.074 A 
ATOM     57  C   UNL     1      -0.866  13.585 -10.612  1.00  0.00     0.029 A 
ATOM     58  N   UNL     1       0.866  12.390  -9.935  1.00  0.00    -0.354 N 
ATOM     59  N   UNL     1       2.291   8.675 -11.639  1.00  0.00    -0.248 NA
ATOM     60  C   UNL     1       2.787   8.657  -9.359  1.00  0.00     0.031 C 
ATOM     61  C   UNL     1      -0.295  12.883 -11.717  1.00  0.00     0.029 A 
ATOM     62  C   UNL     1       0.695  12.020 -11.239  1.00  0.00     0.049 A 
ATOM     63  H   UNL     1       1.665  12.201  -9.392  1.00  0.00     0.167 HD
ATOM     64  C   UNL     1       2.131   9.967 -11.159  1.00  0.00     0.074 A 
ATOM     65  C   UNL     1       2.599   9.912  -9.775  1.00  0.00     0.031 C 
ATOM     66  C   UNL     1       1.353  10.869 -11.830  1.00  0.00     0.034 A 
BRANCH  53  67
ATOM     67  C   UNL     1       0.334  13.076  -6.992  1.00  0.00     0.023 A 
ATOM     68  C   UNL     1       1.224  14.158  -7.187  1.00  0.00     0.012 A 
ATOM     69  C   UNL     1       0.608  12.222  -5.897  1.00  0.00     0.148 A 
ATOM     70  C   UNL     1       2.351  14.342  -6.379  1.00  0.00     0.002 A 
ATOM     71  C   UNL     1       1.685  12.454  -5.049  1.00  0.00     0.091 A 
ATOM     72  F   UNL     1      -0.081  11.093  -5.731  1.00  0.00    -0.205 F 
ATOM     73  C   UNL     1       2.580  13.493  -5.304  1.00  0.00     0.022 A 
BRANCH  71  74
ATOM     74  S   UNL     1       2.006  11.406  -3.622  1.00  0.00     0.127 S 
ATOM     75  O   UNL     1       3.201  10.687  -4.053  1.00  0.00    -0.237 OA
ATOM     76  O   UNL     1       2.222  12.399  -2.570  1.00  0.00    -0.237 OA
ATOM     77  O   UNL     1       0.802  10.602  -3.445  1.00  0.00    -0.744 OA
ENDBRANCH  71  74
ENDBRANCH  53  67
BRANCH  54  78
ATOM     78  C   UNL     1       2.545   5.433  -9.946  1.00  0.00     0.023 A 
ATOM     79  C   UNL     1       3.878   5.241 -10.364  1.00  0.00     0.012 A 
ATOM     80  C   UNL     1       2.069   4.662  -8.862  1.00  0.00     0.148 A 
ATOM     81  C   UNL     1       4.716   4.331  -9.705  1.00  0.00     0.002 A 
ATOM     82  C   UNL     1       2.904   3.757  -8.212  1.00  0.00     0.091 A 
ATOM     83  F   UNL     1       0.826   4.885  -8.416  1.00  0.00    -0.205 F 
ATOM     84  C   UNL     1       4.234   3.597  -8.625  1.00  0.00     0.022 A 
BRANCH  82  85
ATOM     85  S   UNL     1       2.363   2.797  -6.790  1.00  0.00     0.127 S 
ATOM     86  O   UNL     1       2.680   1.433  -7.213  1.00  0.00    -0.237 OA
ATOM     87  O   UNL     1       3.215   3.322  -5.727  1.00  0.00    -0.237 OA
ATOM     88  O   UNL     1       0.937   3.066  -6.643  1.00  0.00    -0.744 OA
ENDBRANCH  82  85
ENDBRANCH  54  78
BRANCH  66  89
ATOM     89  C   UNL     1       0.992  10.553 -13.261  1.00  0.00     0.023 A 
ATOM     90  C   UNL     1       0.147   9.486 -13.632  1.00  0.00     0.012 A 
ATOM     91  C   UNL     1       1.410  11.461 -14.247  1.00  0.00     0.148 A 
ATOM     92  C   UNL     1      -0.254   9.322 -14.962  1.00  0.00     0.002 A 
ATOM     93  C   UNL     1       0.972  11.323 -15.557  1.00  0.00     0.091 A 
ATOM     94  F   UNL     1       2.213  12.470 -13.876  1.00  0.00    -0.205 F 
ATOM     95  C   UNL     1       0.147  10.248 -15.923  1.00  0.00     0.022 A 
BRANCH  93  96
ATOM     96  S   UNL     1       1.360  12.550 -16.806  1.00  0.00     0.127 S 
ATOM     97  O   UNL     1       2.349  11.851 -17.623  1.00  0.00    -0.237 OA
ATOM     98  O   UNL     1       0.064  12.757 -17.454  1.00  0.00    -0.237 OA
ATOM     99  O   UNL     1       1.856  13.716 -16.084  1.00  0.00    -0.744 OA
ENDBRANCH  93  96
ENDBRANCH  66  89
ENDBRANCH  40  41
ENDBRANCH  32  35
ENDBRANCH  30  31
ENDBRANCH  29  30
ENDBRANCH   1  29
TORSDOF 20
