REMARK SMILES CC[C@@H](CCC(=O)NCCCCCCNC(=O)c1ccc(-c2c3nc(c(-c4cccc(S(=O)(=O)[O-])c4F)c4ccc([nH]4)c(-c4cccc(S(=O)(=O)[O-])c4F)c4nc(c(-c5cccc(S(=O)(=O)[O-])c5F)c5ccc2[nH]5)C=C4)C=C3)cc1)CC[N@H+]1CCC[C@@H]1C
REMARK SMILES IDX 10 1 9 2 8 3 6 4 7 5 5 7 4 8 3 9 2 10 1 11 81 12 82 13 83 14
REMARK SMILES IDX 84 15 87 16 85 18 86 19 88 20 11 21 12 22 13 23 14 24 15 25
REMARK SMILES IDX 16 26 17 28 18 29 19 30 80 31 20 32 79 33 21 34 22 35 23 36
REMARK SMILES IDX 73 37 24 38 78 39 72 40 74 41 25 42 77 43 71 44 70 45 26 47
REMARK SMILES IDX 58 48 38 49 57 50 39 51 42 52 56 53 75 54 40 55 41 56 55 58
REMARK SMILES IDX 76 59 43 60 27 61 28 62 36 63 29 64 31 65 37 66 30 67 32 68
REMARK SMILES IDX 33 69 34 70 35 71 59 72 60 73 68 74 61 75 63 76 69 77 62 78
REMARK SMILES IDX 64 79 65 80 66 81 67 82 44 83 45 84 53 85 46 86 48 87 54 88
REMARK SMILES IDX 47 89 49 90 50 91 51 92 52 93
REMARK H PARENT 8 6 83 17 15 27 74 46 42 57
REMARK Flexibility Score: inf
ROOT
ATOM      1  C   UNL     1      -1.112  -1.887  -3.510  1.00  0.00     0.021 C 
ENDROOT
BRANCH   1   2
ATOM      2  C   UNL     1      -2.279  -2.137  -2.554  1.00  0.00     0.116 C 
BRANCH   2   3
ATOM      3  N   UNL     1      -2.237  -3.455  -1.945  1.00  0.00    -0.356 N 
ATOM      4  C   UNL     1      -1.867  -3.863  -0.702  1.00  0.00     0.220 C 
ATOM      5  O   UNL     1      -1.944  -5.067  -0.442  1.00  0.00    -0.275 OA
ATOM      6  H   UNL     1      -2.529  -4.184  -2.539  1.00  0.00     0.163 HD
BRANCH   4   7
ATOM      7  C   UNL     1      -1.387  -2.877   0.340  1.00  0.00     0.100 C 
BRANCH   7   8
ATOM      8  C   UNL     1       0.074  -3.091   0.758  1.00  0.00     0.013 C 
BRANCH   8   9
ATOM      9  C   UNL     1       1.195  -2.598  -0.202  1.00  0.00    -0.005 C 
BRANCH   9  10
ATOM     10  C   UNL     1       0.974  -1.158  -0.697  1.00  0.00     0.000 C 
ATOM     11  C   UNL     1       1.290  -0.118   0.374  1.00  0.00     0.004 C 
ENDBRANCH   9  10
BRANCH   9  12
ATOM     12  C   UNL     1       1.526  -3.672  -1.274  1.00  0.00     0.065 C 
BRANCH  12  13
ATOM     13  C   UNL     1       2.293  -3.347  -2.578  1.00  0.00     0.262 C 
BRANCH  13  14
ATOM     14  N   UNL     1       3.547  -2.620  -2.645  1.00  0.00    -0.333 N 
ATOM     15  C   UNL     1       3.627  -1.559  -3.644  1.00  0.00     0.262 C 
ATOM     16  C   UNL     1       4.300  -2.265  -1.457  1.00  0.00     0.181 C 
ATOM     17  H   UNL     1       4.056  -3.445  -2.962  1.00  0.00     0.348 HD
ATOM     18  C   UNL     1       4.140  -0.345  -2.900  1.00  0.00     0.067 C 
ATOM     19  C   UNL     1       4.983  -0.936  -1.788  1.00  0.00     0.070 C 
ATOM     20  C   UNL     1       5.292  -3.360  -1.097  1.00  0.00     0.075 C 
ENDBRANCH  13  14
ENDBRANCH  12  13
ENDBRANCH   9  12
ENDBRANCH   8   9
ENDBRANCH   7   8
ENDBRANCH   4   7
ENDBRANCH   2   3
ENDBRANCH   1   2
BRANCH   1  21
ATOM     21  C   UNL     1      -1.038  -2.850  -4.705  1.00  0.00     0.002 C 
BRANCH  21  22
ATOM     22  C   UNL     1      -1.078  -2.146  -6.068  1.00  0.00     0.002 C 
BRANCH  22  23
ATOM     23  C   UNL     1       0.086  -1.190  -6.361  1.00  0.00     0.021 C 
BRANCH  23  24
ATOM     24  C   UNL     1       1.431  -1.871  -6.610  1.00  0.00     0.116 C 
BRANCH  24  25
ATOM     25  N   UNL     1       1.515  -2.484  -7.925  1.00  0.00    -0.352 N 
ATOM     26  C   UNL     1       2.138  -2.054  -9.071  1.00  0.00     0.251 C 
ATOM     27  H   UNL     1       1.049  -3.348  -8.007  1.00  0.00     0.163 HD
ATOM     28  O   UNL     1       1.931  -2.651 -10.126  1.00  0.00    -0.269 OA
BRANCH  26  29
ATOM     29  C   UNL     1       3.031  -0.869  -9.069  1.00  0.00     0.039 A 
ATOM     30  C   UNL     1       2.902   0.060 -10.106  1.00  0.00     0.014 A 
ATOM     31  C   UNL     1       4.029  -0.691  -8.107  1.00  0.00     0.014 A 
ATOM     32  C   UNL     1       3.729   1.187 -10.148  1.00  0.00     0.010 A 
ATOM     33  C   UNL     1       4.810   0.470  -8.111  1.00  0.00     0.010 A 
ATOM     34  C   UNL     1       4.674   1.421  -9.135  1.00  0.00    -0.014 A 
BRANCH  34  35
ATOM     35  C   UNL     1       5.503   2.659  -9.143  1.00  0.00     0.031 A 
ATOM     36  C   UNL     1       7.001   2.590  -9.292  1.00  0.00     0.074 A 
ATOM     37  C   UNL     1       4.910   3.859  -8.976  1.00  0.00     0.049 A 
ATOM     38  N   UNL     1       7.872   3.568  -9.331  1.00  0.00    -0.248 NA
ATOM     39  C   UNL     1       7.603   1.252  -9.394  1.00  0.00     0.031 C 
ATOM     40  C   UNL     1       3.478   4.069  -8.757  1.00  0.00     0.029 A 
ATOM     41  N   UNL     1       5.437   5.128  -8.949  1.00  0.00    -0.354 N 
ATOM     42  C   UNL     1       9.121   2.966  -9.435  1.00  0.00     0.074 A 
ATOM     43  C   UNL     1       8.898   1.536  -9.421  1.00  0.00     0.031 C 
ATOM     44  C   UNL     1       3.239   5.383  -8.626  1.00  0.00     0.029 A 
ATOM     45  C   UNL     1       4.502   6.111  -8.720  1.00  0.00     0.049 A 
ATOM     46  H   UNL     1       6.394   5.316  -9.080  1.00  0.00     0.167 HD
ATOM     47  C   UNL     1      10.340   3.546  -9.557  1.00  0.00     0.034 A 
ATOM     48  C   UNL     1       4.639   7.446  -8.591  1.00  0.00     0.034 A 
ATOM     49  C   UNL     1      10.562   4.968  -9.600  1.00  0.00     0.049 A 
ATOM     50  C   UNL     1       6.002   8.065  -8.746  1.00  0.00     0.074 A 
ATOM     51  C   UNL     1      11.753   5.645  -9.802  1.00  0.00     0.029 A 
ATOM     52  N   UNL     1       9.582   5.931  -9.422  1.00  0.00    -0.354 N 
ATOM     53  N   UNL     1       7.149   7.485  -9.003  1.00  0.00    -0.248 NA
ATOM     54  C   UNL     1       6.085   9.529  -8.630  1.00  0.00     0.031 C 
ATOM     55  C   UNL     1      11.498   7.018  -9.710  1.00  0.00     0.029 A 
ATOM     56  C   UNL     1      10.143   7.197  -9.492  1.00  0.00     0.049 A 
ATOM     57  H   UNL     1       8.628   5.744  -9.269  1.00  0.00     0.167 HD
ATOM     58  C   UNL     1       8.080   8.511  -9.114  1.00  0.00     0.074 A 
ATOM     59  C   UNL     1       7.360   9.752  -8.920  1.00  0.00     0.031 C 
ATOM     60  C   UNL     1       9.414   8.431  -9.344  1.00  0.00     0.034 A 
BRANCH  47  61
ATOM     61  C   UNL     1      11.538   2.640  -9.695  1.00  0.00     0.023 A 
ATOM     62  C   UNL     1      11.727   1.910 -10.886  1.00  0.00     0.012 A 
ATOM     63  C   UNL     1      12.511   2.564  -8.678  1.00  0.00     0.148 A 
ATOM     64  C   UNL     1      12.844   1.091 -11.050  1.00  0.00     0.002 A 
ATOM     65  C   UNL     1      13.645   1.782  -8.867  1.00  0.00     0.091 A 
ATOM     66  F   UNL     1      12.308   3.253  -7.546  1.00  0.00    -0.205 F 
ATOM     67  C   UNL     1      13.806   1.035 -10.046  1.00  0.00     0.022 A 
BRANCH  65  68
ATOM     68  S   UNL     1      14.983   1.708  -7.671  1.00  0.00     0.127 S 
ATOM     69  O   UNL     1      14.848   0.344  -7.162  1.00  0.00    -0.237 OA
ATOM     70  O   UNL     1      16.160   1.931  -8.511  1.00  0.00    -0.237 OA
ATOM     71  O   UNL     1      14.718   2.764  -6.703  1.00  0.00    -0.744 OA
ENDBRANCH  65  68
ENDBRANCH  47  61
BRANCH  48  72
ATOM     72  C   UNL     1       3.441   8.298  -8.345  1.00  0.00     0.023 A 
ATOM     73  C   UNL     1       2.992   9.176  -9.352  1.00  0.00     0.012 A 
ATOM     74  C   UNL     1       2.736   8.232  -7.128  1.00  0.00     0.148 A 
ATOM     75  C   UNL     1       1.884   9.997  -9.137  1.00  0.00     0.002 A 
ATOM     76  C   UNL     1       1.599   9.009  -6.943  1.00  0.00     0.091 A 
ATOM     77  F   UNL     1       3.186   7.401  -6.178  1.00  0.00    -0.205 F 
ATOM     78  C   UNL     1       1.182   9.907  -7.938  1.00  0.00     0.022 A 
BRANCH  76  79
ATOM     79  S   UNL     1       0.558   8.862  -5.487  1.00  0.00     0.127 S 
ATOM     80  O   UNL     1       0.795  10.138  -4.818  1.00  0.00    -0.237 OA
ATOM     81  O   UNL     1      -0.771   8.713  -6.081  1.00  0.00    -0.237 OA
ATOM     82  O   UNL     1       1.034   7.679  -4.780  1.00  0.00    -0.744 OA
ENDBRANCH  76  79
ENDBRANCH  48  72
BRANCH  60  83
ATOM     83  C   UNL     1      10.190   9.721  -9.440  1.00  0.00     0.023 A 
ATOM     84  C   UNL     1      10.418  10.493  -8.284  1.00  0.00     0.012 A 
ATOM     85  C   UNL     1      10.750  10.132 -10.666  1.00  0.00     0.148 A 
ATOM     86  C   UNL     1      11.161  11.672  -8.353  1.00  0.00     0.002 A 
ATOM     87  C   UNL     1      11.533  11.279 -10.717  1.00  0.00     0.091 A 
ATOM     88  F   UNL     1      10.508   9.394 -11.759  1.00  0.00    -0.205 F 
ATOM     89  C   UNL     1      11.728  12.058  -9.565  1.00  0.00     0.022 A 
BRANCH  87  90
ATOM     90  S   UNL     1      12.383  11.802 -12.211  1.00  0.00     0.127 S 
ATOM     91  O   UNL     1      11.627  12.998 -12.580  1.00  0.00    -0.237 OA
ATOM     92  O   UNL     1      13.737  12.063 -11.722  1.00  0.00    -0.237 OA
ATOM     93  O   UNL     1      12.281  10.688 -13.144  1.00  0.00    -0.744 OA
ENDBRANCH  87  90
ENDBRANCH  60  83
ENDBRANCH  34  35
ENDBRANCH  26  29
ENDBRANCH  24  25
ENDBRANCH  23  24
ENDBRANCH  22  23
ENDBRANCH  21  22
ENDBRANCH   1  21
TORSDOF 22
