REMARK SMILES CC(C)C[N@@H+](C[C@@H](C)C(=O)NCCCCCCNC(=O)c1ccc(-c2c3nc(c(-c4cccc(S(=O)(=O)[O-])c4F)c4ccc([nH]4)c(-c4cccc(S(=O)(=O)[O-])c4F)c4nc(c(-c5cccc(S(=O)(=O)[O-])c5F)c5ccc2[nH]5)C=C4)C=C3)cc1)C1CCCC1
REMARK SMILES IDX 14 1 13 2 12 3 11 4 9 5 10 6 7 8 8 9 6 10 5 11 4 13 2 14
REMARK SMILES IDX 1 15 3 16 84 17 85 18 88 19 86 20 87 21 15 22 16 23 17 24
REMARK SMILES IDX 18 25 19 26 20 28 21 29 22 30 83 31 23 32 82 33 24 34 25 35
REMARK SMILES IDX 26 36 76 37 27 38 81 39 75 40 77 41 28 42 80 43 74 44 73 45
REMARK SMILES IDX 29 47 61 48 41 49 60 50 42 51 45 52 59 53 78 54 43 55 44 56
REMARK SMILES IDX 58 58 79 59 46 60 30 61 31 62 39 63 32 64 34 65 40 66 33 67
REMARK SMILES IDX 35 68 36 69 37 70 38 71 62 72 63 73 71 74 64 75 66 76 72 77
REMARK SMILES IDX 65 78 67 79 68 80 69 81 70 82 47 83 48 84 56 85 49 86 51 87
REMARK SMILES IDX 57 88 50 89 52 90 53 91 54 92 55 93
REMARK H PARENT 11 7 5 12 18 27 77 46 45 57
REMARK Flexibility Score: inf
ROOT
ATOM      1  C   UNL     1      -7.321   1.939  -3.115  1.00  0.00     0.002 C 
ENDROOT
BRANCH   1   2
ATOM      2  C   UNL     1      -5.836   1.673  -2.853  1.00  0.00     0.021 C 
BRANCH   2   3
ATOM      3  C   UNL     1      -5.452   1.865  -1.389  1.00  0.00     0.116 C 
BRANCH   3   4
ATOM      4  N   UNL     1      -5.898   0.739  -0.593  1.00  0.00    -0.356 N 
ATOM      5  C   UNL     1      -5.186  -0.212   0.068  1.00  0.00     0.228 C 
ATOM      6  O   UNL     1      -5.819  -1.132   0.594  1.00  0.00    -0.275 OA
ATOM      7  H   UNL     1      -6.875   0.649  -0.518  1.00  0.00     0.163 HD
BRANCH   5   8
ATOM      8  C   UNL     1      -3.671  -0.118   0.237  1.00  0.00     0.130 C 
ATOM      9  C   UNL     1      -3.354   1.046   1.174  1.00  0.00     0.024 C 
BRANCH   8  10
ATOM     10  C   UNL     1      -2.907  -0.217  -1.109  1.00  0.00     0.275 C 
BRANCH  10  11
ATOM     11  N   UNL     1      -1.431  -0.098  -1.131  1.00  0.00    -0.332 N 
ATOM     12  H   UNL     1      -1.132  -0.330  -2.078  1.00  0.00     0.348 HD
BRANCH  11  13
ATOM     13  C   UNL     1      -0.826  -1.103  -0.230  1.00  0.00     0.265 C 
BRANCH  13  14
ATOM     14  C   UNL     1       0.708  -1.303  -0.180  1.00  0.00     0.038 C 
ATOM     15  C   UNL     1       1.431  -0.290   0.716  1.00  0.00     0.013 C 
ATOM     16  C   UNL     1       1.006  -2.703   0.384  1.00  0.00     0.013 C 
ENDBRANCH  13  14
ENDBRANCH  11  13
BRANCH  11  17
ATOM     17  C   UNL     1      -0.880   1.260  -1.059  1.00  0.00     0.184 C 
ATOM     18  C   UNL     1       0.302   1.472  -2.023  1.00  0.00     0.065 C 
ATOM     19  C   UNL     1      -1.737   2.464  -1.502  1.00  0.00     0.065 C 
ATOM     20  C   UNL     1       0.609   2.959  -1.872  1.00  0.00     0.006 C 
ATOM     21  C   UNL     1      -0.745   3.618  -1.636  1.00  0.00     0.006 C 
ENDBRANCH  11  17
ENDBRANCH  10  11
ENDBRANCH   8  10
ENDBRANCH   5   8
ENDBRANCH   3   4
ENDBRANCH   2   3
ENDBRANCH   1   2
BRANCH   1  22
ATOM     22  C   UNL     1      -7.784   3.351  -2.735  1.00  0.00     0.002 C 
BRANCH  22  23
ATOM     23  C   UNL     1      -6.991   4.480  -3.399  1.00  0.00     0.021 C 
BRANCH  23  24
ATOM     24  C   UNL     1      -7.030   4.448  -4.922  1.00  0.00     0.116 C 
BRANCH  24  25
ATOM     25  N   UNL     1      -8.390   4.577  -5.425  1.00  0.00    -0.352 N 
ATOM     26  C   UNL     1      -8.894   5.486  -6.322  1.00  0.00     0.251 C 
ATOM     27  H   UNL     1      -9.037   3.923  -5.074  1.00  0.00     0.163 HD
ATOM     28  O   UNL     1     -10.102   5.610  -6.468  1.00  0.00    -0.269 OA
BRANCH  26  29
ATOM     29  C   UNL     1      -7.952   6.317  -7.099  1.00  0.00     0.039 A 
ATOM     30  C   UNL     1      -8.177   7.692  -7.198  1.00  0.00     0.014 A 
ATOM     31  C   UNL     1      -6.840   5.732  -7.710  1.00  0.00     0.014 A 
ATOM     32  C   UNL     1      -7.252   8.491  -7.872  1.00  0.00     0.010 A 
ATOM     33  C   UNL     1      -5.883   6.540  -8.310  1.00  0.00     0.010 A 
ATOM     34  C   UNL     1      -6.083   7.926  -8.409  1.00  0.00    -0.014 A 
BRANCH  34  35
ATOM     35  C   UNL     1      -5.057   8.755  -9.089  1.00  0.00     0.031 A 
ATOM     36  C   UNL     1      -4.737   8.503 -10.539  1.00  0.00     0.074 A 
ATOM     37  C   UNL     1      -4.346   9.656  -8.382  1.00  0.00     0.049 A 
ATOM     38  N   UNL     1      -3.804   9.039 -11.281  1.00  0.00    -0.248 NA
ATOM     39  C   UNL     1      -5.554   7.496 -11.240  1.00  0.00     0.031 C 
ATOM     40  C   UNL     1      -4.519   9.944  -6.956  1.00  0.00     0.029 A 
ATOM     41  N   UNL     1      -3.310  10.474  -8.760  1.00  0.00    -0.354 N 
ATOM     42  C   UNL     1      -3.888   8.402 -12.514  1.00  0.00     0.074 A 
ATOM     43  C   UNL     1      -4.949   7.426 -12.417  1.00  0.00     0.031 C 
ATOM     44  C   UNL     1      -3.617  10.866  -6.579  1.00  0.00     0.029 A 
ATOM     45  C   UNL     1      -2.777  11.206  -7.723  1.00  0.00     0.049 A 
ATOM     46  H   UNL     1      -2.978  10.531  -9.685  1.00  0.00     0.167 HD
ATOM     47  C   UNL     1      -3.159   8.626 -13.631  1.00  0.00     0.034 A 
ATOM     48  C   UNL     1      -1.719  12.040  -7.693  1.00  0.00     0.034 A 
ATOM     49  C   UNL     1      -2.143   9.636 -13.739  1.00  0.00     0.049 A 
ATOM     50  C   UNL     1      -0.951  12.291  -8.965  1.00  0.00     0.074 A 
ATOM     51  C   UNL     1      -1.421  10.009 -14.858  1.00  0.00     0.029 A 
ATOM     52  N   UNL     1      -1.696  10.424 -12.691  1.00  0.00    -0.354 N 
ATOM     53  N   UNL     1      -1.151  11.795 -10.162  1.00  0.00    -0.248 NA
ATOM     54  C   UNL     1       0.168  13.243  -8.892  1.00  0.00     0.031 C 
ATOM     55  C   UNL     1      -0.509  10.997 -14.479  1.00  0.00     0.029 A 
ATOM     56  C   UNL     1      -0.698  11.272 -13.134  1.00  0.00     0.049 A 
ATOM     57  H   UNL     1      -2.039  10.386 -11.769  1.00  0.00     0.167 HD
ATOM     58  C   UNL     1      -0.221  12.412 -10.990  1.00  0.00     0.074 A 
ATOM     59  C   UNL     1       0.535  13.328 -10.163  1.00  0.00     0.031 C 
ATOM     60  C   UNL     1      -0.004  12.230 -12.315  1.00  0.00     0.034 A 
BRANCH  47  61
ATOM     61  C   UNL     1      -3.450   7.795 -14.852  1.00  0.00     0.023 A 
ATOM     62  C   UNL     1      -4.633   8.016 -15.585  1.00  0.00     0.012 A 
ATOM     63  C   UNL     1      -2.500   6.872 -15.331  1.00  0.00     0.148 A 
ATOM     64  C   UNL     1      -4.876   7.316 -16.766  1.00  0.00     0.002 A 
ATOM     65  C   UNL     1      -2.726   6.214 -16.533  1.00  0.00     0.091 A 
ATOM     66  F   UNL     1      -1.391   6.665 -14.607  1.00  0.00    -0.205 F 
ATOM     67  C   UNL     1      -3.917   6.427 -17.246  1.00  0.00     0.022 A 
BRANCH  65  68
ATOM     68  S   UNL     1      -1.517   5.118 -17.282  1.00  0.00     0.127 S 
ATOM     69  O   UNL     1      -2.212   3.832 -17.227  1.00  0.00    -0.237 OA
ATOM     70  O   UNL     1      -1.385   5.682 -18.625  1.00  0.00    -0.237 OA
ATOM     71  O   UNL     1      -0.320   5.210 -16.458  1.00  0.00    -0.744 OA
ENDBRANCH  65  68
ENDBRANCH  47  61
BRANCH  48  72
ATOM     72  C   UNL     1      -1.333  12.734  -6.430  1.00  0.00     0.023 A 
ATOM     73  C   UNL     1      -1.465  14.134  -6.339  1.00  0.00     0.012 A 
ATOM     74  C   UNL     1      -0.816  12.023  -5.331  1.00  0.00     0.148 A 
ATOM     75  C   UNL     1      -1.038  14.818  -5.200  1.00  0.00     0.002 A 
ATOM     76  C   UNL     1      -0.448  12.703  -4.176  1.00  0.00     0.091 A 
ATOM     77  F   UNL     1      -0.687  10.692  -5.437  1.00  0.00    -0.205 F 
ATOM     78  C   UNL     1      -0.536  14.102  -4.117  1.00  0.00     0.022 A 
BRANCH  76  79
ATOM     79  S   UNL     1       0.087  11.849  -2.689  1.00  0.00     0.127 S 
ATOM     80  O   UNL     1       1.519  12.133  -2.679  1.00  0.00    -0.237 OA
ATOM     81  O   UNL     1      -0.685  12.534  -1.651  1.00  0.00    -0.237 OA
ATOM     82  O   UNL     1      -0.283  10.454  -2.886  1.00  0.00    -0.744 OA
ENDBRANCH  76  79
ENDBRANCH  48  72
BRANCH  60  83
ATOM     83  C   UNL     1       1.038  13.084 -12.986  1.00  0.00     0.023 A 
ATOM     84  C   UNL     1       2.406  12.853 -12.748  1.00  0.00     0.012 A 
ATOM     85  C   UNL     1       0.653  14.055 -13.932  1.00  0.00     0.148 A 
ATOM     86  C   UNL     1       3.376  13.597 -13.421  1.00  0.00     0.002 A 
ATOM     87  C   UNL     1       1.623  14.752 -14.639  1.00  0.00     0.091 A 
ATOM     88  F   UNL     1      -0.656  14.269 -14.131  1.00  0.00    -0.205 F 
ATOM     89  C   UNL     1       2.985  14.534 -14.375  1.00  0.00     0.022 A 
BRANCH  87  90
ATOM     90  S   UNL     1       1.217  15.900 -15.959  1.00  0.00     0.127 S 
ATOM     91  O   UNL     1       1.594  17.182 -15.365  1.00  0.00    -0.237 OA
ATOM     92  O   UNL     1       2.091  15.448 -17.041  1.00  0.00    -0.237 OA
ATOM     93  O   UNL     1      -0.206  15.730 -16.219  1.00  0.00    -0.744 OA
ENDBRANCH  87  90
ENDBRANCH  60  83
ENDBRANCH  34  35
ENDBRANCH  26  29
ENDBRANCH  24  25
ENDBRANCH  23  24
ENDBRANCH  22  23
ENDBRANCH   1  22
TORSDOF 21
