REMARK SMILES C[C@H](Cc1ccco1)[NH2+]Cc1cc(C(=O)NCCCCCCNC(=O)c2ccc(-c3c4nc(c(-c5cccc(S(=O)(=O)[O-])c5F)c5ccc([nH]5)c(-c5cccc(S(=O)(=O)[O-])c5F)c5nc(c(-c6cccc(S(=O)(=O)[O-])c6F)c6ccc3[nH]6)C=C5)C=C4)cc2)cs1
REMARK SMILES IDX 18 1 17 2 16 3 14 4 15 5 13 7 11 8 12 9 90 10 89 11 10 12
REMARK SMILES IDX 9 13 2 16 1 17 3 18 4 19 5 20 8 21 6 22 7 23 19 24 20 25
REMARK SMILES IDX 21 26 22 27 23 28 24 29 25 31 26 32 27 33 88 34 28 35 87 36
REMARK SMILES IDX 29 37 30 38 31 39 81 40 32 41 86 42 80 43 82 44 33 45 85 46
REMARK SMILES IDX 79 47 78 48 34 50 66 51 46 52 65 53 47 54 50 55 64 56 83 57
REMARK SMILES IDX 48 58 49 59 63 61 84 62 51 63 35 64 36 65 44 66 37 67 39 68
REMARK SMILES IDX 45 69 38 70 40 71 41 72 42 73 43 74 67 75 68 76 76 77 69 78
REMARK SMILES IDX 71 79 77 80 70 81 72 82 73 83 74 84 75 85 52 86 53 87 61 88
REMARK SMILES IDX 54 89 56 90 62 91 55 92 57 93 58 94 59 95 60 96
REMARK H PARENT 16 6 9 14 9 15 23 30 82 49 50 60
REMARK Flexibility Score: inf
ROOT
ATOM      1  C   UNL     1      -1.496   2.172   4.517  1.00  0.00     0.021 C 
ENDROOT
BRANCH   1   2
ATOM      2  C   UNL     1      -0.213   1.341   4.499  1.00  0.00     0.116 C 
BRANCH   2   3
ATOM      3  N   UNL     1      -0.057   0.627   5.755  1.00  0.00    -0.352 N 
ATOM      4  C   UNL     1      -0.291  -0.679   6.114  1.00  0.00     0.252 C 
ATOM      5  O   UNL     1      -0.027  -0.999   7.270  1.00  0.00    -0.269 OA
ATOM      6  H   UNL     1       0.281   1.187   6.490  1.00  0.00     0.163 HD
BRANCH   4   7
ATOM      7  C   UNL     1      -0.744  -1.666   5.131  1.00  0.00     0.051 A 
ATOM      8  C   UNL     1      -1.306  -2.567   3.058  1.00  0.00     0.059 A 
ATOM      9  C   UNL     1      -1.473  -1.489   3.910  1.00  0.00     0.035 A 
ATOM     10  S   UNL     1      -0.897  -3.968   3.953  1.00  0.00    -0.142 S 
ATOM     11  C   UNL     1      -0.481  -3.017   5.312  1.00  0.00     0.079 A 
BRANCH   8  12
ATOM     12  C   UNL     1      -1.398  -2.596   1.558  1.00  0.00     0.308 C 
BRANCH  12  13
ATOM     13  N   UNL     1      -0.725  -1.447   0.936  1.00  0.00    -0.339 N 
ATOM     14  H   UNL     1      -1.108  -1.342  -0.004  1.00  0.00     0.346 HD
ATOM     15  H   UNL     1      -0.901  -0.671   1.574  1.00  0.00     0.346 HD
BRANCH  13  16
ATOM     16  C   UNL     1       0.750  -1.494   0.807  1.00  0.00     0.187 C 
ATOM     17  C   UNL     1       1.506  -1.775   2.115  1.00  0.00     0.075 C 
BRANCH  16  18
ATOM     18  C   UNL     1       1.218  -0.151   0.170  1.00  0.00     0.140 C 
BRANCH  18  19
ATOM     19  C   UNL     1       2.699   0.012   0.168  1.00  0.00     0.109 A 
ATOM     20  C   UNL     1       3.705  -0.375  -0.692  1.00  0.00     0.046 A 
ATOM     21  O   UNL     1       3.235   0.628   1.264  1.00  0.00    -0.469 OA
ATOM     22  C   UNL     1       4.923  -0.008  -0.068  1.00  0.00     0.042 A 
ATOM     23  C   UNL     1       4.583   0.602   1.115  1.00  0.00     0.195 A 
ENDBRANCH  18  19
ENDBRANCH  16  18
ENDBRANCH  13  16
ENDBRANCH  12  13
ENDBRANCH   8  12
ENDBRANCH   4   7
ENDBRANCH   2   3
ENDBRANCH   1   2
BRANCH   1  24
ATOM     24  C   UNL     1      -1.365   3.464   5.335  1.00  0.00     0.002 C 
BRANCH  24  25
ATOM     25  C   UNL     1      -0.367   4.485   4.773  1.00  0.00     0.002 C 
BRANCH  25  26
ATOM     26  C   UNL     1      -0.624   4.922   3.328  1.00  0.00     0.021 C 
BRANCH  26  27
ATOM     27  C   UNL     1      -1.985   5.570   3.089  1.00  0.00     0.116 C 
BRANCH  27  28
ATOM     28  N   UNL     1      -2.135   6.814   3.829  1.00  0.00    -0.352 N 
ATOM     29  C   UNL     1      -2.504   8.056   3.375  1.00  0.00     0.251 C 
ATOM     30  H   UNL     1      -1.944   6.756   4.793  1.00  0.00     0.163 HD
ATOM     31  O   UNL     1      -2.387   9.035   4.106  1.00  0.00    -0.269 OA
BRANCH  29  32
ATOM     32  C   UNL     1      -3.028   8.214   2.001  1.00  0.00     0.039 A 
ATOM     33  C   UNL     1      -2.557   9.268   1.214  1.00  0.00     0.014 A 
ATOM     34  C   UNL     1      -3.992   7.336   1.497  1.00  0.00     0.014 A 
ATOM     35  C   UNL     1      -3.013   9.409  -0.100  1.00  0.00     0.010 A 
ATOM     36  C   UNL     1      -4.397   7.441   0.169  1.00  0.00     0.010 A 
ATOM     37  C   UNL     1      -3.917   8.481  -0.642  1.00  0.00    -0.014 A 
BRANCH  37  38
ATOM     38  C   UNL     1      -4.363   8.572  -2.055  1.00  0.00     0.031 A 
ATOM     39  C   UNL     1      -5.811   8.826  -2.379  1.00  0.00     0.074 A 
ATOM     40  C   UNL     1      -3.483   8.331  -3.047  1.00  0.00     0.049 A 
ATOM     41  N   UNL     1      -6.398   8.873  -3.547  1.00  0.00    -0.248 NA
ATOM     42  C   UNL     1      -6.723   9.028  -1.241  1.00  0.00     0.031 C 
ATOM     43  C   UNL     1      -2.071   7.993  -2.860  1.00  0.00     0.029 A 
ATOM     44  N   UNL     1      -3.653   8.303  -4.409  1.00  0.00    -0.354 N 
ATOM     45  C   UNL     1      -7.748   9.071  -3.286  1.00  0.00     0.074 A 
ATOM     46  C   UNL     1      -7.899   9.106  -1.847  1.00  0.00     0.031 C 
ATOM     47  C   UNL     1      -1.504   7.790  -4.060  1.00  0.00     0.029 A 
ATOM     48  C   UNL     1      -2.514   7.959  -5.100  1.00  0.00     0.049 A 
ATOM     49  H   UNL     1      -4.509   8.510  -4.849  1.00  0.00     0.167 HD
ATOM     50  C   UNL     1      -8.767   9.239  -4.162  1.00  0.00     0.034 A 
ATOM     51  C   UNL     1      -2.308   7.794  -6.421  1.00  0.00     0.034 A 
ATOM     52  C   UNL     1      -8.606   9.256  -5.591  1.00  0.00     0.049 A 
ATOM     53  C   UNL     1      -3.445   8.040  -7.376  1.00  0.00     0.074 A 
ATOM     54  C   UNL     1      -9.558   9.514  -6.561  1.00  0.00     0.029 A 
ATOM     55  N   UNL     1      -7.416   9.004  -6.256  1.00  0.00    -0.354 N 
ATOM     56  N   UNL     1      -4.681   8.390  -7.113  1.00  0.00    -0.248 NA
ATOM     57  C   UNL     1      -3.151   7.904  -8.810  1.00  0.00     0.031 C 
ATOM     58  C   UNL     1      -8.947   9.403  -7.815  1.00  0.00     0.029 A 
ATOM     59  C   UNL     1      -7.610   9.093  -7.624  1.00  0.00     0.049 A 
ATOM     60  H   UNL     1      -6.560   8.792  -5.820  1.00  0.00     0.167 HD
ATOM     61  C   UNL     1      -5.302   8.551  -8.347  1.00  0.00     0.074 A 
ATOM     62  C   UNL     1      -4.300   8.280  -9.357  1.00  0.00     0.031 C 
ATOM     63  C   UNL     1      -6.590   8.877  -8.618  1.00  0.00     0.034 A 
BRANCH  50  64
ATOM     64  C   UNL     1     -10.142   9.483  -3.598  1.00  0.00     0.023 A 
ATOM     65  C   UNL     1     -10.432  10.725  -2.995  1.00  0.00     0.012 A 
ATOM     66  C   UNL     1     -11.161   8.518  -3.714  1.00  0.00     0.148 A 
ATOM     67  C   UNL     1     -11.702  10.989  -2.485  1.00  0.00     0.002 A 
ATOM     68  C   UNL     1     -12.437   8.804  -3.240  1.00  0.00     0.091 A 
ATOM     69  F   UNL     1     -10.862   7.335  -4.270  1.00  0.00    -0.205 F 
ATOM     70  C   UNL     1     -12.706  10.034  -2.617  1.00  0.00     0.022 A 
BRANCH  68  71
ATOM     71  S   UNL     1     -13.817   7.669  -3.432  1.00  0.00     0.127 S 
ATOM     72  O   UNL     1     -13.982   7.174  -2.066  1.00  0.00    -0.237 OA
ATOM     73  O   UNL     1     -14.886   8.556  -3.891  1.00  0.00    -0.237 OA
ATOM     74  O   UNL     1     -13.388   6.680  -4.411  1.00  0.00    -0.744 OA
ENDBRANCH  68  71
ENDBRANCH  50  64
BRANCH  51  75
ATOM     75  C   UNL     1      -0.947   7.452  -6.922  1.00  0.00     0.023 A 
ATOM     76  C   UNL     1      -0.203   8.428  -7.613  1.00  0.00     0.012 A 
ATOM     77  C   UNL     1      -0.372   6.188  -6.689  1.00  0.00     0.148 A 
ATOM     78  C   UNL     1       1.077   8.143  -8.088  1.00  0.00     0.002 A 
ATOM     79  C   UNL     1       0.924   5.927  -7.119  1.00  0.00     0.091 A 
ATOM     80  F   UNL     1      -1.101   5.267  -6.042  1.00  0.00    -0.205 F 
ATOM     81  C   UNL     1       1.645   6.898  -7.833  1.00  0.00     0.022 A 
BRANCH  79  82
ATOM     82  S   UNL     1       1.780   4.399  -6.718  1.00  0.00     0.127 S 
ATOM     83  O   UNL     1       1.778   3.708  -8.005  1.00  0.00    -0.237 OA
ATOM     84  O   UNL     1       3.089   4.888  -6.284  1.00  0.00    -0.237 OA
ATOM     85  O   UNL     1       0.994   3.777  -5.661  1.00  0.00    -0.744 OA
ENDBRANCH  79  82
ENDBRANCH  51  75
BRANCH  63  86
ATOM     86  C   UNL     1      -6.993   8.990 -10.065  1.00  0.00     0.023 A 
ATOM     87  C   UNL     1      -7.148   7.824 -10.839  1.00  0.00     0.012 A 
ATOM     88  C   UNL     1      -7.295  10.243 -10.633  1.00  0.00     0.148 A 
ATOM     89  C   UNL     1      -7.571   7.904 -12.165  1.00  0.00     0.002 A 
ATOM     90  C   UNL     1      -7.760  10.312 -11.941  1.00  0.00     0.091 A 
ATOM     91  F   UNL     1      -7.122  11.344  -9.886  1.00  0.00    -0.205 F 
ATOM     92  C   UNL     1      -7.888   9.145 -12.711  1.00  0.00     0.022 A 
BRANCH  90  93
ATOM     93  S   UNL     1      -8.282  11.858 -12.694  1.00  0.00     0.127 S 
ATOM     94  O   UNL     1      -7.169  12.138 -13.600  1.00  0.00    -0.237 OA
ATOM     95  O   UNL     1      -9.528  11.476 -13.359  1.00  0.00    -0.237 OA
ATOM     96  O   UNL     1      -8.450  12.800 -11.597  1.00  0.00    -0.744 OA
ENDBRANCH  90  93
ENDBRANCH  63  86
ENDBRANCH  37  38
ENDBRANCH  29  32
ENDBRANCH  27  28
ENDBRANCH  26  27
ENDBRANCH  25  26
ENDBRANCH  24  25
ENDBRANCH   1  24
TORSDOF 21
