REMARK SMILES NS(=O)(=O)c1ccc(-n2nc(NC(=O)NCCCC(=O)NCCCCCCNC(=O)c3ccc(-c4c5nc(c(-c6cccc(S(=O)(=O)[O-])c6F)c6ccc([nH]6)c(-c6cccc(S(=O)(=O)[O-])c6F)c6nc(c(-c7cccc(S(=O)(=O)[O-])c7F)c7ccc4[nH]7)C=C6)C=C5)cc3)cc2-c2ccccc2)cc1
REMARK SMILES IDX 22 1 21 2 19 3 20 4 18 6 17 7 16 8 15 9 12 10 13 11 14 13
REMARK SMILES IDX 11 15 9 16 10 17 95 18 94 19 8 20 5 21 6 22 103 23 7 24
REMARK SMILES IDX 102 25 2 26 3 27 4 28 1 29 96 32 97 33 101 34 98 35 100 36
REMARK SMILES IDX 99 37 23 38 24 39 25 40 26 41 27 42 28 43 29 44 30 46 31 47
REMARK SMILES IDX 32 48 93 49 33 50 92 51 34 52 35 53 36 54 86 55 37 56 91 57
REMARK SMILES IDX 85 58 87 59 38 60 90 61 84 62 83 63 39 65 71 66 51 67 70 68
REMARK SMILES IDX 52 69 55 70 69 71 88 72 53 73 54 74 68 76 89 77 56 78 40 79
REMARK SMILES IDX 41 80 49 81 42 82 44 83 50 84 43 85 45 86 46 87 47 88 48 89
REMARK SMILES IDX 72 90 73 91 81 92 74 93 76 94 82 95 75 96 77 97 78 98 79 99
REMARK SMILES IDX 80 100 57 101 58 102 66 103 59 104 61 105 67 106 60 107
REMARK SMILES IDX 62 108 63 109 64 110 65 111
REMARK H PARENT 21 5 12 12 15 14 1 30 1 31 28 45 87 64 55 75
REMARK Flexibility Score: inf
ROOT
ATOM      1  C   UNL     1       5.142   3.430  -5.209  1.00  0.00     0.116 C 
ENDROOT
BRANCH   1   2
ATOM      2  N   UNL     1       5.115   2.889  -3.860  1.00  0.00    -0.356 N 
ATOM      3  C   UNL     1       5.740   1.790  -3.352  1.00  0.00     0.220 C 
ATOM      4  O   UNL     1       5.440   1.419  -2.215  1.00  0.00    -0.275 OA
ATOM      5  H   UNL     1       4.564   3.393  -3.217  1.00  0.00     0.163 HD
BRANCH   3   6
ATOM      6  C   UNL     1       6.824   1.082  -4.148  1.00  0.00     0.102 C 
BRANCH   6   7
ATOM      7  C   UNL     1       6.369  -0.196  -4.854  1.00  0.00     0.031 C 
BRANCH   7   8
ATOM      8  C   UNL     1       5.439   0.013  -6.042  1.00  0.00     0.118 C 
BRANCH   8   9
ATOM      9  N   UNL     1       6.002   0.732  -7.171  1.00  0.00    -0.338 N 
ATOM     10  N   UNL     1       4.433   0.290  -8.922  1.00  0.00    -0.291 N 
ATOM     11  C   UNL     1       5.561   0.870  -8.448  1.00  0.00     0.320 C 
ATOM     12  H   UNL     1       4.420   0.147  -9.896  1.00  0.00     0.173 HD
ATOM     13  O   UNL     1       6.308   1.482  -9.220  1.00  0.00    -0.248 OA
ATOM     14  H   UNL     1       6.847   1.198  -6.978  1.00  0.00     0.165 HD
BRANCH  10  15
ATOM     15  C   UNL     1       3.301  -0.132  -8.262  1.00  0.00     0.157 A 
ATOM     16  N   UNL     1       2.055  -0.565  -6.631  1.00  0.00    -0.231 N 
ATOM     17  N   UNL     1       2.878   0.384  -7.104  1.00  0.00    -0.149 NA
ATOM     18  C   UNL     1       1.553  -1.353  -7.644  1.00  0.00     0.076 A 
ATOM     19  C   UNL     1       2.385  -1.113  -8.723  1.00  0.00     0.078 A 
BRANCH  16  20
ATOM     20  C   UNL     1       1.839  -0.723  -5.241  1.00  0.00     0.065 A 
ATOM     21  C   UNL     1       1.131  -1.131  -2.597  1.00  0.00     0.082 A 
ATOM     22  C   UNL     1       1.575  -2.214  -3.355  1.00  0.00     0.024 A 
ATOM     23  C   UNL     1       1.101   0.164  -3.133  1.00  0.00     0.024 A 
ATOM     24  C   UNL     1       1.933  -2.005  -4.680  1.00  0.00     0.030 A 
ATOM     25  C   UNL     1       1.473   0.374  -4.462  1.00  0.00     0.030 A 
BRANCH  21  26
ATOM     26  S   UNL     1       0.618  -1.421  -0.937  1.00  0.00     0.238 S 
ATOM     27  O   UNL     1       1.264  -2.597  -0.420  1.00  0.00    -0.207 OA
ATOM     28  O   UNL     1      -0.816  -1.213  -0.848  1.00  0.00    -0.207 OA
BRANCH  26  29
ATOM     29  N   UNL     1       1.313  -0.142  -0.099  1.00  0.00    -0.225 NA
ATOM     30  H   UNL     1       1.075  -0.214   0.890  1.00  0.00     0.137 HD
ATOM     31  H   UNL     1       0.960   0.740  -0.470  1.00  0.00     0.137 HD
ENDBRANCH  26  29
ENDBRANCH  21  26
ENDBRANCH  16  20
BRANCH  18  32
ATOM     32  C   UNL     1       0.397  -2.205  -7.411  1.00  0.00     0.000 A 
ATOM     33  C   UNL     1      -0.841  -1.605  -7.151  1.00  0.00     0.010 A 
ATOM     34  C   UNL     1       0.540  -3.575  -7.209  1.00  0.00     0.010 A 
ATOM     35  C   UNL     1      -1.917  -2.364  -6.692  1.00  0.00     0.001 A 
ATOM     36  C   UNL     1      -0.535  -4.334  -6.742  1.00  0.00     0.001 A 
ATOM     37  C   UNL     1      -1.764  -3.732  -6.488  1.00  0.00     0.000 A 
ENDBRANCH  18  32
ENDBRANCH  10  15
ENDBRANCH   8   9
ENDBRANCH   7   8
ENDBRANCH   6   7
ENDBRANCH   3   6
ENDBRANCH   1   2
BRANCH   1  38
ATOM     38  C   UNL     1       3.767   3.310  -5.862  1.00  0.00     0.021 C 
BRANCH  38  39
ATOM     39  C   UNL     1       2.791   4.434  -5.516  1.00  0.00     0.002 C 
BRANCH  39  40
ATOM     40  C   UNL     1       3.213   5.829  -5.994  1.00  0.00     0.002 C 
BRANCH  40  41
ATOM     41  C   UNL     1       3.530   5.957  -7.492  1.00  0.00     0.021 C 
BRANCH  41  42
ATOM     42  C   UNL     1       2.324   5.724  -8.392  1.00  0.00     0.116 C 
BRANCH  42  43
ATOM     43  N   UNL     1       1.307   6.762  -8.213  1.00  0.00    -0.352 N 
ATOM     44  C   UNL     1       0.102   6.902  -8.866  1.00  0.00     0.251 C 
ATOM     45  H   UNL     1       1.511   7.449  -7.538  1.00  0.00     0.163 HD
ATOM     46  O   UNL     1      -0.478   7.983  -8.875  1.00  0.00    -0.269 OA
BRANCH  44  47
ATOM     47  C   UNL     1      -0.481   5.734  -9.546  1.00  0.00     0.039 A 
ATOM     48  C   UNL     1      -1.105   5.867 -10.789  1.00  0.00     0.014 A 
ATOM     49  C   UNL     1      -0.383   4.487  -8.928  1.00  0.00     0.014 A 
ATOM     50  C   UNL     1      -1.557   4.721 -11.436  1.00  0.00     0.010 A 
ATOM     51  C   UNL     1      -0.701   3.348  -9.625  1.00  0.00     0.010 A 
ATOM     52  C   UNL     1      -1.327   3.459 -10.859  1.00  0.00    -0.014 A 
BRANCH  52  53
ATOM     53  C   UNL     1      -1.605   2.242 -11.614  1.00  0.00     0.031 A 
ATOM     54  C   UNL     1      -0.935   2.208 -12.938  1.00  0.00     0.074 A 
ATOM     55  C   UNL     1      -2.246   1.164 -11.112  1.00  0.00     0.049 A 
ATOM     56  N   UNL     1      -1.476   2.447 -14.087  1.00  0.00    -0.248 NA
ATOM     57  C   UNL     1       0.530   2.084 -12.985  1.00  0.00     0.031 C 
ATOM     58  C   UNL     1      -2.668   0.942  -9.723  1.00  0.00     0.029 A 
ATOM     59  N   UNL     1      -2.566  -0.019 -11.711  1.00  0.00    -0.354 N 
ATOM     60  C   UNL     1      -0.474   2.182 -15.018  1.00  0.00     0.074 A 
ATOM     61  C   UNL     1       0.766   2.229 -14.293  1.00  0.00     0.031 C 
ATOM     62  C   UNL     1      -2.954  -0.367  -9.541  1.00  0.00     0.029 A 
ATOM     63  C   UNL     1      -2.915  -1.033 -10.824  1.00  0.00     0.049 A 
ATOM     64  H   UNL     1      -2.552  -0.145 -12.688  1.00  0.00     0.167 HD
ATOM     65  C   UNL     1      -0.786   1.596 -16.208  1.00  0.00     0.034 A 
ATOM     66  C   UNL     1      -3.188  -2.323 -11.131  1.00  0.00     0.034 A 
ATOM     67  C   UNL     1      -2.214   1.562 -16.397  1.00  0.00     0.049 A 
ATOM     68  C   UNL     1      -3.619  -2.364 -12.538  1.00  0.00     0.074 A 
ATOM     69  C   UNL     1      -3.219   2.428 -16.760  1.00  0.00     0.029 A 
ATOM     70  N   UNL     1      -2.797   0.479 -15.797  1.00  0.00    -0.354 N 
ATOM     71  N   UNL     1      -4.718  -1.802 -12.956  1.00  0.00    -0.248 NA
ATOM     72  C   UNL     1      -2.666  -2.753 -13.569  1.00  0.00     0.031 C 
ATOM     73  C   UNL     1      -4.428   1.875 -16.239  1.00  0.00     0.029 A 
ATOM     74  C   UNL     1      -4.136   0.669 -15.608  1.00  0.00     0.049 A 
ATOM     75  H   UNL     1      -2.312  -0.336 -15.534  1.00  0.00     0.167 HD
ATOM     76  C   UNL     1      -4.388  -1.361 -14.222  1.00  0.00     0.074 A 
ATOM     77  C   UNL     1      -3.211  -2.125 -14.612  1.00  0.00     0.031 C 
ATOM     78  C   UNL     1      -4.869  -0.181 -14.699  1.00  0.00     0.034 A 
BRANCH  65  79
ATOM     79  C   UNL     1       0.078   0.608 -16.973  1.00  0.00     0.023 A 
ATOM     80  C   UNL     1      -0.395   0.197 -18.242  1.00  0.00     0.012 A 
ATOM     81  C   UNL     1       1.135  -0.147 -16.418  1.00  0.00     0.148 A 
ATOM     82  C   UNL     1       0.124  -0.924 -18.900  1.00  0.00     0.002 A 
ATOM     83  C   UNL     1       1.703  -1.213 -17.110  1.00  0.00     0.091 A 
ATOM     84  F   UNL     1       1.521   0.066 -15.159  1.00  0.00    -0.205 F 
ATOM     85  C   UNL     1       1.179  -1.627 -18.336  1.00  0.00     0.022 A 
BRANCH  83  86
ATOM     86  S   UNL     1       3.107  -2.128 -16.458  1.00  0.00     0.127 S 
ATOM     87  O   UNL     1       2.512  -3.438 -16.214  1.00  0.00    -0.237 OA
ATOM     88  O   UNL     1       4.040  -2.071 -17.584  1.00  0.00    -0.237 OA
ATOM     89  O   UNL     1       3.545  -1.390 -15.280  1.00  0.00    -0.744 OA
ENDBRANCH  83  86
ENDBRANCH  65  79
BRANCH  66  90
ATOM     90  C   UNL     1      -2.812  -3.577 -10.448  1.00  0.00     0.023 A 
ATOM     91  C   UNL     1      -3.728  -4.641 -10.368  1.00  0.00     0.012 A 
ATOM     92  C   UNL     1      -1.438  -3.845 -10.258  1.00  0.00     0.148 A 
ATOM     93  C   UNL     1      -3.286  -5.944 -10.108  1.00  0.00     0.002 A 
ATOM     94  C   UNL     1      -1.001  -5.149 -10.044  1.00  0.00     0.091 A 
ATOM     95  F   UNL     1      -0.572  -2.832 -10.412  1.00  0.00    -0.205 F 
ATOM     96  C   UNL     1      -1.925  -6.199  -9.957  1.00  0.00     0.022 A 
BRANCH  94  97
ATOM     97  S   UNL     1       0.742  -5.610 -10.028  1.00  0.00     0.127 S 
ATOM     98  O   UNL     1       0.857  -6.346  -8.767  1.00  0.00    -0.237 OA
ATOM     99  O   UNL     1       0.835  -6.447 -11.220  1.00  0.00    -0.237 OA
ATOM    100  O   UNL     1       1.490  -4.361 -10.071  1.00  0.00    -0.744 OA
ENDBRANCH  94  97
ENDBRANCH  66  90
BRANCH  78 101
ATOM    101  C   UNL     1      -6.167   0.320 -14.150  1.00  0.00     0.023 A 
ATOM    102  C   UNL     1      -6.330   0.806 -12.839  1.00  0.00     0.012 A 
ATOM    103  C   UNL     1      -7.246   0.376 -15.045  1.00  0.00     0.148 A 
ATOM    104  C   UNL     1      -7.560   1.334 -12.432  1.00  0.00     0.002 A 
ATOM    105  C   UNL     1      -8.449   0.940 -14.653  1.00  0.00     0.091 A 
ATOM    106  F   UNL     1      -7.067  -0.116 -16.281  1.00  0.00    -0.205 F 
ATOM    107  C   UNL     1      -8.615   1.414 -13.344  1.00  0.00     0.022 A 
BRANCH 105 108
ATOM    108  S   UNL     1      -9.791   1.163 -15.820  1.00  0.00     0.127 S 
ATOM    109  O   UNL     1     -10.734   0.127 -15.402  1.00  0.00    -0.237 OA
ATOM    110  O   UNL     1     -10.222   2.533 -15.541  1.00  0.00    -0.237 OA
ATOM    111  O   UNL     1      -9.207   0.983 -17.144  1.00  0.00    -0.744 OA
ENDBRANCH 105 108
ENDBRANCH  78 101
ENDBRANCH  52  53
ENDBRANCH  44  47
ENDBRANCH  42  43
ENDBRANCH  41  42
ENDBRANCH  40  41
ENDBRANCH  39  40
ENDBRANCH  38  39
ENDBRANCH   1  38
TORSDOF 24
