REMARK SMILES CC[C@@](C)(NC(=O)c1cccc(Br)c1C)C(=O)NCCCCCCNC(=O)c1ccc(-c2c3nc(c(-c4cccc(S(=O)(=O)[O-])c4F)c4ccc([nH]4)c(-c4cccc(S(=O)(=O)[O-])c4F)c4nc(c(-c5cccc(S(=O)(=O)[O-])c5F)c5ccc2[nH]5)C=C4)C=C3)cc1
REMARK SMILES IDX 22 1 21 2 20 3 19 4 18 5 16 6 17 7 3 9 4 10 2 11 1 12 5 13
REMARK SMILES IDX 6 14 7 16 8 17 9 18 14 19 10 20 12 21 15 22 11 23 13 24
REMARK SMILES IDX 23 25 24 26 25 27 26 28 27 30 28 31 29 32 90 33 30 34 89 35
REMARK SMILES IDX 31 36 32 37 33 38 83 39 34 40 88 41 82 42 84 43 35 44 87 45
REMARK SMILES IDX 81 46 80 47 36 49 68 50 48 51 67 52 49 53 52 54 66 55 85 56
REMARK SMILES IDX 50 57 51 58 65 60 86 61 53 62 37 63 38 64 46 65 39 66 41 67
REMARK SMILES IDX 47 68 40 69 42 70 43 71 44 72 45 73 69 74 70 75 78 76 71 77
REMARK SMILES IDX 73 78 79 79 72 80 74 81 75 82 76 83 77 84 54 85 55 86 63 87
REMARK SMILES IDX 56 88 58 89 64 90 57 91 59 92 60 93 61 94 62 95
REMARK H PARENT 18 8 5 15 25 29 84 48 52 59
REMARK Flexibility Score: inf
ROOT
ATOM      1  C   UNL     1       5.644  -6.340   3.905  1.00  0.00     0.002 C 
ENDROOT
BRANCH   1   2
ATOM      2  C   UNL     1       5.161  -5.879   2.551  1.00  0.00     0.002 C 
BRANCH   2   3
ATOM      3  C   UNL     1       3.678  -5.505   2.404  1.00  0.00     0.021 C 
BRANCH   3   4
ATOM      4  C   UNL     1       2.932  -4.224   2.905  1.00  0.00     0.116 C 
BRANCH   4   5
ATOM      5  N   UNL     1       2.971  -2.970   2.078  1.00  0.00    -0.354 N 
ATOM      6  C   UNL     1       2.377  -2.138   1.172  1.00  0.00     0.245 C 
ATOM      7  O   UNL     1       3.064  -1.094   1.091  1.00  0.00    -0.272 OA
ATOM      8  H   UNL     1       3.836  -2.549   2.288  1.00  0.00     0.163 HD
BRANCH   6   9
ATOM      9  C   UNL     1       0.960  -2.114   0.340  1.00  0.00     0.116 C 
ATOM     10  C   UNL     1      -0.119  -1.997   1.439  1.00  0.00     0.045 C 
BRANCH   9  11
ATOM     11  C   UNL     1       0.901  -0.818  -0.574  1.00  0.00     0.035 C 
ATOM     12  C   UNL     1       1.026   0.571   0.041  1.00  0.00     0.007 C 
ENDBRANCH   9  11
BRANCH   9  13
ATOM     13  N   UNL     1       0.412  -3.166  -0.624  1.00  0.00    -0.338 N 
ATOM     14  C   UNL     1       0.898  -3.610  -1.853  1.00  0.00     0.252 C 
ATOM     15  H   UNL     1      -0.420  -3.601  -0.329  1.00  0.00     0.164 HD
ATOM     16  O   UNL     1       0.137  -3.826  -2.790  1.00  0.00    -0.269 OA
BRANCH  14  17
ATOM     17  C   UNL     1       2.322  -3.997  -1.958  1.00  0.00     0.043 A 
ATOM     18  C   UNL     1       2.993  -4.220  -3.165  1.00  0.00     0.014 A 
ATOM     19  C   UNL     1       2.923  -4.439  -0.794  1.00  0.00    -0.024 A 
ATOM     20  C   UNL     1       4.335  -4.624  -3.168  1.00  0.00     0.002 A 
ATOM     21  C   UNL     1       4.334  -4.488  -0.784  1.00  0.00     0.021 A 
ATOM     22  C   UNL     1       1.957  -5.323   0.031  1.00  0.00     0.046 C 
ATOM     23  C   UNL     1       5.028  -4.679  -1.973  1.00  0.00     0.016 A 
ATOM     24  Br  UNL     1       5.410  -3.289   0.306  1.00  0.00    -0.051 Br
ENDBRANCH  14  17
ENDBRANCH   9  13
ENDBRANCH   6   9
ENDBRANCH   4   5
ENDBRANCH   3   4
ENDBRANCH   2   3
ENDBRANCH   1   2
BRANCH   1  25
ATOM     25  C   UNL     1       4.808  -7.460   4.511  1.00  0.00     0.021 C 
BRANCH  25  26
ATOM     26  C   UNL     1       4.631  -8.684   3.612  1.00  0.00     0.116 C 
BRANCH  26  27
ATOM     27  N   UNL     1       5.915  -9.286   3.275  1.00  0.00    -0.352 N 
ATOM     28  C   UNL     1       6.448 -10.434   3.796  1.00  0.00     0.251 C 
ATOM     29  H   UNL     1       6.457  -8.816   2.600  1.00  0.00     0.163 HD
ATOM     30  O   UNL     1       7.660 -10.660   3.735  1.00  0.00    -0.269 OA
BRANCH  28  31
ATOM     31  C   UNL     1       5.531 -11.402   4.414  1.00  0.00     0.039 A 
ATOM     32  C   UNL     1       5.797 -11.907   5.686  1.00  0.00     0.014 A 
ATOM     33  C   UNL     1       4.372 -11.769   3.720  1.00  0.00     0.014 A 
ATOM     34  C   UNL     1       4.880 -12.779   6.273  1.00  0.00     0.010 A 
ATOM     35  C   UNL     1       3.422 -12.560   4.344  1.00  0.00     0.010 A 
ATOM     36  C   UNL     1       3.684 -13.104   5.609  1.00  0.00    -0.014 A 
BRANCH  36  37
ATOM     37  C   UNL     1       2.723 -14.072   6.187  1.00  0.00     0.031 A 
ATOM     38  C   UNL     1       2.446 -15.358   5.454  1.00  0.00     0.074 A 
ATOM     39  C   UNL     1       2.068 -13.771   7.324  1.00  0.00     0.049 A 
ATOM     40  N   UNL     1       1.603 -16.311   5.751  1.00  0.00    -0.248 NA
ATOM     41  C   UNL     1       3.192 -15.592   4.203  1.00  0.00     0.031 C 
ATOM     42  C   UNL     1       2.202 -12.520   8.075  1.00  0.00     0.029 A 
ATOM     43  N   UNL     1       1.141 -14.487   8.036  1.00  0.00    -0.354 N 
ATOM     44  C   UNL     1       1.699 -17.237   4.720  1.00  0.00     0.074 A 
ATOM     45  C   UNL     1       2.637 -16.709   3.756  1.00  0.00     0.031 C 
ATOM     46  C   UNL     1       1.389 -12.560   9.144  1.00  0.00     0.029 A 
ATOM     47  C   UNL     1       0.656 -13.821   9.137  1.00  0.00     0.049 A 
ATOM     48  H   UNL     1       0.849 -15.393   7.782  1.00  0.00     0.167 HD
ATOM     49  C   UNL     1       1.096 -18.442   4.604  1.00  0.00     0.034 A 
ATOM     50  C   UNL     1      -0.283 -14.188  10.031  1.00  0.00     0.034 A 
ATOM     51  C   UNL     1       0.196 -18.978   5.587  1.00  0.00     0.049 A 
ATOM     52  C   UNL     1      -0.916 -15.547   9.893  1.00  0.00     0.074 A 
ATOM     53  C   UNL     1      -0.432 -20.209   5.598  1.00  0.00     0.029 A 
ATOM     54  N   UNL     1      -0.199 -18.313   6.736  1.00  0.00    -0.354 N 
ATOM     55  N   UNL     1      -0.716 -16.463   8.976  1.00  0.00    -0.248 NA
ATOM     56  C   UNL     1      -1.872 -15.944  10.937  1.00  0.00     0.031 C 
ATOM     57  C   UNL     1      -1.226 -20.281   6.747  1.00  0.00     0.029 A 
ATOM     58  C   UNL     1      -1.058 -19.110   7.470  1.00  0.00     0.049 A 
ATOM     59  H   UNL     1       0.089 -17.407   6.993  1.00  0.00     0.167 HD
ATOM     60  C   UNL     1      -1.480 -17.559   9.359  1.00  0.00     0.074 A 
ATOM     61  C   UNL     1      -2.131 -17.199  10.601  1.00  0.00     0.031 C 
ATOM     62  C   UNL     1      -1.639 -18.753   8.737  1.00  0.00     0.034 A 
BRANCH  49  63
ATOM     63  C   UNL     1       1.441 -19.291   3.408  1.00  0.00     0.023 A 
ATOM     64  C   UNL     1       2.725 -19.865   3.312  1.00  0.00     0.012 A 
ATOM     65  C   UNL     1       0.481 -19.577   2.419  1.00  0.00     0.148 A 
ATOM     66  C   UNL     1       3.060 -20.686   2.237  1.00  0.00     0.002 A 
ATOM     67  C   UNL     1       0.805 -20.437   1.376  1.00  0.00     0.091 A 
ATOM     68  F   UNL     1      -0.728 -19.007   2.518  1.00  0.00    -0.205 F 
ATOM     69  C   UNL     1       2.096 -20.982   1.277  1.00  0.00     0.022 A 
BRANCH  67  70
ATOM     70  S   UNL     1      -0.384 -20.948   0.131  1.00  0.00     0.127 S 
ATOM     71  O   UNL     1       0.193 -20.371  -1.083  1.00  0.00    -0.237 OA
ATOM     72  O   UNL     1      -0.300 -22.406   0.212  1.00  0.00    -0.237 OA
ATOM     73  O   UNL     1      -1.663 -20.384   0.536  1.00  0.00    -0.744 OA
ENDBRANCH  67  70
ENDBRANCH  49  63
BRANCH  50  74
ATOM     74  C   UNL     1      -0.652 -13.283  11.156  1.00  0.00     0.023 A 
ATOM     75  C   UNL     1      -0.344 -13.650  12.481  1.00  0.00     0.012 A 
ATOM     76  C   UNL     1      -1.323 -12.068  10.921  1.00  0.00     0.148 A 
ATOM     77  C   UNL     1      -0.747 -12.852  13.553  1.00  0.00     0.002 A 
ATOM     78  C   UNL     1      -1.667 -11.248  11.989  1.00  0.00     0.091 A 
ATOM     79  F   UNL     1      -1.614 -11.737   9.655  1.00  0.00    -0.205 F 
ATOM     80  C   UNL     1      -1.402 -11.648  13.307  1.00  0.00     0.022 A 
BRANCH  78  81
ATOM     81  S   UNL     1      -2.393  -9.623  11.751  1.00  0.00     0.127 S 
ATOM     82  O   UNL     1      -3.776  -9.850  12.162  1.00  0.00    -0.237 OA
ATOM     83  O   UNL     1      -1.604  -8.800  12.668  1.00  0.00    -0.237 OA
ATOM     84  O   UNL     1      -2.192  -9.307  10.343  1.00  0.00    -0.744 OA
ENDBRANCH  78  81
ENDBRANCH  50  74
BRANCH  62  85
ATOM     85  C   UNL     1      -2.489 -19.788   9.422  1.00  0.00     0.023 A 
ATOM     86  C   UNL     1      -3.886 -19.628   9.494  1.00  0.00     0.012 A 
ATOM     87  C   UNL     1      -1.898 -20.960   9.935  1.00  0.00     0.148 A 
ATOM     88  C   UNL     1      -4.678 -20.599  10.104  1.00  0.00     0.002 A 
ATOM     89  C   UNL     1      -2.698 -21.949  10.489  1.00  0.00     0.091 A 
ATOM     90  F   UNL     1      -0.564 -21.084   9.871  1.00  0.00    -0.205 F 
ATOM     91  C   UNL     1      -4.087 -21.764  10.589  1.00  0.00     0.022 A 
BRANCH  89  92
ATOM     92  S   UNL     1      -2.036 -23.523  11.043  1.00  0.00     0.127 S 
ATOM     93  O   UNL     1      -2.159 -23.402  12.495  1.00  0.00    -0.237 OA
ATOM     94  O   UNL     1      -2.959 -24.479  10.430  1.00  0.00    -0.237 OA
ATOM     95  O   UNL     1      -0.672 -23.588  10.536  1.00  0.00    -0.744 OA
ENDBRANCH  89  92
ENDBRANCH  62  85
ENDBRANCH  36  37
ENDBRANCH  28  31
ENDBRANCH  26  27
ENDBRANCH  25  26
ENDBRANCH   1  25
TORSDOF 19
