REMARK SMILES CCOc1ccc(-c2csc3ncn([C@H](C)C(=O)NCCCCCCNC(=O)c4ccc(-c5c6nc(c(-c7cccc(S(=O)(=O)[O-])c7F)c7ccc([nH]7)c(-c7cccc(S(=O)(=O)[O-])c7F)c7nc(c(-c8cccc(S(=O)(=O)[O-])c8F)c8ccc5[nH]8)C=C7)C=C6)cc4)c(=O)c23)cc1
REMARK SMILES IDX 22 1 21 2 20 3 19 4 17 5 18 6 15 8 16 9 14 10 8 11 9 12
REMARK SMILES IDX 94 13 10 14 11 15 92 16 12 17 93 18 13 19 7 20 4 21 5 22
REMARK SMILES IDX 96 23 6 24 95 25 3 26 2 27 1 28 23 29 24 30 25 31 26 32
REMARK SMILES IDX 27 33 28 35 29 36 30 37 91 38 31 39 90 40 32 41 33 42 34 43
REMARK SMILES IDX 84 44 35 45 89 46 83 47 85 48 36 49 88 50 82 51 81 52 37 54
REMARK SMILES IDX 69 55 49 56 68 57 50 58 53 59 67 60 86 61 51 62 52 63 66 65
REMARK SMILES IDX 87 66 54 67 38 68 39 69 47 70 40 71 42 72 48 73 41 74 43 75
REMARK SMILES IDX 44 76 45 77 46 78 70 79 71 80 79 81 72 82 74 83 80 84 73 85
REMARK SMILES IDX 75 86 76 87 77 88 78 89 55 90 56 91 64 92 57 93 59 94 65 95
REMARK SMILES IDX 58 96 60 97 61 98 62 99 63 100
REMARK H PARENT 19 7 26 34 85 53 53 64
REMARK Flexibility Score: inf
ROOT
ATOM      1  C   UNL     1       4.440  -1.767   2.618  1.00  0.00     0.002 C 
ENDROOT
BRANCH   1   2
ATOM      2  C   UNL     1       5.244  -0.597   3.196  1.00  0.00     0.021 C 
BRANCH   2   3
ATOM      3  C   UNL     1       5.569  -0.730   4.682  1.00  0.00     0.116 C 
BRANCH   3   4
ATOM      4  N   UNL     1       6.472  -1.839   4.918  1.00  0.00    -0.354 N 
ATOM      5  C   UNL     1       7.717  -1.859   5.474  1.00  0.00     0.242 C 
ATOM      6  O   UNL     1       8.401  -2.873   5.304  1.00  0.00    -0.273 OA
ATOM      7  H   UNL     1       6.132  -2.718   4.633  1.00  0.00     0.163 HD
BRANCH   5   8
ATOM      8  C   UNL     1       8.293  -0.624   6.202  1.00  0.00     0.177 C 
ATOM      9  C   UNL     1       8.837   0.341   5.146  1.00  0.00     0.042 C 
BRANCH   8  10
ATOM     10  N   UNL     1       7.311  -0.094   7.171  1.00  0.00    -0.286 N 
ATOM     11  C   UNL     1       4.941  -1.156   9.938  1.00  0.00     0.007 A 
ATOM     12  C   UNL     1       4.145  -0.242  10.608  1.00  0.00     0.076 A 
ATOM     13  C   UNL     1       5.821  -0.481   9.021  1.00  0.00     0.085 A 
ATOM     14  S   UNL     1       4.410   1.367  10.098  1.00  0.00    -0.123 S 
ATOM     15  C   UNL     1       5.587   0.876   8.971  1.00  0.00     0.131 A 
ATOM     16  C   UNL     1       6.844  -1.005   8.131  1.00  0.00     0.263 A 
ATOM     17  N   UNL     1       6.178   1.767   8.140  1.00  0.00    -0.227 NA
ATOM     18  O   UNL     1       7.275  -2.148   8.236  1.00  0.00    -0.268 OA
ATOM     19  C   UNL     1       6.990   1.246   7.275  1.00  0.00     0.204 A 
BRANCH  11  20
ATOM     20  C   UNL     1       4.762  -2.588  10.172  1.00  0.00    -0.016 A 
ATOM     21  C   UNL     1       4.357  -5.335  10.602  1.00  0.00     0.119 A 
ATOM     22  C   UNL     1       5.637  -4.794  10.699  1.00  0.00     0.047 A 
ATOM     23  C   UNL     1       3.274  -4.507  10.327  1.00  0.00     0.047 A 
ATOM     24  C   UNL     1       5.838  -3.424  10.488  1.00  0.00     0.012 A 
ATOM     25  C   UNL     1       3.477  -3.146  10.092  1.00  0.00     0.012 A 
BRANCH  21  26
ATOM     26  O   UNL     1       4.185  -6.656  10.911  1.00  0.00    -0.494 OA
BRANCH  26  27
ATOM     27  C   UNL     1       3.757  -7.455   9.800  1.00  0.00     0.226 C 
ATOM     28  C   UNL     1       2.241  -7.542   9.711  1.00  0.00     0.049 C 
ENDBRANCH  26  27
ENDBRANCH  21  26
ENDBRANCH  11  20
ENDBRANCH   8  10
ENDBRANCH   5   8
ENDBRANCH   3   4
ENDBRANCH   2   3
ENDBRANCH   1   2
BRANCH   1  29
ATOM     29  C   UNL     1       3.141  -2.119   3.359  1.00  0.00     0.002 C 
BRANCH  29  30
ATOM     30  C   UNL     1       2.154  -0.968   3.603  1.00  0.00     0.021 C 
BRANCH  30  31
ATOM     31  C   UNL     1       1.601  -0.351   2.330  1.00  0.00     0.116 C 
BRANCH  31  32
ATOM     32  N   UNL     1       0.750  -1.277   1.573  1.00  0.00    -0.352 N 
ATOM     33  C   UNL     1       0.136  -1.067   0.346  1.00  0.00     0.251 C 
ATOM     34  H   UNL     1       0.595  -2.156   1.988  1.00  0.00     0.163 HD
ATOM     35  O   UNL     1      -0.808  -1.742  -0.018  1.00  0.00    -0.269 OA
BRANCH  33  36
ATOM     36  C   UNL     1       0.686  -0.006  -0.516  1.00  0.00     0.039 A 
ATOM     37  C   UNL     1      -0.119   0.880  -1.238  1.00  0.00     0.014 A 
ATOM     38  C   UNL     1       2.069   0.110  -0.529  1.00  0.00     0.014 A 
ATOM     39  C   UNL     1       0.495   1.930  -1.919  1.00  0.00     0.010 A 
ATOM     40  C   UNL     1       2.633   1.265  -0.978  1.00  0.00     0.010 A 
ATOM     41  C   UNL     1       1.876   2.113  -1.774  1.00  0.00    -0.014 A 
BRANCH  41  42
ATOM     42  C   UNL     1       2.596   3.210  -2.402  1.00  0.00     0.031 A 
ATOM     43  C   UNL     1       2.154   4.569  -1.994  1.00  0.00     0.074 A 
ATOM     44  C   UNL     1       3.754   2.978  -3.065  1.00  0.00     0.049 A 
ATOM     45  N   UNL     1       1.604   5.476  -2.731  1.00  0.00    -0.248 NA
ATOM     46  C   UNL     1       2.201   4.914  -0.564  1.00  0.00     0.031 C 
ATOM     47  C   UNL     1       4.476   1.702  -3.220  1.00  0.00     0.029 A 
ATOM     48  N   UNL     1       4.634   3.871  -3.582  1.00  0.00    -0.354 N 
ATOM     49  C   UNL     1       1.465   6.594  -1.909  1.00  0.00     0.074 A 
ATOM     50  C   UNL     1       1.634   6.122  -0.560  1.00  0.00     0.031 C 
ATOM     51  C   UNL     1       5.771   1.948  -3.510  1.00  0.00     0.029 A 
ATOM     52  C   UNL     1       5.919   3.366  -3.760  1.00  0.00     0.049 A 
ATOM     53  H   UNL     1       4.386   4.796  -3.811  1.00  0.00     0.167 HD
ATOM     54  C   UNL     1       1.491   7.858  -2.418  1.00  0.00     0.034 A 
ATOM     55  C   UNL     1       7.035   4.080  -4.037  1.00  0.00     0.034 A 
ATOM     56  C   UNL     1       1.361   7.845  -3.853  1.00  0.00     0.049 A 
ATOM     57  C   UNL     1       6.583   5.381  -4.582  1.00  0.00     0.074 A 
ATOM     58  C   UNL     1       0.418   7.382  -4.747  1.00  0.00     0.029 A 
ATOM     59  N   UNL     1       2.519   8.011  -4.577  1.00  0.00    -0.354 N 
ATOM     60  N   UNL     1       5.924   5.499  -5.702  1.00  0.00    -0.248 NA
ATOM     61  C   UNL     1       6.452   6.493  -3.656  1.00  0.00     0.031 C 
ATOM     62  C   UNL     1       1.178   6.828  -5.819  1.00  0.00     0.029 A 
ATOM     63  C   UNL     1       2.531   7.053  -5.554  1.00  0.00     0.049 A 
ATOM     64  H   UNL     1       3.211   8.694  -4.421  1.00  0.00     0.167 HD
ATOM     65  C   UNL     1       4.951   6.453  -5.430  1.00  0.00     0.074 A 
ATOM     66  C   UNL     1       5.395   7.105  -4.197  1.00  0.00     0.031 C 
ATOM     67  C   UNL     1       3.736   6.423  -6.052  1.00  0.00     0.034 A 
BRANCH  54  68
ATOM     68  C   UNL     1       2.008   9.086  -1.701  1.00  0.00     0.023 A 
ATOM     69  C   UNL     1       1.805  10.334  -2.334  1.00  0.00     0.012 A 
ATOM     70  C   UNL     1       2.908   9.062  -0.612  1.00  0.00     0.148 A 
ATOM     71  C   UNL     1       2.506  11.481  -1.945  1.00  0.00     0.002 A 
ATOM     72  C   UNL     1       3.543  10.222  -0.178  1.00  0.00     0.091 A 
ATOM     73  F   UNL     1       3.273   7.900  -0.067  1.00  0.00    -0.205 F 
ATOM     74  C   UNL     1       3.372  11.427  -0.861  1.00  0.00     0.022 A 
BRANCH  72  75
ATOM     75  S   UNL     1       4.638  10.214   1.247  1.00  0.00     0.127 S 
ATOM     76  O   UNL     1       5.948  10.299   0.608  1.00  0.00    -0.237 OA
ATOM     77  O   UNL     1       4.214  11.420   1.958  1.00  0.00    -0.237 OA
ATOM     78  O   UNL     1       4.346   8.973   1.954  1.00  0.00    -0.744 OA
ENDBRANCH  72  75
ENDBRANCH  54  68
BRANCH  55  79
ATOM     79  C   UNL     1       8.429   3.840  -3.598  1.00  0.00     0.023 A 
ATOM     80  C   UNL     1       9.498   4.404  -4.321  1.00  0.00     0.012 A 
ATOM     81  C   UNL     1       8.700   3.294  -2.322  1.00  0.00     0.148 A 
ATOM     82  C   UNL     1      10.788   4.451  -3.778  1.00  0.00     0.002 A 
ATOM     83  C   UNL     1       9.985   3.340  -1.787  1.00  0.00     0.091 A 
ATOM     84  F   UNL     1       7.680   2.812  -1.598  1.00  0.00    -0.205 F 
ATOM     85  C   UNL     1      11.030   3.928  -2.510  1.00  0.00     0.022 A 
BRANCH  83  86
ATOM     86  S   UNL     1      10.366   2.715  -0.143  1.00  0.00     0.127 S 
ATOM     87  O   UNL     1      11.518   1.853  -0.407  1.00  0.00    -0.237 OA
ATOM     88  O   UNL     1      10.675   3.942   0.586  1.00  0.00    -0.237 OA
ATOM     89  O   UNL     1       9.175   2.003   0.305  1.00  0.00    -0.744 OA
ENDBRANCH  83  86
ENDBRANCH  55  79
BRANCH  67  90
ATOM     90  C   UNL     1       3.541   5.464  -7.202  1.00  0.00     0.023 A 
ATOM     91  C   UNL     1       3.536   4.064  -7.028  1.00  0.00     0.012 A 
ATOM     92  C   UNL     1       3.129   5.994  -8.435  1.00  0.00     0.148 A 
ATOM     93  C   UNL     1       3.136   3.212  -8.062  1.00  0.00     0.002 A 
ATOM     94  C   UNL     1       2.686   5.149  -9.444  1.00  0.00     0.091 A 
ATOM     95  F   UNL     1       3.132   7.328  -8.580  1.00  0.00    -0.205 F 
ATOM     96  C   UNL     1       2.695   3.756  -9.266  1.00  0.00     0.022 A 
BRANCH  94  97
ATOM     97  S   UNL     1       1.972   5.791 -10.959  1.00  0.00     0.127 S 
ATOM     98  O   UNL     1       3.010   5.479 -11.940  1.00  0.00    -0.237 OA
ATOM     99  O   UNL     1       0.748   4.998 -11.088  1.00  0.00    -0.237 OA
ATOM    100  O   UNL     1       1.740   7.211 -10.726  1.00  0.00    -0.744 OA
ENDBRANCH  94  97
ENDBRANCH  67  90
ENDBRANCH  41  42
ENDBRANCH  33  36
ENDBRANCH  31  32
ENDBRANCH  30  31
ENDBRANCH  29  30
ENDBRANCH   1  29
TORSDOF 20
