REMARK SMILES O=C(CCN/C(=[NH+]\S(=O)(=O)c1ccccc1)c1ccccc1)NCCCCCCNC(=O)c1ccc(-c2c3nc(c(-c4cccc(S(=O)(=O)[O-])c4F)c4ccc([nH]4)c(-c4cccc(S(=O)(=O)[O-])c4F)c4nc(c(-c5cccc(S(=O)(=O)[O-])c5F)c5ccc2[nH]5)C=C4)C=C3)cc1
REMARK SMILES IDX 26 1 25 2 24 3 23 4 1 5 2 6 3 8 4 9 5 10 6 11 7 13 17 15
REMARK SMILES IDX 18 16 22 17 19 18 21 19 20 20 8 21 9 22 10 23 11 24 12 25
REMARK SMILES IDX 16 26 13 27 15 28 14 29 27 30 28 31 29 32 30 33 31 34 32 36
REMARK SMILES IDX 33 37 34 38 95 39 35 40 94 41 36 42 37 43 38 44 88 45 39 46
REMARK SMILES IDX 93 47 87 48 89 49 40 50 92 51 86 52 85 53 41 55 73 56 53 57
REMARK SMILES IDX 72 58 54 59 57 60 71 61 90 62 55 63 56 64 70 66 91 67 58 68
REMARK SMILES IDX 42 69 43 70 51 71 44 72 46 73 52 74 45 75 47 76 48 77 49 78
REMARK SMILES IDX 50 79 74 80 75 81 83 82 76 83 78 84 84 85 77 86 79 87 80 88
REMARK SMILES IDX 81 89 82 90 59 91 60 92 68 93 61 94 63 95 69 96 62 97 64 98
REMARK SMILES IDX 65 99 66 100 67 101
REMARK H PARENT 23 7 5 12 7 14 30 35 89 54 57 65
REMARK Flexibility Score: inf
ROOT
ATOM      1  C   UNL     1       3.675  -3.722  -1.253  1.00  0.00     0.002 C 
ENDROOT
BRANCH   1   2
ATOM      2  C   UNL     1       2.204  -3.320  -1.107  1.00  0.00     0.021 C 
BRANCH   2   3
ATOM      3  C   UNL     1       1.911  -2.376   0.061  1.00  0.00     0.116 C 
BRANCH   3   4
ATOM      4  N   UNL     1       2.718  -1.173  -0.010  1.00  0.00    -0.356 N 
ATOM      5  O   UNL     1       1.004   0.337   0.270  1.00  0.00    -0.275 OA
ATOM      6  C   UNL     1       2.190   0.090   0.081  1.00  0.00     0.223 C 
ATOM      7  H   UNL     1       3.691  -1.267  -0.128  1.00  0.00     0.163 HD
BRANCH   6   8
ATOM      8  C   UNL     1       3.216   1.188  -0.054  1.00  0.00     0.145 C 
BRANCH   8   9
ATOM      9  C   UNL     1       3.846   1.514   1.291  1.00  0.00     0.243 C 
BRANCH   9  10
ATOM     10  N   UNL     1       4.894   0.568   1.647  1.00  0.00    -0.273 N 
ATOM     11  C   UNL     1       6.269   0.710   1.560  1.00  0.00     0.290 C 
ATOM     12  H   UNL     1       4.581  -0.296   2.001  1.00  0.00     0.305 HD
ATOM     13  N   UNL     1       7.137  -0.257   1.538  1.00  0.00    -0.162 N 
ATOM     14  H   UNL     1       8.099  -0.057   1.598  1.00  0.00     0.327 HD
BRANCH  11  15
ATOM     15  C   UNL     1       6.868   2.077   1.488  1.00  0.00     0.064 A 
ATOM     16  C   UNL     1       7.842   2.344   0.519  1.00  0.00     0.016 A 
ATOM     17  C   UNL     1       6.472   3.076   2.382  1.00  0.00     0.016 A 
ATOM     18  C   UNL     1       8.390   3.623   0.422  1.00  0.00     0.001 A 
ATOM     19  C   UNL     1       7.012   4.356   2.273  1.00  0.00     0.001 A 
ATOM     20  C   UNL     1       7.967   4.629   1.292  1.00  0.00     0.000 A 
ENDBRANCH  11  15
BRANCH  13  21
ATOM     21  S   UNL     1       6.635  -1.787   1.412  1.00  0.00     0.328 S 
ATOM     22  O   UNL     1       5.706  -2.067   2.488  1.00  0.00    -0.179 OA
ATOM     23  O   UNL     1       6.221  -1.978   0.031  1.00  0.00    -0.179 OA
BRANCH  21  24
ATOM     24  C   UNL     1       8.037  -2.850   1.653  1.00  0.00     0.109 A 
ATOM     25  C   UNL     1       7.809  -4.232   1.713  1.00  0.00     0.024 A 
ATOM     26  C   UNL     1       9.332  -2.340   1.750  1.00  0.00     0.024 A 
ATOM     27  C   UNL     1       8.886  -5.110   1.834  1.00  0.00     0.001 A 
ATOM     28  C   UNL     1      10.405  -3.226   1.883  1.00  0.00     0.001 A 
ATOM     29  C   UNL     1      10.183  -4.606   1.917  1.00  0.00     0.000 A 
ENDBRANCH  21  24
ENDBRANCH  13  21
ENDBRANCH   9  10
ENDBRANCH   8   9
ENDBRANCH   6   8
ENDBRANCH   3   4
ENDBRANCH   2   3
ENDBRANCH   1   2
BRANCH   1  30
ATOM     30  C   UNL     1       4.307  -4.327   0.002  1.00  0.00     0.002 C 
BRANCH  30  31
ATOM     31  C   UNL     1       3.730  -5.662   0.453  1.00  0.00     0.021 C 
BRANCH  31  32
ATOM     32  C   UNL     1       3.937  -6.792  -0.545  1.00  0.00     0.116 C 
BRANCH  32  33
ATOM     33  N   UNL     1       5.346  -7.098  -0.764  1.00  0.00    -0.352 N 
ATOM     34  C   UNL     1       5.950  -8.328  -0.856  1.00  0.00     0.251 C 
ATOM     35  H   UNL     1       5.942  -6.321  -0.860  1.00  0.00     0.163 HD
ATOM     36  O   UNL     1       7.174  -8.417  -0.885  1.00  0.00    -0.269 OA
BRANCH  34  37
ATOM     37  C   UNL     1       5.110  -9.545  -0.887  1.00  0.00     0.039 A 
ATOM     38  C   UNL     1       5.447 -10.624  -0.067  1.00  0.00     0.014 A 
ATOM     39  C   UNL     1       3.969  -9.601  -1.692  1.00  0.00     0.014 A 
ATOM     40  C   UNL     1       4.598 -11.732  -0.003  1.00  0.00     0.010 A 
ATOM     41  C   UNL     1       3.086 -10.666  -1.565  1.00  0.00     0.010 A 
ATOM     42  C   UNL     1       3.392 -11.744  -0.722  1.00  0.00    -0.014 A 
BRANCH  42  43
ATOM     43  C   UNL     1       2.428 -12.867  -0.599  1.00  0.00     0.031 A 
ATOM     44  C   UNL     1       2.081 -13.700  -1.805  1.00  0.00     0.074 A 
ATOM     45  C   UNL     1       1.792 -13.075   0.572  1.00  0.00     0.049 A 
ATOM     46  N   UNL     1       1.212 -14.670  -1.913  1.00  0.00    -0.248 NA
ATOM     47  C   UNL     1       2.780 -13.381  -3.061  1.00  0.00     0.031 C 
ATOM     48  C   UNL     1       1.976 -12.279   1.788  1.00  0.00     0.029 A 
ATOM     49  N   UNL     1       0.841 -13.999   0.923  1.00  0.00    -0.354 N 
ATOM     50  C   UNL     1       1.234 -15.053  -3.248  1.00  0.00     0.074 A 
ATOM     51  C   UNL     1       2.175 -14.187  -3.922  1.00  0.00     0.031 C 
ATOM     52  C   UNL     1       1.165 -12.750   2.750  1.00  0.00     0.029 A 
ATOM     53  C   UNL     1       0.386 -13.861   2.214  1.00  0.00     0.049 A 
ATOM     54  H   UNL     1       0.514 -14.696   0.308  1.00  0.00     0.167 HD
ATOM     55  C   UNL     1       0.558 -16.058  -3.854  1.00  0.00     0.034 A 
ATOM     56  C   UNL     1      -0.556 -14.550   2.888  1.00  0.00     0.034 A 
ATOM     57  C   UNL     1      -0.337 -16.952  -3.171  1.00  0.00     0.049 A 
ATOM     58  C   UNL     1      -1.253 -15.695   2.204  1.00  0.00     0.074 A 
ATOM     59  C   UNL     1      -1.002 -18.055  -3.677  1.00  0.00     0.029 A 
ATOM     60  N   UNL     1      -0.693 -16.847  -1.836  1.00  0.00    -0.354 N 
ATOM     61  N   UNL     1      -1.095 -16.146   0.983  1.00  0.00    -0.248 NA
ATOM     62  C   UNL     1      -2.229 -16.452   3.001  1.00  0.00     0.031 C 
ATOM     63  C   UNL     1      -1.771 -18.610  -2.649  1.00  0.00     0.029 A 
ATOM     64  C   UNL     1      -1.569 -17.864  -1.499  1.00  0.00     0.049 A 
ATOM     65  H   UNL     1      -0.369 -16.152  -1.218  1.00  0.00     0.167 HD
ATOM     66  C   UNL     1      -1.922 -17.258   0.877  1.00  0.00     0.074 A 
ATOM     67  C   UNL     1      -2.561 -17.427   2.166  1.00  0.00     0.031 C 
ATOM     68  C   UNL     1      -2.147 -18.057  -0.195  1.00  0.00     0.034 A 
BRANCH  55  69
ATOM     69  C   UNL     1       0.815 -16.294  -5.319  1.00  0.00     0.023 A 
ATOM     70  C   UNL     1       2.046 -16.851  -5.723  1.00  0.00     0.012 A 
ATOM     71  C   UNL     1      -0.177 -16.035  -6.285  1.00  0.00     0.148 A 
ATOM     72  C   UNL     1       2.297 -17.121  -7.067  1.00  0.00     0.002 A 
ATOM     73  C   UNL     1       0.065 -16.347  -7.618  1.00  0.00     0.091 A 
ATOM     74  F   UNL     1      -1.333 -15.487  -5.884  1.00  0.00    -0.205 F 
ATOM     75  C   UNL     1       1.304 -16.880  -8.011  1.00  0.00     0.022 A 
BRANCH  73  76
ATOM     76  S   UNL     1      -1.173 -16.147  -8.904  1.00  0.00     0.127 S 
ATOM     77  O   UNL     1      -0.613 -15.046  -9.686  1.00  0.00    -0.237 OA
ATOM     78  O   UNL     1      -1.136 -17.449  -9.571  1.00  0.00    -0.237 OA
ATOM     79  O   UNL     1      -2.423 -15.851  -8.217  1.00  0.00    -0.744 OA
ENDBRANCH  73  76
ENDBRANCH  55  69
BRANCH  56  80
ATOM     80  C   UNL     1      -0.849 -14.221   4.313  1.00  0.00     0.023 A 
ATOM     81  C   UNL     1      -0.469 -15.129   5.322  1.00  0.00     0.012 A 
ATOM     82  C   UNL     1      -1.485 -13.019   4.676  1.00  0.00     0.148 A 
ATOM     83  C   UNL     1      -0.752 -14.863   6.662  1.00  0.00     0.002 A 
ATOM     84  C   UNL     1      -1.714 -12.735   6.018  1.00  0.00     0.091 A 
ATOM     85  F   UNL     1      -1.852 -12.174   3.703  1.00  0.00    -0.205 F 
ATOM     86  C   UNL     1      -1.365 -13.664   7.011  1.00  0.00     0.022 A 
BRANCH  84  87
ATOM     87  S   UNL     1      -2.380 -11.158   6.562  1.00  0.00     0.127 S 
ATOM     88  O   UNL     1      -3.755 -11.513   6.899  1.00  0.00    -0.237 OA
ATOM     89  O   UNL     1      -1.526 -10.844   7.709  1.00  0.00    -0.237 OA
ATOM     90  O   UNL     1      -2.212 -10.256   5.430  1.00  0.00    -0.744 OA
ENDBRANCH  84  87
ENDBRANCH  56  80
BRANCH  68  91
ATOM     91  C   UNL     1      -3.095 -19.213  -0.018  1.00  0.00     0.023 A 
ATOM     92  C   UNL     1      -4.480 -18.973   0.078  1.00  0.00     0.012 A 
ATOM     93  C   UNL     1      -2.621 -20.540  -0.027  1.00  0.00     0.148 A 
ATOM     94  C   UNL     1      -5.376 -20.035   0.193  1.00  0.00     0.002 A 
ATOM     95  C   UNL     1      -3.523 -21.594   0.040  1.00  0.00     0.091 A 
ATOM     96  F   UNL     1      -1.298 -20.746  -0.100  1.00  0.00    -0.205 F 
ATOM     97  C   UNL     1      -4.900 -21.344   0.162  1.00  0.00     0.022 A 
BRANCH  95  98
ATOM     98  S   UNL     1      -3.008 -23.310  -0.089  1.00  0.00     0.127 S 
ATOM     99  O   UNL     1      -3.157 -23.771   1.290  1.00  0.00    -0.237 OA
ATOM    100  O   UNL     1      -3.989 -23.860  -1.026  1.00  0.00    -0.237 OA
ATOM    101  O   UNL     1      -1.642 -23.281  -0.595  1.00  0.00    -0.744 OA
ENDBRANCH  95  98
ENDBRANCH  68  91
ENDBRANCH  42  43
ENDBRANCH  34  37
ENDBRANCH  32  33
ENDBRANCH  31  32
ENDBRANCH  30  31
ENDBRANCH   1  30
TORSDOF 21
