REMARK SMILES O=C(NCCCCCCNC(=O)c1ccc(S(=O)(=O)N[C@@H]2CC[N@@H+]3CCC[C@H]23)cc1)c1ccc(-c2c3nc(c(-c4cccc(S(=O)(=O)[O-])c4F)c4ccc([nH]4)c(-c4cccc(S(=O)(=O)[O-])c4F)c4nc(c(-c5cccc(S(=O)(=O)[O-])c5F)c5ccc2[nH]5)C=C4)C=C3)cc1
REMARK SMILES IDX 6 1 5 2 4 3 3 4 1 5 2 6 31 8 32 9 93 10 33 11 92 12 34 13
REMARK SMILES IDX 35 14 36 15 86 16 37 17 91 18 85 19 87 20 38 21 90 22 84 23
REMARK SMILES IDX 83 24 39 26 71 27 51 28 70 29 52 30 55 31 69 32 88 33 53 34
REMARK SMILES IDX 54 35 68 37 89 38 56 39 40 40 41 41 49 42 42 43 44 44 50 45
REMARK SMILES IDX 43 46 45 47 46 48 47 49 48 50 72 51 73 52 81 53 74 54 76 55
REMARK SMILES IDX 82 56 75 57 77 58 78 59 79 60 80 61 57 62 58 63 66 64 59 65
REMARK SMILES IDX 61 66 67 67 60 68 62 69 63 70 64 71 65 72 7 73 8 74 9 75
REMARK SMILES IDX 10 76 11 77 12 79 13 80 14 81 30 82 15 83 29 84 16 85 17 86
REMARK SMILES IDX 18 87 19 88 20 89 21 91 22 92 28 93 23 94 24 95 27 96 25 97
REMARK SMILES IDX 26 99
REMARK H PARENT 3 7 87 25 55 36 10 78 20 90 24 98
REMARK Flexibility Score: inf
ROOT
ATOM      1  C   UNL     1       4.069  -1.360   3.530  1.00  0.00     0.002 C 
ENDROOT
BRANCH   1   2
ATOM      2  C   UNL     1       4.604  -0.328   2.533  1.00  0.00     0.021 C 
BRANCH   2   3
ATOM      3  C   UNL     1       4.355  -0.657   1.065  1.00  0.00     0.116 C 
BRANCH   3   4
ATOM      4  N   UNL     1       2.942  -0.791   0.767  1.00  0.00    -0.352 N 
ATOM      5  O   UNL     1       0.956  -0.226  -0.120  1.00  0.00    -0.269 OA
ATOM      6  C   UNL     1       2.178  -0.114  -0.149  1.00  0.00     0.251 C 
ATOM      7  H   UNL     1       2.462  -1.467   1.299  1.00  0.00     0.163 HD
BRANCH   6   8
ATOM      8  C   UNL     1       2.827   0.760  -1.149  1.00  0.00     0.039 A 
ATOM      9  C   UNL     1       3.951   0.328  -1.862  1.00  0.00     0.014 A 
ATOM     10  C   UNL     1       2.281   2.022  -1.394  1.00  0.00     0.014 A 
ATOM     11  C   UNL     1       4.592   1.197  -2.741  1.00  0.00     0.010 A 
ATOM     12  C   UNL     1       2.886   2.867  -2.324  1.00  0.00     0.010 A 
ATOM     13  C   UNL     1       4.059   2.471  -2.988  1.00  0.00    -0.014 A 
BRANCH  13  14
ATOM     14  C   UNL     1       4.682   3.367  -3.992  1.00  0.00     0.031 A 
ATOM     15  C   UNL     1       5.283   4.680  -3.582  1.00  0.00     0.074 A 
ATOM     16  C   UNL     1       4.631   3.021  -5.292  1.00  0.00     0.049 A 
ATOM     17  N   UNL     1       5.781   5.628  -4.332  1.00  0.00    -0.248 NA
ATOM     18  C   UNL     1       5.320   4.973  -2.140  1.00  0.00     0.031 C 
ATOM     19  C   UNL     1       4.030   1.790  -5.810  1.00  0.00     0.029 A 
ATOM     20  N   UNL     1       5.052   3.686  -6.416  1.00  0.00    -0.354 N 
ATOM     21  C   UNL     1       6.146   6.649  -3.465  1.00  0.00     0.074 A 
ATOM     22  C   UNL     1       5.812   6.205  -2.128  1.00  0.00     0.031 C 
ATOM     23  C   UNL     1       4.099   1.798  -7.149  1.00  0.00     0.029 A 
ATOM     24  C   UNL     1       4.703   3.053  -7.585  1.00  0.00     0.049 A 
ATOM     25  H   UNL     1       5.553   4.533  -6.387  1.00  0.00     0.167 HD
ATOM     26  C   UNL     1       6.716   7.843  -3.756  1.00  0.00     0.034 A 
ATOM     27  C   UNL     1       4.817   3.450  -8.867  1.00  0.00     0.034 A 
ATOM     28  C   UNL     1       7.069   8.263  -5.086  1.00  0.00     0.049 A 
ATOM     29  C   UNL     1       5.466   4.770  -9.166  1.00  0.00     0.074 A 
ATOM     30  C   UNL     1       7.726   9.415  -5.479  1.00  0.00     0.029 A 
ATOM     31  N   UNL     1       6.777   7.556  -6.244  1.00  0.00    -0.354 N 
ATOM     32  N   UNL     1       5.938   5.661  -8.329  1.00  0.00    -0.248 NA
ATOM     33  C   UNL     1       5.630   5.127 -10.582  1.00  0.00     0.031 C 
ATOM     34  C   UNL     1       7.810   9.417  -6.875  1.00  0.00     0.029 A 
ATOM     35  C   UNL     1       7.228   8.252  -7.352  1.00  0.00     0.049 A 
ATOM     36  H   UNL     1       6.317   6.686  -6.273  1.00  0.00     0.167 HD
ATOM     37  C   UNL     1       6.483   6.670  -9.112  1.00  0.00     0.074 A 
ATOM     38  C   UNL     1       6.292   6.275 -10.493  1.00  0.00     0.031 C 
ATOM     39  C   UNL     1       7.080   7.822  -8.720  1.00  0.00     0.034 A 
BRANCH  26  40
ATOM     40  C   UNL     1       7.021   8.771  -2.609  1.00  0.00     0.023 A 
ATOM     41  C   UNL     1       8.079   8.469  -1.728  1.00  0.00     0.012 A 
ATOM     42  C   UNL     1       6.291   9.962  -2.427  1.00  0.00     0.148 A 
ATOM     43  C   UNL     1       8.380   9.316  -0.662  1.00  0.00     0.002 A 
ATOM     44  C   UNL     1       6.624  10.822  -1.386  1.00  0.00     0.091 A 
ATOM     45  F   UNL     1       5.272  10.224  -3.258  1.00  0.00    -0.205 F 
ATOM     46  C   UNL     1       7.659  10.495  -0.496  1.00  0.00     0.022 A 
BRANCH  44  47
ATOM     47  S   UNL     1       5.796  12.398  -1.146  1.00  0.00     0.127 S 
ATOM     48  O   UNL     1       4.860  12.080  -0.070  1.00  0.00    -0.237 OA
ATOM     49  O   UNL     1       6.900  13.276  -0.753  1.00  0.00    -0.237 OA
ATOM     50  O   UNL     1       5.197  12.727  -2.432  1.00  0.00    -0.744 OA
ENDBRANCH  44  47
ENDBRANCH  26  40
BRANCH  27  51
ATOM     51  C   UNL     1       4.325   2.551  -9.946  1.00  0.00     0.023 A 
ATOM     52  C   UNL     1       5.252   1.856 -10.745  1.00  0.00     0.012 A 
ATOM     53  C   UNL     1       2.947   2.305 -10.113  1.00  0.00     0.148 A 
ATOM     54  C   UNL     1       4.814   0.936 -11.698  1.00  0.00     0.002 A 
ATOM     55  C   UNL     1       2.522   1.348 -11.024  1.00  0.00     0.091 A 
ATOM     56  F   UNL     1       2.085   2.985  -9.343  1.00  0.00    -0.205 F 
ATOM     57  C   UNL     1       3.453   0.672 -11.828  1.00  0.00     0.022 A 
BRANCH  55  58
ATOM     58  S   UNL     1       0.805   0.835 -11.158  1.00  0.00     0.127 S 
ATOM     59  O   UNL     1       0.454   1.312 -12.493  1.00  0.00    -0.237 OA
ATOM     60  O   UNL     1       0.916  -0.619 -11.032  1.00  0.00    -0.237 OA
ATOM     61  O   UNL     1       0.111   1.484 -10.054  1.00  0.00    -0.744 OA
ENDBRANCH  55  58
ENDBRANCH  27  51
BRANCH  39  62
ATOM     62  C   UNL     1       7.615   8.737  -9.789  1.00  0.00     0.023 A 
ATOM     63  C   UNL     1       6.728   9.532 -10.540  1.00  0.00     0.012 A 
ATOM     64  C   UNL     1       9.005   8.890  -9.965  1.00  0.00     0.148 A 
ATOM     65  C   UNL     1       7.217  10.457 -11.462  1.00  0.00     0.002 A 
ATOM     66  C   UNL     1       9.485   9.846 -10.851  1.00  0.00     0.091 A 
ATOM     67  F   UNL     1       9.829   8.109  -9.251  1.00  0.00    -0.205 F 
ATOM     68  C   UNL     1       8.593  10.624 -11.607  1.00  0.00     0.022 A 
BRANCH  66  69
ATOM     69  S   UNL     1      11.237  10.200 -11.033  1.00  0.00     0.127 S 
ATOM     70  O   UNL     1      11.504   9.698 -12.380  1.00  0.00    -0.237 OA
ATOM     71  O   UNL     1      11.273  11.657 -10.905  1.00  0.00    -0.237 OA
ATOM     72  O   UNL     1      11.908   9.481  -9.958  1.00  0.00    -0.744 OA
ENDBRANCH  66  69
ENDBRANCH  39  62
ENDBRANCH  13  14
ENDBRANCH   6   8
ENDBRANCH   3   4
ENDBRANCH   2   3
ENDBRANCH   1   2
BRANCH   1  73
ATOM     73  C   UNL     1       4.515  -2.805   3.292  1.00  0.00     0.002 C 
BRANCH  73  74
ATOM     74  C   UNL     1       6.024  -3.017   3.185  1.00  0.00     0.021 C 
BRANCH  74  75
ATOM     75  C   UNL     1       6.834  -2.474   4.354  1.00  0.00     0.116 C 
BRANCH  75  76
ATOM     76  N   UNL     1       6.522  -3.131   5.613  1.00  0.00    -0.352 N 
ATOM     77  C   UNL     1       7.386  -3.661   6.539  1.00  0.00     0.251 C 
ATOM     78  H   UNL     1       5.565  -3.206   5.831  1.00  0.00     0.163 HD
ATOM     79  O   UNL     1       6.970  -4.295   7.503  1.00  0.00    -0.269 OA
BRANCH  77  80
ATOM     80  C   UNL     1       8.840  -3.491   6.340  1.00  0.00     0.039 A 
ATOM     81  C   UNL     1       9.661  -4.620   6.398  1.00  0.00     0.015 A 
ATOM     82  C   UNL     1       9.379  -2.233   6.044  1.00  0.00     0.015 A 
ATOM     83  C   UNL     1      11.018  -4.495   6.107  1.00  0.00     0.022 A 
ATOM     84  C   UNL     1      10.718  -2.120   5.679  1.00  0.00     0.022 A 
ATOM     85  C   UNL     1      11.537  -3.248   5.733  1.00  0.00     0.082 A 
BRANCH  85  86
ATOM     86  S   UNL     1      13.267  -3.152   5.366  1.00  0.00     0.241 S 
ATOM     87  O   UNL     1      13.944  -3.991   6.332  1.00  0.00    -0.207 OA
ATOM     88  O   UNL     1      13.403  -3.375   3.949  1.00  0.00    -0.207 OA
BRANCH  86  89
ATOM     89  N   UNL     1      13.738  -1.569   5.620  1.00  0.00    -0.202 NA
ATOM     90  H   UNL     1      13.302  -1.034   4.870  1.00  0.00     0.141 HD
BRANCH  89  91
ATOM     91  C   UNL     1      13.496  -0.793   6.842  1.00  0.00     0.133 C 
ATOM     92  C   UNL     1      13.976   0.652   6.624  1.00  0.00     0.087 C 
ATOM     93  C   UNL     1      14.181  -1.251   8.137  1.00  0.00     0.202 C 
ATOM     94  C   UNL     1      15.032   0.887   7.687  1.00  0.00     0.264 C 
ATOM     95  N   UNL     1      14.607   0.014   8.783  1.00  0.00    -0.331 N 
ATOM     96  C   UNL     1      15.447  -2.087   8.048  1.00  0.00     0.072 C 
ATOM     97  C   UNL     1      15.708  -0.316   9.688  1.00  0.00     0.262 C 
ATOM     98  H   UNL     1      13.879   0.478   9.328  1.00  0.00     0.348 HD
ATOM     99  C   UNL     1      16.308  -1.629   9.212  1.00  0.00     0.068 C 
ENDBRANCH  89  91
ENDBRANCH  86  89
ENDBRANCH  85  86
ENDBRANCH  77  80
ENDBRANCH  75  76
ENDBRANCH  74  75
ENDBRANCH  73  74
ENDBRANCH   1  73
TORSDOF 19
