REMARK SMILES CCc1ccc(N2C(=O)C[C@@H](SC[C@@H](NC(C)=O)C(=O)NCCCCCCNC(=O)c3ccc(-c4c5nc(c(-c6cccc(S(=O)(=O)[O-])c6F)c6ccc([nH]6)c(-c6cccc(S(=O)(=O)[O-])c6F)c6nc(c(-c7cccc(S(=O)(=O)[O-])c7F)c7ccc4[nH]7)C=C6)C=C5)cc3)C2=O)cc1
REMARK SMILES IDX 23 1 22 2 21 3 19 4 20 5 14 7 13 8 12 9 11 10 7 11 8 12
REMARK SMILES IDX 94 13 9 14 10 15 95 16 6 17 3 18 4 19 97 20 5 21 96 22 2 23
REMARK SMILES IDX 1 24 15 25 16 26 17 28 18 29 24 30 25 31 26 32 27 33 28 34
REMARK SMILES IDX 29 35 30 37 31 38 32 39 93 40 33 41 92 42 34 43 35 44 36 45
REMARK SMILES IDX 86 46 37 47 91 48 85 49 87 50 38 51 90 52 84 53 83 54 39 56
REMARK SMILES IDX 71 57 51 58 70 59 52 60 55 61 69 62 88 63 53 64 54 65 68 67
REMARK SMILES IDX 89 68 56 69 40 70 41 71 49 72 42 73 44 74 50 75 43 76 45 77
REMARK SMILES IDX 46 78 47 79 48 80 72 81 73 82 81 83 74 84 76 85 82 86 75 87
REMARK SMILES IDX 77 88 78 89 79 90 80 91 57 92 58 93 66 94 59 95 61 96 67 97
REMARK SMILES IDX 60 98 62 99 63 100 64 101 65 102
REMARK H PARENT 21 6 15 27 28 36 87 55 55 66
REMARK Flexibility Score: inf
ROOT
ATOM      1  C   UNL     1      -1.225  -7.742   8.794  1.00  0.00     0.021 C 
ENDROOT
BRANCH   1   2
ATOM      2  C   UNL     1       0.259  -7.638   9.126  1.00  0.00     0.116 C 
BRANCH   2   3
ATOM      3  N   UNL     1       0.793  -8.930   9.500  1.00  0.00    -0.354 N 
ATOM      4  C   UNL     1       1.893  -9.586   9.031  1.00  0.00     0.243 C 
ATOM      5  O   UNL     1       2.040 -10.766   9.368  1.00  0.00    -0.273 OA
ATOM      6  H   UNL     1       0.286  -9.407  10.196  1.00  0.00     0.163 HD
BRANCH   4   7
ATOM      7  C   UNL     1       2.807  -8.960   7.950  1.00  0.00     0.181 C 
BRANCH   7   8
ATOM      8  C   UNL     1       2.039  -9.111   6.613  1.00  0.00     0.105 C 
BRANCH   8   9
ATOM      9  S   UNL     1       2.836  -8.463   5.089  1.00  0.00    -0.145 SA
BRANCH   9  10
ATOM     10  C   UNL     1       2.630  -6.638   5.169  1.00  0.00     0.146 C 
ATOM     11  N   UNL     1       1.649  -4.932   3.907  1.00  0.00    -0.250 N 
ATOM     12  C   UNL     1       1.096  -4.833   5.160  1.00  0.00     0.235 C 
ATOM     13  C   UNL     1       2.480  -6.027   3.787  1.00  0.00     0.247 C 
ATOM     14  O   UNL     1       0.343  -3.992   5.619  1.00  0.00    -0.274 OA
ATOM     15  C   UNL     1       1.458  -6.062   5.930  1.00  0.00     0.125 C 
ATOM     16  O   UNL     1       3.114  -6.388   2.803  1.00  0.00    -0.273 OA
BRANCH  11  17
ATOM     17  C   UNL     1       1.397  -4.008   2.870  1.00  0.00     0.052 A 
ATOM     18  C   UNL     1       0.840  -2.160   0.803  1.00  0.00    -0.048 A 
ATOM     19  C   UNL     1       0.957  -3.530   0.532  1.00  0.00     0.006 A 
ATOM     20  C   UNL     1       0.995  -1.729   2.124  1.00  0.00     0.006 A 
ATOM     21  C   UNL     1       1.260  -4.441   1.548  1.00  0.00     0.027 A 
ATOM     22  C   UNL     1       1.256  -2.644   3.148  1.00  0.00     0.027 A 
BRANCH  18  23
ATOM     23  C   UNL     1       0.466  -1.221  -0.320  1.00  0.00     0.032 C 
ATOM     24  C   UNL     1       0.950   0.215  -0.170  1.00  0.00     0.009 C 
ENDBRANCH  18  23
ENDBRANCH  11  17
ENDBRANCH   9  10
ENDBRANCH   8   9
ENDBRANCH   7   8
BRANCH   7  25
ATOM     25  N   UNL     1       3.219  -7.575   8.193  1.00  0.00    -0.344 N 
ATOM     26  C   UNL     1       3.584  -7.088   9.427  1.00  0.00     0.217 C 
ATOM     27  H   UNL     1       3.236  -6.957   7.427  1.00  0.00     0.164 HD
ATOM     28  C   UNL     1       3.956  -5.628   9.397  1.00  0.00     0.114 C 
ATOM     29  O   UNL     1       3.527  -7.730  10.466  1.00  0.00    -0.275 OA
ENDBRANCH   7  25
ENDBRANCH   4   7
ENDBRANCH   2   3
ENDBRANCH   1   2
BRANCH   1  30
ATOM     30  C   UNL     1      -2.106  -7.907  10.034  1.00  0.00     0.002 C 
BRANCH  30  31
ATOM     31  C   UNL     1      -1.999  -6.754  11.038  1.00  0.00     0.002 C 
BRANCH  31  32
ATOM     32  C   UNL     1      -2.299  -5.370  10.454  1.00  0.00     0.021 C 
BRANCH  32  33
ATOM     33  C   UNL     1      -3.679  -5.249   9.819  1.00  0.00     0.116 C 
BRANCH  33  34
ATOM     34  N   UNL     1      -4.738  -5.524  10.779  1.00  0.00    -0.352 N 
ATOM     35  C   UNL     1      -5.829  -4.760  11.100  1.00  0.00     0.251 C 
ATOM     36  H   UNL     1      -4.659  -6.377  11.264  1.00  0.00     0.163 HD
ATOM     37  O   UNL     1      -6.502  -5.030  12.091  1.00  0.00    -0.269 OA
BRANCH  35  38
ATOM     38  C   UNL     1      -6.181  -3.606  10.249  1.00  0.00     0.039 A 
ATOM     39  C   UNL     1      -6.527  -2.396  10.854  1.00  0.00     0.014 A 
ATOM     40  C   UNL     1      -6.166  -3.723   8.856  1.00  0.00     0.014 A 
ATOM     41  C   UNL     1      -6.821  -1.289  10.057  1.00  0.00     0.010 A 
ATOM     42  C   UNL     1      -6.377  -2.599   8.067  1.00  0.00     0.010 A 
ATOM     43  C   UNL     1      -6.725  -1.375   8.658  1.00  0.00    -0.014 A 
BRANCH  43  44
ATOM     44  C   UNL     1      -7.000  -0.200   7.794  1.00  0.00     0.031 A 
ATOM     45  C   UNL     1      -8.135  -0.240   6.806  1.00  0.00     0.074 A 
ATOM     46  C   UNL     1      -6.183   0.871   7.846  1.00  0.00     0.049 A 
ATOM     47  N   UNL     1      -8.501   0.664   5.936  1.00  0.00    -0.248 NA
ATOM     48  C   UNL     1      -8.948  -1.467   6.772  1.00  0.00     0.031 C 
ATOM     49  C   UNL     1      -5.006   0.997   8.708  1.00  0.00     0.029 A 
ATOM     50  N   UNL     1      -6.205   2.047   7.141  1.00  0.00    -0.354 N 
ATOM     51  C   UNL     1      -9.558   0.104   5.228  1.00  0.00     0.074 A 
ATOM     52  C   UNL     1      -9.750  -1.233   5.744  1.00  0.00     0.031 C 
ATOM     53  C   UNL     1      -4.424   2.186   8.486  1.00  0.00     0.029 A 
ATOM     54  C   UNL     1      -5.162   2.891   7.444  1.00  0.00     0.049 A 
ATOM     55  H   UNL     1      -6.901   2.267   6.480  1.00  0.00     0.167 HD
ATOM     56  C   UNL     1     -10.319   0.660   4.257  1.00  0.00     0.034 A 
ATOM     57  C   UNL     1      -4.832   4.093   6.933  1.00  0.00     0.034 A 
ATOM     58  C   UNL     1     -10.146   2.003   3.772  1.00  0.00     0.049 A 
ATOM     59  C   UNL     1      -5.714   4.703   5.876  1.00  0.00     0.074 A 
ATOM     60  C   UNL     1     -10.914   2.690   2.850  1.00  0.00     0.029 A 
ATOM     61  N   UNL     1      -9.126   2.858   4.161  1.00  0.00    -0.354 N 
ATOM     62  N   UNL     1      -6.800   4.217   5.325  1.00  0.00    -0.248 NA
ATOM     63  C   UNL     1      -5.348   6.044   5.399  1.00  0.00     0.031 C 
ATOM     64  C   UNL     1     -10.338   3.950   2.655  1.00  0.00     0.029 A 
ATOM     65  C   UNL     1      -9.238   4.063   3.489  1.00  0.00     0.049 A 
ATOM     66  H   UNL     1      -8.426   2.641   4.818  1.00  0.00     0.167 HD
ATOM     67  C   UNL     1      -7.270   5.207   4.471  1.00  0.00     0.074 A 
ATOM     68  C   UNL     1      -6.359   6.327   4.590  1.00  0.00     0.031 C 
ATOM     69  C   UNL     1      -8.354   5.188   3.655  1.00  0.00     0.034 A 
BRANCH  56  70
ATOM     70  C   UNL     1     -11.437  -0.170   3.679  1.00  0.00     0.023 A 
ATOM     71  C   UNL     1     -12.564  -0.475   4.470  1.00  0.00     0.012 A 
ATOM     72  C   UNL     1     -11.397  -0.604   2.340  1.00  0.00     0.148 A 
ATOM     73  C   UNL     1     -13.614  -1.231   3.951  1.00  0.00     0.002 A 
ATOM     74  C   UNL     1     -12.470  -1.314   1.814  1.00  0.00     0.091 A 
ATOM     75  F   UNL     1     -10.309  -0.322   1.609  1.00  0.00    -0.205 F 
ATOM     76  C   UNL     1     -13.572  -1.641   2.622  1.00  0.00     0.022 A 
BRANCH  74  77
ATOM     77  S   UNL     1     -12.551  -1.814   0.091  1.00  0.00     0.127 S 
ATOM     78  O   UNL     1     -12.423  -3.266   0.199  1.00  0.00    -0.237 OA
ATOM     79  O   UNL     1     -13.881  -1.346  -0.301  1.00  0.00    -0.237 OA
ATOM     80  O   UNL     1     -11.447  -1.139  -0.577  1.00  0.00    -0.744 OA
ENDBRANCH  74  77
ENDBRANCH  56  70
BRANCH  57  81
ATOM     81  C   UNL     1      -3.644   4.826   7.455  1.00  0.00     0.023 A 
ATOM     82  C   UNL     1      -3.830   5.998   8.213  1.00  0.00     0.012 A 
ATOM     83  C   UNL     1      -2.336   4.358   7.222  1.00  0.00     0.148 A 
ATOM     84  C   UNL     1      -2.734   6.713   8.697  1.00  0.00     0.002 A 
ATOM     85  C   UNL     1      -1.251   5.044   7.755  1.00  0.00     0.091 A 
ATOM     86  F   UNL     1      -2.181   3.244   6.493  1.00  0.00    -0.205 F 
ATOM     87  C   UNL     1      -1.446   6.232   8.476  1.00  0.00     0.022 A 
BRANCH  85  88
ATOM     88  S   UNL     1       0.433   4.432   7.629  1.00  0.00     0.127 S 
ATOM     89  O   UNL     1       1.046   5.422   6.748  1.00  0.00    -0.237 OA
ATOM     90  O   UNL     1       0.877   4.486   9.022  1.00  0.00    -0.237 OA
ATOM     91  O   UNL     1       0.327   3.085   7.084  1.00  0.00    -0.744 OA
ENDBRANCH  85  88
ENDBRANCH  57  81
BRANCH  69  92
ATOM     92  C   UNL     1      -8.656   6.434   2.864  1.00  0.00     0.023 A 
ATOM     93  C   UNL     1      -7.833   6.806   1.783  1.00  0.00     0.012 A 
ATOM     94  C   UNL     1      -9.806   7.197   3.152  1.00  0.00     0.148 A 
ATOM     95  C   UNL     1      -8.128   7.939   1.025  1.00  0.00     0.002 A 
ATOM     96  C   UNL     1     -10.124   8.291   2.359  1.00  0.00     0.091 A 
ATOM     97  F   UNL     1     -10.567   6.837   4.196  1.00  0.00    -0.205 F 
ATOM     98  C   UNL     1      -9.279   8.673   1.304  1.00  0.00     0.022 A 
BRANCH  96  99
ATOM     99  S   UNL     1     -11.637   9.233   2.580  1.00  0.00     0.127 S 
ATOM    100  O   UNL     1     -11.127  10.493   3.118  1.00  0.00    -0.237 OA
ATOM    101  O   UNL     1     -12.151   9.318   1.212  1.00  0.00    -0.237 OA
ATOM    102  O   UNL     1     -12.466   8.456   3.490  1.00  0.00    -0.744 OA
ENDBRANCH  96  99
ENDBRANCH  69  92
ENDBRANCH  43  44
ENDBRANCH  35  38
ENDBRANCH  33  34
ENDBRANCH  32  33
ENDBRANCH  31  32
ENDBRANCH  30  31
ENDBRANCH   1  30
TORSDOF 22
