REMARK SMILES O=C(NCCCCCCNC(=O)c1cc(/C=C/c2cc(O)cc(O)c2)ccc1O)c1ccc(-c2c3nc(c(-c4cccc(S(=O)(=O)[O-])c4F)c4ccc([nH]4)c(-c4cccc(S(=O)(=O)[O-])c4F)c4nc(c(-c5cccc(S(=O)(=O)[O-])c5F)c5ccc2[nH]5)C=C4)C=C3)cc1
REMARK SMILES IDX 6 1 5 2 4 3 3 4 1 5 2 6 30 8 31 9 92 10 32 11 91 12 33 13
REMARK SMILES IDX 34 14 35 15 85 16 36 17 90 18 84 19 86 20 37 21 89 22 83 23
REMARK SMILES IDX 82 24 38 26 70 27 50 28 69 29 51 30 54 31 68 32 87 33 52 34
REMARK SMILES IDX 53 35 67 37 88 38 55 39 39 40 40 41 48 42 41 43 43 44 49 45
REMARK SMILES IDX 42 46 44 47 45 48 46 49 47 50 71 51 72 52 80 53 73 54 75 55
REMARK SMILES IDX 81 56 74 57 76 58 77 59 78 60 79 61 56 62 57 63 65 64 58 65
REMARK SMILES IDX 60 66 66 67 59 68 61 69 62 70 63 71 64 72 7 73 8 74 9 75
REMARK SMILES IDX 10 76 11 77 12 79 13 80 14 81 28 82 15 83 27 84 26 85 29 86
REMARK SMILES IDX 16 88 17 89 18 90 19 91 25 92 20 93 23 94 22 95 21 96 24 98
REMARK H PARENT 3 7 86 25 54 36 10 78 29 87 21 97 24 99
REMARK Flexibility Score: inf
ROOT
ATOM      1  C   UNL     1       4.231   1.786  -3.645  1.00  0.00     0.002 C 
ENDROOT
BRANCH   1   2
ATOM      2  C   UNL     1       4.683   0.557  -2.857  1.00  0.00     0.021 C 
BRANCH   2   3
ATOM      3  C   UNL     1       4.461   0.626  -1.353  1.00  0.00     0.116 C 
BRANCH   3   4
ATOM      4  N   UNL     1       3.057   0.648  -0.980  1.00  0.00    -0.352 N 
ATOM      5  O   UNL     1       1.190  -0.037   0.086  1.00  0.00    -0.269 OA
ATOM      6  C   UNL     1       2.413  -0.091  -0.014  1.00  0.00     0.251 C 
ATOM      7  H   UNL     1       2.491   1.275  -1.486  1.00  0.00     0.163 HD
BRANCH   6   8
ATOM      8  C   UNL     1       3.199  -0.977   0.878  1.00  0.00     0.039 A 
ATOM      9  C   UNL     1       4.390  -0.529   1.453  1.00  0.00     0.014 A 
ATOM     10  C   UNL     1       2.748  -2.276   1.128  1.00  0.00     0.014 A 
ATOM     11  C   UNL     1       5.202  -1.422   2.144  1.00  0.00     0.010 A 
ATOM     12  C   UNL     1       3.524  -3.147   1.904  1.00  0.00     0.010 A 
ATOM     13  C   UNL     1       4.774  -2.738   2.390  1.00  0.00    -0.014 A 
BRANCH  13  14
ATOM     14  C   UNL     1       5.627  -3.619   3.231  1.00  0.00     0.031 A 
ATOM     15  C   UNL     1       6.256  -4.873   2.688  1.00  0.00     0.074 A 
ATOM     16  C   UNL     1       5.866  -3.243   4.504  1.00  0.00     0.049 A 
ATOM     17  N   UNL     1       7.104  -5.682   3.272  1.00  0.00    -0.248 NA
ATOM     18  C   UNL     1       5.886  -5.282   1.324  1.00  0.00     0.031 C 
ATOM     19  C   UNL     1       5.257  -2.084   5.162  1.00  0.00     0.029 A 
ATOM     20  N   UNL     1       6.687  -3.776   5.464  1.00  0.00    -0.354 N 
ATOM     21  C   UNL     1       7.348  -6.706   2.365  1.00  0.00     0.074 A 
ATOM     22  C   UNL     1       6.548  -6.425   1.192  1.00  0.00     0.031 C 
ATOM     23  C   UNL     1       5.758  -1.966   6.399  1.00  0.00     0.029 A 
ATOM     24  C   UNL     1       6.688  -3.063   6.640  1.00  0.00     0.049 A 
ATOM     25  H   UNL     1       7.223  -4.589   5.325  1.00  0.00     0.167 HD
ATOM     26  C   UNL     1       8.180  -7.770   2.490  1.00  0.00     0.034 A 
ATOM     27  C   UNL     1       7.361  -3.265   7.788  1.00  0.00     0.034 A 
ATOM     28  C   UNL     1       8.997  -8.028   3.648  1.00  0.00     0.049 A 
ATOM     29  C   UNL     1       8.322  -4.414   7.872  1.00  0.00     0.074 A 
ATOM     30  C   UNL     1       9.899  -9.059   3.853  1.00  0.00     0.029 A 
ATOM     31  N   UNL     1       9.016  -7.251   4.796  1.00  0.00    -0.354 N 
ATOM     32  N   UNL     1       8.633  -5.295   6.953  1.00  0.00    -0.248 NA
ATOM     33  C   UNL     1       9.049  -4.580   9.138  1.00  0.00     0.031 C 
ATOM     34  C   UNL     1      10.460  -8.907   5.126  1.00  0.00     0.029 A 
ATOM     35  C   UNL     1       9.915  -7.776   5.711  1.00  0.00     0.049 A 
ATOM     36  H   UNL     1       8.471  -6.444   4.941  1.00  0.00     0.167 HD
ATOM     37  C   UNL     1       9.593  -6.118   7.526  1.00  0.00     0.074 A 
ATOM     38  C   UNL     1       9.848  -5.599   8.855  1.00  0.00     0.031 C 
ATOM     39  C   UNL     1      10.186  -7.224   7.013  1.00  0.00     0.034 A 
BRANCH  26  40
ATOM     40  C   UNL     1       8.302  -8.711   1.319  1.00  0.00     0.023 A 
ATOM     41  C   UNL     1       9.052  -8.312   0.194  1.00  0.00     0.012 A 
ATOM     42  C   UNL     1       7.762 -10.012   1.363  1.00  0.00     0.148 A 
ATOM     43  C   UNL     1       9.246  -9.182  -0.877  1.00  0.00     0.002 A 
ATOM     44  C   UNL     1       7.989 -10.887   0.305  1.00  0.00     0.091 A 
ATOM     45  F   UNL     1       7.037 -10.368   2.432  1.00  0.00    -0.205 F 
ATOM     46  C   UNL     1       8.725 -10.472  -0.818  1.00  0.00     0.022 A 
BRANCH  44  47
ATOM     47  S   UNL     1       7.420 -12.592   0.314  1.00  0.00     0.127 S 
ATOM     48  O   UNL     1       6.346 -12.549  -0.677  1.00  0.00    -0.237 OA
ATOM     49  O   UNL     1       8.616 -13.319  -0.114  1.00  0.00    -0.237 OA
ATOM     50  O   UNL     1       7.000 -12.866   1.681  1.00  0.00    -0.744 OA
ENDBRANCH  44  47
ENDBRANCH  26  40
BRANCH  27  51
ATOM     51  C   UNL     1       7.182  -2.315   8.922  1.00  0.00     0.023 A 
ATOM     52  C   UNL     1       8.234  -1.454   9.284  1.00  0.00     0.012 A 
ATOM     53  C   UNL     1       5.951  -2.217   9.599  1.00  0.00     0.148 A 
ATOM     54  C   UNL     1       8.070  -0.526  10.314  1.00  0.00     0.002 A 
ATOM     55  C   UNL     1       5.774  -1.248  10.579  1.00  0.00     0.091 A 
ATOM     56  F   UNL     1       4.965  -3.060   9.260  1.00  0.00    -0.205 F 
ATOM     57  C   UNL     1       6.837  -0.412  10.950  1.00  0.00     0.022 A 
BRANCH  55  58
ATOM     58  S   UNL     1       4.162  -0.944  11.310  1.00  0.00     0.127 S 
ATOM     59  O   UNL     1       4.232  -1.735  12.534  1.00  0.00    -0.237 OA
ATOM     60  O   UNL     1       4.176   0.506  11.510  1.00  0.00    -0.237 OA
ATOM     61  O   UNL     1       3.206  -1.392  10.305  1.00  0.00    -0.744 OA
ENDBRANCH  55  58
ENDBRANCH  27  51
BRANCH  39  62
ATOM     62  C   UNL     1      11.163  -7.948   7.899  1.00  0.00     0.023 A 
ATOM     63  C   UNL     1      10.678  -8.711   8.980  1.00  0.00     0.012 A 
ATOM     64  C   UNL     1      12.547  -7.907   7.647  1.00  0.00     0.148 A 
ATOM     65  C   UNL     1      11.558  -9.392   9.819  1.00  0.00     0.002 A 
ATOM     66  C   UNL     1      13.416  -8.622   8.464  1.00  0.00     0.091 A 
ATOM     67  F   UNL     1      12.993  -7.155   6.630  1.00  0.00    -0.205 F 
ATOM     68  C   UNL     1      12.925  -9.356   9.556  1.00  0.00     0.022 A 
BRANCH  66  69
ATOM     69  S   UNL     1      15.182  -8.688   8.142  1.00  0.00     0.127 S 
ATOM     70  O   UNL     1      15.695  -7.692   9.080  1.00  0.00    -0.237 OA
ATOM     71  O   UNL     1      15.514 -10.073   8.481  1.00  0.00    -0.237 OA
ATOM     72  O   UNL     1      15.334  -8.366   6.729  1.00  0.00    -0.744 OA
ENDBRANCH  66  69
ENDBRANCH  39  62
ENDBRANCH  13  14
ENDBRANCH   6   8
ENDBRANCH   3   4
ENDBRANCH   2   3
ENDBRANCH   1   2
BRANCH   1  73
ATOM     73  C   UNL     1       4.799   3.128  -3.178  1.00  0.00     0.002 C 
BRANCH  73  74
ATOM     74  C   UNL     1       6.322   3.206  -3.027  1.00  0.00     0.021 C 
BRANCH  74  75
ATOM     75  C   UNL     1       7.134   2.768  -4.244  1.00  0.00     0.116 C 
BRANCH  75  76
ATOM     76  N   UNL     1       6.839   3.561  -5.421  1.00  0.00    -0.352 N 
ATOM     77  C   UNL     1       7.715   4.112  -6.321  1.00  0.00     0.255 C 
ATOM     78  H   UNL     1       5.884   3.726  -5.598  1.00  0.00     0.163 HD
ATOM     79  O   UNL     1       7.300   4.806  -7.245  1.00  0.00    -0.269 OA
BRANCH  77  80
ATOM     80  C   UNL     1       9.171   3.954  -6.131  1.00  0.00     0.082 A 
ATOM     81  C   UNL     1       9.915   5.132  -5.965  1.00  0.00     0.025 A 
ATOM     82  C   UNL     1       9.812   2.714  -6.146  1.00  0.00     0.128 A 
ATOM     83  C   UNL     1      11.301   5.083  -5.774  1.00  0.00    -0.025 A 
ATOM     84  C   UNL     1      11.188   2.647  -5.948  1.00  0.00     0.047 A 
ATOM     85  C   UNL     1      11.923   3.824  -5.758  1.00  0.00     0.012 A 
BRANCH  82  86
ATOM     86  O   UNL     1       9.100   1.567  -6.355  1.00  0.00    -0.507 OA
ATOM     87  H   UNL     1       8.174   1.608  -6.489  1.00  0.00     0.293 HD
ENDBRANCH  82  86
BRANCH  83  88
ATOM     88  C   UNL     1      12.140   6.284  -5.598  1.00  0.00     0.009 C 
ATOM     89  C   UNL     1      11.710   7.557  -5.628  1.00  0.00     0.009 C 
BRANCH  89  90
ATOM     90  C   UNL     1      12.604   8.713  -5.476  1.00  0.00    -0.018 A 
ATOM     91  C   UNL     1      13.803   8.813  -6.196  1.00  0.00     0.054 A 
ATOM     92  C   UNL     1      12.210   9.773  -4.647  1.00  0.00     0.054 A 
ATOM     93  C   UNL     1      14.597   9.951  -6.066  1.00  0.00     0.119 A 
ATOM     94  C   UNL     1      13.022  10.900  -4.530  1.00  0.00     0.119 A 
ATOM     95  C   UNL     1      14.215  10.996  -5.235  1.00  0.00     0.092 A 
BRANCH  93  96
ATOM     96  O   UNL     1      15.768  10.079  -6.755  1.00  0.00    -0.508 OA
ATOM     97  H   UNL     1      16.054   9.391  -7.324  1.00  0.00     0.293 HD
ENDBRANCH  93  96
BRANCH  94  98
ATOM     98  O   UNL     1      12.671  11.945  -3.726  1.00  0.00    -0.508 OA
ATOM     99  H   UNL     1      13.230  12.694  -3.661  1.00  0.00     0.293 HD
ENDBRANCH  94  98
ENDBRANCH  89  90
ENDBRANCH  83  88
ENDBRANCH  77  80
ENDBRANCH  75  76
ENDBRANCH  74  75
ENDBRANCH  73  74
ENDBRANCH   1  73
TORSDOF 21
