REMARK SMILES O=C(NCCCCCCNC(=O)[C@@H]1C=C[C@H](NC(=O)c2ccc(Br)cc2)C1)c1ccc(-c2c3nc(c(-c4cccc(S(=O)(=O)[O-])c4F)c4ccc([nH]4)c(-c4cccc(S(=O)(=O)[O-])c4F)c4nc(c(-c5cccc(S(=O)(=O)[O-])c5F)c5ccc2[nH]5)C=C4)C=C3)cc1
REMARK SMILES IDX 6 1 5 2 4 3 3 4 1 5 2 6 28 8 29 9 90 10 30 11 89 12 31 13
REMARK SMILES IDX 32 14 33 15 83 16 34 17 88 18 82 19 84 20 35 21 87 22 81 23
REMARK SMILES IDX 80 24 36 26 68 27 48 28 67 29 49 30 52 31 66 32 85 33 50 34
REMARK SMILES IDX 51 35 65 37 86 38 53 39 37 40 38 41 46 42 39 43 41 44 47 45
REMARK SMILES IDX 40 46 42 47 43 48 44 49 45 50 69 51 70 52 78 53 71 54 73 55
REMARK SMILES IDX 79 56 72 57 74 58 75 59 76 60 77 61 54 62 55 63 63 64 56 65
REMARK SMILES IDX 58 66 64 67 57 68 59 69 60 70 61 71 62 72 7 73 8 74 9 75
REMARK SMILES IDX 10 76 11 77 12 79 13 80 14 81 27 82 15 83 16 84 17 85 18 86
REMARK SMILES IDX 19 88 20 89 21 90 26 91 22 92 25 93 23 94 24 95
REMARK H PARENT 3 7 84 25 52 36 10 78 17 87
REMARK Flexibility Score: inf
ROOT
ATOM      1  C   UNL     1       5.887   7.550   0.094  1.00  0.00     0.002 C 
ENDROOT
BRANCH   1   2
ATOM      2  C   UNL     1       4.603   8.293   0.449  1.00  0.00     0.021 C 
BRANCH   2   3
ATOM      3  C   UNL     1       4.593   9.760   0.055  1.00  0.00     0.116 C 
BRANCH   3   4
ATOM      4  N   UNL     1       4.496   9.942  -1.382  1.00  0.00    -0.352 N 
ATOM      5  O   UNL     1       3.507  10.589  -3.303  1.00  0.00    -0.269 OA
ATOM      6  C   UNL     1       3.577  10.687  -2.082  1.00  0.00     0.251 C 
ATOM      7  H   UNL     1       5.172   9.474  -1.922  1.00  0.00     0.163 HD
BRANCH   6   8
ATOM      8  C   UNL     1       2.662  11.587  -1.343  1.00  0.00     0.039 A 
ATOM      9  C   UNL     1       3.154  12.421  -0.334  1.00  0.00     0.014 A 
ATOM     10  C   UNL     1       1.303  11.596  -1.664  1.00  0.00     0.014 A 
ATOM     11  C   UNL     1       2.273  13.181   0.428  1.00  0.00     0.010 A 
ATOM     12  C   UNL     1       0.430  12.423  -0.951  1.00  0.00     0.010 A 
ATOM     13  C   UNL     1       0.907  13.213   0.107  1.00  0.00    -0.014 A 
BRANCH  13  14
ATOM     14  C   UNL     1       0.025  14.194   0.785  1.00  0.00     0.031 A 
ATOM     15  C   UNL     1      -1.121  13.762   1.654  1.00  0.00     0.074 A 
ATOM     16  C   UNL     1       0.254  15.504   0.560  1.00  0.00     0.049 A 
ATOM     17  N   UNL     1      -1.986  14.505   2.294  1.00  0.00    -0.248 NA
ATOM     18  C   UNL     1      -1.333  12.315   1.826  1.00  0.00     0.031 C 
ATOM     19  C   UNL     1       1.304  16.033  -0.317  1.00  0.00     0.029 A 
ATOM     20  N   UNL     1      -0.386  16.625   1.021  1.00  0.00    -0.354 N 
ATOM     21  C   UNL     1      -2.871  13.627   2.906  1.00  0.00     0.074 A 
ATOM     22  C   UNL     1      -2.432  12.288   2.571  1.00  0.00     0.031 C 
ATOM     23  C   UNL     1       1.235  17.370  -0.333  1.00  0.00     0.029 A 
ATOM     24  C   UNL     1       0.107  17.793   0.486  1.00  0.00     0.049 A 
ATOM     25  H   UNL     1      -1.125  16.597   1.671  1.00  0.00     0.167 HD
ATOM     26  C   UNL     1      -3.943  13.917   3.680  1.00  0.00     0.034 A 
ATOM     27  C   UNL     1      -0.323  19.063   0.607  1.00  0.00     0.034 A 
ATOM     28  C   UNL     1      -4.342  15.253   4.040  1.00  0.00     0.049 A 
ATOM     29  C   UNL     1      -1.507  19.345   1.484  1.00  0.00     0.074 A 
ATOM     30  C   UNL     1      -5.336  15.643   4.922  1.00  0.00     0.029 A 
ATOM     31  N   UNL     1      -3.792  16.413   3.520  1.00  0.00    -0.354 N 
ATOM     32  N   UNL     1      -2.211  18.510   2.207  1.00  0.00    -0.248 NA
ATOM     33  C   UNL     1      -1.944  20.744   1.578  1.00  0.00     0.031 C 
ATOM     34  C   UNL     1      -5.408  17.040   4.910  1.00  0.00     0.029 A 
ATOM     35  C   UNL     1      -4.447  17.520   4.034  1.00  0.00     0.049 A 
ATOM     36  H   UNL     1      -3.044  16.447   2.880  1.00  0.00     0.167 HD
ATOM     37  C   UNL     1      -3.169  19.281   2.850  1.00  0.00     0.074 A 
ATOM     38  C   UNL     1      -2.929  20.657   2.462  1.00  0.00     0.031 C 
ATOM     39  C   UNL     1      -4.175  18.884   3.667  1.00  0.00     0.034 A 
BRANCH  26  40
ATOM     40  C   UNL     1      -4.758  12.780   4.238  1.00  0.00     0.023 A 
ATOM     41  C   UNL     1      -4.274  12.056   5.345  1.00  0.00     0.012 A 
ATOM     42  C   UNL     1      -6.054  12.519   3.750  1.00  0.00     0.148 A 
ATOM     43  C   UNL     1      -5.065  11.082   5.954  1.00  0.00     0.002 A 
ATOM     44  C   UNL     1      -6.849  11.570   4.383  1.00  0.00     0.091 A 
ATOM     45  F   UNL     1      -6.487  13.210   2.686  1.00  0.00    -0.205 F 
ATOM     46  C   UNL     1      -6.355  10.849   5.482  1.00  0.00     0.022 A 
BRANCH  44  47
ATOM     47  S   UNL     1      -8.549  11.245   3.900  1.00  0.00     0.127 S 
ATOM     48  O   UNL     1      -8.447   9.887   3.366  1.00  0.00    -0.237 OA
ATOM     49  O   UNL     1      -9.256  11.345   5.176  1.00  0.00    -0.237 OA
ATOM     50  O   UNL     1      -8.895  12.271   2.927  1.00  0.00    -0.744 OA
ENDBRANCH  44  47
ENDBRANCH  26  40
BRANCH  27  51
ATOM     51  C   UNL     1       0.382  20.154  -0.121  1.00  0.00     0.023 A 
ATOM     52  C   UNL     1       1.121  21.108   0.602  1.00  0.00     0.012 A 
ATOM     53  C   UNL     1       0.358  20.224  -1.528  1.00  0.00     0.148 A 
ATOM     54  C   UNL     1       1.803  22.129  -0.063  1.00  0.00     0.002 A 
ATOM     55  C   UNL     1       1.089  21.205  -2.185  1.00  0.00     0.091 A 
ATOM     56  F   UNL     1      -0.370  19.320  -2.200  1.00  0.00    -0.205 F 
ATOM     57  C   UNL     1       1.798  22.169  -1.455  1.00  0.00     0.022 A 
BRANCH  55  58
ATOM     58  S   UNL     1       1.250  21.218  -3.974  1.00  0.00     0.127 S 
ATOM     59  O   UNL     1       0.247  22.206  -4.359  1.00  0.00    -0.237 OA
ATOM     60  O   UNL     1       2.638  21.644  -4.160  1.00  0.00    -0.237 OA
ATOM     61  O   UNL     1       0.993  19.844  -4.387  1.00  0.00    -0.744 OA
ENDBRANCH  55  58
ENDBRANCH  27  51
BRANCH  39  62
ATOM     62  C   UNL     1      -5.097  19.950   4.193  1.00  0.00     0.023 A 
ATOM     63  C   UNL     1      -6.047  20.527   3.327  1.00  0.00     0.012 A 
ATOM     64  C   UNL     1      -5.070  20.331   5.548  1.00  0.00     0.148 A 
ATOM     65  C   UNL     1      -6.940  21.488   3.796  1.00  0.00     0.002 A 
ATOM     66  C   UNL     1      -5.993  21.256   6.019  1.00  0.00     0.091 A 
ATOM     67  F   UNL     1      -4.145  19.781   6.348  1.00  0.00    -0.205 F 
ATOM     68  C   UNL     1      -6.921  21.844   5.143  1.00  0.00     0.022 A 
BRANCH  66  69
ATOM     69  S   UNL     1      -6.103  21.711   7.753  1.00  0.00     0.127 S 
ATOM     70  O   UNL     1      -5.594  23.082   7.734  1.00  0.00    -0.237 OA
ATOM     71  O   UNL     1      -7.538  21.596   8.014  1.00  0.00    -0.237 OA
ATOM     72  O   UNL     1      -5.278  20.750   8.473  1.00  0.00    -0.744 OA
ENDBRANCH  66  69
ENDBRANCH  39  62
ENDBRANCH  13  14
ENDBRANCH   6   8
ENDBRANCH   3   4
ENDBRANCH   2   3
ENDBRANCH   1   2
BRANCH   1  73
ATOM     73  C   UNL     1       7.169   8.119   0.706  1.00  0.00     0.002 C 
BRANCH  73  74
ATOM     74  C   UNL     1       7.181   8.335   2.225  1.00  0.00     0.021 C 
BRANCH  74  75
ATOM     75  C   UNL     1       6.670   7.172   3.077  1.00  0.00     0.116 C 
BRANCH  75  76
ATOM     76  N   UNL     1       7.308   5.915   2.756  1.00  0.00    -0.356 N 
ATOM     77  C   UNL     1       8.028   5.066   3.537  1.00  0.00     0.227 C 
ATOM     78  H   UNL     1       7.205   5.627   1.820  1.00  0.00     0.163 HD
ATOM     79  O   UNL     1       8.188   3.921   3.106  1.00  0.00    -0.274 OA
BRANCH  77  80
ATOM     80  C   UNL     1       8.517   5.495   4.926  1.00  0.00     0.103 C 
ATOM     81  C   UNL     1       9.331   6.759   4.960  1.00  0.00    -0.016 C 
ATOM     82  C   UNL     1       9.482   4.444   5.530  1.00  0.00     0.047 C 
ATOM     83  C   UNL     1      10.553   6.582   5.469  1.00  0.00    -0.006 C 
ATOM     84  C   UNL     1      10.785   5.174   5.866  1.00  0.00     0.106 C 
BRANCH  84  85
ATOM     85  N   UNL     1      12.008   4.660   5.284  1.00  0.00    -0.346 N 
ATOM     86  C   UNL     1      12.412   4.337   4.018  1.00  0.00     0.251 C 
ATOM     87  H   UNL     1      12.712   4.508   5.956  1.00  0.00     0.164 HD
ATOM     88  O   UNL     1      13.518   3.819   3.860  1.00  0.00    -0.269 OA
BRANCH  86  89
ATOM     89  C   UNL     1      11.575   4.560   2.828  1.00  0.00     0.039 A 
ATOM     90  C   UNL     1      11.308   5.848   2.357  1.00  0.00     0.015 A 
ATOM     91  C   UNL     1      11.197   3.445   2.072  1.00  0.00     0.015 A 
ATOM     92  C   UNL     1      10.598   6.018   1.163  1.00  0.00     0.016 A 
ATOM     93  C   UNL     1      10.492   3.614   0.878  1.00  0.00     0.016 A 
ATOM     94  C   UNL     1      10.187   4.900   0.435  1.00  0.00     0.018 A 
ATOM     95  Br  UNL     1       9.224   5.121  -1.178  1.00  0.00    -0.051 Br
ENDBRANCH  86  89
ENDBRANCH  84  85
ENDBRANCH  77  80
ENDBRANCH  75  76
ENDBRANCH  74  75
ENDBRANCH  73  74
ENDBRANCH   1  73
TORSDOF 18
