REMARK SMILES COCCNS(=O)(=O)c1c[nH]c(C(=O)NCCCCCCNC(=O)c2ccc(-c3c4nc(c(-c5cccc(S(=O)(=O)[O-])c5F)c5ccc([nH]5)c(-c5cccc(S(=O)(=O)[O-])c5F)c5nc(c(-c6cccc(S(=O)(=O)[O-])c6F)c6ccc3[nH]6)C=C5)C=C4)cc2)c1
REMARK SMILES IDX 17 1 16 2 15 3 13 4 14 5 12 7 9 8 10 9 88 10 11 11 6 13 7 14
REMARK SMILES IDX 8 15 5 16 4 18 3 19 2 20 1 21 18 22 19 23 20 24 21 25 22 26
REMARK SMILES IDX 23 27 24 29 25 30 26 31 87 32 27 33 86 34 28 35 29 36 30 37
REMARK SMILES IDX 80 38 31 39 85 40 79 41 81 42 32 43 84 44 78 45 77 46 33 48
REMARK SMILES IDX 65 49 45 50 64 51 46 52 49 53 63 54 82 55 47 56 48 57 62 59
REMARK SMILES IDX 83 60 50 61 34 62 35 63 43 64 36 65 38 66 44 67 37 68 39 69
REMARK SMILES IDX 40 70 41 71 42 72 66 73 67 74 75 75 68 76 70 77 76 78 69 79
REMARK SMILES IDX 71 80 72 81 73 82 74 83 51 84 52 85 60 86 53 87 55 88 61 89
REMARK SMILES IDX 54 90 56 91 57 92 58 93 59 94
REMARK H PARENT 15 6 11 12 5 17 22 28 81 47 49 58
REMARK Flexibility Score: inf
ROOT
ATOM      1  C   UNL     1      -2.442   8.162   3.966  1.00  0.00     0.021 C 
ENDROOT
BRANCH   1   2
ATOM      2  C   UNL     1      -1.777   8.026   2.598  1.00  0.00     0.116 C 
BRANCH   2   3
ATOM      3  N   UNL     1      -0.509   8.729   2.564  1.00  0.00    -0.351 N 
ATOM      4  C   UNL     1       0.782   8.279   2.585  1.00  0.00     0.267 C 
ATOM      5  O   UNL     1       1.670   9.127   2.469  1.00  0.00    -0.268 OA
ATOM      6  H   UNL     1      -0.593   9.709   2.517  1.00  0.00     0.163 HD
BRANCH   4   7
ATOM      7  C   UNL     1       1.109   6.871   2.659  1.00  0.00     0.105 A 
ATOM      8  C   UNL     1       1.235   4.604   2.709  1.00  0.00     0.100 A 
ATOM      9  C   UNL     1       2.476   5.086   2.359  1.00  0.00     0.104 A 
ATOM     10  C   UNL     1       0.409   5.722   2.992  1.00  0.00     0.055 A 
ATOM     11  N   UNL     1       2.401   6.451   2.388  1.00  0.00    -0.356 N 
ATOM     12  H   UNL     1       3.164   7.055   2.236  1.00  0.00     0.166 HD
BRANCH   8  13
ATOM     13  S   UNL     1       0.728   2.959   2.774  1.00  0.00     0.242 S 
ATOM     14  O   UNL     1      -0.704   2.997   2.796  1.00  0.00    -0.207 OA
ATOM     15  O   UNL     1       1.537   2.365   3.824  1.00  0.00    -0.207 OA
BRANCH  13  16
ATOM     16  N   UNL     1       1.194   2.196   1.330  1.00  0.00    -0.209 NA
ATOM     17  H   UNL     1       2.188   2.374   1.187  1.00  0.00     0.141 HD
BRANCH  16  18
ATOM     18  C   UNL     1       0.469   2.640   0.112  1.00  0.00     0.127 C 
BRANCH  18  19
ATOM     19  C   UNL     1       1.046   1.957  -1.137  1.00  0.00     0.176 C 
BRANCH  19  20
ATOM     20  O   UNL     1       0.501   0.662  -1.408  1.00  0.00    -0.383 OA
ATOM     21  C   UNL     1       0.928  -0.357  -0.517  1.00  0.00     0.194 C 
ENDBRANCH  19  20
ENDBRANCH  18  19
ENDBRANCH  16  18
ENDBRANCH  13  16
ENDBRANCH   8  13
ENDBRANCH   4   7
ENDBRANCH   2   3
ENDBRANCH   1   2
BRANCH   1  22
ATOM     22  C   UNL     1      -3.192   9.490   4.144  1.00  0.00     0.002 C 
BRANCH  22  23
ATOM     23  C   UNL     1      -4.314   9.740   3.126  1.00  0.00     0.002 C 
BRANCH  23  24
ATOM     24  C   UNL     1      -5.362   8.620   3.029  1.00  0.00     0.021 C 
BRANCH  24  25
ATOM     25  C   UNL     1      -6.274   8.540   4.258  1.00  0.00     0.116 C 
BRANCH  25  26
ATOM     26  N   UNL     1      -7.146   9.706   4.287  1.00  0.00    -0.352 N 
ATOM     27  C   UNL     1      -8.214  10.015   5.082  1.00  0.00     0.251 C 
ATOM     28  H   UNL     1      -6.927  10.393   3.617  1.00  0.00     0.163 HD
ATOM     29  O   UNL     1      -9.012  10.858   4.667  1.00  0.00    -0.269 OA
BRANCH  27  30
ATOM     30  C   UNL     1      -8.443   9.390   6.402  1.00  0.00     0.039 A 
ATOM     31  C   UNL     1      -9.776   9.204   6.803  1.00  0.00     0.014 A 
ATOM     32  C   UNL     1      -7.403   9.103   7.288  1.00  0.00     0.014 A 
ATOM     33  C   UNL     1     -10.065   8.672   8.058  1.00  0.00     0.010 A 
ATOM     34  C   UNL     1      -7.690   8.580   8.550  1.00  0.00     0.010 A 
ATOM     35  C   UNL     1      -9.018   8.327   8.919  1.00  0.00    -0.014 A 
BRANCH  35  36
ATOM     36  C   UNL     1      -9.308   7.433  10.073  1.00  0.00     0.031 A 
ATOM     37  C   UNL     1      -9.409   5.939   9.580  1.00  0.00     0.074 A 
ATOM     38  C   UNL     1      -9.442   8.037  11.300  1.00  0.00     0.049 A 
ATOM     39  N   UNL     1     -10.077   4.914  10.040  1.00  0.00    -0.248 NA
ATOM     40  C   UNL     1      -8.738   5.572   8.292  1.00  0.00     0.031 C 
ATOM     41  C   UNL     1      -9.278   9.487  11.577  1.00  0.00     0.029 A 
ATOM     42  N   UNL     1      -9.733   7.579  12.568  1.00  0.00    -0.354 N 
ATOM     43  C   UNL     1      -9.704   3.780   9.256  1.00  0.00     0.074 A 
ATOM     44  C   UNL     1      -9.005   4.277   8.118  1.00  0.00     0.031 C 
ATOM     45  C   UNL     1      -9.558   9.782  12.870  1.00  0.00     0.029 A 
ATOM     46  C   UNL     1      -9.906   8.569  13.582  1.00  0.00     0.049 A 
ATOM     47  H   UNL     1      -9.817   6.618  12.764  1.00  0.00     0.167 HD
ATOM     48  C   UNL     1      -9.817   2.486   9.686  1.00  0.00     0.034 A 
ATOM     49  C   UNL     1     -10.362   8.411  14.875  1.00  0.00     0.034 A 
ATOM     50  C   UNL     1     -10.346   2.472  11.004  1.00  0.00     0.049 A 
ATOM     51  C   UNL     1     -10.527   6.962  15.010  1.00  0.00     0.074 A 
ATOM     52  C   UNL     1     -11.563   2.324  11.612  1.00  0.00     0.029 A 
ATOM     53  N   UNL     1      -9.390   2.688  11.960  1.00  0.00    -0.354 N 
ATOM     54  N   UNL     1      -9.556   6.109  15.088  1.00  0.00    -0.248 NA
ATOM     55  C   UNL     1     -11.857   6.447  14.714  1.00  0.00     0.031 C 
ATOM     56  C   UNL     1     -11.321   2.578  12.984  1.00  0.00     0.029 A 
ATOM     57  C   UNL     1     -10.036   3.111  13.079  1.00  0.00     0.049 A 
ATOM     58  H   UNL     1      -8.420   2.561  11.857  1.00  0.00     0.167 HD
ATOM     59  C   UNL     1     -10.095   4.975  14.533  1.00  0.00     0.074 A 
ATOM     60  C   UNL     1     -11.528   5.205  14.398  1.00  0.00     0.031 C 
ATOM     61  C   UNL     1      -9.336   4.052  13.896  1.00  0.00     0.034 A 
BRANCH  48  62
ATOM     62  C   UNL     1      -9.190   1.146   9.271  1.00  0.00     0.023 A 
ATOM     63  C   UNL     1      -9.735   0.005   9.942  1.00  0.00     0.012 A 
ATOM     64  C   UNL     1      -7.943   0.964   8.647  1.00  0.00     0.148 A 
ATOM     65  C   UNL     1      -9.011  -1.164  10.168  1.00  0.00     0.002 A 
ATOM     66  C   UNL     1      -7.251  -0.248   8.808  1.00  0.00     0.091 A 
ATOM     67  F   UNL     1      -7.393   1.975   7.967  1.00  0.00    -0.205 F 
ATOM     68  C   UNL     1      -7.753  -1.281   9.616  1.00  0.00     0.022 A 
BRANCH  66  69
ATOM     69  S   UNL     1      -5.675  -0.605   8.017  1.00  0.00     0.127 S 
ATOM     70  O   UNL     1      -4.750  -0.572   9.146  1.00  0.00    -0.237 OA
ATOM     71  O   UNL     1      -5.912  -1.945   7.471  1.00  0.00    -0.237 OA
ATOM     72  O   UNL     1      -5.504   0.425   7.003  1.00  0.00    -0.744 OA
ENDBRANCH  66  69
ENDBRANCH  48  62
BRANCH  49  73
ATOM     73  C   UNL     1     -10.919   9.262  16.003  1.00  0.00     0.023 A 
ATOM     74  C   UNL     1     -10.704  10.639  16.134  1.00  0.00     0.012 A 
ATOM     75  C   UNL     1     -11.816   8.681  16.963  1.00  0.00     0.148 A 
ATOM     76  C   UNL     1     -11.422  11.403  17.082  1.00  0.00     0.002 A 
ATOM     77  C   UNL     1     -12.616   9.451  17.803  1.00  0.00     0.091 A 
ATOM     78  F   UNL     1     -11.882   7.350  17.091  1.00  0.00    -0.205 F 
ATOM     79  C   UNL     1     -12.413  10.824  17.876  1.00  0.00     0.022 A 
BRANCH  77  80
ATOM     80  S   UNL     1     -14.039   8.757  18.679  1.00  0.00     0.127 S 
ATOM     81  O   UNL     1     -13.780   9.149  20.063  1.00  0.00    -0.237 OA
ATOM     82  O   UNL     1     -15.149   9.466  18.041  1.00  0.00    -0.237 OA
ATOM     83  O   UNL     1     -14.017   7.322  18.428  1.00  0.00    -0.744 OA
ENDBRANCH  77  80
ENDBRANCH  49  73
BRANCH  61  84
ATOM     84  C   UNL     1      -7.836   4.344  13.843  1.00  0.00     0.023 A 
ATOM     85  C   UNL     1      -7.079   4.079  14.992  1.00  0.00     0.012 A 
ATOM     86  C   UNL     1      -7.164   4.956  12.745  1.00  0.00     0.148 A 
ATOM     87  C   UNL     1      -5.715   4.391  15.052  1.00  0.00     0.002 A 
ATOM     88  C   UNL     1      -5.804   5.281  12.810  1.00  0.00     0.091 A 
ATOM     89  F   UNL     1      -7.857   5.201  11.633  1.00  0.00    -0.205 F 
ATOM     90  C   UNL     1      -5.078   4.988  13.967  1.00  0.00     0.022 A 
BRANCH  88  91
ATOM     91  S   UNL     1      -4.893   6.121  11.493  1.00  0.00     0.127 S 
ATOM     92  O   UNL     1      -4.351   7.294  12.182  1.00  0.00    -0.237 OA
ATOM     93  O   UNL     1      -3.886   5.129  11.126  1.00  0.00    -0.237 OA
ATOM     94  O   UNL     1      -5.864   6.435  10.452  1.00  0.00    -0.744 OA
ENDBRANCH  88  91
ENDBRANCH  61  84
ENDBRANCH  35  36
ENDBRANCH  27  30
ENDBRANCH  25  26
ENDBRANCH  24  25
ENDBRANCH  23  24
ENDBRANCH  22  23
ENDBRANCH   1  22
TORSDOF 21
