REMARK SMILES Cc1cc(C(=O)N[C@@H]2C(=O)N3C(C(=O)NCCCCCCNC(=O)c4ccc(-c5c6nc(c(-c7cccc(S(=O)(=O)[O-])c7F)c7ccc([nH]7)c(-c7cccc(S(=O)(=O)[O-])c7F)c7nc(c(-c8cccc(S(=O)(=O)[O-])c8F)c8ccc5[nH]8)C=C7)C=C6)cc4)=C(CSc4nnc(C)s4)CS[C@H]23)n(C)n1
REMARK SMILES IDX 18 1 17 2 16 3 15 4 13 5 14 6 12 8 8 9 9 10 99 11 10 12
REMARK SMILES IDX 11 13 98 14 97 15 88 16 7 17 5 18 6 19 4 21 1 22 2 23 3 24
REMARK SMILES IDX 102 25 100 26 101 27 89 28 90 29 91 30 92 31 96 32 93 33
REMARK SMILES IDX 94 34 95 35 19 36 20 37 21 38 22 39 23 40 24 42 25 43 26 44
REMARK SMILES IDX 87 45 27 46 86 47 28 48 29 49 30 50 80 51 31 52 85 53 79 54
REMARK SMILES IDX 81 55 32 56 84 57 78 58 77 59 33 61 65 62 45 63 64 64 46 65
REMARK SMILES IDX 49 66 63 67 82 68 47 69 48 70 62 72 83 73 50 74 34 75 35 76
REMARK SMILES IDX 43 77 36 78 38 79 44 80 37 81 39 82 40 83 41 84 42 85 66 86
REMARK SMILES IDX 67 87 75 88 68 89 70 90 76 91 69 92 71 93 72 94 73 95 74 96
REMARK SMILES IDX 51 97 52 98 60 99 53 100 55 101 61 102 54 103 56 104 57 105
REMARK SMILES IDX 58 106 59 107
REMARK H PARENT 15 7 7 20 22 41 81 60 49 71
REMARK Flexibility Score: inf
ROOT
ATOM      1  C   UNL     1      -6.307   1.086  -4.617  1.00  0.00     0.002 C 
ENDROOT
BRANCH   1   2
ATOM      2  C   UNL     1      -5.712  -0.180  -4.018  1.00  0.00     0.021 C 
BRANCH   2   3
ATOM      3  C   UNL     1      -4.260  -0.499  -4.400  1.00  0.00     0.116 C 
BRANCH   3   4
ATOM      4  N   UNL     1      -3.391  -0.378  -3.247  1.00  0.00    -0.351 N 
ATOM      5  C   UNL     1      -2.688  -1.174  -2.413  1.00  0.00     0.268 C 
ATOM      6  O   UNL     1      -1.914  -0.514  -1.703  1.00  0.00    -0.268 OA
ATOM      7  H   UNL     1      -3.280   0.568  -2.997  1.00  0.00     0.163 HD
BRANCH   5   8
ATOM      8  C   UNL     1      -2.597  -2.714  -2.386  1.00  0.00     0.111 C 
ATOM      9  C   UNL     1      -0.160  -4.061  -0.341  1.00  0.00     0.206 C 
ATOM     10  C   UNL     1      -1.131  -2.846  -0.338  1.00  0.00     0.253 C 
ATOM     11  C   UNL     1      -0.983  -4.477  -1.591  1.00  0.00     0.181 C 
ATOM     12  O   UNL     1      -1.483  -2.048   0.514  1.00  0.00    -0.272 OA
ATOM     13  N   UNL     1      -1.513  -3.133  -1.619  1.00  0.00    -0.290 N 
ATOM     14  S   UNL     1      -2.358  -5.631  -1.321  1.00  0.00    -0.129 SA
ATOM     15  C   UNL     1      -3.040  -5.162  -2.912  1.00  0.00     0.106 C 
ATOM     16  C   UNL     1      -3.425  -3.686  -2.891  1.00  0.00    -0.020 C 
BRANCH   9  17
ATOM     17  N   UNL     1      -0.127  -4.951   0.852  1.00  0.00    -0.336 N 
ATOM     18  C   UNL     1       0.209  -6.291   0.940  1.00  0.00     0.270 C 
ATOM     19  O   UNL     1       0.182  -6.812   2.054  1.00  0.00    -0.268 OA
ATOM     20  H   UNL     1      -0.380  -4.524   1.702  1.00  0.00     0.164 HD
BRANCH  18  21
ATOM     21  C   UNL     1       0.502  -7.025  -0.274  1.00  0.00     0.126 A 
ATOM     22  C   UNL     1       0.554  -7.368  -3.898  1.00  0.00     0.069 C 
ATOM     23  C   UNL     1       0.630  -7.544  -2.426  1.00  0.00     0.060 A 
ATOM     24  C   UNL     1       1.105  -6.630  -1.460  1.00  0.00     0.059 A 
ATOM     25  N   UNL     1       0.116  -8.626  -1.844  1.00  0.00    -0.178 NA
ATOM     26  N   UNL     1       0.128  -8.329  -0.525  1.00  0.00    -0.263 N 
ATOM     27  C   UNL     1      -0.302  -9.359   0.390  1.00  0.00     0.174 C 
ENDBRANCH  18  21
ENDBRANCH   9  17
BRANCH  16  28
ATOM     28  C   UNL     1      -4.881  -3.561  -3.276  1.00  0.00     0.111 C 
BRANCH  28  29
ATOM     29  S   UNL     1      -5.731  -2.571  -2.059  1.00  0.00    -0.089 SA
BRANCH  29  30
ATOM     30  C   UNL     1      -6.903  -3.572  -1.305  1.00  0.00     0.174 A 
ATOM     31  N   UNL     1      -6.650  -4.755  -0.797  1.00  0.00    -0.132 NA
ATOM     32  S   UNL     1      -8.352  -2.850  -0.745  1.00  0.00    -0.091 S 
ATOM     33  N   UNL     1      -7.443  -4.981   0.319  1.00  0.00    -0.143 NA
ATOM     34  C   UNL     1      -8.236  -3.955   0.559  1.00  0.00     0.115 A 
ATOM     35  C   UNL     1      -8.876  -3.628   1.852  1.00  0.00     0.081 C 
ENDBRANCH  29  30
ENDBRANCH  28  29
ENDBRANCH  16  28
ENDBRANCH   5   8
ENDBRANCH   3   4
ENDBRANCH   2   3
ENDBRANCH   1   2
BRANCH   1  36
ATOM     36  C   UNL     1      -6.410   1.070  -6.138  1.00  0.00     0.002 C 
BRANCH  36  37
ATOM     37  C   UNL     1      -7.187  -0.114  -6.721  1.00  0.00     0.021 C 
BRANCH  37  38
ATOM     38  C   UNL     1      -8.602  -0.282  -6.173  1.00  0.00     0.116 C 
BRANCH  38  39
ATOM     39  N   UNL     1      -9.391   0.930  -6.348  1.00  0.00    -0.352 N 
ATOM     40  C   UNL     1     -10.467   1.148  -7.170  1.00  0.00     0.251 C 
ATOM     41  H   UNL     1      -9.114   1.699  -5.799  1.00  0.00     0.163 HD
ATOM     42  O   UNL     1     -10.841   2.290  -7.417  1.00  0.00    -0.269 OA
BRANCH  40  43
ATOM     43  C   UNL     1     -11.171  -0.011  -7.750  1.00  0.00     0.039 A 
ATOM     44  C   UNL     1     -11.504  -0.012  -9.106  1.00  0.00     0.014 A 
ATOM     45  C   UNL     1     -11.498  -1.100  -6.936  1.00  0.00     0.014 A 
ATOM     46  C   UNL     1     -12.124  -1.134  -9.659  1.00  0.00     0.010 A 
ATOM     47  C   UNL     1     -12.037  -2.244  -7.506  1.00  0.00     0.010 A 
ATOM     48  C   UNL     1     -12.373  -2.267  -8.868  1.00  0.00    -0.014 A 
BRANCH  48  49
ATOM     49  C   UNL     1     -13.014  -3.486  -9.420  1.00  0.00     0.031 A 
ATOM     50  C   UNL     1     -14.334  -3.943  -8.860  1.00  0.00     0.074 A 
ATOM     51  C   UNL     1     -12.365  -4.234 -10.332  1.00  0.00     0.049 A 
ATOM     52  N   UNL     1     -14.993  -5.046  -9.095  1.00  0.00    -0.248 NA
ATOM     53  C   UNL     1     -14.980  -3.056  -7.876  1.00  0.00     0.031 C 
ATOM     54  C   UNL     1     -11.055  -3.924 -10.906  1.00  0.00     0.029 A 
ATOM     55  N   UNL     1     -12.705  -5.432 -10.909  1.00  0.00    -0.354 N 
ATOM     56  C   UNL     1     -16.102  -5.009  -8.258  1.00  0.00     0.074 A 
ATOM     57  C   UNL     1     -16.009  -3.793  -7.483  1.00  0.00     0.031 C 
ATOM     58  C   UNL     1     -10.700  -4.907 -11.749  1.00  0.00     0.029 A 
ATOM     59  C   UNL     1     -11.734  -5.936 -11.743  1.00  0.00     0.049 A 
ATOM     60  H   UNL     1     -13.562  -5.887 -10.742  1.00  0.00     0.167 HD
ATOM     61  C   UNL     1     -17.120  -5.896  -8.160  1.00  0.00     0.034 A 
ATOM     62  C   UNL     1     -11.676  -7.107 -12.409  1.00  0.00     0.034 A 
ATOM     63  C   UNL     1     -17.224  -7.084  -8.961  1.00  0.00     0.049 A 
ATOM     64  C   UNL     1     -12.830  -8.067 -12.299  1.00  0.00     0.074 A 
ATOM     65  C   UNL     1     -18.253  -8.008  -8.998  1.00  0.00     0.029 A 
ATOM     66  N   UNL     1     -16.262  -7.518  -9.859  1.00  0.00    -0.354 N 
ATOM     67  N   UNL     1     -13.934  -7.954 -11.600  1.00  0.00    -0.248 NA
ATOM     68  C   UNL     1     -12.749  -9.300 -13.096  1.00  0.00     0.031 C 
ATOM     69  C   UNL     1     -17.895  -9.021  -9.893  1.00  0.00     0.029 A 
ATOM     70  C   UNL     1     -16.666  -8.702 -10.449  1.00  0.00     0.049 A 
ATOM     71  H   UNL     1     -15.415  -7.053 -10.049  1.00  0.00     0.167 HD
ATOM     72  C   UNL     1     -14.698  -9.073 -11.911  1.00  0.00     0.074 A 
ATOM     73  C   UNL     1     -13.934  -9.848 -12.866  1.00  0.00     0.031 C 
ATOM     74  C   UNL     1     -15.920  -9.429 -11.444  1.00  0.00     0.034 A 
BRANCH  61  75
ATOM     75  C   UNL     1     -18.218  -5.597  -7.171  1.00  0.00     0.023 A 
ATOM     76  C   UNL     1     -19.094  -4.516  -7.401  1.00  0.00     0.012 A 
ATOM     77  C   UNL     1     -18.410  -6.413  -6.040  1.00  0.00     0.148 A 
ATOM     78  C   UNL     1     -20.116  -4.226  -6.498  1.00  0.00     0.002 A 
ATOM     79  C   UNL     1     -19.464  -6.150  -5.173  1.00  0.00     0.091 A 
ATOM     80  F   UNL     1     -17.556  -7.424  -5.827  1.00  0.00    -0.205 F 
ATOM     81  C   UNL     1     -20.308  -5.048  -5.392  1.00  0.00     0.022 A 
BRANCH  79  82
ATOM     82  S   UNL     1     -19.847  -7.198  -3.766  1.00  0.00     0.127 S 
ATOM     83  O   UNL     1     -19.501  -6.325  -2.645  1.00  0.00    -0.237 OA
ATOM     84  O   UNL     1     -21.281  -7.430  -3.939  1.00  0.00    -0.237 OA
ATOM     85  O   UNL     1     -19.016  -8.386  -3.910  1.00  0.00    -0.744 OA
ENDBRANCH  79  82
ENDBRANCH  61  75
BRANCH  62  86
ATOM     86  C   UNL     1     -10.505  -7.414 -13.278  1.00  0.00     0.023 A 
ATOM     87  C   UNL     1     -10.671  -7.450 -14.676  1.00  0.00     0.012 A 
ATOM     88  C   UNL     1      -9.228  -7.650 -12.732  1.00  0.00     0.148 A 
ATOM     89  C   UNL     1      -9.596  -7.754 -15.513  1.00  0.00     0.002 A 
ATOM     90  C   UNL     1      -8.150  -7.896 -13.573  1.00  0.00     0.091 A 
ATOM     91  F   UNL     1      -9.092  -7.615 -11.399  1.00  0.00    -0.205 F 
ATOM     92  C   UNL     1      -8.335  -7.969 -14.963  1.00  0.00     0.022 A 
BRANCH  90  93
ATOM     93  S   UNL     1      -6.467  -8.054 -12.965  1.00  0.00     0.127 S 
ATOM     94  O   UNL     1      -6.179  -9.459 -13.241  1.00  0.00    -0.237 OA
ATOM     95  O   UNL     1      -5.751  -7.099 -13.812  1.00  0.00    -0.237 OA
ATOM     96  O   UNL     1      -6.519  -7.685 -11.556  1.00  0.00    -0.744 OA
ENDBRANCH  90  93
ENDBRANCH  62  86
BRANCH  74  97
ATOM     97  C   UNL     1     -16.555 -10.674 -12.005  1.00  0.00     0.023 A 
ATOM     98  C   UNL     1     -16.066 -11.946 -11.650  1.00  0.00     0.012 A 
ATOM     99  C   UNL     1     -17.704 -10.574 -12.816  1.00  0.00     0.148 A 
ATOM    100  C   UNL     1     -16.696 -13.100 -12.116  1.00  0.00     0.002 A 
ATOM    101  C   UNL     1     -18.358 -11.727 -13.230  1.00  0.00     0.091 A 
ATOM    102  F   UNL     1     -18.141  -9.353 -13.156  1.00  0.00    -0.205 F 
ATOM    103  C   UNL     1     -17.848 -12.991 -12.893  1.00  0.00     0.022 A 
BRANCH 101 104
ATOM    104  S   UNL     1     -19.904 -11.682 -14.143  1.00  0.00     0.127 S 
ATOM    105  O   UNL     1     -19.489 -12.178 -15.454  1.00  0.00    -0.237 OA
ATOM    106  O   UNL     1     -20.740 -12.607 -13.377  1.00  0.00    -0.237 OA
ATOM    107  O   UNL     1     -20.350 -10.296 -14.115  1.00  0.00    -0.744 OA
ENDBRANCH 101 104
ENDBRANCH  74  97
ENDBRANCH  48  49
ENDBRANCH  40  43
ENDBRANCH  38  39
ENDBRANCH  37  38
ENDBRANCH  36  37
ENDBRANCH   1  36
TORSDOF 21
