REMARK SMILES Cc1n[nH]c(C)c1CC(=O)N1CC[C@H](C(=O)NCCCCCCNC(=O)c2ccc(-c3c4nc(c(-c5cccc(S(=O)(=O)[O-])c5F)c5ccc([nH]5)c(-c5cccc(S(=O)(=O)[O-])c5F)c5nc(c(-c6cccc(S(=O)(=O)[O-])c6F)c6ccc3[nH]6)C=C5)C=C4)cc2)[C@H]1C
REMARK SMILES IDX 20 1 19 2 18 3 17 4 15 5 16 6 14 8 11 9 12 10 90 11 13 12
REMARK SMILES IDX 91 13 9 14 10 15 8 16 7 17 1 18 2 19 3 20 4 21 5 22 6 24
REMARK SMILES IDX 21 25 22 26 23 27 24 28 25 29 26 31 27 32 28 33 89 34 29 35
REMARK SMILES IDX 88 36 30 37 31 38 32 39 82 40 33 41 87 42 81 43 83 44 34 45
REMARK SMILES IDX 86 46 80 47 79 48 35 50 67 51 47 52 66 53 48 54 51 55 65 56
REMARK SMILES IDX 84 57 49 58 50 59 64 61 85 62 52 63 36 64 37 65 45 66 38 67
REMARK SMILES IDX 40 68 46 69 39 70 41 71 42 72 43 73 44 74 68 75 69 76 77 77
REMARK SMILES IDX 70 78 72 79 78 80 71 81 73 82 74 83 75 84 76 85 53 86 54 87
REMARK SMILES IDX 62 88 55 89 57 90 63 91 56 92 58 93 59 94 60 95 61 96
REMARK H PARENT 17 7 4 23 24 30 83 49 51 60
REMARK Flexibility Score: inf
ROOT
ATOM      1  C   UNL     1      -3.759   1.300   3.260  1.00  0.00     0.002 C 
ENDROOT
BRANCH   1   2
ATOM      2  C   UNL     1      -2.314   0.892   2.946  1.00  0.00     0.021 C 
BRANCH   2   3
ATOM      3  C   UNL     1      -1.372   0.927   4.150  1.00  0.00     0.116 C 
BRANCH   3   4
ATOM      4  N   UNL     1      -1.708  -0.156   5.049  1.00  0.00    -0.356 N 
ATOM      5  C   UNL     1      -1.181  -1.400   5.163  1.00  0.00     0.225 C 
ATOM      6  O   UNL     1      -1.824  -2.205   5.844  1.00  0.00    -0.275 OA
ATOM      7  H   UNL     1      -2.438   0.043   5.679  1.00  0.00     0.163 HD
BRANCH   5   8
ATOM      8  C   UNL     1       0.211  -1.734   4.622  1.00  0.00     0.102 C 
ATOM      9  N   UNL     1       0.087  -2.930   2.561  1.00  0.00    -0.339 N 
ATOM     10  C   UNL     1      -0.132  -3.878   3.643  1.00  0.00     0.120 C 
ATOM     11  C   UNL     1       0.455  -1.618   3.099  1.00  0.00     0.094 C 
ATOM     12  C   UNL     1       0.509  -3.225   4.860  1.00  0.00     0.037 C 
ATOM     13  C   UNL     1       1.929  -1.289   2.858  1.00  0.00     0.032 C 
BRANCH   9  14
ATOM     14  C   UNL     1      -0.352  -3.229   1.283  1.00  0.00     0.227 C 
ATOM     15  O   UNL     1      -1.111  -4.191   1.102  1.00  0.00    -0.275 OA
BRANCH  14  16
ATOM     16  C   UNL     1       0.256  -2.539   0.062  1.00  0.00     0.139 C 
BRANCH  16  17
ATOM     17  C   UNL     1       0.108  -1.062  -0.095  1.00  0.00     0.005 A 
ATOM     18  C   UNL     1      -2.495  -0.767  -0.226  1.00  0.00     0.069 C 
ATOM     19  C   UNL     1      -1.087  -0.296  -0.196  1.00  0.00     0.063 A 
ATOM     20  N   UNL     1      -0.833   1.011  -0.322  1.00  0.00    -0.181 NA
ATOM     21  N   UNL     1       0.500   1.081  -0.433  1.00  0.00    -0.282 N 
ATOM     22  C   UNL     1       1.112  -0.141  -0.369  1.00  0.00     0.036 A 
ATOM     23  H   UNL     1       0.990   1.927  -0.549  1.00  0.00     0.190 HD
ATOM     24  C   UNL     1       2.564  -0.284  -0.645  1.00  0.00     0.066 C 
ENDBRANCH  16  17
ENDBRANCH  14  16
ENDBRANCH   9  14
ENDBRANCH   5   8
ENDBRANCH   3   4
ENDBRANCH   2   3
ENDBRANCH   1   2
BRANCH   1  25
ATOM     25  C   UNL     1      -3.923   2.746   3.733  1.00  0.00     0.002 C 
BRANCH  25  26
ATOM     26  C   UNL     1      -3.363   3.801   2.776  1.00  0.00     0.021 C 
BRANCH  26  27
ATOM     27  C   UNL     1      -3.989   3.786   1.383  1.00  0.00     0.116 C 
BRANCH  27  28
ATOM     28  N   UNL     1      -5.407   4.124   1.429  1.00  0.00    -0.352 N 
ATOM     29  C   UNL     1      -6.060   5.211   0.903  1.00  0.00     0.251 C 
ATOM     30  H   UNL     1      -5.979   3.480   1.906  1.00  0.00     0.163 HD
ATOM     31  O   UNL     1      -7.217   5.459   1.238  1.00  0.00    -0.269 OA
BRANCH  29  32
ATOM     32  C   UNL     1      -5.361   6.093  -0.054  1.00  0.00     0.039 A 
ATOM     33  C   UNL     1      -5.420   7.478   0.127  1.00  0.00     0.014 A 
ATOM     34  C   UNL     1      -4.639   5.552  -1.121  1.00  0.00     0.014 A 
ATOM     35  C   UNL     1      -4.683   8.316  -0.714  1.00  0.00     0.010 A 
ATOM     36  C   UNL     1      -3.855   6.384  -1.916  1.00  0.00     0.010 A 
ATOM     37  C   UNL     1      -3.857   7.773  -1.712  1.00  0.00    -0.014 A 
BRANCH  37  38
ATOM     38  C   UNL     1      -2.938   8.626  -2.510  1.00  0.00     0.031 A 
ATOM     39  C   UNL     1      -3.093   8.728  -4.002  1.00  0.00     0.074 A 
ATOM     40  C   UNL     1      -1.891   9.216  -1.897  1.00  0.00     0.049 A 
ATOM     41  N   UNL     1      -2.326   9.339  -4.868  1.00  0.00    -0.248 NA
ATOM     42  C   UNL     1      -4.247   8.040  -4.605  1.00  0.00     0.031 C 
ATOM     43  C   UNL     1      -1.594   9.136  -0.464  1.00  0.00     0.029 A 
ATOM     44  N   UNL     1      -0.858   9.966  -2.406  1.00  0.00    -0.354 N 
ATOM     45  C   UNL     1      -2.875   9.076  -6.117  1.00  0.00     0.074 A 
ATOM     46  C   UNL     1      -4.037   8.241  -5.899  1.00  0.00     0.031 C 
ATOM     47  C   UNL     1      -0.455   9.800  -0.212  1.00  0.00     0.029 A 
ATOM     48  C   UNL     1       0.084  10.316  -1.465  1.00  0.00     0.049 A 
ATOM     49  H   UNL     1      -0.798  10.227  -3.353  1.00  0.00     0.167 HD
ATOM     50  C   UNL     1      -2.457   9.502  -7.332  1.00  0.00     0.034 A 
ATOM     51  C   UNL     1       1.263  10.955  -1.599  1.00  0.00     0.034 A 
ATOM     52  C   UNL     1      -1.324  10.364  -7.541  1.00  0.00     0.049 A 
ATOM     53  C   UNL     1       1.691  11.423  -2.965  1.00  0.00     0.074 A 
ATOM     54  C   UNL     1      -0.889  10.935  -8.724  1.00  0.00     0.029 A 
ATOM     55  N   UNL     1      -0.434  10.760  -6.556  1.00  0.00    -0.354 N 
ATOM     56  N   UNL     1       1.062  11.315  -4.109  1.00  0.00    -0.248 NA
ATOM     57  C   UNL     1       2.980  12.126  -3.053  1.00  0.00     0.031 C 
ATOM     58  C   UNL     1       0.289  11.640  -8.463  1.00  0.00     0.029 A 
ATOM     59  C   UNL     1       0.565  11.542  -7.109  1.00  0.00     0.049 A 
ATOM     60  H   UNL     1      -0.503  10.521  -5.603  1.00  0.00     0.167 HD
ATOM     61  C   UNL     1       1.860  11.966  -5.044  1.00  0.00     0.074 A 
ATOM     62  C   UNL     1       3.004  12.489  -4.327  1.00  0.00     0.031 C 
ATOM     63  C   UNL     1       1.672  12.102  -6.379  1.00  0.00     0.034 A 
BRANCH  50  64
ATOM     64  C   UNL     1      -3.238   9.076  -8.546  1.00  0.00     0.023 A 
ATOM     65  C   UNL     1      -4.496   9.653  -8.807  1.00  0.00     0.012 A 
ATOM     66  C   UNL     1      -2.671   8.194  -9.488  1.00  0.00     0.148 A 
ATOM     67  C   UNL     1      -5.188   9.346  -9.979  1.00  0.00     0.002 A 
ATOM     68  C   UNL     1      -3.345   7.927 -10.673  1.00  0.00     0.091 A 
ATOM     69  F   UNL     1      -1.480   7.644  -9.210  1.00  0.00    -0.205 F 
ATOM     70  C   UNL     1      -4.607   8.495 -10.916  1.00  0.00     0.022 A 
BRANCH  68  71
ATOM     71  S   UNL     1      -2.646   6.914 -11.981  1.00  0.00     0.127 S 
ATOM     72  O   UNL     1      -3.559   5.771 -11.988  1.00  0.00    -0.237 OA
ATOM     73  O   UNL     1      -2.763   7.794 -13.144  1.00  0.00    -0.237 OA
ATOM     74  O   UNL     1      -1.281   6.613 -11.575  1.00  0.00    -0.744 OA
ENDBRANCH  68  71
ENDBRANCH  50  64
BRANCH  51  75
ATOM     75  C   UNL     1       2.123  11.215  -0.409  1.00  0.00     0.023 A 
ATOM     76  C   UNL     1       2.332  12.541   0.019  1.00  0.00     0.012 A 
ATOM     77  C   UNL     1       2.749  10.164   0.288  1.00  0.00     0.148 A 
ATOM     78  C   UNL     1       3.187  12.818   1.086  1.00  0.00     0.002 A 
ATOM     79  C   UNL     1       3.552  10.442   1.388  1.00  0.00     0.091 A 
ATOM     80  F   UNL     1       2.552   8.909  -0.141  1.00  0.00    -0.205 F 
ATOM     81  C   UNL     1       3.790  11.770   1.776  1.00  0.00     0.022 A 
BRANCH  79  82
ATOM     82  S   UNL     1       4.261   9.146   2.409  1.00  0.00     0.127 S 
ATOM     83  O   UNL     1       5.670   9.204   2.033  1.00  0.00    -0.237 OA
ATOM     84  O   UNL     1       3.962   9.624   3.760  1.00  0.00    -0.237 OA
ATOM     85  O   UNL     1       3.555   7.925   2.039  1.00  0.00    -0.744 OA
ENDBRANCH  79  82
ENDBRANCH  51  75
BRANCH  63  86
ATOM     86  C   UNL     1       2.705  12.876  -7.157  1.00  0.00     0.023 A 
ATOM     87  C   UNL     1       3.981  12.321  -7.376  1.00  0.00     0.012 A 
ATOM     88  C   UNL     1       2.386  14.124  -7.729  1.00  0.00     0.148 A 
ATOM     89  C   UNL     1       4.936  13.011  -8.122  1.00  0.00     0.002 A 
ATOM     90  C   UNL     1       3.324  14.781  -8.516  1.00  0.00     0.091 A 
ATOM     91  F   UNL     1       1.171  14.642  -7.497  1.00  0.00    -0.205 F 
ATOM     92  C   UNL     1       4.604  14.233  -8.701  1.00  0.00     0.022 A 
BRANCH  90  93
ATOM     93  S   UNL     1       2.957  16.310  -9.383  1.00  0.00     0.127 S 
ATOM     94  O   UNL     1       3.785  17.271  -8.655  1.00  0.00    -0.237 OA
ATOM     95  O   UNL     1       3.416  16.014 -10.740  1.00  0.00    -0.237 OA
ATOM     96  O   UNL     1       1.519  16.509  -9.260  1.00  0.00    -0.744 OA
ENDBRANCH  90  93
ENDBRANCH  63  86
ENDBRANCH  37  38
ENDBRANCH  29  32
ENDBRANCH  27  28
ENDBRANCH  26  27
ENDBRANCH  25  26
ENDBRANCH   1  25
TORSDOF 19
