REMARK SMILES Cc1ccc2c(c1)c(-c1ccnc3c(C)cccc13)c(C)n2CC(=O)NCCCCCCNC(=O)c1ccc(-c2c3nc(c(-c4cccc(S(=O)(=O)[O-])c4F)c4ccc([nH]4)c(-c4cccc(S(=O)(=O)[O-])c4F)c4nc(c(-c5cccc(S(=O)(=O)[O-])c5F)c5ccc2[nH]5)C=C4)C=C3)cc1
REMARK SMILES IDX 30 1 29 2 28 3 27 4 26 5 24 6 25 7 23 9 22 10 1 11 2 12 3 13
REMARK SMILES IDX 7 14 4 15 6 16 5 17 8 18 20 19 21 20 9 21 10 22 19 23 11 24
REMARK SMILES IDX 13 25 18 26 12 27 14 28 17 29 15 30 16 31 31 32 32 33 33 34
REMARK SMILES IDX 34 35 35 37 36 38 37 39 98 40 38 41 97 42 39 43 40 44 41 45
REMARK SMILES IDX 91 46 42 47 96 48 90 49 92 50 43 51 95 52 89 53 88 54 44 56
REMARK SMILES IDX 76 57 56 58 75 59 57 60 60 61 74 62 93 63 58 64 59 65 73 67
REMARK SMILES IDX 94 68 61 69 45 70 46 71 54 72 47 73 49 74 55 75 48 76 50 77
REMARK SMILES IDX 51 78 52 79 53 80 77 81 78 82 86 83 79 84 81 85 87 86 80 87
REMARK SMILES IDX 82 88 83 89 84 90 85 91 62 92 63 93 71 94 64 95 66 96 72 97
REMARK SMILES IDX 65 98 67 99 68 100 69 101 70 102
REMARK H PARENT 26 8 33 36 92 55 60 66
REMARK Flexibility Score: inf
ROOT
ATOM      1  C   UNL     1       4.066   3.165   6.576  1.00  0.00     0.002 C 
ENDROOT
BRANCH   1   2
ATOM      2  C   UNL     1       3.780   4.104   5.399  1.00  0.00     0.002 C 
BRANCH   2   3
ATOM      3  C   UNL     1       2.606   3.671   4.513  1.00  0.00     0.021 C 
BRANCH   3   4
ATOM      4  C   UNL     1       1.263   3.672   5.238  1.00  0.00     0.116 C 
BRANCH   4   5
ATOM      5  N   UNL     1       0.806   5.027   5.486  1.00  0.00    -0.355 N 
ATOM      6  C   UNL     1      -0.165   5.741   4.846  1.00  0.00     0.239 C 
ATOM      7  O   UNL     1      -0.337   6.915   5.184  1.00  0.00    -0.273 OA
ATOM      8  H   UNL     1       1.261   5.498   6.220  1.00  0.00     0.163 HD
BRANCH   6   9
ATOM      9  C   UNL     1      -1.056   5.088   3.805  1.00  0.00     0.222 C 
BRANCH   9  10
ATOM     10  N   UNL     1      -0.376   4.763   2.554  1.00  0.00    -0.335 N 
ATOM     11  C   UNL     1       0.976  -0.135   0.067  1.00  0.00     0.044 C 
ATOM     12  C   UNL     1       0.522   1.123   0.747  1.00  0.00    -0.050 A 
ATOM     13  C   UNL     1      -0.352   1.076   1.832  1.00  0.00     0.005 A 
ATOM     14  C   UNL     1       0.980   2.366   0.285  1.00  0.00     0.014 A 
ATOM     15  C   UNL     1      -0.759   2.242   2.489  1.00  0.00     0.027 A 
ATOM     16  C   UNL     1       0.593   3.557   0.938  1.00  0.00     0.008 A 
ATOM     17  C   UNL     1      -0.249   3.477   2.047  1.00  0.00     0.049 A 
ATOM     18  C   UNL     1       0.883   4.936   0.725  1.00  0.00     0.011 A 
ATOM     19  C   UNL     1       0.230   5.672   1.702  1.00  0.00     0.024 A 
ATOM     20  C   UNL     1       0.188   7.152   1.900  1.00  0.00     0.065 C 
BRANCH  18  21
ATOM     21  C   UNL     1       1.700   5.518  -0.334  1.00  0.00    -0.005 A 
ATOM     22  C   UNL     1       1.179   5.505  -1.625  1.00  0.00     0.029 A 
ATOM     23  C   UNL     1       3.004   6.025  -0.098  1.00  0.00     0.008 A 
ATOM     24  C   UNL     1       1.962   6.003  -2.640  1.00  0.00     0.112 A 
ATOM     25  C   UNL     1       3.728   6.510  -1.212  1.00  0.00     0.074 A 
ATOM     26  C   UNL     1       3.611   6.052   1.180  1.00  0.00     0.011 A 
ATOM     27  N   UNL     1       3.202   6.499  -2.456  1.00  0.00    -0.256 NA
ATOM     28  C   UNL     1       5.027   7.001  -1.005  1.00  0.00    -0.025 A 
ATOM     29  C   UNL     1       4.898   6.539   1.369  1.00  0.00     0.001 A 
ATOM     30  C   UNL     1       5.863   7.524  -2.144  1.00  0.00     0.047 C 
ATOM     31  C   UNL     1       5.606   7.011   0.277  1.00  0.00     0.005 A 
ENDBRANCH  18  21
ENDBRANCH   9  10
ENDBRANCH   6   9
ENDBRANCH   4   5
ENDBRANCH   3   4
ENDBRANCH   2   3
ENDBRANCH   1   2
BRANCH   1  32
ATOM     32  C   UNL     1       4.315   1.704   6.185  1.00  0.00     0.021 C 
BRANCH  32  33
ATOM     33  C   UNL     1       5.430   1.522   5.154  1.00  0.00     0.116 C 
BRANCH  33  34
ATOM     34  N   UNL     1       6.722   1.997   5.604  1.00  0.00    -0.352 N 
ATOM     35  C   UNL     1       7.714   1.471   6.385  1.00  0.00     0.251 C 
ATOM     36  H   UNL     1       6.933   2.900   5.274  1.00  0.00     0.163 HD
ATOM     37  O   UNL     1       8.746   2.140   6.476  1.00  0.00    -0.269 OA
BRANCH  35  38
ATOM     38  C   UNL     1       7.587   0.219   7.177  1.00  0.00     0.039 A 
ATOM     39  C   UNL     1       6.557  -0.713   7.048  1.00  0.00     0.014 A 
ATOM     40  C   UNL     1       8.561   0.017   8.173  1.00  0.00     0.014 A 
ATOM     41  C   UNL     1       6.408  -1.727   7.979  1.00  0.00     0.010 A 
ATOM     42  C   UNL     1       8.441  -1.023   9.084  1.00  0.00     0.010 A 
ATOM     43  C   UNL     1       7.326  -1.851   9.020  1.00  0.00    -0.014 A 
BRANCH  43  44
ATOM     44  C   UNL     1       7.136  -2.957   9.947  1.00  0.00     0.031 A 
ATOM     45  C   UNL     1       7.211  -4.300   9.305  1.00  0.00     0.074 A 
ATOM     46  C   UNL     1       7.005  -2.772  11.275  1.00  0.00     0.049 A 
ATOM     47  N   UNL     1       6.286  -5.202   9.223  1.00  0.00    -0.248 NA
ATOM     48  C   UNL     1       8.422  -4.607   8.525  1.00  0.00     0.031 C 
ATOM     49  C   UNL     1       7.176  -1.524  12.024  1.00  0.00     0.029 A 
ATOM     50  N   UNL     1       6.832  -3.698  12.260  1.00  0.00    -0.354 N 
ATOM     51  C   UNL     1       6.890  -6.286   8.588  1.00  0.00     0.074 A 
ATOM     52  C   UNL     1       8.125  -5.806   8.025  1.00  0.00     0.031 C 
ATOM     53  C   UNL     1       7.369  -1.815  13.330  1.00  0.00     0.029 A 
ATOM     54  C   UNL     1       7.207  -3.243  13.524  1.00  0.00     0.049 A 
ATOM     55  H   UNL     1       6.477  -4.601  12.095  1.00  0.00     0.167 HD
ATOM     56  C   UNL     1       6.482  -7.566   8.798  1.00  0.00     0.034 A 
ATOM     57  C   UNL     1       7.463  -4.015  14.611  1.00  0.00     0.034 A 
ATOM     58  C   UNL     1       5.162  -7.645   9.349  1.00  0.00     0.049 A 
ATOM     59  C   UNL     1       6.805  -5.321  14.369  1.00  0.00     0.074 A 
ATOM     60  C   UNL     1       3.909  -7.229   8.946  1.00  0.00     0.029 A 
ATOM     61  N   UNL     1       5.065  -7.901  10.693  1.00  0.00    -0.354 N 
ATOM     62  N   UNL     1       5.514  -5.484  14.296  1.00  0.00    -0.248 NA
ATOM     63  C   UNL     1       7.609  -6.394  13.808  1.00  0.00     0.031 C 
ATOM     64  C   UNL     1       3.265  -6.800  10.143  1.00  0.00     0.029 A 
ATOM     65  C   UNL     1       4.141  -7.030  11.205  1.00  0.00     0.049 A 
ATOM     66  H   UNL     1       5.566  -8.583  11.196  1.00  0.00     0.167 HD
ATOM     67  C   UNL     1       5.346  -6.439  13.304  1.00  0.00     0.074 A 
ATOM     68  C   UNL     1       6.665  -7.037  13.119  1.00  0.00     0.031 C 
ATOM     69  C   UNL     1       4.225  -6.453  12.527  1.00  0.00     0.034 A 
BRANCH  56  70
ATOM     70  C   UNL     1       7.445  -8.720   8.860  1.00  0.00     0.023 A 
ATOM     71  C   UNL     1       6.949 -10.031   8.730  1.00  0.00     0.012 A 
ATOM     72  C   UNL     1       8.782  -8.572   9.300  1.00  0.00     0.148 A 
ATOM     73  C   UNL     1       7.754 -11.142   9.012  1.00  0.00     0.002 A 
ATOM     74  C   UNL     1       9.602  -9.674   9.491  1.00  0.00     0.091 A 
ATOM     75  F   UNL     1       9.225  -7.365   9.671  1.00  0.00    -0.205 F 
ATOM     76  C   UNL     1       9.087 -10.965   9.370  1.00  0.00     0.022 A 
BRANCH  74  77
ATOM     77  S   UNL     1      11.339  -9.477   9.896  1.00  0.00     0.127 S 
ATOM     78  O   UNL     1      11.346  -9.827  11.318  1.00  0.00    -0.237 OA
ATOM     79  O   UNL     1      11.964 -10.467   9.014  1.00  0.00    -0.237 OA
ATOM     80  O   UNL     1      11.658  -8.101   9.568  1.00  0.00    -0.744 OA
ENDBRANCH  74  77
ENDBRANCH  56  70
BRANCH  57  81
ATOM     81  C   UNL     1       8.474  -3.851  15.691  1.00  0.00     0.023 A 
ATOM     82  C   UNL     1       8.419  -4.715  16.808  1.00  0.00     0.012 A 
ATOM     83  C   UNL     1       9.649  -3.089  15.510  1.00  0.00     0.148 A 
ATOM     84  C   UNL     1       9.515  -4.867  17.667  1.00  0.00     0.002 A 
ATOM     85  C   UNL     1      10.731  -3.231  16.377  1.00  0.00     0.091 A 
ATOM     86  F   UNL     1       9.756  -2.298  14.436  1.00  0.00    -0.205 F 
ATOM     87  C   UNL     1      10.676  -4.135  17.444  1.00  0.00     0.022 A 
BRANCH  85  88
ATOM     88  S   UNL     1      12.261  -2.312  16.148  1.00  0.00     0.127 S 
ATOM     89  O   UNL     1      12.579  -1.901  17.517  1.00  0.00    -0.237 OA
ATOM     90  O   UNL     1      13.148  -3.331  15.594  1.00  0.00    -0.237 OA
ATOM     91  O   UNL     1      11.926  -1.207  15.259  1.00  0.00    -0.744 OA
ENDBRANCH  85  88
ENDBRANCH  57  81
BRANCH  69  92
ATOM     92  C   UNL     1       3.063  -5.590  12.941  1.00  0.00     0.023 A 
ATOM     93  C   UNL     1       3.105  -4.182  12.861  1.00  0.00     0.012 A 
ATOM     94  C   UNL     1       1.841  -6.226  13.207  1.00  0.00     0.148 A 
ATOM     95  C   UNL     1       1.944  -3.425  13.046  1.00  0.00     0.002 A 
ATOM     96  C   UNL     1       0.683  -5.474  13.349  1.00  0.00     0.091 A 
ATOM     97  F   UNL     1       1.828  -7.567  13.265  1.00  0.00    -0.205 F 
ATOM     98  C   UNL     1       0.730  -4.072  13.273  1.00  0.00     0.022 A 
BRANCH  96  99
ATOM     99  S   UNL     1      -0.927  -6.244  13.524  1.00  0.00     0.127 S 
ATOM    100  O   UNL     1      -1.308  -5.851  14.879  1.00  0.00    -0.237 OA
ATOM    101  O   UNL     1      -1.695  -5.596  12.460  1.00  0.00    -0.237 OA
ATOM    102  O   UNL     1      -0.719  -7.673  13.328  1.00  0.00    -0.744 OA
ENDBRANCH  96  99
ENDBRANCH  69  92
ENDBRANCH  43  44
ENDBRANCH  35  38
ENDBRANCH  33  34
ENDBRANCH  32  33
ENDBRANCH   1  32
TORSDOF 18
