REMARK SMILES C[C@@H](C(=O)NCCCCCCNC(=O)c1ccc(-c2c3nc(c(-c4cccc(S(=O)(=O)[O-])c4F)c4ccc([nH]4)c(-c4cccc(S(=O)(=O)[O-])c4F)c4nc(c(-c5cccc(S(=O)(=O)[O-])c5F)c5ccc2[nH]5)C=C4)C=C3)cc1)c1cc(/C=C/S(C)(=O)=O)cc(C(=O)c2ccccc2)c1
REMARK SMILES IDX 8 1 7 2 6 3 5 4 3 5 4 6 2 8 1 9 78 10 79 11 97 12 80 13
REMARK SMILES IDX 88 14 87 15 81 16 82 17 83 18 84 19 85 20 86 21 89 22 90 23
REMARK SMILES IDX 91 24 92 25 96 26 93 27 95 28 94 29 9 30 10 31 11 32 12 33
REMARK SMILES IDX 13 34 14 36 15 37 16 38 77 39 17 40 76 41 18 42 19 43 20 44
REMARK SMILES IDX 70 45 21 46 75 47 69 48 71 49 22 50 74 51 68 52 67 53 23 55
REMARK SMILES IDX 55 56 35 57 54 58 36 59 39 60 53 61 72 62 37 63 38 64 52 66
REMARK SMILES IDX 73 67 40 68 24 69 25 70 33 71 26 72 28 73 34 74 27 75 29 76
REMARK SMILES IDX 30 77 31 78 32 79 56 80 57 81 65 82 58 83 60 84 66 85 59 86
REMARK SMILES IDX 61 87 62 88 63 89 64 90 41 91 42 92 50 93 43 94 45 95 51 96
REMARK SMILES IDX 44 97 46 98 47 99 48 100 49 101
REMARK H PARENT 5 7 12 35 71 54 39 65
REMARK Flexibility Score: inf
ROOT
ATOM      1  C   UNL     1       5.030   0.762  -2.671  1.00  0.00     0.002 C 
ENDROOT
BRANCH   1   2
ATOM      2  C   UNL     1       4.259   0.572  -1.359  1.00  0.00     0.021 C 
BRANCH   2   3
ATOM      3  C   UNL     1       3.458   1.808  -0.944  1.00  0.00     0.116 C 
BRANCH   3   4
ATOM      4  N   UNL     1       2.355   2.012  -1.861  1.00  0.00    -0.356 N 
ATOM      5  C   UNL     1       1.043   1.664  -1.723  1.00  0.00     0.227 C 
ATOM      6  O   UNL     1       0.323   1.759  -2.718  1.00  0.00    -0.274 OA
ATOM      7  H   UNL     1       2.585   2.467  -2.703  1.00  0.00     0.163 HD
BRANCH   5   8
ATOM      8  C   UNL     1       0.520   1.237  -0.346  1.00  0.00     0.105 C 
ATOM      9  C   UNL     1       1.056  -0.138   0.088  1.00  0.00     0.023 C 
BRANCH   8  10
ATOM     10  C   UNL     1      -1.005   1.292  -0.281  1.00  0.00    -0.035 A 
ATOM     11  C   UNL     1      -1.662   2.510  -0.050  1.00  0.00     0.012 A 
ATOM     12  C   UNL     1      -1.777   0.138  -0.428  1.00  0.00     0.016 A 
ATOM     13  C   UNL     1      -3.058   2.575   0.101  1.00  0.00    -0.024 A 
ATOM     14  C   UNL     1      -3.150   0.154  -0.186  1.00  0.00     0.023 A 
ATOM     15  C   UNL     1      -3.792   1.375   0.054  1.00  0.00     0.020 A 
BRANCH  13  16
ATOM     16  C   UNL     1      -3.777   3.840   0.358  1.00  0.00     0.020 C 
ATOM     17  C   UNL     1      -3.212   5.057   0.415  1.00  0.00     0.106 C 
BRANCH  17  18
ATOM     18  S   UNL     1      -4.171   6.457   0.785  1.00  0.00     0.168 S 
ATOM     19  C   UNL     1      -3.340   7.074   2.229  1.00  0.00     0.163 C 
ATOM     20  O   UNL     1      -3.976   7.436  -0.269  1.00  0.00    -0.225 OA
ATOM     21  O   UNL     1      -5.508   6.071   1.192  1.00  0.00    -0.225 OA
ENDBRANCH  17  18
ENDBRANCH  13  16
BRANCH  14  22
ATOM     22  C   UNL     1      -3.920  -1.126  -0.163  1.00  0.00     0.193 C 
ATOM     23  O   UNL     1      -5.140  -1.123  -0.279  1.00  0.00    -0.289 OA
BRANCH  22  24
ATOM     24  C   UNL     1      -3.203  -2.423  -0.019  1.00  0.00     0.022 A 
ATOM     25  C   UNL     1      -3.442  -3.426  -0.961  1.00  0.00     0.012 A 
ATOM     26  C   UNL     1      -2.256  -2.624   0.996  1.00  0.00     0.012 A 
ATOM     27  C   UNL     1      -2.697  -4.607  -0.920  1.00  0.00     0.001 A 
ATOM     28  C   UNL     1      -1.508  -3.803   1.027  1.00  0.00     0.001 A 
ATOM     29  C   UNL     1      -1.725  -4.789   0.065  1.00  0.00     0.000 A 
ENDBRANCH  22  24
ENDBRANCH  14  22
ENDBRANCH   8  10
ENDBRANCH   5   8
ENDBRANCH   3   4
ENDBRANCH   2   3
ENDBRANCH   1   2
BRANCH   1  30
ATOM     30  C   UNL     1       6.013   1.937  -2.663  1.00  0.00     0.002 C 
BRANCH  30  31
ATOM     31  C   UNL     1       7.039   1.897  -1.528  1.00  0.00     0.021 C 
BRANCH  31  32
ATOM     32  C   UNL     1       7.933   0.662  -1.541  1.00  0.00     0.116 C 
BRANCH  32  33
ATOM     33  N   UNL     1       8.742   0.600  -2.748  1.00  0.00    -0.352 N 
ATOM     34  C   UNL     1      10.104   0.506  -2.873  1.00  0.00     0.251 C 
ATOM     35  H   UNL     1       8.241   0.629  -3.595  1.00  0.00     0.163 HD
ATOM     36  O   UNL     1      10.635   0.701  -3.962  1.00  0.00    -0.269 OA
BRANCH  34  37
ATOM     37  C   UNL     1      10.927   0.181  -1.689  1.00  0.00     0.039 A 
ATOM     38  C   UNL     1      12.111   0.889  -1.473  1.00  0.00     0.014 A 
ATOM     39  C   UNL     1      10.535  -0.825  -0.800  1.00  0.00     0.014 A 
ATOM     40  C   UNL     1      12.876   0.621  -0.337  1.00  0.00     0.010 A 
ATOM     41  C   UNL     1      11.256  -1.033   0.372  1.00  0.00     0.010 A 
ATOM     42  C   UNL     1      12.441  -0.321   0.611  1.00  0.00    -0.014 A 
BRANCH  42  43
ATOM     43  C   UNL     1      13.213  -0.567   1.856  1.00  0.00     0.031 A 
ATOM     44  C   UNL     1      13.799  -1.926   2.133  1.00  0.00     0.074 A 
ATOM     45  C   UNL     1      13.336   0.420   2.766  1.00  0.00     0.049 A 
ATOM     46  N   UNL     1      14.472  -2.335   3.177  1.00  0.00    -0.248 NA
ATOM     47  C   UNL     1      13.579  -2.970   1.117  1.00  0.00     0.031 C 
ATOM     48  C   UNL     1      12.749   1.757   2.650  1.00  0.00     0.029 A 
ATOM     49  N   UNL     1      13.977   0.445   3.980  1.00  0.00    -0.354 N 
ATOM     50  C   UNL     1      14.739  -3.681   2.955  1.00  0.00     0.074 A 
ATOM     51  C   UNL     1      14.113  -4.033   1.700  1.00  0.00     0.031 C 
ATOM     52  C   UNL     1      13.062   2.472   3.742  1.00  0.00     0.029 A 
ATOM     53  C   UNL     1      13.841   1.638   4.651  1.00  0.00     0.049 A 
ATOM     54  H   UNL     1      14.486  -0.319   4.336  1.00  0.00     0.167 HD
ATOM     55  C   UNL     1      15.470  -4.538   3.707  1.00  0.00     0.034 A 
ATOM     56  C   UNL     1      14.283   2.014   5.867  1.00  0.00     0.034 A 
ATOM     57  C   UNL     1      16.113  -4.178   4.942  1.00  0.00     0.049 A 
ATOM     58  C   UNL     1      15.103   1.046   6.676  1.00  0.00     0.074 A 
ATOM     59  C   UNL     1      16.923  -4.958   5.750  1.00  0.00     0.029 A 
ATOM     60  N   UNL     1      16.014  -2.938   5.554  1.00  0.00    -0.354 N 
ATOM     61  N   UNL     1      15.464  -0.179   6.380  1.00  0.00    -0.248 NA
ATOM     62  C   UNL     1      15.611   1.525   7.969  1.00  0.00     0.031 C 
ATOM     63  C   UNL     1      17.291  -4.197   6.864  1.00  0.00     0.029 A 
ATOM     64  C   UNL     1      16.743  -2.932   6.731  1.00  0.00     0.049 A 
ATOM     65  H   UNL     1      15.502  -2.175   5.203  1.00  0.00     0.167 HD
ATOM     66  C   UNL     1      16.273  -0.602   7.429  1.00  0.00     0.074 A 
ATOM     67  C   UNL     1      16.368   0.508   8.355  1.00  0.00     0.031 C 
ATOM     68  C   UNL     1      16.872  -1.804   7.617  1.00  0.00     0.034 A 
BRANCH  55  69
ATOM     69  C   UNL     1      15.662  -5.939   3.183  1.00  0.00     0.023 A 
ATOM     70  C   UNL     1      16.473  -6.151   2.049  1.00  0.00     0.012 A 
ATOM     71  C   UNL     1      15.097  -7.048   3.842  1.00  0.00     0.148 A 
ATOM     72  C   UNL     1      16.688  -7.437   1.556  1.00  0.00     0.002 A 
ATOM     73  C   UNL     1      15.355  -8.331   3.374  1.00  0.00     0.091 A 
ATOM     74  F   UNL     1      14.315  -6.828   4.909  1.00  0.00    -0.205 F 
ATOM     75  C   UNL     1      16.139  -8.527   2.225  1.00  0.00     0.022 A 
BRANCH  73  76
ATOM     76  S   UNL     1      14.762  -9.808   4.207  1.00  0.00     0.127 S 
ATOM     77  O   UNL     1      13.799 -10.327   3.236  1.00  0.00    -0.237 OA
ATOM     78  O   UNL     1      15.985 -10.599   4.336  1.00  0.00    -0.237 OA
ATOM     79  O   UNL     1      14.190  -9.358   5.468  1.00  0.00    -0.744 OA
ENDBRANCH  73  76
ENDBRANCH  55  69
BRANCH  56  80
ATOM     80  C   UNL     1      13.996   3.384   6.380  1.00  0.00     0.023 A 
ATOM     81  C   UNL     1      15.050   4.304   6.544  1.00  0.00     0.012 A 
ATOM     82  C   UNL     1      12.685   3.779   6.708  1.00  0.00     0.148 A 
ATOM     83  C   UNL     1      14.811   5.574   7.071  1.00  0.00     0.002 A 
ATOM     84  C   UNL     1      12.445   5.066   7.174  1.00  0.00     0.091 A 
ATOM     85  F   UNL     1      11.695   2.888   6.554  1.00  0.00    -0.205 F 
ATOM     86  C   UNL     1      13.509   5.958   7.378  1.00  0.00     0.022 A 
BRANCH  84  87
ATOM     87  S   UNL     1      10.785   5.686   7.465  1.00  0.00     0.127 S 
ATOM     88  O   UNL     1      10.742   5.756   8.923  1.00  0.00    -0.237 OA
ATOM     89  O   UNL     1      10.822   6.981   6.786  1.00  0.00    -0.237 OA
ATOM     90  O   UNL     1       9.889   4.715   6.851  1.00  0.00    -0.744 OA
ENDBRANCH  84  87
ENDBRANCH  56  80
BRANCH  68  91
ATOM     91  C   UNL     1      17.727  -1.971   8.846  1.00  0.00     0.023 A 
ATOM     92  C   UNL     1      17.130  -2.039  10.121  1.00  0.00     0.012 A 
ATOM     93  C   UNL     1      19.124  -2.119   8.729  1.00  0.00     0.148 A 
ATOM     94  C   UNL     1      17.912  -2.209  11.262  1.00  0.00     0.002 A 
ATOM     95  C   UNL     1      19.891  -2.344   9.865  1.00  0.00     0.091 A 
ATOM     96  F   UNL     1      19.676  -2.035   7.510  1.00  0.00    -0.205 F 
ATOM     97  C   UNL     1      19.289  -2.373  11.134  1.00  0.00     0.022 A 
BRANCH  95  98
ATOM     98  S   UNL     1      21.656  -2.664   9.788  1.00  0.00     0.127 S 
ATOM     99  O   UNL     1      22.206  -1.437  10.361  1.00  0.00    -0.237 OA
ATOM    100  O   UNL     1      21.792  -3.848  10.637  1.00  0.00    -0.237 OA
ATOM    101  O   UNL     1      21.964  -2.889   8.383  1.00  0.00    -0.744 OA
ENDBRANCH  95  98
ENDBRANCH  68  91
ENDBRANCH  42  43
ENDBRANCH  34  37
ENDBRANCH  32  33
ENDBRANCH  31  32
ENDBRANCH  30  31
ENDBRANCH   1  30
TORSDOF 21
