REMARK SMILES C[C@H](NC(=O)[C@@H]1CCCN(S(=O)(=O)c2ccc(Cl)cc2)C1)C(=O)NCCCCCCNC(=O)c1ccc(-c2c3nc(c(-c4cccc(S(=O)(=O)[O-])c4F)c4ccc([nH]4)c(-c4cccc(S(=O)(=O)[O-])c4F)c4nc(c(-c5cccc(S(=O)(=O)[O-])c5F)c5ccc2[nH]5)C=C4)C=C3)cc1
REMARK SMILES IDX 27 1 26 2 25 3 24 4 22 5 23 6 2 8 1 9 3 10 4 11 5 13 6 14
REMARK SMILES IDX 7 15 21 16 8 17 10 18 9 19 11 20 12 21 13 22 14 23 15 24
REMARK SMILES IDX 20 25 16 26 19 27 17 28 18 29 28 30 29 31 30 32 31 33 32 34
REMARK SMILES IDX 33 36 34 37 35 38 96 39 36 40 95 41 37 42 38 43 39 44 89 45
REMARK SMILES IDX 40 46 94 47 88 48 90 49 41 50 93 51 87 52 86 53 42 55 74 56
REMARK SMILES IDX 54 57 73 58 55 59 58 60 72 61 91 62 56 63 57 64 71 66 92 67
REMARK SMILES IDX 59 68 43 69 44 70 52 71 45 72 47 73 53 74 46 75 48 76 49 77
REMARK SMILES IDX 50 78 51 79 75 80 76 81 84 82 77 83 79 84 85 85 78 86 80 87
REMARK SMILES IDX 81 88 82 89 83 90 60 91 61 92 69 93 62 94 64 95 70 96 63 97
REMARK SMILES IDX 65 98 66 99 67 100 68 101
REMARK H PARENT 24 7 3 12 31 35 90 54 58 65
REMARK Flexibility Score: inf
ROOT
ATOM      1  C   UNL     1      -3.172  -0.599   3.338  1.00  0.00     0.002 C 
ENDROOT
BRANCH   1   2
ATOM      2  C   UNL     1      -1.729  -0.468   2.833  1.00  0.00     0.021 C 
BRANCH   2   3
ATOM      3  C   UNL     1      -1.418  -1.000   1.442  1.00  0.00     0.116 C 
BRANCH   3   4
ATOM      4  N   UNL     1      -1.670  -0.145   0.301  1.00  0.00    -0.354 N 
ATOM      5  C   UNL     1      -0.969  -0.187  -0.889  1.00  0.00     0.242 C 
ATOM      6  O   UNL     1      -1.619   0.004  -1.924  1.00  0.00    -0.273 OA
ATOM      7  H   UNL     1      -2.394   0.517   0.379  1.00  0.00     0.163 HD
BRANCH   5   8
ATOM      8  C   UNL     1       0.596  -0.118  -0.903  1.00  0.00     0.168 C 
ATOM      9  C   UNL     1       1.260  -0.292  -2.273  1.00  0.00     0.041 C 
BRANCH   8  10
ATOM     10  N   UNL     1       1.412  -0.605   0.210  1.00  0.00    -0.344 N 
ATOM     11  C   UNL     1       1.837  -1.766   0.745  1.00  0.00     0.225 C 
ATOM     12  H   UNL     1       1.758   0.154   0.732  1.00  0.00     0.164 HD
ATOM     13  O   UNL     1       2.488  -1.601   1.790  1.00  0.00    -0.275 OA
BRANCH  11  14
ATOM     14  C   UNL     1       1.568  -3.206   0.288  1.00  0.00     0.094 C 
ATOM     15  C   UNL     1       1.947  -3.586  -1.136  1.00  0.00     0.016 C 
ATOM     16  C   UNL     1       0.275  -3.866   0.802  1.00  0.00     0.116 C 
ATOM     17  C   UNL     1       0.758  -3.721  -2.080  1.00  0.00     0.018 C 
ATOM     18  N   UNL     1      -0.832  -3.889  -0.228  1.00  0.00    -0.197 NA
ATOM     19  C   UNL     1      -0.353  -4.553  -1.475  1.00  0.00     0.102 C 
BRANCH  18  20
ATOM     20  S   UNL     1      -2.287  -4.639   0.357  1.00  0.00     0.243 S 
ATOM     21  O   UNL     1      -2.259  -6.035  -0.019  1.00  0.00    -0.207 OA
ATOM     22  O   UNL     1      -2.455  -4.251   1.740  1.00  0.00    -0.207 OA
BRANCH  20  23
ATOM     23  C   UNL     1      -3.620  -3.858  -0.569  1.00  0.00     0.082 A 
ATOM     24  C   UNL     1      -4.153  -4.489  -1.691  1.00  0.00     0.023 A 
ATOM     25  C   UNL     1      -4.285  -2.742  -0.047  1.00  0.00     0.023 A 
ATOM     26  C   UNL     1      -5.335  -4.002  -2.270  1.00  0.00     0.022 A 
ATOM     27  C   UNL     1      -5.479  -2.273  -0.597  1.00  0.00     0.022 A 
ATOM     28  C   UNL     1      -6.003  -2.910  -1.710  1.00  0.00     0.041 A 
ATOM     29  Cl  UNL     1      -7.490  -2.363  -2.378  1.00  0.00    -0.084 Cl
ENDBRANCH  20  23
ENDBRANCH  18  20
ENDBRANCH  11  14
ENDBRANCH   8  10
ENDBRANCH   5   8
ENDBRANCH   3   4
ENDBRANCH   2   3
ENDBRANCH   1   2
BRANCH   1  30
ATOM     30  C   UNL     1      -3.764  -1.997   3.573  1.00  0.00     0.002 C 
BRANCH  30  31
ATOM     31  C   UNL     1      -2.979  -2.972   4.439  1.00  0.00     0.021 C 
BRANCH  31  32
ATOM     32  C   UNL     1      -3.142  -2.717   5.922  1.00  0.00     0.116 C 
BRANCH  32  33
ATOM     33  N   UNL     1      -4.516  -2.965   6.364  1.00  0.00    -0.352 N 
ATOM     34  C   UNL     1      -5.037  -3.986   7.122  1.00  0.00     0.251 C 
ATOM     35  H   UNL     1      -5.171  -2.291   6.072  1.00  0.00     0.163 HD
ATOM     36  O   UNL     1      -6.252  -4.167   7.153  1.00  0.00    -0.269 OA
BRANCH  34  37
ATOM     37  C   UNL     1      -4.136  -4.851   7.912  1.00  0.00     0.039 A 
ATOM     38  C   UNL     1      -4.444  -6.199   8.115  1.00  0.00     0.014 A 
ATOM     39  C   UNL     1      -2.987  -4.308   8.483  1.00  0.00     0.014 A 
ATOM     40  C   UNL     1      -3.577  -6.997   8.868  1.00  0.00     0.010 A 
ATOM     41  C   UNL     1      -2.050  -5.133   9.075  1.00  0.00     0.010 A 
ATOM     42  C   UNL     1      -2.366  -6.468   9.343  1.00  0.00    -0.014 A 
BRANCH  42  43
ATOM     43  C   UNL     1      -1.445  -7.234  10.215  1.00  0.00     0.031 A 
ATOM     44  C   UNL     1      -1.095  -6.683  11.579  1.00  0.00     0.074 A 
ATOM     45  C   UNL     1      -0.847  -8.346   9.749  1.00  0.00     0.049 A 
ATOM     46  N   UNL     1      -0.238  -7.131  12.457  1.00  0.00    -0.248 NA
ATOM     47  C   UNL     1      -1.742  -5.418  11.980  1.00  0.00     0.031 C 
ATOM     48  C   UNL     1      -1.019  -8.906   8.406  1.00  0.00     0.029 A 
ATOM     49  N   UNL     1       0.041  -9.197  10.352  1.00  0.00    -0.354 N 
ATOM     50  C   UNL     1      -0.188  -6.168  13.461  1.00  0.00     0.074 A 
ATOM     51  C   UNL     1      -1.047  -5.082  13.054  1.00  0.00     0.031 C 
ATOM     52  C   UNL     1      -0.293 -10.031   8.303  1.00  0.00     0.029 A 
ATOM     53  C   UNL     1       0.411 -10.258   9.560  1.00  0.00     0.049 A 
ATOM     54  H   UNL     1       0.381  -9.062  11.266  1.00  0.00     0.167 HD
ATOM     55  C   UNL     1       0.468  -6.206  14.644  1.00  0.00     0.034 A 
ATOM     56  C   UNL     1       1.209 -11.306   9.837  1.00  0.00     0.034 A 
ATOM     57  C   UNL     1       1.211  -7.351  15.087  1.00  0.00     0.049 A 
ATOM     58  C   UNL     1       1.809 -11.402  11.214  1.00  0.00     0.074 A 
ATOM     59  C   UNL     1       1.790  -7.583  16.319  1.00  0.00     0.029 A 
ATOM     60  N   UNL     1       1.457  -8.472  14.307  1.00  0.00    -0.354 N 
ATOM     61  N   UNL     1       1.704 -10.568  12.221  1.00  0.00    -0.248 NA
ATOM     62  C   UNL     1       2.601 -12.604  11.507  1.00  0.00     0.031 C 
ATOM     63  C   UNL     1       2.396  -8.844  16.281  1.00  0.00     0.029 A 
ATOM     64  C   UNL     1       2.181  -9.401  15.028  1.00  0.00     0.049 A 
ATOM     65  H   UNL     1       1.159  -8.588  13.376  1.00  0.00     0.167 HD
ATOM     66  C   UNL     1       2.389 -11.155  13.277  1.00  0.00     0.074 A 
ATOM     67  C   UNL     1       2.880 -12.431  12.792  1.00  0.00     0.031 C 
ATOM     68  C   UNL     1       2.613 -10.681  14.529  1.00  0.00     0.034 A 
BRANCH  55  69
ATOM     69  C   UNL     1       0.338  -5.014  15.559  1.00  0.00     0.023 A 
ATOM     70  C   UNL     1      -0.907  -4.720  16.157  1.00  0.00     0.012 A 
ATOM     71  C   UNL     1       1.444  -4.188  15.838  1.00  0.00     0.148 A 
ATOM     72  C   UNL     1      -1.063  -3.597  16.968  1.00  0.00     0.002 A 
ATOM     73  C   UNL     1       1.293  -3.099  16.691  1.00  0.00     0.091 A 
ATOM     74  F   UNL     1       2.615  -4.462  15.246  1.00  0.00    -0.205 F 
ATOM     75  C   UNL     1       0.038  -2.792  17.242  1.00  0.00     0.022 A 
BRANCH  73  76
ATOM     76  S   UNL     1       2.670  -2.051  17.174  1.00  0.00     0.127 S 
ATOM     77  O   UNL     1       2.404  -0.838  16.404  1.00  0.00    -0.237 OA
ATOM     78  O   UNL     1       2.462  -1.914  18.617  1.00  0.00    -0.237 OA
ATOM     79  O   UNL     1       3.875  -2.781  16.804  1.00  0.00    -0.744 OA
ENDBRANCH  73  76
ENDBRANCH  55  69
BRANCH  56  80
ATOM     80  C   UNL     1       1.362 -12.405   8.842  1.00  0.00     0.023 A 
ATOM     81  C   UNL     1       0.725 -13.638   9.090  1.00  0.00     0.012 A 
ATOM     82  C   UNL     1       2.074 -12.231   7.640  1.00  0.00     0.148 A 
ATOM     83  C   UNL     1       0.817 -14.686   8.174  1.00  0.00     0.002 A 
ATOM     84  C   UNL     1       2.120 -13.264   6.708  1.00  0.00     0.091 A 
ATOM     85  F   UNL     1       2.678 -11.054   7.424  1.00  0.00    -0.205 F 
ATOM     86  C   UNL     1       1.505 -14.496   6.979  1.00  0.00     0.022 A 
BRANCH  84  87
ATOM     87  S   UNL     1       2.874 -13.070   5.088  1.00  0.00     0.127 S 
ATOM     88  O   UNL     1       4.074 -13.892   5.216  1.00  0.00    -0.237 OA
ATOM     89  O   UNL     1       1.843 -13.618   4.205  1.00  0.00    -0.237 OA
ATOM     90  O   UNL     1       3.100 -11.639   4.929  1.00  0.00    -0.744 OA
ENDBRANCH  84  87
ENDBRANCH  56  80
BRANCH  68  91
ATOM     91  C   UNL     1       3.408 -11.552  15.461  1.00  0.00     0.023 A 
ATOM     92  C   UNL     1       4.795 -11.698  15.262  1.00  0.00     0.012 A 
ATOM     93  C   UNL     1       2.796 -12.169  16.569  1.00  0.00     0.148 A 
ATOM     94  C   UNL     1       5.555 -12.478  16.131  1.00  0.00     0.002 A 
ATOM     95  C   UNL     1       3.570 -12.904  17.459  1.00  0.00     0.091 A 
ATOM     96  F   UNL     1       1.472 -12.034  16.730  1.00  0.00    -0.205 F 
ATOM     97  C   UNL     1       4.946 -13.071  17.234  1.00  0.00     0.022 A 
BRANCH  95  98
ATOM     98  S   UNL     1       2.879 -13.610  18.959  1.00  0.00     0.127 S 
ATOM     99  O   UNL     1       2.712 -15.012  18.579  1.00  0.00    -0.237 OA
ATOM    100  O   UNL     1       3.938 -13.365  19.939  1.00  0.00    -0.237 OA
ATOM    101  O   UNL     1       1.648 -12.873  19.212  1.00  0.00    -0.744 OA
ENDBRANCH  95  98
ENDBRANCH  68  91
ENDBRANCH  42  43
ENDBRANCH  34  37
ENDBRANCH  32  33
ENDBRANCH  31  32
ENDBRANCH  30  31
ENDBRANCH   1  30
TORSDOF 20
