REMARK SMILES O=C(NCCCCCCNC(=O)[C@@H]1CCCC[C@@H]1C(=O)Nc1ccccc1C(=O)N1CCN(c2ccc(F)cc2)CC1)c1ccc(-c2c3nc(c(-c4cccc(S(=O)(=O)[O-])c4F)c4ccc([nH]4)c(-c4cccc(S(=O)(=O)[O-])c4F)c4nc(c(-c5cccc(S(=O)(=O)[O-])c5F)c5ccc2[nH]5)C=C4)C=C3)cc1
REMARK SMILES IDX 7 1 6 2 5 3 4 4 3 5 1 6 2 7 43 9 44 10 105 11 45 12 104 13
REMARK SMILES IDX 46 14 47 15 48 16 98 17 49 18 103 19 97 20 99 21 50 22
REMARK SMILES IDX 102 23 96 24 95 25 51 27 83 28 63 29 82 30 64 31 67 32 81 33
REMARK SMILES IDX 100 34 65 35 66 36 80 38 101 39 68 40 52 41 53 42 61 43
REMARK SMILES IDX 54 44 56 45 62 46 55 47 57 48 58 49 59 50 60 51 84 52 85 53
REMARK SMILES IDX 93 54 86 55 88 56 94 57 87 58 89 59 90 60 91 61 92 62 69 63
REMARK SMILES IDX 70 64 78 65 71 66 73 67 79 68 72 69 74 70 75 71 76 72 77 73
REMARK SMILES IDX 8 74 9 75 10 76 11 77 12 79 13 80 14 81 18 82 15 83 17 84
REMARK SMILES IDX 16 85 19 86 20 87 21 88 22 90 23 91 27 92 24 93 26 94 25 95
REMARK SMILES IDX 28 96 29 97 30 98 31 99 42 100 32 101 41 102 33 103 34 104
REMARK SMILES IDX 35 105 40 106 36 107 39 108 37 109 38 110
REMARK H PARENT 3 8 99 26 67 37 10 78 21 89
REMARK Flexibility Score: inf
ROOT
ATOM      1  C   UNL     1       4.791  -3.776   0.824  1.00  0.00     0.002 C 
ENDROOT
BRANCH   1   2
ATOM      2  C   UNL     1       4.592  -2.820   1.997  1.00  0.00     0.002 C 
BRANCH   2   3
ATOM      3  C   UNL     1       5.030  -1.373   1.783  1.00  0.00     0.021 C 
BRANCH   3   4
ATOM      4  C   UNL     1       4.532  -0.734   0.499  1.00  0.00     0.116 C 
BRANCH   4   5
ATOM      5  N   UNL     1       3.089  -0.783   0.346  1.00  0.00    -0.352 N 
ATOM      6  O   UNL     1       1.053  -0.002  -0.238  1.00  0.00    -0.269 OA
ATOM      7  C   UNL     1       2.268   0.154  -0.236  1.00  0.00     0.251 C 
ATOM      8  H   UNL     1       2.644  -1.585   0.703  1.00  0.00     0.163 HD
BRANCH   7   9
ATOM      9  C   UNL     1       2.881   1.375  -0.802  1.00  0.00     0.039 A 
ATOM     10  C   UNL     1       3.984   1.286  -1.655  1.00  0.00     0.014 A 
ATOM     11  C   UNL     1       2.389   2.619  -0.404  1.00  0.00     0.014 A 
ATOM     12  C   UNL     1       4.691   2.435  -1.984  1.00  0.00     0.010 A 
ATOM     13  C   UNL     1       3.049   3.779  -0.812  1.00  0.00     0.010 A 
ATOM     14  C   UNL     1       4.226   3.694  -1.572  1.00  0.00    -0.014 A 
BRANCH  14  15
ATOM     15  C   UNL     1       4.946   4.921  -1.994  1.00  0.00     0.031 A 
ATOM     16  C   UNL     1       5.561   5.847  -0.983  1.00  0.00     0.074 A 
ATOM     17  C   UNL     1       5.013   5.205  -3.308  1.00  0.00     0.049 A 
ATOM     18  N   UNL     1       6.162   6.992  -1.177  1.00  0.00    -0.248 NA
ATOM     19  C   UNL     1       5.484   5.445   0.432  1.00  0.00     0.031 C 
ATOM     20  C   UNL     1       4.421   4.392  -4.373  1.00  0.00     0.029 A 
ATOM     21  N   UNL     1       5.592   6.254  -3.974  1.00  0.00    -0.354 N 
ATOM     22  C   UNL     1       6.484   7.476   0.085  1.00  0.00     0.074 A 
ATOM     23  C   UNL     1       6.018   6.495   1.042  1.00  0.00     0.031 C 
ATOM     24  C   UNL     1       4.679   4.961  -5.558  1.00  0.00     0.029 A 
ATOM     25  C   UNL     1       5.398   6.209  -5.334  1.00  0.00     0.049 A 
ATOM     26  H   UNL     1       6.096   6.969  -3.522  1.00  0.00     0.167 HD
ATOM     27  C   UNL     1       7.119   8.627   0.413  1.00  0.00     0.034 A 
ATOM     28  C   UNL     1       5.735   7.088  -6.297  1.00  0.00     0.034 A 
ATOM     29  C   UNL     1       7.621   9.570  -0.552  1.00  0.00     0.049 A 
ATOM     30  C   UNL     1       6.473   8.335  -5.910  1.00  0.00     0.074 A 
ATOM     31  C   UNL     1       8.331  10.736  -0.326  1.00  0.00     0.029 A 
ATOM     32  N   UNL     1       7.468   9.455  -1.926  1.00  0.00    -0.354 N 
ATOM     33  N   UNL     1       6.858   8.723  -4.718  1.00  0.00    -0.248 NA
ATOM     34  C   UNL     1       6.844   9.251  -6.995  1.00  0.00     0.031 C 
ATOM     35  C   UNL     1       8.601  11.330  -1.564  1.00  0.00     0.029 A 
ATOM     36  C   UNL     1       8.069  10.528  -2.562  1.00  0.00     0.049 A 
ATOM     37  H   UNL     1       7.000   8.719  -2.382  1.00  0.00     0.167 HD
ATOM     38  C   UNL     1       7.535   9.920  -4.910  1.00  0.00     0.074 A 
ATOM     39  C   UNL     1       7.528  10.179  -6.336  1.00  0.00     0.031 C 
ATOM     40  C   UNL     1       8.095  10.740  -3.987  1.00  0.00     0.034 A 
BRANCH  27  41
ATOM     41  C   UNL     1       7.343   8.916   1.874  1.00  0.00     0.023 A 
ATOM     42  C   UNL     1       8.341   8.213   2.577  1.00  0.00     0.012 A 
ATOM     43  C   UNL     1       6.611   9.921   2.537  1.00  0.00     0.148 A 
ATOM     44  C   UNL     1       8.591   8.485   3.922  1.00  0.00     0.002 A 
ATOM     45  C   UNL     1       6.890  10.212   3.869  1.00  0.00     0.091 A 
ATOM     46  F   UNL     1       5.646  10.563   1.863  1.00  0.00    -0.205 F 
ATOM     47  C   UNL     1       7.873   9.490   4.565  1.00  0.00     0.022 A 
BRANCH  45  48
ATOM     48  S   UNL     1       6.060  11.539   4.753  1.00  0.00     0.127 S 
ATOM     49  O   UNL     1       5.065  10.800   5.528  1.00  0.00    -0.237 OA
ATOM     50  O   UNL     1       7.145  12.114   5.549  1.00  0.00    -0.237 OA
ATOM     51  O   UNL     1       5.533  12.426   3.726  1.00  0.00    -0.744 OA
ENDBRANCH  45  48
ENDBRANCH  27  41
BRANCH  28  52
ATOM     52  C   UNL     1       5.408   6.771  -7.714  1.00  0.00     0.023 A 
ATOM     53  C   UNL     1       6.442   6.409  -8.597  1.00  0.00     0.012 A 
ATOM     54  C   UNL     1       4.072   6.722  -8.160  1.00  0.00     0.148 A 
ATOM     55  C   UNL     1       6.153   6.010  -9.902  1.00  0.00     0.002 A 
ATOM     56  C   UNL     1       3.787   6.264  -9.441  1.00  0.00     0.091 A 
ATOM     57  F   UNL     1       3.103   7.085  -7.308  1.00  0.00    -0.205 F 
ATOM     58  C   UNL     1       4.827   5.921 -10.318  1.00  0.00     0.022 A 
BRANCH  56  59
ATOM     59  S   UNL     1       2.105   5.965  -9.997  1.00  0.00     0.127 S 
ATOM     60  O   UNL     1       1.891   7.081 -10.915  1.00  0.00    -0.237 OA
ATOM     61  O   UNL     1       2.225   4.654 -10.637  1.00  0.00    -0.237 OA
ATOM     62  O   UNL     1       1.290   5.967  -8.790  1.00  0.00    -0.744 OA
ENDBRANCH  56  59
ENDBRANCH  28  52
BRANCH  40  63
ATOM     63  C   UNL     1       8.766  11.988  -4.490  1.00  0.00     0.023 A 
ATOM     64  C   UNL     1       7.980  13.081  -4.904  1.00  0.00     0.012 A 
ATOM     65  C   UNL     1      10.169  12.103  -4.482  1.00  0.00     0.148 A 
ATOM     66  C   UNL     1       8.583  14.265  -5.324  1.00  0.00     0.002 A 
ATOM     67  C   UNL     1      10.762  13.301  -4.864  1.00  0.00     0.091 A 
ATOM     68  F   UNL     1      10.898  11.041  -4.107  1.00  0.00    -0.205 F 
ATOM     69  C   UNL     1       9.971  14.380  -5.293  1.00  0.00     0.022 A 
BRANCH  67  70
ATOM     70  S   UNL     1      12.537  13.562  -4.771  1.00  0.00     0.127 S 
ATOM     71  O   UNL     1      12.927  13.460  -6.176  1.00  0.00    -0.237 OA
ATOM     72  O   UNL     1      12.627  14.910  -4.208  1.00  0.00    -0.237 OA
ATOM     73  O   UNL     1      13.047  12.512  -3.899  1.00  0.00    -0.744 OA
ENDBRANCH  67  70
ENDBRANCH  40  63
ENDBRANCH  14  15
ENDBRANCH   7   9
ENDBRANCH   4   5
ENDBRANCH   3   4
ENDBRANCH   2   3
ENDBRANCH   1   2
BRANCH   1  74
ATOM     74  C   UNL     1       6.209  -3.826   0.246  1.00  0.00     0.021 C 
BRANCH  74  75
ATOM     75  C   UNL     1       7.309  -4.119   1.259  1.00  0.00     0.116 C 
BRANCH  75  76
ATOM     76  N   UNL     1       7.146  -5.411   1.878  1.00  0.00    -0.356 N 
ATOM     77  C   UNL     1       8.064  -6.211   2.468  1.00  0.00     0.223 C 
ATOM     78  H   UNL     1       6.228  -5.764   1.870  1.00  0.00     0.163 HD
ATOM     79  O   UNL     1       7.705  -7.367   2.698  1.00  0.00    -0.275 OA
BRANCH  77  80
ATOM     80  C   UNL     1       9.509  -5.763   2.652  1.00  0.00     0.091 C 
ATOM     81  C   UNL     1      10.332  -6.932   3.246  1.00  0.00     0.014 C 
ATOM     82  C   UNL     1       9.835  -4.372   3.245  1.00  0.00     0.091 C 
ATOM     83  C   UNL     1      11.830  -6.667   3.324  1.00  0.00     0.001 C 
ATOM     84  C   UNL     1      11.387  -4.203   3.144  1.00  0.00     0.014 C 
ATOM     85  C   UNL     1      12.153  -5.297   3.891  1.00  0.00     0.001 C 
BRANCH  82  86
ATOM     86  C   UNL     1       9.414  -3.848   4.644  1.00  0.00     0.228 C 
ATOM     87  O   UNL     1      10.298  -3.492   5.439  1.00  0.00    -0.274 OA
ATOM     88  N   UNL     1       8.200  -3.296   4.901  1.00  0.00    -0.325 N 
ATOM     89  H   UNL     1       8.230  -2.313   4.863  1.00  0.00     0.169 HD
BRANCH  88  90
ATOM     90  C   UNL     1       6.905  -3.771   5.208  1.00  0.00     0.054 A 
ATOM     91  C   UNL     1       5.959  -2.725   5.333  1.00  0.00     0.027 A 
ATOM     92  C   UNL     1       6.451  -5.077   5.448  1.00  0.00     0.063 A 
ATOM     93  C   UNL     1       4.601  -2.968   5.553  1.00  0.00     0.002 A 
ATOM     94  C   UNL     1       5.066  -5.321   5.591  1.00  0.00     0.016 A 
ATOM     95  C   UNL     1       4.145  -4.274   5.632  1.00  0.00     0.001 A 
BRANCH  92  96
ATOM     96  C   UNL     1       7.287  -6.230   5.876  1.00  0.00     0.256 C 
ATOM     97  O   UNL     1       7.079  -7.361   5.462  1.00  0.00    -0.269 OA
ATOM     98  N   UNL     1       8.098  -5.975   6.966  1.00  0.00    -0.335 N 
ATOM     99  C   UNL     1       9.527  -6.078   6.780  1.00  0.00     0.141 C 
ATOM    100  C   UNL     1       7.691  -6.409   8.305  1.00  0.00     0.141 C 
ATOM    101  C   UNL     1      10.186  -5.075   7.720  1.00  0.00     0.138 C 
ATOM    102  C   UNL     1       8.538  -5.775   9.450  1.00  0.00     0.138 C 
ATOM    103  N   UNL     1       9.950  -5.524   9.098  1.00  0.00    -0.368 N 
BRANCH 103 104
ATOM    104  C   UNL     1      11.066  -6.091   9.678  1.00  0.00     0.037 A 
ATOM    105  C   UNL     1      12.230  -5.304   9.801  1.00  0.00     0.029 A 
ATOM    106  C   UNL     1      11.149  -7.447   9.996  1.00  0.00     0.029 A 
ATOM    107  C   UNL     1      13.453  -5.857  10.165  1.00  0.00     0.041 A 
ATOM    108  C   UNL     1      12.377  -8.010  10.362  1.00  0.00     0.041 A 
ATOM    109  C   UNL     1      13.517  -7.213  10.431  1.00  0.00     0.123 A 
ATOM    110  F   UNL     1      14.696  -7.768  10.740  1.00  0.00    -0.207 F 
ENDBRANCH 103 104
ENDBRANCH  92  96
ENDBRANCH  88  90
ENDBRANCH  82  86
ENDBRANCH  77  80
ENDBRANCH  75  76
ENDBRANCH  74  75
ENDBRANCH   1  74
TORSDOF 20
