REMARK SMILES CC(C)CCn1cc(C(=O)NCCCCCCNC(=O)c2ccc(-c3c4nc(c(-c5cccc(S(=O)(=O)[O-])c5F)c5ccc([nH]5)c(-c5cccc(S(=O)(=O)[O-])c5F)c5nc(c(-c6cccc(S(=O)(=O)[O-])c6F)c6ccc3[nH]6)C=C5)C=C4)cc2)c(-c2ccoc2)n1
REMARK SMILES IDX 14 1 13 2 12 3 11 4 9 5 10 6 8 8 6 9 7 10 90 11 84 12 5 13
REMARK SMILES IDX 4 14 2 15 1 16 3 17 85 18 86 19 89 20 87 21 88 22 15 23
REMARK SMILES IDX 16 24 17 25 18 26 19 27 20 29 21 30 22 31 83 32 23 33 82 34
REMARK SMILES IDX 24 35 25 36 26 37 76 38 27 39 81 40 75 41 77 42 28 43 80 44
REMARK SMILES IDX 74 45 73 46 29 48 61 49 41 50 60 51 42 52 45 53 59 54 78 55
REMARK SMILES IDX 43 56 44 57 58 59 79 60 46 61 30 62 31 63 39 64 32 65 34 66
REMARK SMILES IDX 40 67 33 68 35 69 36 70 37 71 38 72 62 73 63 74 71 75 64 76
REMARK SMILES IDX 66 77 72 78 65 79 67 80 68 81 69 82 70 83 47 84 48 85 56 86
REMARK SMILES IDX 49 87 51 88 57 89 50 90 52 91 53 92 54 93 55 94
REMARK H PARENT 11 7 18 28 77 47 45 58
REMARK Flexibility Score: inf
ROOT
ATOM      1  C   UNL     1      -2.168   8.246   0.520  1.00  0.00     0.002 C 
ENDROOT
BRANCH   1   2
ATOM      2  C   UNL     1      -1.923   6.732   0.490  1.00  0.00     0.021 C 
BRANCH   2   3
ATOM      3  C   UNL     1      -2.515   6.052  -0.740  1.00  0.00     0.116 C 
BRANCH   3   4
ATOM      4  N   UNL     1      -1.733   6.364  -1.915  1.00  0.00    -0.352 N 
ATOM      5  C   UNL     1      -0.953   5.611  -2.751  1.00  0.00     0.255 C 
ATOM      6  O   UNL     1      -0.452   6.229  -3.692  1.00  0.00    -0.269 OA
ATOM      7  H   UNL     1      -1.768   7.315  -2.165  1.00  0.00     0.163 HD
BRANCH   5   8
ATOM      8  C   UNL     1      -0.837   4.168  -2.610  1.00  0.00     0.085 A 
ATOM      9  N   UNL     1      -1.051   2.062  -1.970  1.00  0.00    -0.271 N 
ATOM     10  C   UNL     1      -1.081   3.352  -1.520  1.00  0.00     0.123 A 
ATOM     11  N   UNL     1      -0.686   1.965  -3.260  1.00  0.00    -0.172 NA
ATOM     12  C   UNL     1      -0.392   3.232  -3.590  1.00  0.00     0.108 A 
BRANCH   9  13
ATOM     13  C   UNL     1      -1.482   0.907  -1.205  1.00  0.00     0.144 C 
BRANCH  13  14
ATOM     14  C   UNL     1      -0.846  -0.428  -1.589  1.00  0.00     0.027 C 
BRANCH  14  15
ATOM     15  C   UNL     1       0.688  -0.469  -1.473  1.00  0.00    -0.016 C 
ATOM     16  C   UNL     1       1.168  -0.254  -0.038  1.00  0.00     0.007 C 
ATOM     17  C   UNL     1       1.201  -1.806  -2.010  1.00  0.00     0.007 C 
ENDBRANCH  14  15
ENDBRANCH  13  14
ENDBRANCH   9  13
BRANCH  12  18
ATOM     18  C   UNL     1       0.312   3.559  -4.825  1.00  0.00     0.041 A 
ATOM     19  C   UNL     1       0.041   3.032  -6.108  1.00  0.00     0.052 A 
ATOM     20  C   UNL     1       1.407   4.383  -4.967  1.00  0.00     0.205 A 
ATOM     21  C   UNL     1       0.965   3.605  -6.953  1.00  0.00     0.195 A 
ATOM     22  O   UNL     1       1.803   4.425  -6.266  1.00  0.00    -0.472 OA
ENDBRANCH  12  18
ENDBRANCH   5   8
ENDBRANCH   3   4
ENDBRANCH   2   3
ENDBRANCH   1   2
BRANCH   1  23
ATOM     23  C   UNL     1      -3.631   8.688   0.348  1.00  0.00     0.002 C 
BRANCH  23  24
ATOM     24  C   UNL     1      -4.674   7.988   1.234  1.00  0.00     0.021 C 
BRANCH  24  25
ATOM     25  C   UNL     1      -4.534   8.296   2.715  1.00  0.00     0.116 C 
BRANCH  25  26
ATOM     26  N   UNL     1      -4.770   9.715   3.006  1.00  0.00    -0.352 N 
ATOM     27  C   UNL     1      -4.544  10.429   4.171  1.00  0.00     0.251 C 
ATOM     28  H   UNL     1      -5.146  10.238   2.261  1.00  0.00     0.163 HD
ATOM     29  O   UNL     1      -5.114  11.486   4.375  1.00  0.00    -0.269 OA
BRANCH  27  30
ATOM     30  C   UNL     1      -3.585   9.891   5.152  1.00  0.00     0.039 A 
ATOM     31  C   UNL     1      -3.741  10.060   6.532  1.00  0.00     0.014 A 
ATOM     32  C   UNL     1      -2.498   9.194   4.646  1.00  0.00     0.014 A 
ATOM     33  C   UNL     1      -2.805   9.477   7.384  1.00  0.00     0.010 A 
ATOM     34  C   UNL     1      -1.753   8.411   5.471  1.00  0.00     0.010 A 
ATOM     35  C   UNL     1      -1.814   8.658   6.832  1.00  0.00    -0.014 A 
BRANCH  35  36
ATOM     36  C   UNL     1      -0.800   7.992   7.626  1.00  0.00     0.031 A 
ATOM     37  C   UNL     1      -1.324   6.921   8.505  1.00  0.00     0.074 A 
ATOM     38  C   UNL     1       0.511   8.110   7.316  1.00  0.00     0.049 A 
ATOM     39  N   UNL     1      -1.423   6.936   9.792  1.00  0.00    -0.248 NA
ATOM     40  C   UNL     1      -1.985   5.770   7.870  1.00  0.00     0.031 C 
ATOM     41  C   UNL     1       1.113   8.815   6.172  1.00  0.00     0.029 A 
ATOM     42  N   UNL     1       1.572   7.453   7.846  1.00  0.00    -0.354 N 
ATOM     43  C   UNL     1      -1.909   5.676  10.133  1.00  0.00     0.074 A 
ATOM     44  C   UNL     1      -2.494   5.144   8.933  1.00  0.00     0.031 C 
ATOM     45  C   UNL     1       2.348   8.319   5.942  1.00  0.00     0.029 A 
ATOM     46  C   UNL     1       2.682   7.394   7.008  1.00  0.00     0.049 A 
ATOM     47  H   UNL     1       1.559   7.053   8.746  1.00  0.00     0.167 HD
ATOM     48  C   UNL     1      -1.511   5.053  11.279  1.00  0.00     0.034 A 
ATOM     49  C   UNL     1       3.750   6.571   7.150  1.00  0.00     0.034 A 
ATOM     50  C   UNL     1      -0.795   5.968  12.140  1.00  0.00     0.049 A 
ATOM     51  C   UNL     1       3.736   6.085   8.553  1.00  0.00     0.074 A 
ATOM     52  C   UNL     1      -1.061   7.211  12.683  1.00  0.00     0.029 A 
ATOM     53  N   UNL     1       0.572   5.817  12.208  1.00  0.00    -0.354 N 
ATOM     54  N   UNL     1       3.919   6.860   9.587  1.00  0.00    -0.248 NA
ATOM     55  C   UNL     1       3.052   4.830   8.825  1.00  0.00     0.031 C 
ATOM     56  C   UNL     1       0.168   7.928  12.565  1.00  0.00     0.029 A 
ATOM     57  C   UNL     1       1.128   7.057  12.045  1.00  0.00     0.049 A 
ATOM     58  H   UNL     1       1.059   4.974  12.348  1.00  0.00     0.167 HD
ATOM     59  C   UNL     1       2.982   6.421  10.516  1.00  0.00     0.074 A 
ATOM     60  C   UNL     1       2.556   5.107  10.034  1.00  0.00     0.031 C 
ATOM     61  C   UNL     1       2.406   7.283  11.407  1.00  0.00     0.034 A 
BRANCH  48  62
ATOM     62  C   UNL     1      -1.388   3.552  11.477  1.00  0.00     0.023 A 
ATOM     63  C   UNL     1      -1.036   3.116  12.776  1.00  0.00     0.012 A 
ATOM     64  C   UNL     1      -1.320   2.586  10.447  1.00  0.00     0.148 A 
ATOM     65  C   UNL     1      -0.553   1.826  13.018  1.00  0.00     0.002 A 
ATOM     66  C   UNL     1      -0.915   1.281  10.706  1.00  0.00     0.091 A 
ATOM     67  F   UNL     1      -1.518   2.933   9.175  1.00  0.00    -0.205 F 
ATOM     68  C   UNL     1      -0.492   0.906  11.981  1.00  0.00     0.022 A 
BRANCH  66  69
ATOM     69  S   UNL     1      -0.866   0.037   9.407  1.00  0.00     0.127 S 
ATOM     70  O   UNL     1       0.570  -0.084   9.174  1.00  0.00    -0.237 OA
ATOM     71  O   UNL     1      -1.488  -1.110  10.068  1.00  0.00    -0.237 OA
ATOM     72  O   UNL     1      -1.649   0.587   8.306  1.00  0.00    -0.744 OA
ENDBRANCH  66  69
ENDBRANCH  48  62
BRANCH  49  73
ATOM     73  C   UNL     1       4.616   5.954   6.115  1.00  0.00     0.023 A 
ATOM     74  C   UNL     1       5.872   5.433   6.482  1.00  0.00     0.012 A 
ATOM     75  C   UNL     1       4.112   5.628   4.835  1.00  0.00     0.148 A 
ATOM     76  C   UNL     1       6.586   4.588   5.622  1.00  0.00     0.002 A 
ATOM     77  C   UNL     1       4.829   4.795   3.978  1.00  0.00     0.091 A 
ATOM     78  F   UNL     1       2.887   6.049   4.494  1.00  0.00    -0.205 F 
ATOM     79  C   UNL     1       6.062   4.264   4.373  1.00  0.00     0.022 A 
BRANCH  77  80
ATOM     80  S   UNL     1       4.193   4.321   2.363  1.00  0.00     0.127 S 
ATOM     81  O   UNL     1       5.373   4.478   1.512  1.00  0.00    -0.237 OA
ATOM     82  O   UNL     1       3.781   2.939   2.593  1.00  0.00    -0.237 OA
ATOM     83  O   UNL     1       3.116   5.260   2.072  1.00  0.00    -0.744 OA
ENDBRANCH  77  80
ENDBRANCH  49  73
BRANCH  61  84
ATOM     84  C   UNL     1       2.980   8.670  11.554  1.00  0.00     0.023 A 
ATOM     85  C   UNL     1       3.016   9.596  10.490  1.00  0.00     0.012 A 
ATOM     86  C   UNL     1       3.306   9.113  12.847  1.00  0.00     0.148 A 
ATOM     87  C   UNL     1       3.386  10.927  10.710  1.00  0.00     0.002 A 
ATOM     88  C   UNL     1       3.625  10.446  13.070  1.00  0.00     0.091 A 
ATOM     89  F   UNL     1       3.268   8.223  13.851  1.00  0.00    -0.205 F 
ATOM     90  C   UNL     1       3.675  11.356  12.003  1.00  0.00     0.022 A 
BRANCH  88  91
ATOM     91  S   UNL     1       3.873  11.075  14.732  1.00  0.00     0.127 S 
ATOM     92  O   UNL     1       5.330  11.139  14.819  1.00  0.00    -0.237 OA
ATOM     93  O   UNL     1       3.205  12.376  14.684  1.00  0.00    -0.237 OA
ATOM     94  O   UNL     1       3.229  10.113  15.619  1.00  0.00    -0.744 OA
ENDBRANCH  88  91
ENDBRANCH  61  84
ENDBRANCH  35  36
ENDBRANCH  27  30
ENDBRANCH  25  26
ENDBRANCH  24  25
ENDBRANCH  23  24
ENDBRANCH   1  23
TORSDOF 20
