REMARK SMILES CCC[C@]1(C(=O)NC[C@@H]2CC[C@H](C(=O)NCCCCCCNC(=O)c3ccc(-c4c5nc(c(-c6cccc(S(=O)(=O)[O-])c6F)c6ccc([nH]6)c(-c6cccc(S(=O)(=O)[O-])c6F)c6nc(c(-c7cccc(S(=O)(=O)[O-])c7F)c7ccc4[nH]7)C=C6)C=C5)cc3)O2)CCC[NH2+]C1
REMARK SMILES IDX 17 1 16 2 15 3 13 4 14 5 12 7 9 8 10 9 88 10 11 11 8 12 7 13
REMARK SMILES IDX 5 14 6 15 4 17 89 18 93 19 90 20 92 21 91 22 3 25 2 26 1 27
REMARK SMILES IDX 18 28 19 29 20 30 21 31 22 32 23 33 24 35 25 36 26 37 87 38
REMARK SMILES IDX 27 39 86 40 28 41 29 42 30 43 80 44 31 45 85 46 79 47 81 48
REMARK SMILES IDX 32 49 84 50 78 51 77 52 33 54 65 55 45 56 64 57 46 58 49 59
REMARK SMILES IDX 63 60 82 61 47 62 48 63 62 65 83 66 50 67 34 68 35 69 43 70
REMARK SMILES IDX 36 71 38 72 44 73 37 74 39 75 40 76 41 77 42 78 66 79 67 80
REMARK SMILES IDX 75 81 68 82 70 83 76 84 69 85 71 86 72 87 73 88 74 89 51 90
REMARK SMILES IDX 52 91 60 92 53 93 55 94 61 95 54 96 56 97 57 98 58 99 59 100
REMARK H PARENT 15 6 7 16 92 23 92 24 22 34 81 53 49 64
REMARK Flexibility Score: inf
ROOT
ATOM      1  C   UNL     1       2.733   4.554  -7.500  1.00  0.00     0.021 C 
ENDROOT
BRANCH   1   2
ATOM      2  C   UNL     1       2.050   4.885  -6.182  1.00  0.00     0.116 C 
BRANCH   2   3
ATOM      3  N   UNL     1       1.788   6.294  -6.019  1.00  0.00    -0.354 N 
ATOM      4  C   UNL     1       0.613   6.942  -5.769  1.00  0.00     0.249 C 
ATOM      5  O   UNL     1       0.658   8.169  -5.633  1.00  0.00    -0.272 OA
ATOM      6  H   UNL     1       2.577   6.878  -6.100  1.00  0.00     0.163 HD
BRANCH   4   7
ATOM      7  C   UNL     1      -0.733   6.190  -5.664  1.00  0.00     0.207 C 
ATOM      8  C   UNL     1      -1.313   4.000  -5.051  1.00  0.00     0.138 C 
ATOM      9  C   UNL     1      -1.338   4.032  -6.574  1.00  0.00     0.037 C 
ATOM     10  O   UNL     1      -0.733   5.236  -4.609  1.00  0.00    -0.363 OA
ATOM     11  C   UNL     1      -1.200   5.497  -6.933  1.00  0.00     0.045 C 
BRANCH   8  12
ATOM     12  C   UNL     1      -0.532   2.814  -4.440  1.00  0.00     0.147 C 
BRANCH  12  13
ATOM     13  N   UNL     1       0.605   3.254  -3.628  1.00  0.00    -0.353 N 
ATOM     14  C   UNL     1       1.011   3.070  -2.349  1.00  0.00     0.232 C 
ATOM     15  O   UNL     1       2.038   3.683  -2.034  1.00  0.00    -0.274 OA
ATOM     16  H   UNL     1       1.227   3.823  -4.137  1.00  0.00     0.163 HD
BRANCH  14  17
ATOM     17  C   UNL     1       0.210   2.229  -1.335  1.00  0.00     0.098 C 
ATOM     18  C   UNL     1      -1.142   2.973  -1.135  1.00  0.00     0.028 C 
ATOM     19  C   UNL     1       0.035   0.800  -1.889  1.00  0.00     0.277 C 
ATOM     20  C   UNL     1      -2.280   2.094  -0.638  1.00  0.00     0.063 C 
ATOM     21  N   UNL     1      -1.055   0.060  -1.248  1.00  0.00    -0.345 N 
ATOM     22  C   UNL     1      -2.329   0.754  -1.362  1.00  0.00     0.260 C 
ATOM     23  H   UNL     1      -1.137  -0.854  -1.693  1.00  0.00     0.346 HD
ATOM     24  H   UNL     1      -0.833  -0.029  -0.257  1.00  0.00     0.346 HD
BRANCH  17  25
ATOM     25  C   UNL     1       1.029   2.229   0.011  1.00  0.00     0.022 C 
BRANCH  25  26
ATOM     26  C   UNL     1       0.691   1.224   1.121  1.00  0.00    -0.002 C 
ATOM     27  C   UNL     1       1.472  -0.083   1.033  1.00  0.00     0.004 C 
ENDBRANCH  25  26
ENDBRANCH  17  25
ENDBRANCH  14  17
ENDBRANCH  12  13
ENDBRANCH   8  12
ENDBRANCH   4   7
ENDBRANCH   2   3
ENDBRANCH   1   2
BRANCH   1  28
ATOM     28  C   UNL     1       4.254   4.697  -7.445  1.00  0.00     0.002 C 
BRANCH  28  29
ATOM     29  C   UNL     1       4.952   3.842  -6.377  1.00  0.00     0.002 C 
BRANCH  29  30
ATOM     30  C   UNL     1       4.626   2.345  -6.412  1.00  0.00     0.021 C 
BRANCH  30  31
ATOM     31  C   UNL     1       4.935   1.658  -7.739  1.00  0.00     0.116 C 
BRANCH  31  32
ATOM     32  N   UNL     1       6.328   1.824  -8.123  1.00  0.00    -0.352 N 
ATOM     33  C   UNL     1       7.258   0.875  -8.465  1.00  0.00     0.251 C 
ATOM     34  H   UNL     1       6.651   2.753  -8.140  1.00  0.00     0.163 HD
ATOM     35  O   UNL     1       8.442   1.181  -8.553  1.00  0.00    -0.269 OA
BRANCH  33  36
ATOM     36  C   UNL     1       6.826  -0.514  -8.724  1.00  0.00     0.039 A 
ATOM     37  C   UNL     1       7.582  -1.567  -8.202  1.00  0.00     0.014 A 
ATOM     38  C   UNL     1       5.693  -0.774  -9.500  1.00  0.00     0.014 A 
ATOM     39  C   UNL     1       7.176  -2.884  -8.425  1.00  0.00     0.010 A 
ATOM     40  C   UNL     1       5.250  -2.083  -9.657  1.00  0.00     0.010 A 
ATOM     41  C   UNL     1       5.994  -3.151  -9.135  1.00  0.00    -0.014 A 
BRANCH  41  42
ATOM     42  C   UNL     1       5.523  -4.541  -9.356  1.00  0.00     0.031 A 
ATOM     43  C   UNL     1       5.414  -5.084 -10.756  1.00  0.00     0.074 A 
ATOM     44  C   UNL     1       5.110  -5.280  -8.308  1.00  0.00     0.049 A 
ATOM     45  N   UNL     1       4.946  -6.236 -11.160  1.00  0.00    -0.248 NA
ATOM     46  C   UNL     1       5.864  -4.205 -11.850  1.00  0.00     0.031 C 
ATOM     47  C   UNL     1       5.101  -4.838  -6.912  1.00  0.00     0.029 A 
ATOM     48  N   UNL     1       4.588  -6.549  -8.258  1.00  0.00    -0.354 N 
ATOM     49  C   UNL     1       5.006  -6.205 -12.548  1.00  0.00     0.074 A 
ATOM     50  C   UNL     1       5.526  -4.908 -12.921  1.00  0.00     0.031 C 
ATOM     51  C   UNL     1       4.597  -5.818  -6.144  1.00  0.00     0.029 A 
ATOM     52  C   UNL     1       4.217  -6.942  -6.993  1.00  0.00     0.049 A 
ATOM     53  H   UNL     1       4.489  -7.122  -9.052  1.00  0.00     0.167 HD
ATOM     54  C   UNL     1       4.684  -7.178 -13.432  1.00  0.00     0.034 A 
ATOM     55  C   UNL     1       3.623  -8.075  -6.568  1.00  0.00     0.034 A 
ATOM     56  C   UNL     1       4.212  -8.482 -13.053  1.00  0.00     0.049 A 
ATOM     57  C   UNL     1       3.311  -9.155  -7.569  1.00  0.00     0.074 A 
ATOM     58  C   UNL     1       3.940  -9.567 -13.867  1.00  0.00     0.029 A 
ATOM     59  N   UNL     1       3.936  -8.877 -11.754  1.00  0.00    -0.354 N 
ATOM     60  N   UNL     1       3.513  -9.162  -8.864  1.00  0.00    -0.248 NA
ATOM     61  C   UNL     1       2.724 -10.397  -7.046  1.00  0.00     0.031 C 
ATOM     62  C   UNL     1       3.471 -10.610 -13.062  1.00  0.00     0.029 A 
ATOM     63  C   UNL     1       3.487 -10.186 -11.743  1.00  0.00     0.049 A 
ATOM     64  H   UNL     1       4.043  -8.310 -10.956  1.00  0.00     0.167 HD
ATOM     65  C   UNL     1       3.120 -10.421  -9.304  1.00  0.00     0.074 A 
ATOM     66  C   UNL     1       2.683 -11.154  -8.134  1.00  0.00     0.031 C 
ATOM     67  C   UNL     1       3.113 -10.922 -10.564  1.00  0.00     0.034 A 
BRANCH  54  68
ATOM     68  C   UNL     1       4.874  -6.889 -14.899  1.00  0.00     0.023 A 
ATOM     69  C   UNL     1       6.177  -6.794 -15.429  1.00  0.00     0.012 A 
ATOM     70  C   UNL     1       3.767  -6.782 -15.763  1.00  0.00     0.148 A 
ATOM     71  C   UNL     1       6.376  -6.564 -16.789  1.00  0.00     0.002 A 
ATOM     72  C   UNL     1       3.974  -6.599 -17.125  1.00  0.00     0.091 A 
ATOM     73  F   UNL     1       2.536  -6.855 -15.238  1.00  0.00    -0.205 F 
ATOM     74  C   UNL     1       5.276  -6.478 -17.638  1.00  0.00     0.022 A 
BRANCH  72  75
ATOM     75  S   UNL     1       2.628  -6.558 -18.314  1.00  0.00     0.127 S 
ATOM     76  O   UNL     1       2.658  -5.161 -18.745  1.00  0.00    -0.237 OA
ATOM     77  O   UNL     1       3.079  -7.518 -19.322  1.00  0.00    -0.237 OA
ATOM     78  O   UNL     1       1.433  -6.957 -17.584  1.00  0.00    -0.744 OA
ENDBRANCH  72  75
ENDBRANCH  54  68
BRANCH  55  79
ATOM     79  C   UNL     1       3.333  -8.270  -5.120  1.00  0.00     0.023 A 
ATOM     80  C   UNL     1       4.059  -9.230  -4.389  1.00  0.00     0.012 A 
ATOM     81  C   UNL     1       2.354  -7.502  -4.460  1.00  0.00     0.148 A 
ATOM     82  C   UNL     1       3.788  -9.452  -3.039  1.00  0.00     0.002 A 
ATOM     83  C   UNL     1       2.127  -7.688  -3.102  1.00  0.00     0.091 A 
ATOM     84  F   UNL     1       1.667  -6.599  -5.174  1.00  0.00    -0.205 F 
ATOM     85  C   UNL     1       2.829  -8.676  -2.393  1.00  0.00     0.022 A 
BRANCH  83  86
ATOM     86  S   UNL     1       1.004  -6.646  -2.164  1.00  0.00     0.127 S 
ATOM     87  O   UNL     1      -0.104  -7.560  -1.903  1.00  0.00    -0.237 OA
ATOM     88  O   UNL     1       1.813  -6.306  -0.994  1.00  0.00    -0.237 OA
ATOM     89  O   UNL     1       0.701  -5.515  -3.032  1.00  0.00    -0.744 OA
ENDBRANCH  83  86
ENDBRANCH  55  79
BRANCH  67  90
ATOM     90  C   UNL     1       2.671 -12.350 -10.749  1.00  0.00     0.023 A 
ATOM     91  C   UNL     1       1.312 -12.692 -10.611  1.00  0.00     0.012 A 
ATOM     92  C   UNL     1       3.597 -13.335 -11.143  1.00  0.00     0.148 A 
ATOM     93  C   UNL     1       0.887 -14.002 -10.832  1.00  0.00     0.002 A 
ATOM     94  C   UNL     1       3.158 -14.625 -11.413  1.00  0.00     0.091 A 
ATOM     95  F   UNL     1       4.889 -12.991 -11.251  1.00  0.00    -0.205 F 
ATOM     96  C   UNL     1       1.806 -14.963 -11.245  1.00  0.00     0.022 A 
BRANCH  94  97
ATOM     97  S   UNL     1       4.251 -15.901 -12.049  1.00  0.00     0.127 S 
ATOM     98  O   UNL     1       4.365 -16.795 -10.898  1.00  0.00    -0.237 OA
ATOM     99  O   UNL     1       3.478 -16.441 -13.167  1.00  0.00    -0.237 OA
ATOM    100  O   UNL     1       5.481 -15.222 -12.435  1.00  0.00    -0.744 OA
ENDBRANCH  94  97
ENDBRANCH  67  90
ENDBRANCH  41  42
ENDBRANCH  33  36
ENDBRANCH  31  32
ENDBRANCH  30  31
ENDBRANCH  29  30
ENDBRANCH  28  29
ENDBRANCH   1  28
TORSDOF 21
