REMARK SMILES Cc1[nH]c(=O)sc1S(=O)(=O)N[C@@H]1CCCCC[C@@H]1C(=O)NCCCCCCNC(=O)c1ccc(-c2c3nc(c(-c4cccc(S(=O)(=O)[O-])c4F)c4ccc([nH]4)c(-c4cccc(S(=O)(=O)[O-])c4F)c4nc(c(-c5cccc(S(=O)(=O)[O-])c5F)c5ccc2[nH]5)C=C4)C=C3)cc1
REMARK SMILES IDX 24 1 23 2 22 3 21 4 19 5 20 6 18 8 12 9 11 10 8 12 9 13
REMARK SMILES IDX 10 14 7 15 1 16 2 17 3 18 4 19 6 21 5 22 13 23 14 24 17 26
REMARK SMILES IDX 16 27 15 28 25 30 26 31 27 32 28 33 29 34 30 36 31 37 32 38
REMARK SMILES IDX 93 39 33 40 92 41 34 42 35 43 36 44 86 45 37 46 91 47 85 48
REMARK SMILES IDX 87 49 38 50 90 51 84 52 83 53 39 55 71 56 51 57 70 58 52 59
REMARK SMILES IDX 55 60 69 61 88 62 53 63 54 64 68 66 89 67 56 68 40 69 41 70
REMARK SMILES IDX 49 71 42 72 44 73 50 74 43 75 45 76 46 77 47 78 48 79 72 80
REMARK SMILES IDX 73 81 81 82 74 83 76 84 82 85 75 86 77 87 78 88 79 89 80 90
REMARK SMILES IDX 57 91 58 92 66 93 59 94 61 95 67 96 60 97 62 98 63 99 64 100
REMARK SMILES IDX 65 101
REMARK H PARENT 21 7 11 11 3 20 28 35 87 54 55 65
REMARK Flexibility Score: 100.00
ROOT
ATOM      1  C   UNL     1       6.638  -4.359  -0.766  1.00  0.00     0.002 C 
ENDROOT
BRANCH   1   2
ATOM      2  C   UNL     1       5.136  -4.106  -0.926  1.00  0.00     0.021 C 
BRANCH   2   3
ATOM      3  C   UNL     1       4.727  -2.678  -0.558  1.00  0.00     0.116 C 
BRANCH   3   4
ATOM      4  N   UNL     1       4.983  -1.766  -1.659  1.00  0.00    -0.356 N 
ATOM      5  C   UNL     1       4.209  -1.291  -2.669  1.00  0.00     0.224 C 
ATOM      6  O   UNL     1       4.806  -0.610  -3.514  1.00  0.00    -0.275 OA
ATOM      7  H   UNL     1       5.906  -1.423  -1.677  1.00  0.00     0.163 HD
BRANCH   5   8
ATOM      8  C   UNL     1       2.671  -1.345  -2.701  1.00  0.00     0.096 C 
BRANCH   8   9
ATOM      9  C   UNL     1       2.134   0.095  -2.425  1.00  0.00     0.082 C 
BRANCH   9  10
ATOM     10  N   UNL     1       2.835   0.686  -1.220  1.00  0.00    -0.207 NA
ATOM     11  H   UNL     1       2.538   0.139  -0.412  1.00  0.00     0.141 HD
BRANCH  10  12
ATOM     12  S   UNL     1       2.619   2.323  -0.806  1.00  0.00     0.252 S 
ATOM     13  O   UNL     1       2.604   3.048  -2.061  1.00  0.00    -0.206 OA
ATOM     14  O   UNL     1       3.682   2.583   0.147  1.00  0.00    -0.206 OA
BRANCH  12  15
ATOM     15  C   UNL     1       1.107   2.555   0.015  1.00  0.00     0.158 A 
ATOM     16  C   UNL     1       1.025   0.332   1.350  1.00  0.00     0.067 C 
ATOM     17  C   UNL     1       0.558   1.672   0.874  1.00  0.00     0.046 A 
ATOM     18  N   UNL     1      -0.664   2.098   1.351  1.00  0.00    -0.315 N 
ATOM     19  C   UNL     1      -1.106   3.332   0.934  1.00  0.00     0.305 A 
ATOM     20  H   UNL     1      -1.198   1.542   1.963  1.00  0.00     0.170 HD
ATOM     21  S   UNL     1       0.111   3.996  -0.144  1.00  0.00    -0.061 S 
ATOM     22  O   UNL     1      -2.138   3.878   1.246  1.00  0.00    -0.257 OA
ENDBRANCH  12  15
ENDBRANCH  10  12
ENDBRANCH   9  10
BRANCH   9  23
ATOM     23  C   UNL     1       0.616   0.233  -2.238  1.00  0.00     0.021 C 
BRANCH  23  24
ATOM     24  C   UNL     1      -0.320  -0.726  -2.956  1.00  0.00     0.002 CG0
ATOM     25  G   UNL     1      -0.477  -2.046  -2.211  1.00  0.00     0.000 G0
ENDBRANCH  23  24
ENDBRANCH   9  23
ENDBRANCH   8   9
BRANCH   8  26
ATOM     26  C   UNL     1       2.012  -2.473  -1.905  1.00  0.00     0.015 C 
BRANCH  26  27
ATOM     27  C   UNL     1       0.685  -2.991  -2.440  1.00  0.00     0.001 C 
BRANCH  27  28
ATOM     28  C   UNL     1      -0.477  -2.046  -2.211  1.00  0.00     0.000 CG0
ATOM     29  G   UNL     1      -0.320  -0.726  -2.956  1.00  0.00     0.000 G0
ENDBRANCH  27  28
ENDBRANCH  26  27
ENDBRANCH   8  26
ENDBRANCH   5   8
ENDBRANCH   3   4
ENDBRANCH   2   3
ENDBRANCH   1   2
BRANCH   1  30
ATOM     30  C   UNL     1       7.217  -4.012   0.617  1.00  0.00     0.002 C 
BRANCH  30  31
ATOM     31  C   UNL     1       6.477  -4.608   1.827  1.00  0.00     0.021 C 
BRANCH  31  32
ATOM     32  C   UNL     1       6.660  -6.109   1.937  1.00  0.00     0.116 C 
BRANCH  32  33
ATOM     33  N   UNL     1       8.057  -6.466   2.239  1.00  0.00    -0.352 N 
ATOM     34  C   UNL     1       8.614  -7.720   2.411  1.00  0.00     0.251 C 
ATOM     35  H   UNL     1       8.679  -5.708   2.330  1.00  0.00     0.163 HD
ATOM     36  O   UNL     1       9.693  -7.870   2.971  1.00  0.00    -0.269 OA
BRANCH  34  37
ATOM     37  C   UNL     1       7.883  -8.871   1.865  1.00  0.00     0.039 A 
ATOM     38  C   UNL     1       7.792 -10.111   2.507  1.00  0.00     0.014 A 
ATOM     39  C   UNL     1       7.226  -8.638   0.668  1.00  0.00     0.014 A 
ATOM     40  C   UNL     1       6.995 -11.096   1.928  1.00  0.00     0.010 A 
ATOM     41  C   UNL     1       6.216  -9.463   0.304  1.00  0.00     0.010 A 
ATOM     42  C   UNL     1       6.222 -10.751   0.814  1.00  0.00    -0.014 A 
BRANCH  42  43
ATOM     43  C   UNL     1       5.342 -11.669   0.113  1.00  0.00     0.031 A 
ATOM     44  C   UNL     1       4.167 -12.102   0.912  1.00  0.00     0.074 A 
ATOM     45  C   UNL     1       5.444 -11.765  -1.237  1.00  0.00     0.049 A 
ATOM     46  N   UNL     1       3.847 -13.300   1.272  1.00  0.00    -0.248 NA
ATOM     47  C   UNL     1       3.332 -11.055   1.531  1.00  0.00     0.031 C 
ATOM     48  C   UNL     1       6.380 -11.049  -2.131  1.00  0.00     0.029 A 
ATOM     49  N   UNL     1       4.603 -12.350  -2.125  1.00  0.00    -0.354 N 
ATOM     50  C   UNL     1       2.627 -13.168   1.934  1.00  0.00     0.074 A 
ATOM     51  C   UNL     1       2.507 -11.781   2.287  1.00  0.00     0.031 C 
ATOM     52  C   UNL     1       5.873 -11.011  -3.382  1.00  0.00     0.029 A 
ATOM     53  C   UNL     1       4.685 -11.837  -3.420  1.00  0.00     0.049 A 
ATOM     54  H   UNL     1       3.986 -13.076  -1.877  1.00  0.00     0.167 HD
ATOM     55  C   UNL     1       1.673 -14.137   1.857  1.00  0.00     0.034 A 
ATOM     56  C   UNL     1       3.789 -12.020  -4.423  1.00  0.00     0.034 A 
ATOM     57  C   UNL     1       2.221 -15.367   1.342  1.00  0.00     0.049 A 
ATOM     58  C   UNL     1       2.968 -13.197  -4.049  1.00  0.00     0.074 A 
ATOM     59  C   UNL     1       3.238 -16.219   1.725  1.00  0.00     0.029 A 
ATOM     60  N   UNL     1       1.975 -15.646   0.018  1.00  0.00    -0.354 N 
ATOM     61  N   UNL     1       3.462 -14.396  -3.909  1.00  0.00    -0.248 NA
ATOM     62  C   UNL     1       1.721 -12.943  -3.346  1.00  0.00     0.031 C 
ATOM     63  C   UNL     1       3.874 -16.595   0.504  1.00  0.00     0.029 A 
ATOM     64  C   UNL     1       3.162 -16.023  -0.553  1.00  0.00     0.049 A 
ATOM     65  H   UNL     1       1.104 -15.585  -0.437  1.00  0.00     0.167 HD
ATOM     66  C   UNL     1       2.861 -14.883  -2.755  1.00  0.00     0.074 A 
ATOM     67  C   UNL     1       1.731 -13.984  -2.508  1.00  0.00     0.031 C 
ATOM     68  C   UNL     1       3.510 -15.763  -1.934  1.00  0.00     0.034 A 
BRANCH  55  69
ATOM     69  C   UNL     1       0.180 -13.883   1.850  1.00  0.00     0.023 A 
ATOM     70  C   UNL     1      -0.661 -15.016   1.927  1.00  0.00     0.012 A 
ATOM     71  C   UNL     1      -0.433 -12.658   1.494  1.00  0.00     0.148 A 
ATOM     72  C   UNL     1      -2.021 -14.945   1.606  1.00  0.00     0.002 A 
ATOM     73  C   UNL     1      -1.799 -12.577   1.251  1.00  0.00     0.091 A 
ATOM     74  F   UNL     1       0.311 -11.577   1.249  1.00  0.00    -0.205 F 
ATOM     75  C   UNL     1      -2.592 -13.724   1.272  1.00  0.00     0.022 A 
BRANCH  73  76
ATOM     76  S   UNL     1      -2.591 -11.013   0.851  1.00  0.00     0.127 S 
ATOM     77  O   UNL     1      -2.831 -11.167  -0.581  1.00  0.00    -0.237 OA
ATOM     78  O   UNL     1      -3.788 -11.060   1.691  1.00  0.00    -0.237 OA
ATOM     79  O   UNL     1      -1.636  -9.981   1.234  1.00  0.00    -0.744 OA
ENDBRANCH  73  76
ENDBRANCH  55  69
BRANCH  56  80
ATOM     80  C   UNL     1       3.375 -11.070  -5.488  1.00  0.00     0.023 A 
ATOM     81  C   UNL     1       2.769 -11.544  -6.668  1.00  0.00     0.012 A 
ATOM     82  C   UNL     1       3.328  -9.679  -5.233  1.00  0.00     0.148 A 
ATOM     83  C   UNL     1       2.124 -10.667  -7.554  1.00  0.00     0.002 A 
ATOM     84  C   UNL     1       2.692  -8.810  -6.117  1.00  0.00     0.091 A 
ATOM     85  F   UNL     1       3.827  -9.221  -4.077  1.00  0.00    -0.205 F 
ATOM     86  C   UNL     1       2.080  -9.302  -7.276  1.00  0.00     0.022 A 
BRANCH  84  87
ATOM     87  S   UNL     1       2.579  -7.040  -5.807  1.00  0.00     0.127 S 
ATOM     88  O   UNL     1       3.058  -6.481  -7.071  1.00  0.00    -0.237 OA
ATOM     89  O   UNL     1       1.151  -6.862  -5.561  1.00  0.00    -0.237 OA
ATOM     90  O   UNL     1       3.448  -6.775  -4.666  1.00  0.00    -0.744 OA
ENDBRANCH  84  87
ENDBRANCH  56  80
BRANCH  68  91
ATOM     91  C   UNL     1       4.828 -16.336  -2.404  1.00  0.00     0.023 A 
ATOM     92  C   UNL     1       5.989 -15.547  -2.559  1.00  0.00     0.012 A 
ATOM     93  C   UNL     1       4.947 -17.730  -2.499  1.00  0.00     0.148 A 
ATOM     94  C   UNL     1       7.233 -16.132  -2.819  1.00  0.00     0.002 A 
ATOM     95  C   UNL     1       6.190 -18.312  -2.714  1.00  0.00     0.091 A 
ATOM     96  F   UNL     1       3.839 -18.469  -2.333  1.00  0.00    -0.205 F 
ATOM     97  C   UNL     1       7.335 -17.517  -2.884  1.00  0.00     0.022 A 
BRANCH  95  98
ATOM     98  S   UNL     1       6.412 -20.091  -2.683  1.00  0.00     0.127 S 
ATOM     99  O   UNL     1       6.673 -20.389  -4.089  1.00  0.00    -0.237 OA
ATOM    100  O   UNL     1       7.568 -20.246  -1.799  1.00  0.00    -0.237 OA
ATOM    101  O   UNL     1       5.174 -20.642  -2.147  1.00  0.00    -0.744 OA
ENDBRANCH  95  98
ENDBRANCH  68  91
ENDBRANCH  42  43
ENDBRANCH  34  37
ENDBRANCH  32  33
ENDBRANCH  31  32
ENDBRANCH  30  31
ENDBRANCH   1  30
TORSDOF 19
