REMARK SMILES COCC[C@H]([NH3+])C(=O)N[C@@H]1CCCCC[C@@H]1C(=O)NCCCCCCNC(=O)c1ccc(-c2c3nc(c(-c4cccc(S(=O)(=O)[O-])c4F)c4ccc([nH]4)c(-c4cccc(S(=O)(=O)[O-])c4F)c4nc(c(-c5cccc(S(=O)(=O)[O-])c5F)c5ccc2[nH]5)C=C4)C=C3)cc1
REMARK SMILES IDX 21 1 20 2 19 3 17 4 18 5 16 7 10 8 9 9 7 10 8 11 5 13 4 14
REMARK SMILES IDX 3 15 2 16 1 17 6 18 11 22 15 24 14 25 13 26 12 27 22 29
REMARK SMILES IDX 23 30 24 31 25 32 26 33 27 34 28 36 29 37 30 38 91 39 31 40
REMARK SMILES IDX 90 41 32 42 33 43 34 44 84 45 35 46 89 47 83 48 85 49 36 50
REMARK SMILES IDX 88 51 82 52 81 53 37 55 69 56 49 57 68 58 50 59 53 60 67 61
REMARK SMILES IDX 86 62 51 63 52 64 66 66 87 67 54 68 38 69 39 70 47 71 40 72
REMARK SMILES IDX 42 73 48 74 41 75 43 76 44 77 45 78 46 79 70 80 71 81 79 82
REMARK SMILES IDX 72 83 74 84 80 85 73 86 75 87 76 88 77 89 78 90 55 91 56 92
REMARK SMILES IDX 64 93 57 94 59 95 65 96 58 97 60 98 61 99 62 100 63 101
REMARK H PARENT 19 6 9 12 6 19 6 20 6 21 26 35 85 54 53 65
REMARK Flexibility Score: 100.00
ROOT
ATOM      1  C   UNL     1      -1.598   7.856   4.390  1.00  0.00     0.021 C 
ENDROOT
BRANCH   1   2
ATOM      2  C   UNL     1      -1.123   6.403   4.361  1.00  0.00     0.116 C 
BRANCH   2   3
ATOM      3  N   UNL     1      -1.234   5.856   3.024  1.00  0.00    -0.356 N 
ATOM      4  C   UNL     1      -0.305   5.693   2.047  1.00  0.00     0.225 C 
ATOM      5  O   UNL     1      -0.692   5.222   0.970  1.00  0.00    -0.275 OA
ATOM      6  H   UNL     1      -2.138   5.551   2.782  1.00  0.00     0.163 HD
BRANCH   4   7
ATOM      7  C   UNL     1       1.188   5.958   2.260  1.00  0.00     0.101 C 
BRANCH   7   8
ATOM      8  C   UNL     1       1.909   4.660   2.697  1.00  0.00     0.094 C 
BRANCH   8   9
ATOM      9  N   UNL     1       1.101   3.755   3.519  1.00  0.00    -0.347 N 
ATOM     10  C   UNL     1       0.778   2.438   3.362  1.00  0.00     0.278 C 
ATOM     11  O   UNL     1       0.198   1.893   4.309  1.00  0.00    -0.268 OA
ATOM     12  H   UNL     1       0.725   4.171   4.329  1.00  0.00     0.163 HD
BRANCH  10  13
ATOM     13  C   UNL     1       1.027   1.656   2.040  1.00  0.00     0.273 C 
BRANCH  13  14
ATOM     14  C   UNL     1       2.496   1.608   1.565  1.00  0.00     0.104 C 
BRANCH  14  15
ATOM     15  C   UNL     1       2.790   1.724   0.067  1.00  0.00     0.166 C 
BRANCH  15  16
ATOM     16  O   UNL     1       2.912   3.075  -0.375  1.00  0.00    -0.384 OA
ATOM     17  C   UNL     1       1.802   3.558  -1.118  1.00  0.00     0.194 C 
ENDBRANCH  15  16
ENDBRANCH  14  15
ENDBRANCH  13  14
BRANCH  13  18
ATOM     18  N   UNL     1      -0.031   2.006   1.084  1.00  0.00    -0.347 N 
ATOM     19  H   UNL     1       0.010   3.005   0.882  1.00  0.00     0.345 HD
ATOM     20  H   UNL     1      -0.941   1.777   1.484  1.00  0.00     0.345 HD
ATOM     21  H   UNL     1       0.103   1.479   0.221  1.00  0.00     0.345 HD
ENDBRANCH  13  18
ENDBRANCH  10  13
ENDBRANCH   8   9
BRANCH   8  22
ATOM     22  C   UNL     1       3.247   4.861   3.428  1.00  0.00     0.026 CG0
ATOM     23  G   UNL     1       4.251   5.744   2.696  1.00  0.00     0.000 G0
ENDBRANCH   8  22
ENDBRANCH   7   8
BRANCH   7  24
ATOM     24  C   UNL     1       1.554   7.257   2.995  1.00  0.00     0.015 C 
BRANCH  24  25
ATOM     25  C   UNL     1       2.866   7.892   2.526  1.00  0.00     0.001 C 
BRANCH  25  26
ATOM     26  C   UNL     1       4.120   7.216   3.065  1.00  0.00     0.000 C 
BRANCH  26  27
ATOM     27  C   UNL     1       4.251   5.744   2.696  1.00  0.00     0.002 CG0
ATOM     28  G   UNL     1       3.247   4.861   3.428  1.00  0.00     0.000 G0
ENDBRANCH  26  27
ENDBRANCH  25  26
ENDBRANCH  24  25
ENDBRANCH   7  24
ENDBRANCH   4   7
ENDBRANCH   2   3
ENDBRANCH   1   2
BRANCH   1  29
ATOM     29  C   UNL     1      -3.114   7.993   4.565  1.00  0.00     0.002 C 
BRANCH  29  30
ATOM     30  C   UNL     1      -3.652   7.470   5.902  1.00  0.00     0.002 C 
BRANCH  30  31
ATOM     31  C   UNL     1      -2.990   8.071   7.145  1.00  0.00     0.021 C 
BRANCH  31  32
ATOM     32  C   UNL     1      -3.113   9.588   7.253  1.00  0.00     0.116 C 
BRANCH  32  33
ATOM     33  N   UNL     1      -4.505  10.005   7.344  1.00  0.00    -0.352 N 
ATOM     34  C   UNL     1      -5.130  10.713   8.334  1.00  0.00     0.251 C 
ATOM     35  H   UNL     1      -5.077   9.740   6.588  1.00  0.00     0.163 HD
ATOM     36  O   UNL     1      -6.364  10.757   8.374  1.00  0.00    -0.269 OA
BRANCH  34  37
ATOM     37  C   UNL     1      -4.331  11.423   9.352  1.00  0.00     0.039 A 
ATOM     38  C   UNL     1      -4.714  11.351  10.693  1.00  0.00     0.014 A 
ATOM     39  C   UNL     1      -3.217  12.180   8.977  1.00  0.00     0.014 A 
ATOM     40  C   UNL     1      -3.954  12.006  11.664  1.00  0.00     0.010 A 
ATOM     41  C   UNL     1      -2.421  12.773   9.952  1.00  0.00     0.010 A 
ATOM     42  C   UNL     1      -2.789  12.704  11.304  1.00  0.00    -0.014 A 
BRANCH  42  43
ATOM     43  C   UNL     1      -1.947  13.374  12.327  1.00  0.00     0.031 A 
ATOM     44  C   UNL     1      -1.784  14.870  12.311  1.00  0.00     0.074 A 
ATOM     45  C   UNL     1      -1.272  12.628  13.224  1.00  0.00     0.049 A 
ATOM     46  N   UNL     1      -1.058  15.629  13.090  1.00  0.00    -0.248 NA
ATOM     47  C   UNL     1      -2.514  15.610  11.267  1.00  0.00     0.031 C 
ATOM     48  C   UNL     1      -1.290  11.165  13.293  1.00  0.00     0.029 A 
ATOM     49  N   UNL     1      -0.422  12.997  14.236  1.00  0.00    -0.354 N 
ATOM     50  C   UNL     1      -1.220  16.926  12.617  1.00  0.00     0.074 A 
ATOM     51  C   UNL     1      -2.080  16.848  11.457  1.00  0.00     0.031 C 
ATOM     52  C   UNL     1      -0.496  10.762  14.297  1.00  0.00     0.029 A 
ATOM     53  C   UNL     1       0.108  11.932  14.926  1.00  0.00     0.049 A 
ATOM     54  H   UNL     1      -0.211  13.935  14.447  1.00  0.00     0.167 HD
ATOM     55  C   UNL     1      -0.730  18.082  13.124  1.00  0.00     0.034 A 
ATOM     56  C   UNL     1       0.984  11.903  15.950  1.00  0.00     0.034 A 
ATOM     57  C   UNL     1       0.092  18.159  14.302  1.00  0.00     0.049 A 
ATOM     58  C   UNL     1       1.489  13.205  16.512  1.00  0.00     0.074 A 
ATOM     59  C   UNL     1       0.587  19.285  14.935  1.00  0.00     0.029 A 
ATOM     60  N   UNL     1       0.539  17.064  15.025  1.00  0.00    -0.354 N 
ATOM     61  N   UNL     1       1.205  14.431  16.142  1.00  0.00    -0.248 NA
ATOM     62  C   UNL     1       2.405  13.122  17.659  1.00  0.00     0.031 C 
ATOM     63  C   UNL     1       1.346  18.870  16.034  1.00  0.00     0.029 A 
ATOM     64  C   UNL     1       1.305  17.487  16.098  1.00  0.00     0.049 A 
ATOM     65  H   UNL     1       0.341  16.125  14.808  1.00  0.00     0.167 HD
ATOM     66  C   UNL     1       1.873  15.262  17.033  1.00  0.00     0.074 A 
ATOM     67  C   UNL     1       2.558  14.400  17.974  1.00  0.00     0.031 C 
ATOM     68  C   UNL     1       1.929  16.617  17.061  1.00  0.00     0.034 A 
BRANCH  55  69
ATOM     69  C   UNL     1      -1.126  19.368  12.444  1.00  0.00     0.023 A 
ATOM     70  C   UNL     1      -2.453  19.831  12.564  1.00  0.00     0.012 A 
ATOM     71  C   UNL     1      -0.186  20.144  11.739  1.00  0.00     0.148 A 
ATOM     72  C   UNL     1      -2.847  21.027  11.966  1.00  0.00     0.002 A 
ATOM     73  C   UNL     1      -0.575  21.357  11.182  1.00  0.00     0.091 A 
ATOM     74  F   UNL     1       1.066  19.679  11.617  1.00  0.00    -0.205 F 
ATOM     75  C   UNL     1      -1.907  21.794  11.284  1.00  0.00     0.022 A 
BRANCH  73  76
ATOM     76  S   UNL     1       0.576  22.458  10.350  1.00  0.00     0.127 S 
ATOM     77  O   UNL     1       0.141  22.341   8.958  1.00  0.00    -0.237 OA
ATOM     78  O   UNL     1       0.276  23.747  10.975  1.00  0.00    -0.237 OA
ATOM     79  O   UNL     1       1.905  21.939  10.634  1.00  0.00    -0.744 OA
ENDBRANCH  73  76
ENDBRANCH  55  69
BRANCH  56  80
ATOM     80  C   UNL     1       1.381  10.603  16.561  1.00  0.00     0.023 A 
ATOM     81  C   UNL     1       0.942  10.290  17.862  1.00  0.00     0.012 A 
ATOM     82  C   UNL     1       2.177   9.674  15.864  1.00  0.00     0.148 A 
ATOM     83  C   UNL     1       1.319   9.093  18.473  1.00  0.00     0.002 A 
ATOM     84  C   UNL     1       2.504   8.460  16.456  1.00  0.00     0.091 A 
ATOM     85  F   UNL     1       2.597   9.995  14.632  1.00  0.00    -0.205 F 
ATOM     86  C   UNL     1       2.091   8.175  17.767  1.00  0.00     0.022 A 
BRANCH  84  87
ATOM     87  S   UNL     1       3.384   7.169  15.571  1.00  0.00     0.127 S 
ATOM     88  O   UNL     1       4.713   7.245  16.174  1.00  0.00    -0.237 OA
ATOM     89  O   UNL     1       2.614   5.976  15.925  1.00  0.00    -0.237 OA
ATOM     90  O   UNL     1       3.301   7.536  14.164  1.00  0.00    -0.744 OA
ENDBRANCH  84  87
ENDBRANCH  56  80
BRANCH  68  91
ATOM     91  C   UNL     1       2.724  17.258  18.168  1.00  0.00     0.023 A 
ATOM     92  C   UNL     1       4.131  17.200  18.146  1.00  0.00     0.012 A 
ATOM     93  C   UNL     1       2.077  17.975  19.194  1.00  0.00     0.148 A 
ATOM     94  C   UNL     1       4.882  17.816  19.146  1.00  0.00     0.002 A 
ATOM     95  C   UNL     1       2.833  18.628  20.160  1.00  0.00     0.091 A 
ATOM     96  F   UNL     1       0.736  18.003  19.209  1.00  0.00    -0.205 F 
ATOM     97  C   UNL     1       4.234  18.539  20.145  1.00  0.00     0.022 A 
BRANCH  95  98
ATOM     98  S   UNL     1       2.089  19.662  21.427  1.00  0.00     0.127 S 
ATOM     99  O   UNL     1       2.240  18.828  22.618  1.00  0.00    -0.237 OA
ATOM    100  O   UNL     1       2.944  20.849  21.401  1.00  0.00    -0.237 OA
ATOM    101  O   UNL     1       0.717  19.897  20.997  1.00  0.00    -0.744 OA
ENDBRANCH  95  98
ENDBRANCH  68  91
ENDBRANCH  42  43
ENDBRANCH  34  37
ENDBRANCH  32  33
ENDBRANCH  31  32
ENDBRANCH  30  31
ENDBRANCH  29  30
ENDBRANCH   1  29
TORSDOF 22
