REMARK SMILES CC(=O)Oc1ccccc1SCCCCCC(=O)NCCCCCCNC(=O)c1ccc(-c2c3nc(c(-c4cccc(S(=O)(=O)[O-])c4F)c4ccc([nH]4)c(-c4cccc(S(=O)(=O)[O-])c4F)c4nc(c(-c5cccc(S(=O)(=O)[O-])c5F)c5ccc2[nH]5)C=C4)C=C3)cc1
REMARK SMILES IDX 20 1 19 2 17 3 18 4 16 6 15 7 14 8 13 9 12 10 11 11 10 12
REMARK SMILES IDX 5 13 6 14 7 15 9 16 8 17 4 18 2 19 1 20 3 21 21 22 22 23
REMARK SMILES IDX 23 24 24 25 25 26 26 27 27 28 28 30 29 31 30 32 91 33 31 34
REMARK SMILES IDX 90 35 32 36 33 37 34 38 84 39 35 40 89 41 83 42 85 43 36 44
REMARK SMILES IDX 88 45 82 46 81 47 37 49 69 50 49 51 68 52 50 53 53 54 67 55
REMARK SMILES IDX 86 56 51 57 52 58 66 60 87 61 54 62 38 63 39 64 47 65 40 66
REMARK SMILES IDX 42 67 48 68 41 69 43 70 44 71 45 72 46 73 70 74 71 75 79 76
REMARK SMILES IDX 72 77 74 78 80 79 73 80 75 81 76 82 77 83 78 84 55 85 56 86
REMARK SMILES IDX 64 87 57 88 59 89 65 90 58 91 60 92 61 93 62 94 63 95
REMARK H PARENT 19 5 26 29 85 48 53 59
REMARK Flexibility Score: inf
ROOT
ATOM      1  C   UNL     1       3.294   2.748   0.865  1.00  0.00     0.116 C 
ENDROOT
BRANCH   1   2
ATOM      2  N   UNL     1       4.380   1.797   0.963  1.00  0.00    -0.356 N 
ATOM      3  C   UNL     1       4.307   0.447   1.106  1.00  0.00     0.219 C 
ATOM      4  O   UNL     1       5.344  -0.192   1.289  1.00  0.00    -0.275 OA
ATOM      5  H   UNL     1       5.287   2.176   0.921  1.00  0.00     0.163 HD
BRANCH   3   6
ATOM      6  C   UNL     1       2.963  -0.243   1.014  1.00  0.00     0.100 C 
BRANCH   6   7
ATOM      7  C   UNL     1       2.234  -0.360   2.355  1.00  0.00     0.010 C 
BRANCH   7   8
ATOM      8  C   UNL     1       1.088   0.628   2.679  1.00  0.00     0.001 C 
BRANCH   8   9
ATOM      9  C   UNL     1       0.089   0.889   1.549  1.00  0.00     0.011 C 
BRANCH   9  10
ATOM     10  C   UNL     1      -1.436   0.947   1.751  1.00  0.00     0.075 C 
BRANCH  10  11
ATOM     11  S   UNL     1      -2.538  -0.090   2.777  1.00  0.00    -0.122 SA
BRANCH  11  12
ATOM     12  C   UNL     1      -1.531  -0.910   3.970  1.00  0.00     0.050 A 
ATOM     13  C   UNL     1      -0.636  -1.952   3.708  1.00  0.00     0.144 A 
ATOM     14  C   UNL     1       0.191  -2.461   4.722  1.00  0.00     0.048 A 
ATOM     15  C   UNL     1       0.099  -1.965   6.021  1.00  0.00     0.004 A 
ATOM     16  C   UNL     1      -1.649  -0.465   5.300  1.00  0.00     0.019 A 
ATOM     17  C   UNL     1      -0.834  -0.977   6.315  1.00  0.00     0.001 A 
BRANCH  13  18
ATOM     18  O   UNL     1      -0.268  -2.410   2.405  1.00  0.00    -0.426 OA
BRANCH  18  19
ATOM     19  C   UNL     1      -0.988  -2.603   1.224  1.00  0.00     0.308 C 
ATOM     20  C   UNL     1       0.004  -2.842   0.122  1.00  0.00     0.139 C 
ATOM     21  O   UNL     1      -2.203  -2.638   1.091  1.00  0.00    -0.252 OA
ENDBRANCH  18  19
ENDBRANCH  13  18
ENDBRANCH  11  12
ENDBRANCH  10  11
ENDBRANCH   9  10
ENDBRANCH   8   9
ENDBRANCH   7   8
ENDBRANCH   6   7
ENDBRANCH   3   6
ENDBRANCH   1   2
BRANCH   1  22
ATOM     22  C   UNL     1       3.061   3.424   2.213  1.00  0.00     0.021 C 
BRANCH  22  23
ATOM     23  C   UNL     1       3.706   4.800   2.321  1.00  0.00     0.002 C 
BRANCH  23  24
ATOM     24  C   UNL     1       3.074   5.848   1.399  1.00  0.00     0.002 C 
BRANCH  24  25
ATOM     25  C   UNL     1       1.556   6.021   1.542  1.00  0.00     0.021 C 
BRANCH  25  26
ATOM     26  C   UNL     1       1.070   6.269   2.970  1.00  0.00     0.116 C 
BRANCH  26  27
ATOM     27  N   UNL     1       1.779   7.379   3.587  1.00  0.00    -0.352 N 
ATOM     28  C   UNL     1       1.335   8.638   3.890  1.00  0.00     0.251 C 
ATOM     29  H   UNL     1       2.718   7.198   3.821  1.00  0.00     0.163 HD
ATOM     30  O   UNL     1       2.144   9.531   4.125  1.00  0.00    -0.269 OA
BRANCH  28  31
ATOM     31  C   UNL     1      -0.114   8.914   3.941  1.00  0.00     0.039 A 
ATOM     32  C   UNL     1      -0.601  10.094   3.374  1.00  0.00     0.014 A 
ATOM     33  C   UNL     1      -0.982   8.029   4.587  1.00  0.00     0.014 A 
ATOM     34  C   UNL     1      -1.968  10.368   3.422  1.00  0.00     0.010 A 
ATOM     35  C   UNL     1      -2.351   8.270   4.572  1.00  0.00     0.010 A 
ATOM     36  C   UNL     1      -2.856   9.449   4.004  1.00  0.00    -0.014 A 
BRANCH  36  37
ATOM     37  C   UNL     1      -4.317   9.703   4.033  1.00  0.00     0.031 A 
ATOM     38  C   UNL     1      -5.029   9.876   5.347  1.00  0.00     0.074 A 
ATOM     39  C   UNL     1      -5.013   9.690   2.881  1.00  0.00     0.049 A 
ATOM     40  N   UNL     1      -6.304  10.050   5.577  1.00  0.00    -0.248 NA
ATOM     41  C   UNL     1      -4.203   9.818   6.566  1.00  0.00     0.031 C 
ATOM     42  C   UNL     1      -4.444   9.450   1.553  1.00  0.00     0.029 A 
ATOM     43  N   UNL     1      -6.355   9.851   2.643  1.00  0.00    -0.354 N 
ATOM     44  C   UNL     1      -6.440  10.084   6.960  1.00  0.00     0.074 A 
ATOM     45  C   UNL     1      -5.122   9.880   7.519  1.00  0.00     0.031 C 
ATOM     46  C   UNL     1      -5.429   9.480   0.641  1.00  0.00     0.029 A 
ATOM     47  C   UNL     1      -6.700   9.715   1.319  1.00  0.00     0.049 A 
ATOM     48  H   UNL     1      -7.008  10.047   3.353  1.00  0.00     0.167 HD
ATOM     49  C   UNL     1      -7.556  10.297   7.697  1.00  0.00     0.034 A 
ATOM     50  C   UNL     1      -7.905   9.767   0.721  1.00  0.00     0.034 A 
ATOM     51  C   UNL     1      -8.855  10.545   7.133  1.00  0.00     0.049 A 
ATOM     52  C   UNL     1      -9.122  10.054   1.557  1.00  0.00     0.074 A 
ATOM     53  C   UNL     1     -10.031  10.866   7.787  1.00  0.00     0.029 A 
ATOM     54  N   UNL     1      -9.151  10.494   5.779  1.00  0.00    -0.354 N 
ATOM     55  N   UNL     1      -9.206  10.251   2.851  1.00  0.00    -0.248 NA
ATOM     56  C   UNL     1     -10.405  10.166   0.849  1.00  0.00     0.031 C 
ATOM     57  C   UNL     1     -11.043  10.989   6.829  1.00  0.00     0.029 A 
ATOM     58  C   UNL     1     -10.493  10.769   5.577  1.00  0.00     0.049 A 
ATOM     59  H   UNL     1      -8.503  10.292   5.066  1.00  0.00     0.167 HD
ATOM     60  C   UNL     1     -10.540  10.543   3.107  1.00  0.00     0.074 A 
ATOM     61  C   UNL     1     -11.224  10.519   1.830  1.00  0.00     0.031 C 
ATOM     62  C   UNL     1     -11.148  10.794   4.294  1.00  0.00     0.034 A 
BRANCH  49  63
ATOM     63  C   UNL     1      -7.408  10.329   9.196  1.00  0.00     0.023 A 
ATOM     64  C   UNL     1      -6.749  11.416   9.806  1.00  0.00     0.012 A 
ATOM     65  C   UNL     1      -7.960   9.316  10.005  1.00  0.00     0.148 A 
ATOM     66  C   UNL     1      -6.608  11.477  11.192  1.00  0.00     0.002 A 
ATOM     67  C   UNL     1      -7.855   9.406  11.389  1.00  0.00     0.091 A 
ATOM     68  F   UNL     1      -8.564   8.278   9.409  1.00  0.00    -0.205 F 
ATOM     69  C   UNL     1      -7.169  10.479  11.982  1.00  0.00     0.022 A 
BRANCH  67  70
ATOM     70  S   UNL     1      -8.611   8.212  12.497  1.00  0.00     0.127 S 
ATOM     71  O   UNL     1      -7.442   7.484  12.989  1.00  0.00    -0.237 OA
ATOM     72  O   UNL     1      -9.253   9.075  13.490  1.00  0.00    -0.237 OA
ATOM     73  O   UNL     1      -9.535   7.437  11.681  1.00  0.00    -0.744 OA
ENDBRANCH  67  70
ENDBRANCH  49  63
BRANCH  50  74
ATOM     74  C   UNL     1      -8.004   9.618  -0.758  1.00  0.00     0.023 A 
ATOM     75  C   UNL     1      -8.322  10.743  -1.545  1.00  0.00     0.012 A 
ATOM     76  C   UNL     1      -7.744   8.388  -1.393  1.00  0.00     0.148 A 
ATOM     77  C   UNL     1      -8.408  10.639  -2.933  1.00  0.00     0.002 A 
ATOM     78  C   UNL     1      -7.777   8.304  -2.780  1.00  0.00     0.091 A 
ATOM     79  F   UNL     1      -7.452   7.327  -0.626  1.00  0.00    -0.205 F 
ATOM     80  C   UNL     1      -8.126   9.423  -3.551  1.00  0.00     0.022 A 
BRANCH  78  81
ATOM     81  S   UNL     1      -7.293   6.818  -3.666  1.00  0.00     0.127 S 
ATOM     82  O   UNL     1      -8.576   6.344  -4.178  1.00  0.00    -0.237 OA
ATOM     83  O   UNL     1      -6.384   7.354  -4.681  1.00  0.00    -0.237 OA
ATOM     84  O   UNL     1      -6.648   5.965  -2.678  1.00  0.00    -0.744 OA
ENDBRANCH  78  81
ENDBRANCH  50  74
BRANCH  62  85
ATOM     85  C   UNL     1     -12.623  11.096   4.272  1.00  0.00     0.023 A 
ATOM     86  C   UNL     1     -13.546  10.060   4.028  1.00  0.00     0.012 A 
ATOM     87  C   UNL     1     -13.096  12.389   4.570  1.00  0.00     0.148 A 
ATOM     88  C   UNL     1     -14.917  10.313   4.050  1.00  0.00     0.002 A 
ATOM     89  C   UNL     1     -14.464  12.623   4.639  1.00  0.00     0.091 A 
ATOM     90  F   UNL     1     -12.201  13.365   4.780  1.00  0.00    -0.205 F 
ATOM     91  C   UNL     1     -15.376  11.590   4.367  1.00  0.00     0.022 A 
BRANCH  89  92
ATOM     92  S   UNL     1     -15.144  14.210   5.134  1.00  0.00     0.127 S 
ATOM     93  O   UNL     1     -15.649  14.728   3.864  1.00  0.00    -0.237 OA
ATOM     94  O   UNL     1     -16.182  13.820   6.090  1.00  0.00    -0.237 OA
ATOM     95  O   UNL     1     -14.037  14.956   5.718  1.00  0.00    -0.744 OA
ENDBRANCH  89  92
ENDBRANCH  62  85
ENDBRANCH  36  37
ENDBRANCH  28  31
ENDBRANCH  26  27
ENDBRANCH  25  26
ENDBRANCH  24  25
ENDBRANCH  23  24
ENDBRANCH  22  23
ENDBRANCH   1  22
TORSDOF 24
