REMARK SMILES CC(=O)Nc1ccc(/C=N/c2ccccc2C(=O)NCCCCCCNC(=O)c2ccc(-c3c4nc(c(-c5cccc(S(=O)(=O)[O-])c5F)c5ccc([nH]5)c(-c5cccc(S(=O)(=O)[O-])c5F)c5nc(c(-c6cccc(S(=O)(=O)[O-])c6F)c6ccc3[nH]6)C=C5)C=C4)cc2)cc1
REMARK SMILES IDX 22 1 21 2 20 3 19 4 17 5 18 6 16 8 11 9 12 10 13 11 15 12
REMARK SMILES IDX 14 13 10 14 9 15 8 16 5 17 6 18 93 19 7 20 92 21 4 22 1 23
REMARK SMILES IDX 2 24 3 25 23 27 24 28 25 29 26 30 27 31 28 33 29 34 30 35
REMARK SMILES IDX 91 36 31 37 90 38 32 39 33 40 34 41 84 42 35 43 89 44 83 45
REMARK SMILES IDX 85 46 36 47 88 48 82 49 81 50 37 52 69 53 49 54 68 55 50 56
REMARK SMILES IDX 53 57 67 58 86 59 51 60 52 61 66 63 87 64 54 65 38 66 39 67
REMARK SMILES IDX 47 68 40 69 42 70 48 71 41 72 43 73 44 74 45 75 46 76 70 77
REMARK SMILES IDX 71 78 79 79 72 80 74 81 80 82 73 83 75 84 76 85 77 86 78 87
REMARK SMILES IDX 55 88 56 89 64 90 57 91 59 92 65 93 58 94 60 95 61 96 62 97
REMARK SMILES IDX 63 98
REMARK H PARENT 19 7 4 26 26 32 85 51 53 62
REMARK Flexibility Score: inf
ROOT
ATOM      1  C   UNL     1       5.199   0.484  -5.276  1.00  0.00     0.002 C 
ENDROOT
BRANCH   1   2
ATOM      2  C   UNL     1       4.891   1.846  -5.909  1.00  0.00     0.021 C 
BRANCH   2   3
ATOM      3  C   UNL     1       4.929   3.086  -5.021  1.00  0.00     0.116 C 
BRANCH   3   4
ATOM      4  N   UNL     1       6.218   3.429  -4.465  1.00  0.00    -0.352 N 
ATOM      5  C   UNL     1       6.700   4.665  -4.097  1.00  0.00     0.253 C 
ATOM      6  O   UNL     1       7.785   4.700  -3.509  1.00  0.00    -0.269 OA
ATOM      7  H   UNL     1       6.836   2.675  -4.332  1.00  0.00     0.163 HD
BRANCH   5   8
ATOM      8  C   UNL     1       6.049   5.964  -4.449  1.00  0.00     0.065 A 
ATOM      9  C   UNL     1       4.686   6.300  -4.312  1.00  0.00     0.076 A 
ATOM     10  C   UNL     1       4.262   7.578  -4.720  1.00  0.00     0.029 A 
ATOM     11  C   UNL     1       5.158   8.530  -5.207  1.00  0.00     0.002 A 
ATOM     12  C   UNL     1       6.948   6.951  -4.915  1.00  0.00     0.016 A 
ATOM     13  C   UNL     1       6.507   8.220  -5.295  1.00  0.00     0.001 A 
BRANCH   9  14
ATOM     14  N   UNL     1       3.665   5.437  -3.882  1.00  0.00    -0.255 NA
ATOM     15  C   UNL     1       3.635   5.079  -2.640  1.00  0.00     0.119 C 
BRANCH  15  16
ATOM     16  C   UNL     1       2.651   4.074  -2.184  1.00  0.00    -0.007 A 
ATOM     17  C   UNL     1       1.028   1.886  -1.483  1.00  0.00     0.041 A 
ATOM     18  C   UNL     1       0.676   2.722  -2.552  1.00  0.00     0.027 A 
ATOM     19  C   UNL     1       2.187   2.181  -0.757  1.00  0.00     0.027 A 
ATOM     20  C   UNL     1       1.485   3.810  -2.907  1.00  0.00     0.012 A 
ATOM     21  C   UNL     1       2.992   3.275  -1.096  1.00  0.00     0.012 A 
BRANCH  17  22
ATOM     22  N   UNL     1       0.274   0.710  -1.308  1.00  0.00    -0.326 N 
ATOM     23  C   UNL     1       0.782   0.103   1.058  1.00  0.00     0.114 C 
ATOM     24  C   UNL     1       0.254  -0.220  -0.308  1.00  0.00     0.221 C 
ATOM     25  O   UNL     1      -0.241  -1.328  -0.521  1.00  0.00    -0.275 OA
ATOM     26  H   UNL     1      -0.355   0.524  -2.042  1.00  0.00     0.169 HD
ENDBRANCH  17  22
ENDBRANCH  15  16
ENDBRANCH   9  14
ENDBRANCH   5   8
ENDBRANCH   3   4
ENDBRANCH   2   3
ENDBRANCH   1   2
BRANCH   1  27
ATOM     27  C   UNL     1       4.519   0.117  -3.955  1.00  0.00     0.002 C 
BRANCH  27  28
ATOM     28  C   UNL     1       3.016   0.358  -3.836  1.00  0.00     0.021 C 
BRANCH  28  29
ATOM     29  C   UNL     1       2.079  -0.441  -4.732  1.00  0.00     0.116 C 
BRANCH  29  30
ATOM     30  N   UNL     1       1.916  -1.817  -4.298  1.00  0.00    -0.352 N 
ATOM     31  C   UNL     1       0.811  -2.545  -3.914  1.00  0.00     0.251 C 
ATOM     32  H   UNL     1       2.757  -2.329  -4.273  1.00  0.00     0.163 HD
ATOM     33  O   UNL     1       0.998  -3.695  -3.514  1.00  0.00    -0.269 OA
BRANCH  31  34
ATOM     34  C   UNL     1      -0.580  -2.007  -3.954  1.00  0.00     0.039 A 
ATOM     35  C   UNL     1      -1.494  -2.468  -2.993  1.00  0.00     0.014 A 
ATOM     36  C   UNL     1      -1.041  -1.131  -4.938  1.00  0.00     0.014 A 
ATOM     37  C   UNL     1      -2.822  -2.018  -2.979  1.00  0.00     0.010 A 
ATOM     38  C   UNL     1      -2.350  -0.634  -4.892  1.00  0.00     0.010 A 
ATOM     39  C   UNL     1      -3.262  -1.084  -3.923  1.00  0.00    -0.014 A 
BRANCH  39  40
ATOM     40  C   UNL     1      -4.680  -0.626  -3.962  1.00  0.00     0.031 A 
ATOM     41  C   UNL     1      -5.553  -0.995  -5.135  1.00  0.00     0.074 A 
ATOM     42  C   UNL     1      -5.177   0.166  -2.990  1.00  0.00     0.049 A 
ATOM     43  N   UNL     1      -6.784  -0.638  -5.397  1.00  0.00    -0.248 NA
ATOM     44  C   UNL     1      -4.953  -1.869  -6.157  1.00  0.00     0.031 C 
ATOM     45  C   UNL     1      -4.444   0.620  -1.808  1.00  0.00     0.029 A 
ATOM     46  N   UNL     1      -6.415   0.752  -2.858  1.00  0.00    -0.354 N 
ATOM     47  C   UNL     1      -7.091  -1.206  -6.628  1.00  0.00     0.074 A 
ATOM     48  C   UNL     1      -5.909  -1.911  -7.073  1.00  0.00     0.031 C 
ATOM     49  C   UNL     1      -5.239   1.423  -1.080  1.00  0.00     0.029 A 
ATOM     50  C   UNL     1      -6.528   1.564  -1.753  1.00  0.00     0.049 A 
ATOM     51  H   UNL     1      -7.151   0.603  -3.495  1.00  0.00     0.167 HD
ATOM     52  C   UNL     1      -8.255  -1.165  -7.320  1.00  0.00     0.034 A 
ATOM     53  C   UNL     1      -7.547   2.344  -1.336  1.00  0.00     0.034 A 
ATOM     54  C   UNL     1      -9.446  -0.499  -6.866  1.00  0.00     0.049 A 
ATOM     55  C   UNL     1      -8.831   2.375  -2.127  1.00  0.00     0.074 A 
ATOM     56  C   UNL     1     -10.695  -0.471  -7.462  1.00  0.00     0.029 A 
ATOM     57  N   UNL     1      -9.536   0.267  -5.715  1.00  0.00    -0.354 N 
ATOM     58  N   UNL     1      -9.147   1.720  -3.218  1.00  0.00    -0.248 NA
ATOM     59  C   UNL     1      -9.912   3.230  -1.611  1.00  0.00     0.031 C 
ATOM     60  C   UNL     1     -11.529   0.345  -6.693  1.00  0.00     0.029 A 
ATOM     61  C   UNL     1     -10.813   0.790  -5.594  1.00  0.00     0.049 A 
ATOM     62  H   UNL     1      -8.801   0.417  -5.078  1.00  0.00     0.167 HD
ATOM     63  C   UNL     1     -10.472   2.046  -3.490  1.00  0.00     0.074 A 
ATOM     64  C   UNL     1     -10.905   2.947  -2.443  1.00  0.00     0.031 C 
ATOM     65  C   UNL     1     -11.256   1.640  -4.519  1.00  0.00     0.034 A 
BRANCH  52  66
ATOM     66  C   UNL     1      -8.310  -1.886  -8.643  1.00  0.00     0.023 A 
ATOM     67  C   UNL     1      -8.306  -3.296  -8.675  1.00  0.00     0.012 A 
ATOM     68  C   UNL     1      -8.423  -1.168  -9.850  1.00  0.00     0.148 A 
ATOM     69  C   UNL     1      -8.373  -3.978  -9.890  1.00  0.00     0.002 A 
ATOM     70  C   UNL     1      -8.539  -1.855 -11.052  1.00  0.00     0.091 A 
ATOM     71  F   UNL     1      -8.407   0.172  -9.800  1.00  0.00    -0.205 F 
ATOM     72  C   UNL     1      -8.500  -3.259 -11.075  1.00  0.00     0.022 A 
BRANCH  70  73
ATOM     73  S   UNL     1      -8.789  -1.022 -12.623  1.00  0.00     0.127 S 
ATOM     74  O   UNL     1      -7.508  -1.258 -13.289  1.00  0.00    -0.237 OA
ATOM     75  O   UNL     1      -9.916  -1.766 -13.189  1.00  0.00    -0.237 OA
ATOM     76  O   UNL     1      -9.078   0.367 -12.301  1.00  0.00    -0.744 OA
ENDBRANCH  70  73
ENDBRANCH  52  66
BRANCH  53  77
ATOM     77  C   UNL     1      -7.422   3.133  -0.075  1.00  0.00     0.023 A 
ATOM     78  C   UNL     1      -8.206   2.782   1.042  1.00  0.00     0.012 A 
ATOM     79  C   UNL     1      -6.539   4.225   0.023  1.00  0.00     0.148 A 
ATOM     80  C   UNL     1      -8.141   3.527   2.221  1.00  0.00     0.002 A 
ATOM     81  C   UNL     1      -6.438   4.929   1.218  1.00  0.00     0.091 A 
ATOM     82  F   UNL     1      -5.811   4.552  -1.054  1.00  0.00    -0.205 F 
ATOM     83  C   UNL     1      -7.252   4.594   2.312  1.00  0.00     0.022 A 
BRANCH  81  84
ATOM     84  S   UNL     1      -5.235   6.239   1.468  1.00  0.00     0.127 S 
ATOM     85  O   UNL     1      -6.093   7.415   1.591  1.00  0.00    -0.237 OA
ATOM     86  O   UNL     1      -4.586   5.817   2.710  1.00  0.00    -0.237 OA
ATOM     87  O   UNL     1      -4.369   6.210   0.298  1.00  0.00    -0.744 OA
ENDBRANCH  81  84
ENDBRANCH  53  77
BRANCH  65  88
ATOM     88  C   UNL     1     -12.688   2.115  -4.553  1.00  0.00     0.023 A 
ATOM     89  C   UNL     1     -12.981   3.457  -4.864  1.00  0.00     0.012 A 
ATOM     90  C   UNL     1     -13.746   1.203  -4.364  1.00  0.00     0.148 A 
ATOM     91  C   UNL     1     -14.304   3.890  -4.958  1.00  0.00     0.002 A 
ATOM     92  C   UNL     1     -15.061   1.630  -4.511  1.00  0.00     0.091 A 
ATOM     93  F   UNL     1     -13.448  -0.067  -4.053  1.00  0.00    -0.205 F 
ATOM     94  C   UNL     1     -15.342   2.976  -4.795  1.00  0.00     0.022 A 
BRANCH  92  95
ATOM     95  S   UNL     1     -16.458   0.504  -4.421  1.00  0.00     0.127 S 
ATOM     96  O   UNL     1     -17.093   0.917  -3.170  1.00  0.00    -0.237 OA
ATOM     97  O   UNL     1     -17.210   0.847  -5.628  1.00  0.00    -0.237 OA
ATOM     98  O   UNL     1     -15.895  -0.840  -4.418  1.00  0.00    -0.744 OA
ENDBRANCH  92  95
ENDBRANCH  65  88
ENDBRANCH  39  40
ENDBRANCH  31  34
ENDBRANCH  29  30
ENDBRANCH  28  29
ENDBRANCH  27  28
ENDBRANCH   1  27
TORSDOF 19
