REMARK SMILES C[N@H+]1CCO[C@@H](CN2C[C@H](C(=O)NCCCCCCNC(=O)c3ccc(-c4c5nc(c(-c6cccc(S(=O)(=O)[O-])c6F)c6ccc([nH]6)c(-c6cccc(S(=O)(=O)[O-])c6F)c6nc(c(-c7cccc(S(=O)(=O)[O-])c7F)c7ccc4[nH]7)C=C6)C=C5)cc3)CC2=O)C1
REMARK SMILES IDX 17 1 16 2 15 3 14 4 13 5 11 6 12 7 10 9 8 10 9 11 87 12
REMARK SMILES IDX 86 13 88 14 7 15 6 16 1 17 2 18 3 19 89 20 4 22 5 23 18 24
REMARK SMILES IDX 19 25 20 26 21 27 22 29 23 30 24 31 85 32 25 33 84 34 26 35
REMARK SMILES IDX 27 36 28 37 78 38 29 39 83 40 77 41 79 42 30 43 82 44 76 45
REMARK SMILES IDX 75 46 31 48 63 49 43 50 62 51 44 52 47 53 61 54 80 55 45 56
REMARK SMILES IDX 46 57 60 59 81 60 48 61 32 62 33 63 41 64 34 65 36 66 42 67
REMARK SMILES IDX 35 68 37 69 38 70 39 71 40 72 64 73 65 74 73 75 66 76 68 77
REMARK SMILES IDX 74 78 67 79 69 80 70 81 71 82 72 83 49 84 50 85 58 86 51 87
REMARK SMILES IDX 53 88 59 89 52 90 54 91 55 92 56 93 57 94
REMARK H PARENT 13 8 2 21 20 28 79 47 47 58
REMARK Flexibility Score: inf
ROOT
ATOM      1  C   UNL     1       6.099  -4.761  -1.603  1.00  0.00     0.002 C 
ENDROOT
BRANCH   1   2
ATOM      2  C   UNL     1       5.067  -5.812  -1.185  1.00  0.00     0.002 C 
BRANCH   2   3
ATOM      3  C   UNL     1       3.950  -5.309  -0.266  1.00  0.00     0.021 C 
BRANCH   3   4
ATOM      4  C   UNL     1       3.142  -4.140  -0.821  1.00  0.00     0.116 C 
BRANCH   4   5
ATOM      5  N   UNL     1       2.466  -4.481  -2.062  1.00  0.00    -0.356 N 
ATOM      6  C   UNL     1       1.182  -4.237  -2.452  1.00  0.00     0.225 C 
ATOM      7  O   UNL     1       0.826  -4.636  -3.560  1.00  0.00    -0.275 OA
ATOM      8  H   UNL     1       3.019  -4.961  -2.720  1.00  0.00     0.163 HD
BRANCH   6   9
ATOM      9  C   UNL     1       0.245  -3.521  -1.494  1.00  0.00     0.107 C 
ATOM     10  N   UNL     1      -0.022  -1.312  -2.203  1.00  0.00    -0.339 N 
ATOM     11  C   UNL     1       0.703  -2.097  -1.244  1.00  0.00     0.133 C 
ATOM     12  C   UNL     1      -1.127  -1.977  -2.696  1.00  0.00     0.223 C 
ATOM     13  C   UNL     1      -1.167  -3.347  -2.061  1.00  0.00     0.115 C 
ATOM     14  O   UNL     1      -1.974  -1.517  -3.450  1.00  0.00    -0.275 OA
BRANCH  10  15
ATOM     15  C   UNL     1       0.372   0.043  -2.554  1.00  0.00     0.157 C 
BRANCH  15  16
ATOM     16  C   UNL     1      -0.475   1.166  -1.930  1.00  0.00     0.192 C 
ATOM     17  C   UNL     1       1.432   0.672   0.746  1.00  0.00     0.332 C 
ATOM     18  N   UNL     1       0.359   1.616   0.480  1.00  0.00    -0.333 N 
ATOM     19  C   UNL     1       0.858   2.896  -0.050  1.00  0.00     0.290 C 
ATOM     20  C   UNL     1      -0.706   1.097  -0.398  1.00  0.00     0.296 C 
ATOM     21  H   UNL     1      -0.063   1.772   1.395  1.00  0.00     0.348 HD
ATOM     22  C   UNL     1       1.183   2.856  -1.547  1.00  0.00     0.222 C 
ATOM     23  O   UNL     1       0.044   2.457  -2.322  1.00  0.00    -0.365 OA
ENDBRANCH  15  16
ENDBRANCH  10  15
ENDBRANCH   6   9
ENDBRANCH   4   5
ENDBRANCH   3   4
ENDBRANCH   2   3
ENDBRANCH   1   2
BRANCH   1  24
ATOM     24  C   UNL     1       6.812  -4.048  -0.451  1.00  0.00     0.021 C 
BRANCH  24  25
ATOM     25  C   UNL     1       7.502  -4.969   0.551  1.00  0.00     0.116 C 
BRANCH  25  26
ATOM     26  N   UNL     1       8.527  -5.795  -0.066  1.00  0.00    -0.352 N 
ATOM     27  C   UNL     1       9.829  -6.000   0.322  1.00  0.00     0.251 C 
ATOM     28  H   UNL     1       8.248  -6.277  -0.878  1.00  0.00     0.163 HD
ATOM     29  O   UNL     1      10.600  -6.607  -0.415  1.00  0.00    -0.269 OA
BRANCH  27  30
ATOM     30  C   UNL     1      10.304  -5.467   1.617  1.00  0.00     0.039 A 
ATOM     31  C   UNL     1      11.532  -4.803   1.663  1.00  0.00     0.014 A 
ATOM     32  C   UNL     1       9.542  -5.615   2.780  1.00  0.00     0.014 A 
ATOM     33  C   UNL     1      11.965  -4.231   2.862  1.00  0.00     0.010 A 
ATOM     34  C   UNL     1       9.939  -4.981   3.954  1.00  0.00     0.010 A 
ATOM     35  C   UNL     1      11.156  -4.283   4.009  1.00  0.00    -0.014 A 
BRANCH  35  36
ATOM     36  C   UNL     1      11.553  -3.592   5.263  1.00  0.00     0.031 A 
ATOM     37  C   UNL     1      11.791  -4.375   6.526  1.00  0.00     0.074 A 
ATOM     38  C   UNL     1      11.618  -2.245   5.285  1.00  0.00     0.049 A 
ATOM     39  N   UNL     1      12.096  -3.938   7.720  1.00  0.00    -0.248 NA
ATOM     40  C   UNL     1      11.644  -5.838   6.443  1.00  0.00     0.031 C 
ATOM     41  C   UNL     1      11.332  -1.367   4.148  1.00  0.00     0.029 A 
ATOM     42  N   UNL     1      11.917  -1.378   6.306  1.00  0.00    -0.354 N 
ATOM     43  C   UNL     1      12.145  -5.062   8.536  1.00  0.00     0.074 A 
ATOM     44  C   UNL     1      11.804  -6.199   7.708  1.00  0.00     0.031 C 
ATOM     45  C   UNL     1      11.476  -0.089   4.532  1.00  0.00     0.029 A 
ATOM     46  C   UNL     1      11.828  -0.052   5.948  1.00  0.00     0.049 A 
ATOM     47  H   UNL     1      12.172  -1.676   7.209  1.00  0.00     0.167 HD
ATOM     48  C   UNL     1      12.469  -5.146   9.849  1.00  0.00     0.034 A 
ATOM     49  C   UNL     1      11.999   1.067   6.678  1.00  0.00     0.034 A 
ATOM     50  C   UNL     1      12.841  -4.018  10.661  1.00  0.00     0.049 A 
ATOM     51  C   UNL     1      12.386   0.945   8.126  1.00  0.00     0.074 A 
ATOM     52  C   UNL     1      13.271  -4.011  11.976  1.00  0.00     0.029 A 
ATOM     53  N   UNL     1      12.813  -2.697  10.243  1.00  0.00    -0.354 N 
ATOM     54  N   UNL     1      12.583  -0.138   8.839  1.00  0.00    -0.248 NA
ATOM     55  C   UNL     1      12.611   2.197   8.863  1.00  0.00     0.031 C 
ATOM     56  C   UNL     1      13.471  -2.683  12.364  1.00  0.00     0.029 A 
ATOM     57  C   UNL     1      13.203  -1.864  11.279  1.00  0.00     0.049 A 
ATOM     58  H   UNL     1      12.555  -2.395   9.343  1.00  0.00     0.167 HD
ATOM     59  C   UNL     1      12.989   0.300  10.094  1.00  0.00     0.074 A 
ATOM     60  C   UNL     1      13.031   1.747  10.037  1.00  0.00     0.031 C 
ATOM     61  C   UNL     1      13.287  -0.428  11.198  1.00  0.00     0.034 A 
BRANCH  48  62
ATOM     62  C   UNL     1      12.481  -6.514  10.483  1.00  0.00     0.023 A 
ATOM     63  C   UNL     1      13.486  -7.438  10.130  1.00  0.00     0.012 A 
ATOM     64  C   UNL     1      11.539  -6.862  11.470  1.00  0.00     0.148 A 
ATOM     65  C   UNL     1      13.531  -8.700  10.723  1.00  0.00     0.002 A 
ATOM     66  C   UNL     1      11.619  -8.104  12.091  1.00  0.00     0.091 A 
ATOM     67  F   UNL     1      10.579  -5.979  11.779  1.00  0.00    -0.205 F 
ATOM     68  C   UNL     1      12.606  -9.028  11.709  1.00  0.00     0.022 A 
BRANCH  66  69
ATOM     69  S   UNL     1      10.525  -8.592  13.429  1.00  0.00     0.127 S 
ATOM     70  O   UNL     1       9.715  -9.625  12.786  1.00  0.00    -0.237 OA
ATOM     71  O   UNL     1      11.469  -9.092  14.430  1.00  0.00    -0.237 OA
ATOM     72  O   UNL     1       9.805  -7.388  13.820  1.00  0.00    -0.744 OA
ENDBRANCH  66  69
ENDBRANCH  48  62
BRANCH  49  73
ATOM     73  C   UNL     1      11.856   2.405   6.034  1.00  0.00     0.023 A 
ATOM     74  C   UNL     1      12.996   3.211   5.849  1.00  0.00     0.012 A 
ATOM     75  C   UNL     1      10.605   2.870   5.584  1.00  0.00     0.148 A 
ATOM     76  C   UNL     1      12.887   4.471   5.260  1.00  0.00     0.002 A 
ATOM     77  C   UNL     1      10.514   4.100   4.944  1.00  0.00     0.091 A 
ATOM     78  F   UNL     1       9.531   2.091   5.778  1.00  0.00    -0.205 F 
ATOM     79  C   UNL     1      11.649   4.911   4.798  1.00  0.00     0.022 A 
BRANCH  77  80
ATOM     80  S   UNL     1       8.988   4.684   4.197  1.00  0.00     0.127 S 
ATOM     81  O   UNL     1       8.629   5.793   5.077  1.00  0.00    -0.237 OA
ATOM     82  O   UNL     1       9.437   5.076   2.861  1.00  0.00    -0.237 OA
ATOM     83  O   UNL     1       8.079   3.545   4.213  1.00  0.00    -0.744 OA
ENDBRANCH  77  80
ENDBRANCH  49  73
BRANCH  61  84
ATOM     84  C   UNL     1      13.726   0.318  12.431  1.00  0.00     0.023 A 
ATOM     85  C   UNL     1      12.793   1.074  13.168  1.00  0.00     0.012 A 
ATOM     86  C   UNL     1      15.051   0.210  12.899  1.00  0.00     0.148 A 
ATOM     87  C   UNL     1      13.180   1.741  14.329  1.00  0.00     0.002 A 
ATOM     88  C   UNL     1      15.416   0.834  14.085  1.00  0.00     0.091 A 
ATOM     89  F   UNL     1      15.929  -0.500  12.175  1.00  0.00    -0.205 F 
ATOM     90  C   UNL     1      14.486   1.611  14.794  1.00  0.00     0.022 A 
BRANCH  88  91
ATOM     91  S   UNL     1      17.048   0.643  14.813  1.00  0.00     0.127 S 
ATOM     92  O   UNL     1      17.623   1.971  14.607  1.00  0.00    -0.237 OA
ATOM     93  O   UNL     1      16.730   0.325  16.205  1.00  0.00    -0.237 OA
ATOM     94  O   UNL     1      17.692  -0.437  14.078  1.00  0.00    -0.744 OA
ENDBRANCH  88  91
ENDBRANCH  61  84
ENDBRANCH  35  36
ENDBRANCH  27  30
ENDBRANCH  25  26
ENDBRANCH  24  25
ENDBRANCH   1  24
TORSDOF 18
