REMARK SMILES O=C(Cc1ccccc1Nc1c(Cl)cccc1Cl)NCCCCCCNC(=O)c1ccc(-c2c3nc(c(-c4cccc(S(=O)(=O)[O-])c4F)c4ccc([nH]4)c(-c4cccc(S(=O)(=O)[O-])c4F)c4nc(c(-c5cccc(S(=O)(=O)[O-])c5F)c5ccc2[nH]5)C=C4)C=C3)cc1
REMARK SMILES IDX 22 1 21 2 20 3 19 4 1 5 2 6 3 8 4 9 5 10 9 11 6 12 8 13 7 14
REMARK SMILES IDX 10 15 11 17 12 18 17 19 13 20 14 21 16 22 18 23 15 24 23 25
REMARK SMILES IDX 24 26 25 27 26 28 27 29 28 31 29 32 30 33 91 34 31 35 90 36
REMARK SMILES IDX 32 37 33 38 34 39 84 40 35 41 89 42 83 43 85 44 36 45 88 46
REMARK SMILES IDX 82 47 81 48 37 50 69 51 49 52 68 53 50 54 53 55 67 56 86 57
REMARK SMILES IDX 51 58 52 59 66 61 87 62 54 63 38 64 39 65 47 66 40 67 42 68
REMARK SMILES IDX 48 69 41 70 43 71 44 72 45 73 46 74 70 75 71 76 79 77 72 78
REMARK SMILES IDX 74 79 80 80 73 81 75 82 76 83 77 84 78 85 55 86 56 87 64 88
REMARK SMILES IDX 57 89 59 90 65 91 58 92 60 93 61 94 62 95 63 96
REMARK H PARENT 19 7 10 16 26 30 85 49 53 60
REMARK Flexibility Score: inf
ROOT
ATOM      1  C   UNL     1       4.284   1.415   3.695  1.00  0.00     0.002 C 
ENDROOT
BRANCH   1   2
ATOM      2  C   UNL     1       2.776   1.234   3.490  1.00  0.00     0.021 C 
BRANCH   2   3
ATOM      3  C   UNL     1       2.259   1.409   2.064  1.00  0.00     0.116 C 
BRANCH   3   4
ATOM      4  N   UNL     1       2.936   0.565   1.100  1.00  0.00    -0.356 N 
ATOM      5  O   UNL     1       1.026  -0.133   0.040  1.00  0.00    -0.275 OA
ATOM      6  C   UNL     1       2.251  -0.124   0.127  1.00  0.00     0.224 C 
ATOM      7  H   UNL     1       3.916   0.482   1.143  1.00  0.00     0.163 HD
BRANCH   6   8
ATOM      8  C   UNL     1       3.112  -0.857  -0.871  1.00  0.00     0.137 C 
BRANCH   8   9
ATOM      9  C   UNL     1       3.978  -0.048  -1.825  1.00  0.00    -0.015 A 
ATOM     10  C   UNL     1       5.004  -0.798  -2.451  1.00  0.00     0.006 A 
ATOM     11  C   UNL     1       3.814   1.312  -2.184  1.00  0.00     0.042 A 
ATOM     12  C   UNL     1       5.890  -0.219  -3.355  1.00  0.00     0.000 A 
ATOM     13  C   UNL     1       4.759   1.883  -3.059  1.00  0.00     0.026 A 
ATOM     14  C   UNL     1       5.778   1.130  -3.646  1.00  0.00     0.002 A 
BRANCH  11  15
ATOM     15  N   UNL     1       2.795   2.123  -1.646  1.00  0.00    -0.353 N 
ATOM     16  H   UNL     1       2.259   1.707  -0.933  1.00  0.00     0.167 HD
BRANCH  15  17
ATOM     17  C   UNL     1       2.427   3.455  -1.982  1.00  0.00     0.076 A 
ATOM     18  C   UNL     1       2.735   4.529  -1.125  1.00  0.00     0.066 A 
ATOM     19  C   UNL     1       1.564   3.721  -3.062  1.00  0.00     0.066 A 
ATOM     20  Cl  UNL     1       3.886   4.362   0.142  1.00  0.00    -0.082 Cl
ATOM     21  C   UNL     1       2.164   5.794  -1.299  1.00  0.00     0.023 A 
ATOM     22  C   UNL     1       1.021   4.997  -3.259  1.00  0.00     0.023 A 
ATOM     23  Cl  UNL     1       1.126   2.482  -4.190  1.00  0.00    -0.082 Cl
ATOM     24  C   UNL     1       1.300   6.026  -2.362  1.00  0.00     0.003 A 
ENDBRANCH  15  17
ENDBRANCH  11  15
ENDBRANCH   8   9
ENDBRANCH   6   8
ENDBRANCH   3   4
ENDBRANCH   2   3
ENDBRANCH   1   2
BRANCH   1  25
ATOM     25  C   UNL     1       4.896   2.707   3.154  1.00  0.00     0.002 C 
BRANCH  25  26
ATOM     26  C   UNL     1       4.242   4.012   3.619  1.00  0.00     0.021 C 
BRANCH  26  27
ATOM     27  C   UNL     1       4.300   4.268   5.121  1.00  0.00     0.116 C 
BRANCH  27  28
ATOM     28  N   UNL     1       5.664   4.416   5.601  1.00  0.00    -0.352 N 
ATOM     29  C   UNL     1       6.189   5.319   6.490  1.00  0.00     0.251 C 
ATOM     30  H   UNL     1       6.308   3.770   5.232  1.00  0.00     0.163 HD
ATOM     31  O   UNL     1       7.409   5.376   6.637  1.00  0.00    -0.269 OA
BRANCH  29  32
ATOM     32  C   UNL     1       5.312   6.233   7.259  1.00  0.00     0.039 A 
ATOM     33  C   UNL     1       5.741   7.547   7.469  1.00  0.00     0.014 A 
ATOM     34  C   UNL     1       4.099   5.804   7.806  1.00  0.00     0.014 A 
ATOM     35  C   UNL     1       4.938   8.438   8.186  1.00  0.00     0.010 A 
ATOM     36  C   UNL     1       3.268   6.711   8.463  1.00  0.00     0.010 A 
ATOM     37  C   UNL     1       3.682   8.035   8.669  1.00  0.00    -0.014 A 
BRANCH  37  38
ATOM     38  C   UNL     1       2.790   9.001   9.361  1.00  0.00     0.031 A 
ATOM     39  C   UNL     1       2.420   8.815  10.807  1.00  0.00     0.074 A 
ATOM     40  C   UNL     1       2.260  10.022   8.659  1.00  0.00     0.049 A 
ATOM     41  N   UNL     1       1.683   9.579  11.573  1.00  0.00    -0.248 NA
ATOM     42  C   UNL     1       2.918   7.603  11.476  1.00  0.00     0.031 C 
ATOM     43  C   UNL     1       2.468  10.259   7.229  1.00  0.00     0.029 A 
ATOM     44  N   UNL     1       1.427  11.041   9.047  1.00  0.00    -0.354 N 
ATOM     45  C   UNL     1       1.601   8.928  12.798  1.00  0.00     0.074 A 
ATOM     46  C   UNL     1       2.338   7.689  12.664  1.00  0.00     0.031 C 
ATOM     47  C   UNL     1       1.800  11.365   6.865  1.00  0.00     0.029 A 
ATOM     48  C   UNL     1       1.100  11.903   8.027  1.00  0.00     0.049 A 
ATOM     49  H   UNL     1       1.096  11.146   9.968  1.00  0.00     0.167 HD
ATOM     50  C   UNL     1       0.992   9.334  13.938  1.00  0.00     0.034 A 
ATOM     51  C   UNL     1       0.331  13.010   8.028  1.00  0.00     0.034 A 
ATOM     52  C   UNL     1       0.296  10.587  14.078  1.00  0.00     0.049 A 
ATOM     53  C   UNL     1      -0.285  13.470   9.320  1.00  0.00     0.074 A 
ATOM     54  C   UNL     1      -0.256  11.143  15.219  1.00  0.00     0.029 A 
ATOM     55  N   UNL     1       0.043  11.472  13.041  1.00  0.00    -0.354 N 
ATOM     56  N   UNL     1      -0.190  12.939  10.515  1.00  0.00    -0.248 NA
ATOM     57  C   UNL     1      -1.081  14.704   9.271  1.00  0.00     0.031 C 
ATOM     58  C   UNL     1      -0.868  12.352  14.865  1.00  0.00     0.029 A 
ATOM     59  C   UNL     1      -0.675  12.561  13.509  1.00  0.00     0.049 A 
ATOM     60  H   UNL     1       0.331  11.345  12.108  1.00  0.00     0.167 HD
ATOM     61  C   UNL     1      -0.890  13.788  11.366  1.00  0.00     0.074 A 
ATOM     62  C   UNL     1      -1.376  14.884  10.552  1.00  0.00     0.031 C 
ATOM     63  C   UNL     1      -1.124  13.663  12.696  1.00  0.00     0.034 A 
BRANCH  50  64
ATOM     64  C   UNL     1       1.093   8.434  15.144  1.00  0.00     0.023 A 
ATOM     65  C   UNL     1       2.330   8.293  15.807  1.00  0.00     0.012 A 
ATOM     66  C   UNL     1      -0.040   7.768  15.651  1.00  0.00     0.148 A 
ATOM     67  C   UNL     1       2.447   7.473  16.929  1.00  0.00     0.002 A 
ATOM     68  C   UNL     1       0.075   6.987  16.797  1.00  0.00     0.091 A 
ATOM     69  F   UNL     1      -1.204   7.894  14.998  1.00  0.00    -0.205 F 
ATOM     70  C   UNL     1       1.319   6.828  17.429  1.00  0.00     0.022 A 
BRANCH  68  71
ATOM     71  S   UNL     1      -1.336   6.180  17.562  1.00  0.00     0.127 S 
ATOM     72  O   UNL     1      -1.114   4.783  17.192  1.00  0.00    -0.237 OA
ATOM     73  O   UNL     1      -1.130   6.475  18.980  1.00  0.00    -0.237 OA
ATOM     74  O   UNL     1      -2.516   6.804  16.980  1.00  0.00    -0.744 OA
ENDBRANCH  68  71
ENDBRANCH  50  64
BRANCH  51  75
ATOM     75  C   UNL     1       0.183  13.809   6.779  1.00  0.00     0.023 A 
ATOM     76  C   UNL     1       0.812  15.067   6.691  1.00  0.00     0.012 A 
ATOM     77  C   UNL     1      -0.531  13.319   5.669  1.00  0.00     0.148 A 
ATOM     78  C   UNL     1       0.709  15.835   5.531  1.00  0.00     0.002 A 
ATOM     79  C   UNL     1      -0.583  14.064   4.496  1.00  0.00     0.091 A 
ATOM     80  F   UNL     1      -1.131  12.125   5.777  1.00  0.00    -0.205 F 
ATOM     81  C   UNL     1       0.021  15.329   4.431  1.00  0.00     0.022 A 
BRANCH  79  82
ATOM     82  S   UNL     1      -1.329  13.434   2.988  1.00  0.00     0.127 S 
ATOM     83  O   UNL     1      -2.516  14.280   2.866  1.00  0.00    -0.237 OA
ATOM     84  O   UNL     1      -0.281  13.701   2.000  1.00  0.00    -0.237 OA
ATOM     85  O   UNL     1      -1.579  12.024   3.229  1.00  0.00    -0.744 OA
ENDBRANCH  79  82
ENDBRANCH  51  75
BRANCH  63  86
ATOM     86  C   UNL     1      -1.935  14.747  13.360  1.00  0.00     0.023 A 
ATOM     87  C   UNL     1      -3.316  14.848  13.091  1.00  0.00     0.012 A 
ATOM     88  C   UNL     1      -1.345  15.636  14.279  1.00  0.00     0.148 A 
ATOM     89  C   UNL     1      -4.085  15.843  13.693  1.00  0.00     0.002 A 
ATOM     90  C   UNL     1      -2.128  16.593  14.913  1.00  0.00     0.091 A 
ATOM     91  F   UNL     1      -0.027  15.541  14.508  1.00  0.00    -0.205 F 
ATOM     92  C   UNL     1      -3.495  16.708  14.611  1.00  0.00     0.022 A 
BRANCH  90  93
ATOM     93  S   UNL     1      -1.468  17.685  16.178  1.00  0.00     0.127 S 
ATOM     94  O   UNL     1      -1.319  18.939  15.443  1.00  0.00    -0.237 OA
ATOM     95  O   UNL     1      -2.537  17.689  17.178  1.00  0.00    -0.237 OA
ATOM     96  O   UNL     1      -0.229  17.066  16.628  1.00  0.00    -0.744 OA
ENDBRANCH  90  93
ENDBRANCH  63  86
ENDBRANCH  37  38
ENDBRANCH  29  32
ENDBRANCH  27  28
ENDBRANCH  26  27
ENDBRANCH  25  26
ENDBRANCH   1  25
TORSDOF 19
