REMARK SMILES Cc1ccc(C(=O)N[C@@H](C(=O)NCCCCCCNC(=O)c2ccc(-c3c4nc(c(-c5cccc(S(=O)(=O)[O-])c5F)c5ccc([nH]5)c(-c5cccc(S(=O)(=O)[O-])c5F)c5nc(c(-c6cccc(S(=O)(=O)[O-])c6F)c6ccc3[nH]6)C=C5)C=C4)cc2)[C@@H](C)O)c(F)c1
REMARK SMILES IDX 16 1 15 2 14 3 13 4 12 5 10 6 11 7 9 9 8 10 6 11 7 12 5 14
REMARK SMILES IDX 1 15 2 16 3 17 90 18 4 19 88 20 89 21 85 22 86 23 87 24
REMARK SMILES IDX 17 26 18 27 19 28 20 29 21 31 22 32 23 33 84 34 24 35 83 36
REMARK SMILES IDX 25 37 26 38 27 39 77 40 28 41 82 42 76 43 78 44 29 45 81 46
REMARK SMILES IDX 75 47 74 48 30 50 62 51 42 52 61 53 43 54 46 55 60 56 79 57
REMARK SMILES IDX 44 58 45 59 59 61 80 62 47 63 31 64 32 65 40 66 33 67 35 68
REMARK SMILES IDX 41 69 34 70 36 71 37 72 38 73 39 74 63 75 64 76 72 77 65 78
REMARK SMILES IDX 67 79 73 80 66 81 68 82 69 83 70 84 71 85 48 86 49 87 57 88
REMARK SMILES IDX 50 89 52 90 58 91 51 92 53 93 54 94 55 95 56 96
REMARK H PARENT 12 8 8 13 87 25 19 30 78 49 46 60
REMARK Flexibility Score: inf
ROOT
ATOM      1  C   UNL     1      -0.768  -2.756   5.999  1.00  0.00     0.002 C 
ENDROOT
BRANCH   1   2
ATOM      2  C   UNL     1      -1.954  -3.341   5.223  1.00  0.00     0.002 C 
BRANCH   2   3
ATOM      3  C   UNL     1      -2.071  -2.836   3.780  1.00  0.00     0.021 C 
BRANCH   3   4
ATOM      4  C   UNL     1      -0.855  -3.197   2.933  1.00  0.00     0.116 C 
BRANCH   4   5
ATOM      5  N   UNL     1      -0.883  -4.610   2.609  1.00  0.00    -0.354 N 
ATOM      6  C   UNL     1      -1.075  -5.212   1.397  1.00  0.00     0.245 C 
ATOM      7  O   UNL     1      -1.275  -6.427   1.391  1.00  0.00    -0.273 OA
ATOM      8  H   UNL     1      -0.745  -5.221   3.368  1.00  0.00     0.163 HD
BRANCH   6   9
ATOM      9  C   UNL     1      -0.934  -4.360   0.113  1.00  0.00     0.200 C 
BRANCH   9  10
ATOM     10  N   UNL     1      -2.016  -3.373  -0.001  1.00  0.00    -0.338 N 
ATOM     11  C   UNL     1      -2.063  -2.024  -0.271  1.00  0.00     0.254 C 
ATOM     12  O   UNL     1      -3.187  -1.556  -0.445  1.00  0.00    -0.269 OA
ATOM     13  H   UNL     1      -2.907  -3.763   0.150  1.00  0.00     0.164 HD
BRANCH  11  14
ATOM     14  C   UNL     1      -0.867  -1.128  -0.298  1.00  0.00     0.075 A 
ATOM     15  C   UNL     1       2.505   1.578   0.055  1.00  0.00     0.044 C 
ATOM     16  C   UNL     1       1.339   0.644  -0.090  1.00  0.00    -0.048 A 
ATOM     17  C   UNL     1       1.522  -0.677  -0.501  1.00  0.00     0.004 A 
ATOM     18  C   UNL     1       0.039   1.097   0.145  1.00  0.00     0.043 A 
ATOM     19  C   UNL     1       0.427  -1.541  -0.635  1.00  0.00     0.017 A 
ATOM     20  C   UNL     1      -1.043   0.217   0.054  1.00  0.00     0.136 A 
ATOM     21  F   UNL     1      -2.257   0.707   0.347  1.00  0.00    -0.206 F 
ENDBRANCH  11  14
ENDBRANCH   9  10
BRANCH   9  22
ATOM     22  C   UNL     1      -0.886  -5.275  -1.142  1.00  0.00     0.143 C 
ATOM     23  C   UNL     1      -1.156  -4.546  -2.459  1.00  0.00     0.041 C 
BRANCH  22  24
ATOM     24  O   UNL     1       0.404  -5.892  -1.264  1.00  0.00    -0.391 OA
ATOM     25  H   UNL     1       1.078  -5.209  -1.404  1.00  0.00     0.211 HD
ENDBRANCH  22  24
ENDBRANCH   9  22
ENDBRANCH   6   9
ENDBRANCH   4   5
ENDBRANCH   3   4
ENDBRANCH   2   3
ENDBRANCH   1   2
BRANCH   1  26
ATOM     26  C   UNL     1      -0.757  -1.228   6.084  1.00  0.00     0.021 C 
BRANCH  26  27
ATOM     27  C   UNL     1      -1.997  -0.633   6.742  1.00  0.00     0.116 C 
BRANCH  27  28
ATOM     28  N   UNL     1      -2.156  -1.106   8.110  1.00  0.00    -0.352 N 
ATOM     29  C   UNL     1      -2.299  -0.382   9.267  1.00  0.00     0.251 C 
ATOM     30  H   UNL     1      -2.163  -2.084   8.221  1.00  0.00     0.163 HD
ATOM     31  O   UNL     1      -2.193  -0.934  10.355  1.00  0.00    -0.269 OA
BRANCH  29  32
ATOM     32  C   UNL     1      -2.568   1.069   9.187  1.00  0.00     0.039 A 
ATOM     33  C   UNL     1      -1.860   1.935  10.022  1.00  0.00     0.014 A 
ATOM     34  C   UNL     1      -3.511   1.569   8.285  1.00  0.00     0.014 A 
ATOM     35  C   UNL     1      -2.057   3.312   9.911  1.00  0.00     0.010 A 
ATOM     36  C   UNL     1      -3.650   2.944   8.123  1.00  0.00     0.010 A 
ATOM     37  C   UNL     1      -2.927   3.829   8.936  1.00  0.00    -0.014 A 
BRANCH  37  38
ATOM     38  C   UNL     1      -3.071   5.293   8.734  1.00  0.00     0.031 A 
ATOM     39  C   UNL     1      -4.399   5.965   8.946  1.00  0.00     0.074 A 
ATOM     40  C   UNL     1      -2.020   6.001   8.273  1.00  0.00     0.049 A 
ATOM     41  N   UNL     1      -4.724   7.220   8.769  1.00  0.00    -0.248 NA
ATOM     42  C   UNL     1      -5.516   5.115   9.391  1.00  0.00     0.031 C 
ATOM     43  C   UNL     1      -0.702   5.448   7.954  1.00  0.00     0.029 A 
ATOM     44  N   UNL     1      -1.902   7.334   7.966  1.00  0.00    -0.354 N 
ATOM     45  C   UNL     1      -6.083   7.304   9.047  1.00  0.00     0.074 A 
ATOM     46  C   UNL     1      -6.530   5.967   9.373  1.00  0.00     0.031 C 
ATOM     47  C   UNL     1       0.091   6.431   7.502  1.00  0.00     0.029 A 
ATOM     48  C   UNL     1      -0.669   7.676   7.463  1.00  0.00     0.049 A 
ATOM     49  H   UNL     1      -2.631   7.983   8.095  1.00  0.00     0.167 HD
ATOM     50  C   UNL     1      -6.881   8.398   9.056  1.00  0.00     0.034 A 
ATOM     51  C   UNL     1      -0.206   8.856   7.006  1.00  0.00     0.034 A 
ATOM     52  C   UNL     1      -6.425   9.729   8.758  1.00  0.00     0.049 A 
ATOM     53  C   UNL     1      -1.107  10.060   7.049  1.00  0.00     0.074 A 
ATOM     54  C   UNL     1      -7.134  10.916   8.825  1.00  0.00     0.029 A 
ATOM     55  N   UNL     1      -5.148  10.051   8.323  1.00  0.00    -0.354 N 
ATOM     56  N   UNL     1      -2.345  10.149   7.470  1.00  0.00    -0.248 NA
ATOM     57  C   UNL     1      -0.536  11.333   6.587  1.00  0.00     0.031 C 
ATOM     58  C   UNL     1      -6.297  11.950   8.393  1.00  0.00     0.029 A 
ATOM     59  C   UNL     1      -5.053  11.414   8.098  1.00  0.00     0.049 A 
ATOM     60  H   UNL     1      -4.417   9.405   8.192  1.00  0.00     0.167 HD
ATOM     61  C   UNL     1      -2.690  11.491   7.357  1.00  0.00     0.074 A 
ATOM     62  C   UNL     1      -1.522  12.181   6.850  1.00  0.00     0.031 C 
ATOM     63  C   UNL     1      -3.872  12.096   7.635  1.00  0.00     0.034 A 
BRANCH  50  64
ATOM     64  C   UNL     1      -8.327   8.209   9.437  1.00  0.00     0.023 A 
ATOM     65  C   UNL     1      -8.663   7.893  10.770  1.00  0.00     0.012 A 
ATOM     66  C   UNL     1      -9.356   8.405   8.494  1.00  0.00     0.148 A 
ATOM     67  C   UNL     1      -9.996   7.739  11.150  1.00  0.00     0.002 A 
ATOM     68  C   UNL     1     -10.684   8.297   8.892  1.00  0.00     0.091 A 
ATOM     69  F   UNL     1      -9.018   8.686   7.228  1.00  0.00    -0.205 F 
ATOM     70  C   UNL     1     -11.005   7.952  10.215  1.00  0.00     0.022 A 
BRANCH  68  71
ATOM     71  S   UNL     1     -12.059   8.635   7.787  1.00  0.00     0.127 S 
ATOM     72  O   UNL     1     -12.633   7.301   7.615  1.00  0.00    -0.237 OA
ATOM     73  O   UNL     1     -12.874   9.552   8.583  1.00  0.00    -0.237 OA
ATOM     74  O   UNL     1     -11.477   9.222   6.588  1.00  0.00    -0.744 OA
ENDBRANCH  68  71
ENDBRANCH  50  64
BRANCH  51  75
ATOM     75  C   UNL     1       1.198   8.965   6.516  1.00  0.00     0.023 A 
ATOM     76  C   UNL     1       2.137   9.704   7.261  1.00  0.00     0.012 A 
ATOM     77  C   UNL     1       1.613   8.322   5.333  1.00  0.00     0.148 A 
ATOM     78  C   UNL     1       3.454   9.832   6.818  1.00  0.00     0.002 A 
ATOM     79  C   UNL     1       2.940   8.404   4.929  1.00  0.00     0.091 A 
ATOM     80  F   UNL     1       0.703   7.630   4.634  1.00  0.00    -0.205 F 
ATOM     81  C   UNL     1       3.858   9.175   5.659  1.00  0.00     0.022 A 
BRANCH  79  82
ATOM     82  S   UNL     1       3.579   7.482   3.526  1.00  0.00     0.127 S 
ATOM     83  O   UNL     1       3.865   8.548   2.570  1.00  0.00    -0.237 OA
ATOM     84  O   UNL     1       4.760   6.837   4.101  1.00  0.00    -0.237 OA
ATOM     85  O   UNL     1       2.521   6.557   3.142  1.00  0.00    -0.744 OA
ENDBRANCH  79  82
ENDBRANCH  51  75
BRANCH  63  86
ATOM     86  C   UNL     1      -3.957  13.587   7.436  1.00  0.00     0.023 A 
ATOM     87  C   UNL     1      -3.966  14.125   6.133  1.00  0.00     0.012 A 
ATOM     88  C   UNL     1      -4.097  14.450   8.540  1.00  0.00     0.148 A 
ATOM     89  C   UNL     1      -4.074  15.501   5.935  1.00  0.00     0.002 A 
ATOM     90  C   UNL     1      -4.258  15.815   8.334  1.00  0.00     0.091 A 
ATOM     91  F   UNL     1      -4.070  13.922   9.773  1.00  0.00    -0.205 F 
ATOM     92  C   UNL     1      -4.232  16.343   7.033  1.00  0.00     0.022 A 
BRANCH  90  93
ATOM     93  S   UNL     1      -4.566  16.965   9.678  1.00  0.00     0.127 S 
ATOM     94  O   UNL     1      -3.311  17.713   9.723  1.00  0.00    -0.237 OA
ATOM     95  O   UNL     1      -5.712  17.726   9.178  1.00  0.00    -0.237 OA
ATOM     96  O   UNL     1      -4.847  16.148  10.851  1.00  0.00    -0.744 OA
ENDBRANCH  90  93
ENDBRANCH  63  86
ENDBRANCH  37  38
ENDBRANCH  29  32
ENDBRANCH  27  28
ENDBRANCH  26  27
ENDBRANCH   1  26
TORSDOF 20
