REMARK SMILES CC(C)[C@@H](NC(=O)[C@@H]1CC[C@@H]2CCCC[C@@H]2[NH2+]1)C(=O)NCCCCCCNC(=O)c1ccc(-c2c3nc(c(-c4cccc(S(=O)(=O)[O-])c4F)c4ccc([nH]4)c(-c4cccc(S(=O)(=O)[O-])c4F)c4nc(c(-c5cccc(S(=O)(=O)[O-])c5F)c5ccc2[nH]5)C=C4)C=C3)cc1
REMARK SMILES IDX 24 1 23 2 22 3 21 4 20 5 18 6 19 7 4 9 2 10 1 11 3 12 5 13
REMARK SMILES IDX 6 14 7 16 8 17 9 18 17 19 10 20 16 21 11 24 15 25 12 26
REMARK SMILES IDX 14 27 13 28 25 29 26 30 27 31 28 32 29 34 30 35 31 36 92 37
REMARK SMILES IDX 32 38 91 39 33 40 34 41 35 42 85 43 36 44 90 45 84 46 86 47
REMARK SMILES IDX 37 48 89 49 83 50 82 51 38 53 70 54 50 55 69 56 51 57 54 58
REMARK SMILES IDX 68 59 87 60 52 61 53 62 67 64 88 65 55 66 39 67 40 68 48 69
REMARK SMILES IDX 41 70 43 71 49 72 42 73 44 74 45 75 46 76 47 77 71 78 72 79
REMARK SMILES IDX 80 80 73 81 75 82 81 83 74 84 76 85 77 86 78 87 79 88 56 89
REMARK SMILES IDX 57 90 65 91 58 92 60 93 66 94 59 95 61 96 62 97 63 98 64 99
REMARK H PARENT 20 8 5 15 17 22 17 23 27 33 86 52 54 63
REMARK Flexibility Score: inf
ROOT
ATOM      1  C   UNL     1      -2.321   5.327   6.132  1.00  0.00     0.002 C 
ENDROOT
BRANCH   1   2
ATOM      2  C   UNL     1      -3.444   5.721   5.149  1.00  0.00     0.002 C 
BRANCH   2   3
ATOM      3  C   UNL     1      -3.003   6.405   3.646  1.00  0.00     0.021 C 
BRANCH   3   4
ATOM      4  C   UNL     1      -3.108   5.877   1.607  1.00  0.00     0.116 C 
BRANCH   4   5
ATOM      5  N   UNL     1      -4.299   5.169   0.742  1.00  0.00    -0.354 N 
ATOM      6  C   UNL     1      -4.497   4.667  -0.493  1.00  0.00     0.242 C 
ATOM      7  O   UNL     1      -5.584   4.143  -0.745  1.00  0.00    -0.273 OA
ATOM      8  H   UNL     1      -5.117   5.083   1.284  1.00  0.00     0.163 HD
BRANCH   6   9
ATOM      9  C   UNL     1      -3.459   4.834  -1.524  1.00  0.00     0.174 C 
BRANCH   9  10
ATOM     10  C   UNL     1      -3.498   6.363  -1.883  1.00  0.00     0.015 C 
ATOM     11  C   UNL     1      -2.760   6.740  -3.162  1.00  0.00     0.010 C 
ATOM     12  C   UNL     1      -4.961   6.880  -2.038  1.00  0.00     0.010 C 
ENDBRANCH   9  10
BRANCH   9  13
ATOM     13  N   UNL     1      -2.288   4.236  -0.865  1.00  0.00    -0.339 N 
ATOM     14  C   UNL     1      -2.275   3.025  -0.176  1.00  0.00     0.278 C 
ATOM     15  H   UNL     1      -1.441   4.735  -0.914  1.00  0.00     0.164 HD
ATOM     16  O   UNL     1      -1.421   2.225  -0.602  1.00  0.00    -0.268 OA
BRANCH  14  17
ATOM     17  C   UNL     1      -3.037   2.645   1.257  1.00  0.00     0.272 C 
ATOM     18  C   UNL     1      -4.502   2.552   1.774  1.00  0.00     0.076 C 
ATOM     19  N   UNL     1      -2.192   3.106   2.350  1.00  0.00    -0.333 N 
ATOM     20  C   UNL     1      -5.043   3.493   2.919  1.00  0.00     0.016 C 
ATOM     21  C   UNL     1      -2.619   4.340   3.006  1.00  0.00     0.186 C 
ATOM     22  H   UNL     1      -1.254   3.256   1.978  1.00  0.00     0.347 HD
ATOM     23  H   UNL     1      -2.243   2.380   3.065  1.00  0.00     0.347 HD
ATOM     24  C   UNL     1      -4.449   4.989   3.064  1.00  0.00     0.048 C 
ATOM     25  C   UNL     1      -1.156   5.539   2.750  1.00  0.00     0.065 C 
ATOM     26  C   UNL     1      -4.758   6.871   2.488  1.00  0.00     0.010 C 
ATOM     27  C   UNL     1      -1.475   7.331   2.203  1.00  0.00     0.006 C 
ATOM     28  C   UNL     1      -3.243   8.052   2.165  1.00  0.00     0.001 C 
ENDBRANCH  14  17
ENDBRANCH   9  13
ENDBRANCH   6   9
ENDBRANCH   4   5
ENDBRANCH   3   4
ENDBRANCH   2   3
ENDBRANCH   1   2
BRANCH   1  29
ATOM     29  C   UNL     1      -1.245   6.367   6.402  1.00  0.00     0.021 C 
BRANCH  29  30
ATOM     30  C   UNL     1      -1.804   7.716   6.808  1.00  0.00     0.116 C 
BRANCH  30  31
ATOM     31  N   UNL     1      -2.331   7.662   8.161  1.00  0.00    -0.352 N 
ATOM     32  C   UNL     1      -1.703   8.056   9.319  1.00  0.00     0.251 C 
ATOM     33  H   UNL     1      -3.243   7.303   8.260  1.00  0.00     0.163 HD
ATOM     34  O   UNL     1      -2.079   7.636  10.405  1.00  0.00    -0.269 OA
BRANCH  32  35
ATOM     35  C   UNL     1      -0.562   8.992   9.221  1.00  0.00     0.039 A 
ATOM     36  C   UNL     1       0.570   8.788  10.010  1.00  0.00     0.014 A 
ATOM     37  C   UNL     1      -0.618  10.068   8.330  1.00  0.00     0.014 A 
ATOM     38  C   UNL     1       1.655   9.658   9.882  1.00  0.00     0.010 A 
ATOM     39  C   UNL     1       0.509  10.846   8.112  1.00  0.00     0.010 A 
ATOM     40  C   UNL     1       1.638  10.685   8.922  1.00  0.00    -0.014 A 
BRANCH  40  41
ATOM     41  C   UNL     1       2.766  11.641   8.800  1.00  0.00     0.031 A 
ATOM     42  C   UNL     1       2.530  13.113   9.025  1.00  0.00     0.074 A 
ATOM     43  C   UNL     1       3.986  11.195   8.444  1.00  0.00     0.049 A 
ATOM     44  N   UNL     1       3.387  14.100   8.987  1.00  0.00    -0.248 NA
ATOM     45  C   UNL     1       1.145  13.543   9.296  1.00  0.00     0.031 C 
ATOM     46  C   UNL     1       4.316   9.810   8.097  1.00  0.00     0.029 A 
ATOM     47  N   UNL     1       5.176  11.863   8.304  1.00  0.00    -0.354 N 
ATOM     48  C   UNL     1       2.644  15.258   9.189  1.00  0.00     0.074 A 
ATOM     49  C   UNL     1       1.260  14.862   9.295  1.00  0.00     0.031 C 
ATOM     50  C   UNL     1       5.625   9.727   7.811  1.00  0.00     0.029 A 
ATOM     51  C   UNL     1       6.222  11.053   7.929  1.00  0.00     0.049 A 
ATOM     52  H   UNL     1       5.272  12.830   8.457  1.00  0.00     0.167 HD
ATOM     53  C   UNL     1       3.076  16.533   9.318  1.00  0.00     0.034 A 
ATOM     54  C   UNL     1       7.519  11.349   7.712  1.00  0.00     0.034 A 
ATOM     55  C   UNL     1       4.460  16.913   9.271  1.00  0.00     0.049 A 
ATOM     56  C   UNL     1       7.986  12.762   7.934  1.00  0.00     0.074 A 
ATOM     57  C   UNL     1       5.019  18.158   9.491  1.00  0.00     0.029 A 
ATOM     58  N   UNL     1       5.504  16.049   8.978  1.00  0.00    -0.354 N 
ATOM     59  N   UNL     1       7.292  13.813   8.299  1.00  0.00    -0.248 NA
ATOM     60  C   UNL     1       9.421  13.021   7.757  1.00  0.00     0.031 C 
ATOM     61  C   UNL     1       6.400  18.054   9.302  1.00  0.00     0.029 A 
ATOM     62  C   UNL     1       6.705  16.736   9.000  1.00  0.00     0.049 A 
ATOM     63  H   UNL     1       5.406  15.089   8.784  1.00  0.00     0.167 HD
ATOM     64  C   UNL     1       8.209  14.850   8.425  1.00  0.00     0.074 A 
ATOM     65  C   UNL     1       9.512  14.290   8.128  1.00  0.00     0.031 C 
ATOM     66  C   UNL     1       7.995  16.151   8.743  1.00  0.00     0.034 A 
BRANCH  53  67
ATOM     67  C   UNL     1       2.046  17.602   9.578  1.00  0.00     0.023 A 
ATOM     68  C   UNL     1       1.383  17.648  10.822  1.00  0.00     0.012 A 
ATOM     69  C   UNL     1       1.774  18.593   8.615  1.00  0.00     0.148 A 
ATOM     70  C   UNL     1       0.440  18.639  11.091  1.00  0.00     0.002 A 
ATOM     71  C   UNL     1       0.870  19.607   8.909  1.00  0.00     0.091 A 
ATOM     72  F   UNL     1       2.395  18.520   7.430  1.00  0.00    -0.205 F 
ATOM     73  C   UNL     1       0.193  19.625  10.140  1.00  0.00     0.022 A 
BRANCH  71  74
ATOM     74  S   UNL     1       0.541  20.969   7.785  1.00  0.00     0.127 S 
ATOM     75  O   UNL     1      -0.839  20.697   7.386  1.00  0.00    -0.237 OA
ATOM     76  O   UNL     1       0.706  22.132   8.658  1.00  0.00    -0.237 OA
ATOM     77  O   UNL     1       1.530  20.862   6.721  1.00  0.00    -0.744 OA
ENDBRANCH  71  74
ENDBRANCH  53  67
BRANCH  54  78
ATOM     78  C   UNL     1       8.476  10.272   7.331  1.00  0.00     0.023 A 
ATOM     79  C   UNL     1       9.464   9.860   8.246  1.00  0.00     0.012 A 
ATOM     80  C   UNL     1       8.398   9.640   6.075  1.00  0.00     0.148 A 
ATOM     81  C   UNL     1      10.380   8.864   7.905  1.00  0.00     0.002 A 
ATOM     82  C   UNL     1       9.276   8.609   5.764  1.00  0.00     0.091 A 
ATOM     83  F   UNL     1       7.458  10.053   5.214  1.00  0.00    -0.205 F 
ATOM     84  C   UNL     1      10.280   8.232   6.669  1.00  0.00     0.022 A 
BRANCH  82  85
ATOM     85  S   UNL     1       9.134   7.650   4.252  1.00  0.00     0.127 S 
ATOM     86  O   UNL     1      10.296   8.108   3.497  1.00  0.00    -0.237 OA
ATOM     87  O   UNL     1       9.223   6.279   4.753  1.00  0.00    -0.237 OA
ATOM     88  O   UNL     1       7.835   7.998   3.689  1.00  0.00    -0.744 OA
ENDBRANCH  82  85
ENDBRANCH  54  78
BRANCH  66  89
ATOM     89  C   UNL     1       9.197  17.054   8.817  1.00  0.00     0.023 A 
ATOM     90  C   UNL     1       9.871  17.424   7.636  1.00  0.00     0.012 A 
ATOM     91  C   UNL     1       9.620  17.584  10.051  1.00  0.00     0.148 A 
ATOM     92  C   UNL     1      10.976  18.273   7.688  1.00  0.00     0.002 A 
ATOM     93  C   UNL     1      10.688  18.472  10.089  1.00  0.00     0.091 A 
ATOM     94  F   UNL     1       8.976  17.207  11.165  1.00  0.00    -0.205 F 
ATOM     95  C   UNL     1      11.376  18.805   8.911  1.00  0.00     0.022 A 
BRANCH  93  96
ATOM     96  S   UNL     1      11.207  19.284  11.604  1.00  0.00     0.127 S 
ATOM     97  O   UNL     1      12.450  18.579  11.909  1.00  0.00    -0.237 OA
ATOM     98  O   UNL     1      11.382  20.670  11.169  1.00  0.00    -0.237 OA
ATOM     99  O   UNL     1      10.123  19.084  12.557  1.00  0.00    -0.744 OA
ENDBRANCH  93  96
ENDBRANCH  66  89
ENDBRANCH  40  41
ENDBRANCH  32  35
ENDBRANCH  30  31
ENDBRANCH  29  30
ENDBRANCH   1  29
TORSDOF 19
