REMARK SMILES O=C(/C=C\N1[C@@H]2CC[C@H]1C[C@H](O)C2)NCCCCCCNC(=O)c1ccc(-c2c3nc(c(-c4cccc(S(=O)(=O)[O-])c4F)c4ccc([nH]4)c(-c4cccc(S(=O)(=O)[O-])c4F)c4nc(c(-c5cccc(S(=O)(=O)[O-])c5F)c5ccc2[nH]5)C=C4)C=C3)cc1
REMARK SMILES IDX 18 1 17 2 16 3 15 4 14 5 1 6 2 7 3 9 4 10 5 11 6 12 9 13
REMARK SMILES IDX 7 14 13 15 8 16 10 17 11 18 12 19 19 21 20 22 21 23 22 24
REMARK SMILES IDX 23 26 24 27 25 28 86 29 26 30 85 31 27 32 28 33 29 34 79 35
REMARK SMILES IDX 30 36 84 37 78 38 80 39 31 40 83 41 77 42 76 43 32 45 64 46
REMARK SMILES IDX 44 47 63 48 45 49 48 50 62 51 81 52 46 53 47 54 61 56 82 57
REMARK SMILES IDX 49 58 33 59 34 60 42 61 35 62 37 63 43 64 36 65 38 66 39 67
REMARK SMILES IDX 40 68 41 69 65 70 66 71 74 72 67 73 69 74 75 75 68 76 70 77
REMARK SMILES IDX 71 78 72 79 73 80 50 81 51 82 59 83 52 84 54 85 60 86 53 87
REMARK SMILES IDX 55 88 56 89 57 90 58 91
REMARK H PARENT 14 8 12 20 21 25 80 44 48 55
REMARK Flexibility Score: inf
ROOT
ATOM      1  C   UNL     1       3.327   4.547   0.901  1.00  0.00     0.002 C 
ENDROOT
BRANCH   1   2
ATOM      2  C   UNL     1       2.520   3.855   2.007  1.00  0.00     0.002 C 
BRANCH   2   3
ATOM      3  C   UNL     1       1.207   3.175   1.585  1.00  0.00     0.021 C 
BRANCH   3   4
ATOM      4  C   UNL     1       1.234   2.161   0.430  1.00  0.00     0.116 C 
BRANCH   4   5
ATOM      5  N   UNL     1       2.094   1.009   0.630  1.00  0.00    -0.353 N 
ATOM      6  O   UNL     1       1.220  -0.276  -1.080  1.00  0.00    -0.270 OA
ATOM      7  C   UNL     1       2.042  -0.096  -0.189  1.00  0.00     0.245 C 
ATOM      8  H   UNL     1       2.736   1.018   1.377  1.00  0.00     0.163 HD
BRANCH   7   9
ATOM      9  C   UNL     1       3.007  -1.160   0.180  1.00  0.00     0.088 C 
ATOM     10  C   UNL     1       4.321  -1.235  -0.084  1.00  0.00     0.087 C 
BRANCH  10  11
ATOM     11  N   UNL     1       5.196  -0.466  -0.824  1.00  0.00    -0.371 N 
ATOM     12  C   UNL     1       4.857   0.582  -1.778  1.00  0.00     0.084 C 
ATOM     13  C   UNL     1       6.612  -0.259  -0.506  1.00  0.00     0.084 C 
ATOM     14  C   UNL     1       6.057   0.532  -2.736  1.00  0.00     0.027 C 
ATOM     15  C   UNL     1       4.816   1.922  -1.032  1.00  0.00     0.056 C 
ATOM     16  C   UNL     1       7.236   0.120  -1.859  1.00  0.00     0.027 C 
ATOM     17  C   UNL     1       6.711   0.927   0.467  1.00  0.00     0.056 C 
ATOM     18  C   UNL     1       5.546   1.915   0.328  1.00  0.00     0.118 C 
BRANCH  18  19
ATOM     19  O   UNL     1       4.606   1.626   1.376  1.00  0.00    -0.393 OA
ATOM     20  H   UNL     1       4.255   0.729   1.257  1.00  0.00     0.210 HD
ENDBRANCH  18  19
ENDBRANCH  10  11
ENDBRANCH   7   9
ENDBRANCH   4   5
ENDBRANCH   3   4
ENDBRANCH   2   3
ENDBRANCH   1   2
BRANCH   1  21
ATOM     21  C   UNL     1       3.099   6.048   0.748  1.00  0.00     0.021 C 
BRANCH  21  22
ATOM     22  C   UNL     1       3.640   6.898   1.893  1.00  0.00     0.116 C 
BRANCH  22  23
ATOM     23  N   UNL     1       5.098   6.916   2.009  1.00  0.00    -0.352 N 
ATOM     24  C   UNL     1       5.892   7.954   2.458  1.00  0.00     0.251 C 
ATOM     25  H   UNL     1       5.567   6.095   1.736  1.00  0.00     0.163 HD
ATOM     26  O   UNL     1       7.115   7.856   2.471  1.00  0.00    -0.269 OA
BRANCH  24  27
ATOM     27  C   UNL     1       5.232   9.213   2.870  1.00  0.00     0.039 A 
ATOM     28  C   UNL     1       5.586  10.409   2.241  1.00  0.00     0.014 A 
ATOM     29  C   UNL     1       4.161   9.172   3.764  1.00  0.00     0.014 A 
ATOM     30  C   UNL     1       4.782  11.539   2.417  1.00  0.00     0.010 A 
ATOM     31  C   UNL     1       3.312  10.267   3.859  1.00  0.00     0.010 A 
ATOM     32  C   UNL     1       3.602  11.458   3.175  1.00  0.00    -0.014 A 
BRANCH  32  33
ATOM     33  C   UNL     1       2.628  12.580   3.240  1.00  0.00     0.031 A 
ATOM     34  C   UNL     1       2.260  13.180   4.570  1.00  0.00     0.074 A 
ATOM     35  C   UNL     1       1.972  12.966   2.125  1.00  0.00     0.049 A 
ATOM     36  N   UNL     1       1.350  14.078   4.848  1.00  0.00    -0.248 NA
ATOM     37  C   UNL     1       2.978  12.671   5.751  1.00  0.00     0.031 C 
ATOM     38  C   UNL     1       2.153  12.389   0.790  1.00  0.00     0.029 A 
ATOM     39  N   UNL     1       0.995  13.914   1.942  1.00  0.00    -0.354 N 
ATOM     40  C   UNL     1       1.349  14.199   6.232  1.00  0.00     0.074 A 
ATOM     41  C   UNL     1       2.320  13.257   6.741  1.00  0.00     0.031 C 
ATOM     42  C   UNL     1       1.325  13.001  -0.073  1.00  0.00     0.029 A 
ATOM     43  C   UNL     1       0.537  13.996   0.647  1.00  0.00     0.049 A 
ATOM     44  H   UNL     1       0.654  14.482   2.670  1.00  0.00     0.167 HD
ATOM     45  C   UNL     1       0.635  15.046   7.010  1.00  0.00     0.034 A 
ATOM     46  C   UNL     1      -0.408  14.787   0.099  1.00  0.00     0.034 A 
ATOM     47  C   UNL     1      -0.266  16.041   6.497  1.00  0.00     0.049 A 
ATOM     48  C   UNL     1      -1.114  15.791   0.971  1.00  0.00     0.074 A 
ATOM     49  C   UNL     1      -0.948  17.024   7.190  1.00  0.00     0.029 A 
ATOM     50  N   UNL     1      -0.602  16.186   5.160  1.00  0.00    -0.354 N 
ATOM     51  N   UNL     1      -0.971  16.011   2.256  1.00  0.00    -0.248 NA
ATOM     52  C   UNL     1      -2.080  16.684   0.313  1.00  0.00     0.031 C 
ATOM     53  C   UNL     1      -1.696  17.767   6.270  1.00  0.00     0.029 A 
ATOM     54  C   UNL     1      -1.476  17.247   5.005  1.00  0.00     0.049 A 
ATOM     55  H   UNL     1      -0.268  15.618   4.429  1.00  0.00     0.167 HD
ATOM     56  C   UNL     1      -1.800  17.087   2.553  1.00  0.00     0.074 A 
ATOM     57  C   UNL     1      -2.427  17.488   1.310  1.00  0.00     0.031 C 
ATOM     58  C   UNL     1      -2.037  17.676   3.750  1.00  0.00     0.034 A 
BRANCH  45  59
ATOM     59  C   UNL     1       0.869  14.988   8.496  1.00  0.00     0.023 A 
ATOM     60  C   UNL     1       2.082  15.480   9.021  1.00  0.00     0.012 A 
ATOM     61  C   UNL     1      -0.112  14.488   9.373  1.00  0.00     0.148 A 
ATOM     62  C   UNL     1       2.332  15.440  10.391  1.00  0.00     0.002 A 
ATOM     63  C   UNL     1       0.128  14.490  10.743  1.00  0.00     0.091 A 
ATOM     64  F   UNL     1      -1.249  14.002   8.855  1.00  0.00    -0.205 F 
ATOM     65  C   UNL     1       1.353  14.954  11.252  1.00  0.00     0.022 A 
BRANCH  63  66
ATOM     66  S   UNL     1      -1.101  13.952  11.938  1.00  0.00     0.127 S 
ATOM     67  O   UNL     1      -0.578  12.645  12.331  1.00  0.00    -0.237 OA
ATOM     68  O   UNL     1      -1.001  14.984  12.972  1.00  0.00    -0.237 OA
ATOM     69  O   UNL     1      -2.369  13.935  11.224  1.00  0.00    -0.744 OA
ENDBRANCH  63  66
ENDBRANCH  45  59
BRANCH  46  70
ATOM     70  C   UNL     1      -0.668  14.732  -1.368  1.00  0.00     0.023 A 
ATOM     71  C   UNL     1      -0.232  15.799  -2.179  1.00  0.00     0.012 A 
ATOM     72  C   UNL     1      -1.307  13.631  -1.970  1.00  0.00     0.148 A 
ATOM     73  C   UNL     1      -0.453  15.785  -3.556  1.00  0.00     0.002 A 
ATOM     74  C   UNL     1      -1.479  13.601  -3.350  1.00  0.00     0.091 A 
ATOM     75  F   UNL     1      -1.729  12.632  -1.183  1.00  0.00    -0.205 F 
ATOM     76  C   UNL     1      -1.066  14.683  -4.143  1.00  0.00     0.022 A 
BRANCH  74  77
ATOM     77  S   UNL     1      -2.142  12.164  -4.202  1.00  0.00     0.127 S 
ATOM     78  O   UNL     1      -3.497  12.603  -4.520  1.00  0.00    -0.237 OA
ATOM     79  O   UNL     1      -1.245  12.049  -5.353  1.00  0.00    -0.237 OA
ATOM     80  O   UNL     1      -2.031  11.067  -3.250  1.00  0.00    -0.744 OA
ENDBRANCH  74  77
ENDBRANCH  46  70
BRANCH  58  81
ATOM     81  C   UNL     1      -2.990  18.840   3.782  1.00  0.00     0.023 A 
ATOM     82  C   UNL     1      -4.375  18.607   3.678  1.00  0.00     0.012 A 
ATOM     83  C   UNL     1      -2.522  20.149   4.007  1.00  0.00     0.148 A 
ATOM     84  C   UNL     1      -5.280  19.663   3.776  1.00  0.00     0.002 A 
ATOM     85  C   UNL     1      -3.432  21.191   4.146  1.00  0.00     0.091 A 
ATOM     86  F   UNL     1      -1.198  20.353   4.080  1.00  0.00    -0.205 F 
ATOM     87  C   UNL     1      -4.810  20.951   4.023  1.00  0.00     0.022 A 
BRANCH  85  88
ATOM     88  S   UNL     1      -2.915  22.862   4.558  1.00  0.00     0.127 S 
ATOM     89  O   UNL     1      -3.014  23.533   3.264  1.00  0.00    -0.237 OA
ATOM     90  O   UNL     1      -3.924  23.271   5.536  1.00  0.00    -0.237 OA
ATOM     91  O   UNL     1      -1.569  22.737   5.102  1.00  0.00    -0.744 OA
ENDBRANCH  85  88
ENDBRANCH  58  81
ENDBRANCH  32  33
ENDBRANCH  24  27
ENDBRANCH  22  23
ENDBRANCH  21  22
ENDBRANCH   1  21
TORSDOF 18
