REMARK SMILES Cc1cccc(OC2(C(=O)NCCCCCCNC(=O)c3ccc(-c4c5nc(c(-c6cccc(S(=O)(=O)[O-])c6F)c6ccc([nH]6)c(-c6cccc(S(=O)(=O)[O-])c6F)c6nc(c(-c7cccc(S(=O)(=O)[O-])c7F)c7ccc4[nH]7)C=C6)C=C5)cc3)CCN(C(=O)c3cnc[nH]c3=O)CC2)c1
REMARK SMILES IDX 15 1 14 2 13 3 12 4 11 5 9 6 10 7 8 9 84 10 97 11 85 12
REMARK SMILES IDX 96 13 86 14 87 15 88 16 7 17 6 18 1 19 2 20 3 21 98 22 4 23
REMARK SMILES IDX 5 24 89 25 90 26 94 27 91 28 93 29 95 30 92 31 16 33 17 34
REMARK SMILES IDX 18 35 19 36 20 38 21 39 22 40 83 41 23 42 82 43 24 44 25 45
REMARK SMILES IDX 26 46 76 47 27 48 81 49 75 50 77 51 28 52 80 53 74 54 73 55
REMARK SMILES IDX 29 57 61 58 41 59 60 60 42 61 45 62 59 63 78 64 43 65 44 66
REMARK SMILES IDX 58 68 79 69 46 70 30 71 31 72 39 73 32 74 34 75 40 76 33 77
REMARK SMILES IDX 35 78 36 79 37 80 38 81 62 82 63 83 71 84 64 85 66 86 72 87
REMARK SMILES IDX 65 88 67 89 68 90 69 91 70 92 47 93 48 94 56 95 49 96 51 97
REMARK SMILES IDX 57 98 50 99 52 100 53 101 54 102 55 103
REMARK H PARENT 11 8 93 32 18 37 77 56 45 67
REMARK Flexibility Score: inf
ROOT
ATOM      1  C   UNL     1       0.637   7.993  -4.051  1.00  0.00     0.002 C 
ENDROOT
BRANCH   1   2
ATOM      2  C   UNL     1       1.228   6.647  -3.634  1.00  0.00     0.002 C 
BRANCH   2   3
ATOM      3  C   UNL     1       1.069   6.272  -2.163  1.00  0.00     0.021 C 
BRANCH   3   4
ATOM      4  C   UNL     1      -0.348   6.376  -1.571  1.00  0.00     0.116 C 
BRANCH   4   5
ATOM      5  N   UNL     1      -1.203   5.245  -1.883  1.00  0.00    -0.353 N 
ATOM      6  C   UNL     1      -1.515   4.096  -1.216  1.00  0.00     0.264 C 
ATOM      7  O   UNL     1      -2.479   3.479  -1.693  1.00  0.00    -0.270 OA
ATOM      8  H   UNL     1      -1.652   5.324  -2.756  1.00  0.00     0.163 HD
BRANCH   6   9
ATOM      9  C   UNL     1      -0.782   3.584   0.077  1.00  0.00     0.190 C 
ATOM     10  C   UNL     1       0.724   3.881   0.042  1.00  0.00     0.080 C 
ATOM     11  C   UNL     1      -1.434   4.258   1.313  1.00  0.00     0.080 C 
ATOM     12  C   UNL     1       1.466   3.754   1.359  1.00  0.00     0.124 C 
ATOM     13  C   UNL     1      -0.632   3.951   2.585  1.00  0.00     0.124 C 
ATOM     14  N   UNL     1       0.724   4.440   2.393  1.00  0.00    -0.338 N 
ATOM     15  C   UNL     1       1.110   5.706   2.794  1.00  0.00     0.261 C 
ATOM     16  O   UNL     1       1.672   6.505   2.050  1.00  0.00    -0.269 OA
BRANCH   9  17
ATOM     17  O   UNL     1      -1.218   2.212   0.209  1.00  0.00    -0.477 OA
BRANCH  17  18
ATOM     18  C   UNL     1      -0.586   1.032   0.043  1.00  0.00     0.121 A 
ATOM     19  C   UNL     1       2.772  -0.736  -0.029  1.00  0.00     0.044 C 
ATOM     20  C   UNL     1       1.286  -0.521  -0.036  1.00  0.00    -0.047 A 
ATOM     21  C   UNL     1       0.406  -1.604  -0.011  1.00  0.00     0.003 A 
ATOM     22  C   UNL     1       0.774   0.785  -0.043  1.00  0.00     0.049 A 
ATOM     23  C   UNL     1      -0.966  -1.377   0.015  1.00  0.00     0.004 A 
ATOM     24  C   UNL     1      -1.453  -0.068   0.051  1.00  0.00     0.046 A 
ENDBRANCH  17  18
ENDBRANCH   9  17
BRANCH  15  25
ATOM     25  C   UNL     1       0.800   6.040   4.196  1.00  0.00     0.123 A 
ATOM     26  C   UNL     1       0.204   7.202   4.499  1.00  0.00     0.132 A 
ATOM     27  C   UNL     1       1.141   5.143   5.317  1.00  0.00     0.263 A 
ATOM     28  N   UNL     1      -0.151   7.601   5.768  1.00  0.00    -0.246 NA
ATOM     29  N   UNL     1       0.823   5.621   6.556  1.00  0.00    -0.312 N 
ATOM     30  O   UNL     1       1.654   4.038   5.179  1.00  0.00    -0.269 OA
ATOM     31  C   UNL     1       0.186   6.813   6.731  1.00  0.00     0.199 A 
ATOM     32  H   UNL     1       1.060   5.087   7.348  1.00  0.00     0.171 HD
ENDBRANCH  15  25
ENDBRANCH   6   9
ENDBRANCH   4   5
ENDBRANCH   3   4
ENDBRANCH   2   3
ENDBRANCH   1   2
BRANCH   1  33
ATOM     33  C   UNL     1       0.878   9.149  -3.082  1.00  0.00     0.021 C 
BRANCH  33  34
ATOM     34  C   UNL     1       2.330   9.571  -2.975  1.00  0.00     0.116 C 
BRANCH  34  35
ATOM     35  N   UNL     1       2.688  10.453  -4.062  1.00  0.00    -0.352 N 
ATOM     36  C   UNL     1       3.677  11.416  -4.139  1.00  0.00     0.251 C 
ATOM     37  H   UNL     1       2.143  10.351  -4.875  1.00  0.00     0.163 HD
ATOM     38  O   UNL     1       3.529  12.324  -4.930  1.00  0.00    -0.269 OA
BRANCH  36  39
ATOM     39  C   UNL     1       4.979  11.182  -3.452  1.00  0.00     0.039 A 
ATOM     40  C   UNL     1       6.116  11.526  -4.199  1.00  0.00     0.014 A 
ATOM     41  C   UNL     1       5.095  10.315  -2.373  1.00  0.00     0.014 A 
ATOM     42  C   UNL     1       7.271  10.768  -4.072  1.00  0.00     0.010 A 
ATOM     43  C   UNL     1       6.190   9.494  -2.315  1.00  0.00     0.010 A 
ATOM     44  C   UNL     1       7.237   9.676  -3.224  1.00  0.00    -0.014 A 
BRANCH  44  45
ATOM     45  C   UNL     1       8.257   8.656  -3.133  1.00  0.00     0.031 A 
ATOM     46  C   UNL     1       9.223   8.756  -2.034  1.00  0.00     0.074 A 
ATOM     47  C   UNL     1       8.056   7.517  -3.826  1.00  0.00     0.049 A 
ATOM     48  N   UNL     1      10.156   7.905  -1.814  1.00  0.00    -0.248 NA
ATOM     49  C   UNL     1       9.211   9.868  -1.092  1.00  0.00     0.031 C 
ATOM     50  C   UNL     1       8.530   6.175  -3.512  1.00  0.00     0.029 A 
ATOM     51  N   UNL     1       7.516   7.397  -5.102  1.00  0.00    -0.354 N 
ATOM     52  C   UNL     1      10.687   8.187  -0.575  1.00  0.00     0.074 A 
ATOM     53  C   UNL     1      10.134   9.467  -0.216  1.00  0.00     0.031 C 
ATOM     54  C   UNL     1       8.477   5.421  -4.623  1.00  0.00     0.029 A 
ATOM     55  C   UNL     1       8.172   6.322  -5.723  1.00  0.00     0.049 A 
ATOM     56  H   UNL     1       6.809   7.958  -5.495  1.00  0.00     0.167 HD
ATOM     57  C   UNL     1      11.419   7.214   0.033  1.00  0.00     0.034 A 
ATOM     58  C   UNL     1       9.020   6.565  -6.770  1.00  0.00     0.034 A 
ATOM     59  C   UNL     1      11.692   6.124  -0.921  1.00  0.00     0.049 A 
ATOM     60  C   UNL     1      10.464   6.184  -6.487  1.00  0.00     0.074 A 
ATOM     61  C   UNL     1      11.112   4.886  -1.147  1.00  0.00     0.029 A 
ATOM     62  N   UNL     1      12.484   6.395  -2.032  1.00  0.00    -0.354 N 
ATOM     63  N   UNL     1      10.952   5.949  -5.299  1.00  0.00    -0.248 NA
ATOM     64  C   UNL     1      11.463   5.994  -7.534  1.00  0.00     0.031 C 
ATOM     65  C   UNL     1      11.497   4.456  -2.450  1.00  0.00     0.029 A 
ATOM     66  C   UNL     1      12.338   5.411  -2.997  1.00  0.00     0.049 A 
ATOM     67  H   UNL     1      13.070   7.181  -2.121  1.00  0.00     0.167 HD
ATOM     68  C   UNL     1      12.292   5.666  -5.379  1.00  0.00     0.074 A 
ATOM     69  C   UNL     1      12.544   5.645  -6.812  1.00  0.00     0.031 C 
ATOM     70  C   UNL     1      13.071   5.509  -4.258  1.00  0.00     0.034 A 
BRANCH  57  71
ATOM     71  C   UNL     1      11.691   7.094   1.525  1.00  0.00     0.023 A 
ATOM     72  C   UNL     1      12.169   5.844   1.982  1.00  0.00     0.012 A 
ATOM     73  C   UNL     1      11.438   8.055   2.534  1.00  0.00     0.148 A 
ATOM     74  C   UNL     1      12.320   5.541   3.340  1.00  0.00     0.002 A 
ATOM     75  C   UNL     1      11.573   7.753   3.893  1.00  0.00     0.091 A 
ATOM     76  F   UNL     1      11.079   9.294   2.209  1.00  0.00    -0.205 F 
ATOM     77  C   UNL     1      12.007   6.490   4.299  1.00  0.00     0.022 A 
BRANCH  75  78
ATOM     78  S   UNL     1      11.170   8.931   5.199  1.00  0.00     0.127 S 
ATOM     79  O   UNL     1      10.132   8.216   5.945  1.00  0.00    -0.237 OA
ATOM     80  O   UNL     1      12.443   9.062   5.907  1.00  0.00    -0.237 OA
ATOM     81  O   UNL     1      10.706  10.145   4.540  1.00  0.00    -0.744 OA
ENDBRANCH  75  78
ENDBRANCH  57  71
BRANCH  58  82
ATOM     82  C   UNL     1       8.553   7.714  -7.616  1.00  0.00     0.023 A 
ATOM     83  C   UNL     1       7.270   7.575  -8.207  1.00  0.00     0.012 A 
ATOM     84  C   UNL     1       9.096   9.005  -7.481  1.00  0.00     0.148 A 
ATOM     85  C   UNL     1       6.477   8.692  -8.474  1.00  0.00     0.002 A 
ATOM     86  C   UNL     1       8.306  10.118  -7.780  1.00  0.00     0.091 A 
ATOM     87  F   UNL     1      10.344   9.132  -7.013  1.00  0.00    -0.205 F 
ATOM     88  C   UNL     1       6.981   9.962  -8.222  1.00  0.00     0.022 A 
BRANCH  86  89
ATOM     89  S   UNL     1       8.893  11.798  -7.517  1.00  0.00     0.127 S 
ATOM     90  O   UNL     1       9.392  12.145  -8.845  1.00  0.00    -0.237 OA
ATOM     91  O   UNL     1       7.677  12.508  -7.119  1.00  0.00    -0.237 OA
ATOM     92  O   UNL     1       9.891  11.692  -6.463  1.00  0.00    -0.744 OA
ENDBRANCH  86  89
ENDBRANCH  58  82
BRANCH  70  93
ATOM     93  C   UNL     1      14.597   5.443  -4.211  1.00  0.00     0.023 A 
ATOM     94  C   UNL     1      15.412   5.768  -5.310  1.00  0.00     0.012 A 
ATOM     95  C   UNL     1      15.281   5.181  -2.988  1.00  0.00     0.148 A 
ATOM     96  C   UNL     1      16.811   5.796  -5.225  1.00  0.00     0.002 A 
ATOM     97  C   UNL     1      16.662   5.331  -2.878  1.00  0.00     0.091 A 
ATOM     98  F   UNL     1      14.604   4.750  -1.914  1.00  0.00    -0.205 F 
ATOM     99  C   UNL     1      17.436   5.609  -4.002  1.00  0.00     0.022 A 
BRANCH  97 100
ATOM    100  S   UNL     1      17.471   5.337  -1.270  1.00  0.00     0.127 S 
ATOM    101  O   UNL     1      17.926   3.953  -1.154  1.00  0.00    -0.237 OA
ATOM    102  O   UNL     1      18.543   6.316  -1.463  1.00  0.00    -0.237 OA
ATOM    103  O   UNL     1      16.443   5.759  -0.329  1.00  0.00    -0.744 OA
ENDBRANCH  97 100
ENDBRANCH  70  93
ENDBRANCH  44  45
ENDBRANCH  36  39
ENDBRANCH  34  35
ENDBRANCH  33  34
ENDBRANCH   1  33
TORSDOF 19
