REMARK SMILES COc1ccc(CSc2ncccc2C(=O)NCCCCCCNC(=O)c2ccc(-c3c4nc(c(-c5cccc(S(=O)(=O)[O-])c5F)c5ccc([nH]5)c(-c5cccc(S(=O)(=O)[O-])c5F)c5nc(c(-c6cccc(S(=O)(=O)[O-])c6F)c6ccc3[nH]6)C=C5)C=C4)cc2)cc1
REMARK SMILES IDX 20 1 19 2 18 3 17 4 15 5 16 6 14 8 9 9 10 10 11 11 13 12
REMARK SMILES IDX 12 13 8 14 7 15 6 16 3 17 4 18 91 19 5 20 90 21 2 22 1 23
REMARK SMILES IDX 21 24 22 25 23 26 24 27 25 28 26 30 27 31 28 32 89 33 29 34
REMARK SMILES IDX 88 35 30 36 31 37 32 38 82 39 33 40 87 41 81 42 83 43 34 44
REMARK SMILES IDX 86 45 80 46 79 47 35 49 67 50 47 51 66 52 48 53 51 54 65 55
REMARK SMILES IDX 84 56 49 57 50 58 64 60 85 61 52 62 36 63 37 64 45 65 38 66
REMARK SMILES IDX 40 67 46 68 39 69 41 70 42 71 43 72 44 73 68 74 69 75 77 76
REMARK SMILES IDX 70 77 72 78 78 79 71 80 73 81 74 82 75 83 76 84 53 85 54 86
REMARK SMILES IDX 62 87 55 88 57 89 63 90 56 91 58 92 59 93 60 94 61 95
REMARK H PARENT 17 7 24 29 83 48 51 59
REMARK Flexibility Score: inf
ROOT
ATOM      1  C   UNL     1       8.900  -0.641   5.784  1.00  0.00     0.002 C 
ENDROOT
BRANCH   1   2
ATOM      2  C   UNL     1       8.119   0.678   5.915  1.00  0.00     0.021 C 
BRANCH   2   3
ATOM      3  C   UNL     1       6.777   0.653   5.171  1.00  0.00     0.116 C 
BRANCH   3   4
ATOM      4  N   UNL     1       5.849  -0.167   5.933  1.00  0.00    -0.352 N 
ATOM      5  C   UNL     1       4.969   0.162   6.937  1.00  0.00     0.254 C 
ATOM      6  O   UNL     1       4.745  -0.697   7.787  1.00  0.00    -0.269 OA
ATOM      7  H   UNL     1       5.851  -1.121   5.688  1.00  0.00     0.163 HD
BRANCH   5   8
ATOM      8  C   UNL     1       4.229   1.445   6.948  1.00  0.00     0.072 A 
ATOM      9  C   UNL     1       2.846   1.492   7.184  1.00  0.00     0.109 A 
ATOM     10  N   UNL     1       2.156   2.671   7.166  1.00  0.00    -0.249 NA
ATOM     11  C   UNL     1       2.830   3.814   6.937  1.00  0.00     0.112 A 
ATOM     12  C   UNL     1       4.902   2.666   6.791  1.00  0.00     0.018 A 
ATOM     13  C   UNL     1       4.196   3.865   6.761  1.00  0.00     0.021 A 
BRANCH   9  14
ATOM     14  S   UNL     1       1.780   0.154   7.701  1.00  0.00    -0.101 SA
BRANCH  14  15
ATOM     15  C   UNL     1       1.966  -1.083   6.387  1.00  0.00     0.112 C 
BRANCH  15  16
ATOM     16  C   UNL     1       1.592  -0.620   5.004  1.00  0.00    -0.037 A 
ATOM     17  C   UNL     1       0.872   0.101   2.381  1.00  0.00     0.118 A 
ATOM     18  C   UNL     1      -0.052   0.203   3.421  1.00  0.00     0.047 A 
ATOM     19  C   UNL     1       2.167  -0.337   2.656  1.00  0.00     0.047 A 
ATOM     20  C   UNL     1       0.298  -0.165   4.721  1.00  0.00     0.008 A 
ATOM     21  C   UNL     1       2.524  -0.695   3.960  1.00  0.00     0.008 A 
BRANCH  17  22
ATOM     22  O   UNL     1       0.404   0.479   1.152  1.00  0.00    -0.497 OA
ATOM     23  C   UNL     1       1.106  -0.044   0.031  1.00  0.00     0.278 C 
ENDBRANCH  17  22
ENDBRANCH  15  16
ENDBRANCH  14  15
ENDBRANCH   9  14
ENDBRANCH   5   8
ENDBRANCH   3   4
ENDBRANCH   2   3
ENDBRANCH   1   2
BRANCH   1  24
ATOM     24  C   UNL     1       9.355  -0.972   4.358  1.00  0.00     0.002 C 
BRANCH  24  25
ATOM     25  C   UNL     1      10.184   0.122   3.683  1.00  0.00     0.021 C 
BRANCH  25  26
ATOM     26  C   UNL     1      11.472   0.470   4.420  1.00  0.00     0.116 C 
BRANCH  26  27
ATOM     27  N   UNL     1      12.408  -0.645   4.415  1.00  0.00    -0.352 N 
ATOM     28  C   UNL     1      13.711  -0.669   3.983  1.00  0.00     0.251 C 
ATOM     29  H   UNL     1      12.060  -1.496   4.768  1.00  0.00     0.163 HD
ATOM     30  O   UNL     1      14.291  -1.738   3.826  1.00  0.00    -0.269 OA
BRANCH  28  31
ATOM     31  C   UNL     1      14.403   0.606   3.699  1.00  0.00     0.039 A 
ATOM     32  C   UNL     1      15.152   0.730   2.527  1.00  0.00     0.014 A 
ATOM     33  C   UNL     1      14.307   1.675   4.595  1.00  0.00     0.014 A 
ATOM     34  C   UNL     1      15.771   1.947   2.231  1.00  0.00     0.010 A 
ATOM     35  C   UNL     1      14.861   2.906   4.262  1.00  0.00     0.010 A 
ATOM     36  C   UNL     1      15.611   3.051   3.085  1.00  0.00    -0.014 A 
BRANCH  36  37
ATOM     37  C   UNL     1      16.230   4.365   2.778  1.00  0.00     0.031 A 
ATOM     38  C   UNL     1      17.263   4.943   3.708  1.00  0.00     0.074 A 
ATOM     39  C   UNL     1      15.797   5.077   1.720  1.00  0.00     0.049 A 
ATOM     40  N   UNL     1      17.856   6.107   3.661  1.00  0.00    -0.248 NA
ATOM     41  C   UNL     1      17.659   4.115   4.860  1.00  0.00     0.031 C 
ATOM     42  C   UNL     1      14.750   4.657   0.787  1.00  0.00     0.029 A 
ATOM     43  N   UNL     1      16.164   6.321   1.268  1.00  0.00    -0.354 N 
ATOM     44  C   UNL     1      18.660   6.170   4.792  1.00  0.00     0.074 A 
ATOM     45  C   UNL     1      18.454   4.941   5.526  1.00  0.00     0.031 C 
ATOM     46  C   UNL     1      14.558   5.624  -0.124  1.00  0.00     0.029 A 
ATOM     47  C   UNL     1      15.443   6.745   0.176  1.00  0.00     0.049 A 
ATOM     48  H   UNL     1      16.875   6.858   1.686  1.00  0.00     0.167 HD
ATOM     49  C   UNL     1      19.516   7.148   5.173  1.00  0.00     0.034 A 
ATOM     50  C   UNL     1      15.484   7.910  -0.500  1.00  0.00     0.034 A 
ATOM     51  C   UNL     1      19.752   8.347   4.416  1.00  0.00     0.049 A 
ATOM     52  C   UNL     1      16.473   8.964  -0.080  1.00  0.00     0.074 A 
ATOM     53  C   UNL     1      20.662   9.357   4.668  1.00  0.00     0.029 A 
ATOM     54  N   UNL     1      19.069   8.701   3.263  1.00  0.00    -0.354 N 
ATOM     55  N   UNL     1      17.335   8.940   0.907  1.00  0.00    -0.248 NA
ATOM     56  C   UNL     1      16.520  10.191  -0.888  1.00  0.00     0.031 C 
ATOM     57  C   UNL     1      20.512  10.335   3.679  1.00  0.00     0.029 A 
ATOM     58  C   UNL     1      19.531   9.918   2.795  1.00  0.00     0.049 A 
ATOM     59  H   UNL     1      18.361   8.165   2.839  1.00  0.00     0.167 HD
ATOM     60  C   UNL     1      18.055  10.126   0.815  1.00  0.00     0.074 A 
ATOM     61  C   UNL     1      17.538  10.839  -0.336  1.00  0.00     0.031 C 
ATOM     62  C   UNL     1      19.045  10.589   1.616  1.00  0.00     0.034 A 
BRANCH  49  63
ATOM     63  C   UNL     1      20.298   6.938   6.444  1.00  0.00     0.023 A 
ATOM     64  C   UNL     1      21.319   5.967   6.483  1.00  0.00     0.012 A 
ATOM     65  C   UNL     1      20.060   7.735   7.581  1.00  0.00     0.148 A 
ATOM     66  C   UNL     1      22.065   5.764   7.643  1.00  0.00     0.002 A 
ATOM     67  C   UNL     1      20.839   7.559   8.719  1.00  0.00     0.091 A 
ATOM     68  F   UNL     1      19.071   8.639   7.534  1.00  0.00    -0.205 F 
ATOM     69  C   UNL     1      21.832   6.566   8.756  1.00  0.00     0.022 A 
BRANCH  67  70
ATOM     70  S   UNL     1      20.673   8.596  10.176  1.00  0.00     0.127 S 
ATOM     71  O   UNL     1      20.078   7.665  11.134  1.00  0.00    -0.237 OA
ATOM     72  O   UNL     1      22.063   8.955  10.458  1.00  0.00    -0.237 OA
ATOM     73  O   UNL     1      19.826   9.713   9.781  1.00  0.00    -0.744 OA
ENDBRANCH  67  70
ENDBRANCH  49  63
BRANCH  50  74
ATOM     74  C   UNL     1      14.603   8.115  -1.685  1.00  0.00     0.023 A 
ATOM     75  C   UNL     1      15.173   8.155  -2.972  1.00  0.00     0.012 A 
ATOM     76  C   UNL     1      13.207   8.241  -1.548  1.00  0.00     0.148 A 
ATOM     77  C   UNL     1      14.374   8.352  -4.098  1.00  0.00     0.002 A 
ATOM     78  C   UNL     1      12.411   8.380  -2.679  1.00  0.00     0.091 A 
ATOM     79  F   UNL     1      12.684   8.209  -0.314  1.00  0.00    -0.205 F 
ATOM     80  C   UNL     1      12.993   8.455  -3.954  1.00  0.00     0.022 A 
BRANCH  78  81
ATOM     81  S   UNL     1      10.616   8.386  -2.599  1.00  0.00     0.127 S 
ATOM     82  O   UNL     1      10.306   9.772  -2.939  1.00  0.00    -0.237 OA
ATOM     83  O   UNL     1      10.265   7.405  -3.626  1.00  0.00    -0.237 OA
ATOM     84  O   UNL     1      10.281   7.977  -1.241  1.00  0.00    -0.744 OA
ENDBRANCH  78  81
ENDBRANCH  50  74
BRANCH  62  85
ATOM     85  C   UNL     1      19.676  11.910   1.259  1.00  0.00     0.023 A 
ATOM     86  C   UNL     1      18.963  13.108   1.460  1.00  0.00     0.012 A 
ATOM     87  C   UNL     1      21.008  11.964   0.802  1.00  0.00     0.148 A 
ATOM     88  C   UNL     1      19.555  14.339   1.180  1.00  0.00     0.002 A 
ATOM     89  C   UNL     1      21.608  13.197   0.574  1.00  0.00     0.091 A 
ATOM     90  F   UNL     1      21.663  10.812   0.600  1.00  0.00    -0.205 F 
ATOM     91  C   UNL     1      20.880  14.384   0.751  1.00  0.00     0.022 A 
BRANCH  89  92
ATOM     92  S   UNL     1      23.338  13.354   0.117  1.00  0.00     0.127 S 
ATOM     93  O   UNL     1      23.239  13.767  -1.282  1.00  0.00    -0.237 OA
ATOM     94  O   UNL     1      23.806  14.398   1.030  1.00  0.00    -0.237 OA
ATOM     95  O   UNL     1      23.934  12.044   0.341  1.00  0.00    -0.744 OA
ENDBRANCH  89  92
ENDBRANCH  62  85
ENDBRANCH  36  37
ENDBRANCH  28  31
ENDBRANCH  26  27
ENDBRANCH  25  26
ENDBRANCH  24  25
ENDBRANCH   1  24
TORSDOF 20
