REMARK SMILES CCC[C@H]1CC[C@H](C(=O)NCCCCCCNC(=O)c2ccc(-c3c4nc(c(-c5cccc(S(=O)(=O)[O-])c5F)c5ccc([nH]5)c(-c5cccc(S(=O)(=O)[O-])c5F)c5nc(c(-c6cccc(S(=O)(=O)[O-])c6F)c6ccc3[nH]6)C=C5)C=C4)cc2)[C@H](Sc2ccncc2)C1
REMARK SMILES IDX 14 1 13 2 12 3 11 4 10 5 8 6 9 7 7 9 4 10 5 11 91 12 6 13
REMARK SMILES IDX 83 14 3 15 2 16 1 17 84 18 85 19 86 20 90 21 87 22 89 23
REMARK SMILES IDX 88 24 15 25 16 26 17 27 18 28 19 30 20 31 21 32 82 33 22 34
REMARK SMILES IDX 81 35 23 36 24 37 25 38 75 39 26 40 80 41 74 42 76 43 27 44
REMARK SMILES IDX 79 45 73 46 72 47 28 49 60 50 40 51 59 52 41 53 44 54 58 55
REMARK SMILES IDX 77 56 42 57 43 58 57 60 78 61 45 62 29 63 30 64 38 65 31 66
REMARK SMILES IDX 33 67 39 68 32 69 34 70 35 71 36 72 37 73 61 74 62 75 70 76
REMARK SMILES IDX 63 77 65 78 71 79 64 80 66 81 67 82 68 83 69 84 46 85 47 86
REMARK SMILES IDX 55 87 48 88 50 89 56 90 49 91 51 92 52 93 53 94 54 95
REMARK H PARENT 10 8 17 29 76 48 44 59
REMARK Flexibility Score: inf
ROOT
ATOM      1  C   UNL     1      -0.505   0.674   2.426  1.00  0.00     0.002 C 
ENDROOT
BRANCH   1   2
ATOM      2  C   UNL     1      -1.884   0.645   1.751  1.00  0.00     0.002 C 
BRANCH   2   3
ATOM      3  C   UNL     1      -1.853   0.692   0.227  1.00  0.00     0.021 C 
BRANCH   3   4
ATOM      4  C   UNL     1      -1.095  -0.473  -0.391  1.00  0.00     0.116 C 
BRANCH   4   5
ATOM      5  N   UNL     1      -1.961  -1.499  -0.908  1.00  0.00    -0.356 N 
ATOM      6  C   UNL     1      -1.963  -2.187  -2.073  1.00  0.00     0.224 C 
ATOM      7  O   UNL     1      -2.846  -3.053  -2.172  1.00  0.00    -0.275 OA
ATOM      8  H   UNL     1      -2.692  -1.748  -0.297  1.00  0.00     0.163 HD
BRANCH   6   9
ATOM      9  C   UNL     1      -1.035  -1.943  -3.271  1.00  0.00     0.092 C 
ATOM     10  C   UNL     1       0.774   0.491  -3.368  1.00  0.00    -0.010 C 
ATOM     11  C   UNL     1      -0.759   0.604  -3.583  1.00  0.00     0.004 C 
ATOM     12  C   UNL     1       1.241  -0.829  -2.696  1.00  0.00     0.019 C 
ATOM     13  C   UNL     1      -1.443  -0.679  -4.040  1.00  0.00     0.015 C 
ATOM     14  C   UNL     1       0.496  -2.063  -3.201  1.00  0.00     0.064 C 
BRANCH  10  15
ATOM     15  C   UNL     1       1.455   0.800  -4.722  1.00  0.00     0.003 C 
BRANCH  15  16
ATOM     16  C   UNL     1       2.985   0.771  -4.753  1.00  0.00    -0.003 C 
ATOM     17  C   UNL     1       3.559  -0.573  -5.181  1.00  0.00     0.004 C 
ENDBRANCH  15  16
ENDBRANCH  10  15
BRANCH  14  18
ATOM     18  S   UNL     1       1.231  -3.669  -2.637  1.00  0.00    -0.122 SA
BRANCH  18  19
ATOM     19  C   UNL     1       0.730  -3.847  -0.944  1.00  0.00     0.011 A 
ATOM     20  C   UNL     1      -0.477  -4.469  -0.637  1.00  0.00     0.035 A 
ATOM     21  C   UNL     1       1.590  -3.508   0.097  1.00  0.00     0.035 A 
ATOM     22  C   UNL     1      -0.827  -4.623   0.693  1.00  0.00     0.112 A 
ATOM     23  C   UNL     1       1.170  -3.738   1.398  1.00  0.00     0.112 A 
ATOM     24  N   UNL     1      -0.032  -4.264   1.721  1.00  0.00    -0.265 NA
ENDBRANCH  18  19
ENDBRANCH  14  18
ENDBRANCH   6   9
ENDBRANCH   4   5
ENDBRANCH   3   4
ENDBRANCH   2   3
ENDBRANCH   1   2
BRANCH   1  25
ATOM     25  C   UNL     1       0.409   1.831   2.012  1.00  0.00     0.021 C 
BRANCH  25  26
ATOM     26  C   UNL     1      -0.212   3.215   2.153  1.00  0.00     0.116 C 
BRANCH  26  27
ATOM     27  N   UNL     1      -0.743   3.436   3.490  1.00  0.00    -0.352 N 
ATOM     28  C   UNL     1      -0.471   4.446   4.376  1.00  0.00     0.251 C 
ATOM     29  H   UNL     1      -1.391   2.764   3.803  1.00  0.00     0.163 HD
ATOM     30  O   UNL     1      -0.837   4.363   5.541  1.00  0.00    -0.269 OA
BRANCH  28  31
ATOM     31  C   UNL     1       0.271   5.631   3.906  1.00  0.00     0.039 A 
ATOM     32  C   UNL     1       1.319   6.131   4.682  1.00  0.00     0.014 A 
ATOM     33  C   UNL     1      -0.077   6.244   2.699  1.00  0.00     0.014 A 
ATOM     34  C   UNL     1       2.048   7.229   4.224  1.00  0.00     0.010 A 
ATOM     35  C   UNL     1       0.700   7.284   2.208  1.00  0.00     0.010 A 
ATOM     36  C   UNL     1       1.756   7.800   2.975  1.00  0.00    -0.014 A 
BRANCH  36  37
ATOM     37  C   UNL     1       2.513   8.963   2.454  1.00  0.00     0.031 A 
ATOM     38  C   UNL     1       1.794  10.261   2.203  1.00  0.00     0.074 A 
ATOM     39  C   UNL     1       3.810   8.824   2.118  1.00  0.00     0.049 A 
ATOM     40  N   UNL     1       2.238  11.354   1.642  1.00  0.00    -0.248 NA
ATOM     41  C   UNL     1       0.378  10.325   2.604  1.00  0.00     0.031 C 
ATOM     42  C   UNL     1       4.595   7.596   2.261  1.00  0.00     0.029 A 
ATOM     43  N   UNL     1       4.687   9.715   1.554  1.00  0.00    -0.354 N 
ATOM     44  C   UNL     1       1.149  12.216   1.582  1.00  0.00     0.074 A 
ATOM     45  C   UNL     1       0.015  11.507   2.130  1.00  0.00     0.031 C 
ATOM     46  C   UNL     1       5.835   7.811   1.793  1.00  0.00     0.029 A 
ATOM     47  C   UNL     1       5.922   9.175   1.281  1.00  0.00     0.049 A 
ATOM     48  H   UNL     1       4.455  10.653   1.362  1.00  0.00     0.167 HD
ATOM     49  C   UNL     1       1.104  13.492   1.132  1.00  0.00     0.034 A 
ATOM     50  C   UNL     1       6.996   9.713   0.670  1.00  0.00     0.034 A 
ATOM     51  C   UNL     1       2.247  14.201   0.627  1.00  0.00     0.049 A 
ATOM     52  C   UNL     1       6.928  11.143   0.204  1.00  0.00     0.074 A 
ATOM     53  C   UNL     1       2.329  15.521   0.223  1.00  0.00     0.029 A 
ATOM     54  N   UNL     1       3.505  13.647   0.450  1.00  0.00    -0.354 N 
ATOM     55  N   UNL     1       5.926  11.986   0.275  1.00  0.00    -0.248 NA
ATOM     56  C   UNL     1       8.146  11.708  -0.394  1.00  0.00     0.031 C 
ATOM     57  C   UNL     1       3.629  15.756  -0.232  1.00  0.00     0.029 A 
ATOM     58  C   UNL     1       4.369  14.595  -0.066  1.00  0.00     0.049 A 
ATOM     59  H   UNL     1       3.747  12.716   0.660  1.00  0.00     0.167 HD
ATOM     60  C   UNL     1       6.407  13.193  -0.219  1.00  0.00     0.074 A 
ATOM     61  C   UNL     1       7.792  12.972  -0.584  1.00  0.00     0.031 C 
ATOM     62  C   UNL     1       5.761  14.375  -0.362  1.00  0.00     0.034 A 
BRANCH  49  63
ATOM     63  C   UNL     1      -0.216  14.214   1.199  1.00  0.00     0.023 A 
ATOM     64  C   UNL     1      -0.755  14.578   2.450  1.00  0.00     0.012 A 
ATOM     65  C   UNL     1      -0.897  14.581   0.022  1.00  0.00     0.148 A 
ATOM     66  C   UNL     1      -1.969  15.259   2.531  1.00  0.00     0.002 A 
ATOM     67  C   UNL     1      -2.080  15.305   0.108  1.00  0.00     0.091 A 
ATOM     68  F   UNL     1      -0.380  14.209  -1.158  1.00  0.00    -0.205 F 
ATOM     69  C   UNL     1      -2.624  15.632   1.361  1.00  0.00     0.022 A 
BRANCH  67  70
ATOM     70  S   UNL     1      -2.956  15.906  -1.340  1.00  0.00     0.127 S 
ATOM     71  O   UNL     1      -4.165  15.083  -1.315  1.00  0.00    -0.237 OA
ATOM     72  O   UNL     1      -3.170  17.314  -1.006  1.00  0.00    -0.237 OA
ATOM     73  O   UNL     1      -2.069  15.676  -2.472  1.00  0.00    -0.744 OA
ENDBRANCH  67  70
ENDBRANCH  49  63
BRANCH  50  74
ATOM     74  C   UNL     1       8.243   8.913   0.510  1.00  0.00     0.023 A 
ATOM     75  C   UNL     1       9.388   9.257   1.255  1.00  0.00     0.012 A 
ATOM     76  C   UNL     1       8.295   7.804  -0.357  1.00  0.00     0.148 A 
ATOM     77  C   UNL     1      10.573   8.536   1.111  1.00  0.00     0.002 A 
ATOM     78  C   UNL     1       9.462   7.055  -0.453  1.00  0.00     0.091 A 
ATOM     79  F   UNL     1       7.196   7.496  -1.060  1.00  0.00    -0.205 F 
ATOM     80  C   UNL     1      10.608   7.431   0.265  1.00  0.00     0.022 A 
BRANCH  78  81
ATOM     81  S   UNL     1       9.561   5.543  -1.417  1.00  0.00     0.127 S 
ATOM     82  O   UNL     1      10.463   5.936  -2.497  1.00  0.00    -0.237 OA
ATOM     83  O   UNL     1      10.129   4.606  -0.448  1.00  0.00    -0.237 OA
ATOM     84  O   UNL     1       8.193   5.239  -1.817  1.00  0.00    -0.744 OA
ENDBRANCH  78  81
ENDBRANCH  50  74
BRANCH  62  85
ATOM     85  C   UNL     1       6.548  15.556  -0.864  1.00  0.00     0.023 A 
ATOM     86  C   UNL     1       6.925  15.637  -2.218  1.00  0.00     0.012 A 
ATOM     87  C   UNL     1       6.817  16.638  -0.002  1.00  0.00     0.148 A 
ATOM     88  C   UNL     1       7.579  16.770  -2.702  1.00  0.00     0.002 A 
ATOM     89  C   UNL     1       7.419  17.785  -0.503  1.00  0.00     0.091 A 
ATOM     90  F   UNL     1       6.465  16.531   1.288  1.00  0.00    -0.205 F 
ATOM     91  C   UNL     1       7.812  17.848  -1.849  1.00  0.00     0.022 A 
BRANCH  89  92
ATOM     92  S   UNL     1       7.662  19.259   0.493  1.00  0.00     0.127 S 
ATOM     93  O   UNL     1       9.118  19.297   0.618  1.00  0.00    -0.237 OA
ATOM     94  O   UNL     1       7.095  20.303  -0.361  1.00  0.00    -0.237 OA
ATOM     95  O   UNL     1       6.937  19.032   1.736  1.00  0.00    -0.744 OA
ENDBRANCH  89  92
ENDBRANCH  62  85
ENDBRANCH  36  37
ENDBRANCH  28  31
ENDBRANCH  26  27
ENDBRANCH  25  26
ENDBRANCH   1  25
TORSDOF 20
