REMARK SMILES CCN(Cc1ccccn1)C(=O)NC(=O)CCCC(=O)NCCCCCCNC(=O)c1ccc(-c2c3nc(c(-c4cccc(S(=O)(=O)[O-])c4F)c4ccc([nH]4)c(-c4cccc(S(=O)(=O)[O-])c4F)c4nc(c(-c5cccc(S(=O)(=O)[O-])c5F)c5ccc2[nH]5)C=C4)C=C3)cc1
REMARK SMILES IDX 23 1 22 2 21 3 19 4 20 5 18 7 17 8 16 9 14 10 11 11 12 12
REMARK SMILES IDX 13 13 15 15 3 16 2 17 1 18 4 19 5 20 6 21 10 22 7 23 9 24
REMARK SMILES IDX 8 25 24 26 25 27 26 28 27 29 28 30 29 31 30 33 31 34 32 35
REMARK SMILES IDX 93 36 33 37 92 38 34 39 35 40 36 41 86 42 37 43 91 44 85 45
REMARK SMILES IDX 87 46 38 47 90 48 84 49 83 50 39 52 71 53 51 54 70 55 52 56
REMARK SMILES IDX 55 57 69 58 88 59 53 60 54 61 68 63 89 64 56 65 40 66 41 67
REMARK SMILES IDX 49 68 42 69 44 70 50 71 43 72 45 73 46 74 47 75 48 76 72 77
REMARK SMILES IDX 73 78 81 79 74 80 76 81 82 82 75 83 77 84 78 85 79 86 80 87
REMARK SMILES IDX 57 88 58 89 66 90 59 91 61 92 67 93 60 94 62 95 63 96 64 97
REMARK SMILES IDX 65 98
REMARK H PARENT 21 6 13 14 28 32 87 51 55 62
REMARK Flexibility Score: inf
ROOT
ATOM      1  C   UNL     1       1.235   5.397  -0.094  1.00  0.00     0.021 C 
ENDROOT
BRANCH   1   2
ATOM      2  C   UNL     1       1.607   3.646   0.670  1.00  0.00     0.116 C 
BRANCH   2   3
ATOM      3  N   UNL     1       0.190   2.496   0.814  1.00  0.00    -0.356 N 
ATOM      4  C   UNL     1      -0.598   1.536  -0.031  1.00  0.00     0.220 C 
ATOM      5  O   UNL     1      -1.504   0.923   0.558  1.00  0.00    -0.275 OA
ATOM      6  H   UNL     1      -0.166   2.511   1.732  1.00  0.00     0.163 HD
BRANCH   4   7
ATOM      7  C   UNL     1      -0.401   1.138  -1.794  1.00  0.00     0.100 C 
BRANCH   7   8
ATOM      8  C   UNL     1      -0.174   1.907  -3.269  1.00  0.00     0.020 C 
BRANCH   8   9
ATOM      9  C   UNL     1       0.522   3.212  -3.864  1.00  0.00     0.101 C 
BRANCH   9  10
ATOM     10  C   UNL     1       1.855   3.932  -3.591  1.00  0.00     0.227 C 
ATOM     11  C   UNL     1       2.670   2.382  -1.962  1.00  0.00     0.324 C 
ATOM     12  O   UNL     1       3.635   1.622  -1.866  1.00  0.00    -0.248 OA
ATOM     13  N   UNL     1       2.793   3.404  -2.798  1.00  0.00    -0.278 N 
ATOM     14  H   UNL     1       3.683   3.823  -2.841  1.00  0.00     0.174 HD
ATOM     15  O   UNL     1       2.089   5.035  -4.092  1.00  0.00    -0.275 OA
BRANCH  11  16
ATOM     16  N   UNL     1       1.539   2.308  -1.144  1.00  0.00    -0.319 N 
BRANCH  16  17
ATOM     17  C   UNL     1       2.036   1.146   0.024  1.00  0.00     0.118 C 
ATOM     18  C   UNL     1       2.168  -0.345  -0.301  1.00  0.00     0.027 C 
ENDBRANCH  16  17
BRANCH  16  19
ATOM     19  C   UNL     1       0.107   3.547  -1.084  1.00  0.00     0.177 C 
BRANCH  19  20
ATOM     20  C   UNL     1      -0.537   4.703   0.337  1.00  0.00     0.060 A 
ATOM     21  C   UNL     1      -0.867   5.954  -0.811  1.00  0.00     0.026 A 
ATOM     22  N   UNL     1       0.658   5.028   1.681  1.00  0.00    -0.259 NA
ATOM     23  C   UNL     1       0.242   7.257  -1.000  1.00  0.00     0.004 A 
ATOM     24  C   UNL     1       1.909   6.320   1.422  1.00  0.00     0.111 A 
ATOM     25  C   UNL     1       1.642   7.469   0.059  1.00  0.00     0.020 A 
ENDBRANCH  19  20
ENDBRANCH  16  19
ENDBRANCH  11  16
ENDBRANCH   9  10
ENDBRANCH   8   9
ENDBRANCH   7   8
ENDBRANCH   4   7
ENDBRANCH   2   3
ENDBRANCH   1   2
BRANCH   1  26
ATOM     26  C   UNL     1      -0.033   6.708   1.145  1.00  0.00     0.002 C 
BRANCH  26  27
ATOM     27  C   UNL     1       0.432   7.292   2.844  1.00  0.00     0.002 C 
BRANCH  27  28
ATOM     28  C   UNL     1       1.667   8.257   3.050  1.00  0.00     0.021 C 
BRANCH  28  29
ATOM     29  C   UNL     1       1.453   9.584   2.385  1.00  0.00     0.116 C 
BRANCH  29  30
ATOM     30  N   UNL     1       0.819  10.454   3.339  1.00  0.00    -0.352 N 
ATOM     31  C   UNL     1       1.090  11.784   3.468  1.00  0.00     0.251 C 
ATOM     32  H   UNL     1       0.143  10.062   3.939  1.00  0.00     0.163 HD
ATOM     33  O   UNL     1       0.814  12.401   4.487  1.00  0.00    -0.269 OA
BRANCH  31  34
ATOM     34  C   UNL     1       1.756  12.420   2.319  1.00  0.00     0.039 A 
ATOM     35  C   UNL     1       2.976  13.063   2.509  1.00  0.00     0.014 A 
ATOM     36  C   UNL     1       1.206  12.258   1.041  1.00  0.00     0.014 A 
ATOM     37  C   UNL     1       3.627  13.605   1.406  1.00  0.00     0.010 A 
ATOM     38  C   UNL     1       1.900  12.722  -0.064  1.00  0.00     0.010 A 
ATOM     39  C   UNL     1       3.083  13.454   0.119  1.00  0.00    -0.014 A 
BRANCH  39  40
ATOM     40  C   UNL     1       3.664  14.167  -1.038  1.00  0.00     0.031 A 
ATOM     41  C   UNL     1       2.847  15.238  -1.708  1.00  0.00     0.074 A 
ATOM     42  C   UNL     1       4.885  13.842  -1.498  1.00  0.00     0.049 A 
ATOM     43  N   UNL     1       3.128  15.944  -2.770  1.00  0.00    -0.248 NA
ATOM     44  C   UNL     1       1.528  15.539  -1.122  1.00  0.00     0.031 C 
ATOM     45  C   UNL     1       5.751  12.802  -0.940  1.00  0.00     0.029 A 
ATOM     46  N   UNL     1       5.599  14.343  -2.555  1.00  0.00    -0.354 N 
ATOM     47  C   UNL     1       2.011  16.736  -3.001  1.00  0.00     0.074 A 
ATOM     48  C   UNL     1       1.031  16.399  -1.996  1.00  0.00     0.031 C 
ATOM     49  C   UNL     1       6.883  12.745  -1.660  1.00  0.00     0.029 A 
ATOM     50  C   UNL     1       6.801  13.707  -2.755  1.00  0.00     0.049 A 
ATOM     51  H   UNL     1       5.282  15.087  -3.116  1.00  0.00     0.167 HD
ATOM     52  C   UNL     1       1.826  17.678  -3.952  1.00  0.00     0.034 A 
ATOM     53  C   UNL     1       7.717  13.867  -3.730  1.00  0.00     0.034 A 
ATOM     54  C   UNL     1       2.817  18.024  -4.930  1.00  0.00     0.049 A 
ATOM     55  C   UNL     1       7.478  14.907  -4.793  1.00  0.00     0.074 A 
ATOM     56  C   UNL     1       2.757  19.009  -5.897  1.00  0.00     0.029 A 
ATOM     57  N   UNL     1       4.035  17.382  -5.080  1.00  0.00    -0.354 N 
ATOM     58  N   UNL     1       6.463  15.724  -4.932  1.00  0.00    -0.248 NA
ATOM     59  C   UNL     1       8.521  15.069  -5.816  1.00  0.00     0.031 C 
ATOM     60  C   UNL     1       3.915  18.922  -6.673  1.00  0.00     0.029 A 
ATOM     61  C   UNL     1       4.728  17.934  -6.140  1.00  0.00     0.049 A 
ATOM     62  H   UNL     1       4.359  16.644  -4.515  1.00  0.00     0.167 HD
ATOM     63  C   UNL     1       6.767  16.528  -6.025  1.00  0.00     0.074 A 
ATOM     64  C   UNL     1       8.062  16.101  -6.511  1.00  0.00     0.031 C 
ATOM     65  C   UNL     1       6.040  17.530  -6.575  1.00  0.00     0.034 A 
BRANCH  52  66
ATOM     66  C   UNL     1       0.507  18.402  -3.978  1.00  0.00     0.023 A 
ATOM     67  C   UNL     1       0.165  19.294  -2.941  1.00  0.00     0.012 A 
ATOM     68  C   UNL     1      -0.376  18.229  -5.061  1.00  0.00     0.148 A 
ATOM     69  C   UNL     1      -1.054  19.972  -2.963  1.00  0.00     0.002 A 
ATOM     70  C   UNL     1      -1.561  18.949  -5.104  1.00  0.00     0.091 A 
ATOM     71  F   UNL     1      -0.041  17.360  -6.025  1.00  0.00    -0.205 F 
ATOM     72  C   UNL     1      -1.910  19.809  -4.049  1.00  0.00     0.022 A 
BRANCH  70  73
ATOM     73  S   UNL     1      -2.689  18.871  -6.498  1.00  0.00     0.127 S 
ATOM     74  O   UNL     1      -3.859  18.234  -5.894  1.00  0.00    -0.237 OA
ATOM     75  O   UNL     1      -2.866  20.286  -6.825  1.00  0.00    -0.237 OA
ATOM     76  O   UNL     1      -2.015  18.086  -7.522  1.00  0.00    -0.744 OA
ENDBRANCH  70  73
ENDBRANCH  52  66
BRANCH  53  77
ATOM     77  C   UNL     1       8.950  13.032  -3.741  1.00  0.00     0.023 A 
ATOM     78  C   UNL     1      10.204  13.630  -3.512  1.00  0.00     0.012 A 
ATOM     79  C   UNL     1       8.881  11.645  -3.972  1.00  0.00     0.148 A 
ATOM     80  C   UNL     1      11.372  12.867  -3.556  1.00  0.00     0.002 A 
ATOM     81  C   UNL     1      10.041  10.882  -3.956  1.00  0.00     0.091 A 
ATOM     82  F   UNL     1       7.677  11.097  -4.189  1.00  0.00    -0.205 F 
ATOM     83  C   UNL     1      11.290  11.493  -3.770  1.00  0.00     0.022 A 
BRANCH  81  84
ATOM     84  S   UNL     1      10.019   9.092  -4.100  1.00  0.00     0.127 S 
ATOM     85  O   UNL     1      10.704   8.887  -5.374  1.00  0.00    -0.237 OA
ATOM     86  O   UNL     1      10.779   8.689  -2.917  1.00  0.00    -0.237 OA
ATOM     87  O   UNL     1       8.614   8.709  -4.073  1.00  0.00    -0.744 OA
ENDBRANCH  81  84
ENDBRANCH  53  77
BRANCH  65  88
ATOM     88  C   UNL     1       6.643  18.306  -7.715  1.00  0.00     0.023 A 
ATOM     89  C   UNL     1       6.741  17.735  -8.997  1.00  0.00     0.012 A 
ATOM     90  C   UNL     1       6.989  19.660  -7.527  1.00  0.00     0.148 A 
ATOM     91  C   UNL     1       7.191  18.498 -10.074  1.00  0.00     0.002 A 
ATOM     92  C   UNL     1       7.380  20.428  -8.614  1.00  0.00     0.091 A 
ATOM     93  F   UNL     1       6.898  20.175  -6.292  1.00  0.00    -0.205 F 
ATOM     94  C   UNL     1       7.493  19.846  -9.886  1.00  0.00     0.022 A 
BRANCH  92  95
ATOM     95  S   UNL     1       7.683  22.193  -8.487  1.00  0.00     0.127 S 
ATOM     96  O   UNL     1       9.109  22.272  -8.803  1.00  0.00    -0.237 OA
ATOM     97  O   UNL     1       6.798  22.730  -9.520  1.00  0.00    -0.237 OA
ATOM     98  O   UNL     1       7.332  22.570  -7.125  1.00  0.00    -0.744 OA
ENDBRANCH  92  95
ENDBRANCH  65  88
ENDBRANCH  39  40
ENDBRANCH  31  34
ENDBRANCH  29  30
ENDBRANCH  28  29
ENDBRANCH  27  28
ENDBRANCH  26  27
ENDBRANCH   1  26
TORSDOF 23
