REMARK SMILES CC1(C)CCC[C@H]1NC(=O)N[C@@H]1COC[C@@]1(C)C(=O)NCCCCCCNC(=O)c1ccc(-c2c3nc(c(-c4cccc(S(=O)(=O)[O-])c4F)c4ccc([nH]4)c(-c4cccc(S(=O)(=O)[O-])c4F)c4nc(c(-c5cccc(S(=O)(=O)[O-])c5F)c5ccc2[nH]5)C=C4)C=C3)cc1
REMARK SMILES IDX 24 1 23 2 22 3 21 4 20 5 18 6 19 7 16 9 12 10 13 11 14 12
REMARK SMILES IDX 15 13 17 14 11 15 8 16 9 17 10 19 7 21 1 22 2 23 3 24 4 25
REMARK SMILES IDX 5 26 6 27 25 28 26 29 27 30 28 31 29 33 30 34 31 35 92 36
REMARK SMILES IDX 32 37 91 38 33 39 34 40 35 41 85 42 36 43 90 44 84 45 86 46
REMARK SMILES IDX 37 47 89 48 83 49 82 50 38 52 70 53 50 54 69 55 51 56 54 57
REMARK SMILES IDX 68 58 87 59 52 60 53 61 67 63 88 64 55 65 39 66 40 67 48 68
REMARK SMILES IDX 41 69 43 70 49 71 42 72 44 73 45 74 46 75 47 76 71 77 72 78
REMARK SMILES IDX 80 79 73 80 75 81 81 82 74 83 76 84 77 85 78 86 79 87 56 88
REMARK SMILES IDX 57 89 65 90 58 91 60 92 66 93 59 94 61 95 62 96 63 97 64 98
REMARK H PARENT 20 8 8 18 11 20 27 32 86 51 54 62
REMARK Flexibility Score: inf
ROOT
ATOM      1  C   UNL     1       5.941   3.102   3.682  1.00  0.00     0.002 C 
ENDROOT
BRANCH   1   2
ATOM      2  C   UNL     1       5.460   2.082   2.649  1.00  0.00     0.002 C 
BRANCH   2   3
ATOM      3  C   UNL     1       3.979   2.163   2.283  1.00  0.00     0.021 C 
BRANCH   3   4
ATOM      4  C   UNL     1       3.485   3.518   1.767  1.00  0.00     0.116 C 
BRANCH   4   5
ATOM      5  N   UNL     1       3.845   3.831   0.394  1.00  0.00    -0.355 N 
ATOM      6  C   UNL     1       3.125   3.758  -0.764  1.00  0.00     0.230 C 
ATOM      7  O   UNL     1       3.630   4.289  -1.759  1.00  0.00    -0.274 OA
ATOM      8  H   UNL     1       4.769   4.152   0.280  1.00  0.00     0.163 HD
BRANCH   6   9
ATOM      9  C   UNL     1       1.803   2.977  -0.857  1.00  0.00     0.092 C 
ATOM     10  C   UNL     1       0.579   3.663  -0.218  1.00  0.00     0.127 C 
ATOM     11  C   UNL     1      -0.545   3.614  -1.249  1.00  0.00     0.186 C 
ATOM     12  O   UNL     1      -0.079   2.810  -2.334  1.00  0.00    -0.378 OA
ATOM     13  C   UNL     1       1.353   2.920  -2.334  1.00  0.00     0.179 C 
ATOM     14  C   UNL     1       2.100   1.561  -0.412  1.00  0.00     0.026 C 
BRANCH  10  15
ATOM     15  N   UNL     1       0.140   3.313   1.139  1.00  0.00    -0.332 N 
ATOM     16  N   UNL     1      -0.623   1.077   1.470  1.00  0.00    -0.335 N 
ATOM     17  C   UNL     1      -0.318   2.304   1.870  1.00  0.00     0.315 C 
ATOM     18  H   UNL     1      -0.728   0.470   2.238  1.00  0.00     0.165 HD
ATOM     19  O   UNL     1      -0.444   2.536   3.077  1.00  0.00    -0.249 OA
ATOM     20  H   UNL     1       0.210   4.112   1.710  1.00  0.00     0.165 HD
BRANCH  16  21
ATOM     21  C   UNL     1      -0.847   0.374   0.210  1.00  0.00     0.089 C 
ATOM     22  C   UNL     1       1.051  -1.269   1.060  1.00  0.00     0.013 C 
ATOM     23  C   UNL     1      -0.184  -1.052   0.168  1.00  0.00    -0.015 C 
ATOM     24  C   UNL     1       0.185  -1.447  -1.284  1.00  0.00     0.013 C 
ATOM     25  C   UNL     1      -1.317  -1.964   0.666  1.00  0.00     0.008 C 
ATOM     26  C   UNL     1      -2.558  -1.400   0.002  1.00  0.00     0.003 C 
ATOM     27  C   UNL     1      -2.365   0.113   0.050  1.00  0.00     0.025 C 
ENDBRANCH  16  21
ENDBRANCH  10  15
ENDBRANCH   6   9
ENDBRANCH   4   5
ENDBRANCH   3   4
ENDBRANCH   2   3
ENDBRANCH   1   2
BRANCH   1  28
ATOM     28  C   UNL     1       5.135   3.148   4.984  1.00  0.00     0.021 C 
BRANCH  28  29
ATOM     29  C   UNL     1       5.139   1.847   5.785  1.00  0.00     0.116 C 
BRANCH  29  30
ATOM     30  N   UNL     1       6.483   1.492   6.217  1.00  0.00    -0.352 N 
ATOM     31  C   UNL     1       7.032   1.525   7.475  1.00  0.00     0.251 C 
ATOM     32  H   UNL     1       7.086   1.184   5.503  1.00  0.00     0.163 HD
ATOM     33  O   UNL     1       8.252   1.481   7.610  1.00  0.00    -0.269 OA
BRANCH  31  34
ATOM     34  C   UNL     1       6.159   1.605   8.665  1.00  0.00     0.039 A 
ATOM     35  C   UNL     1       6.511   2.454   9.718  1.00  0.00     0.014 A 
ATOM     36  C   UNL     1       5.018   0.803   8.763  1.00  0.00     0.014 A 
ATOM     37  C   UNL     1       5.694   2.532  10.849  1.00  0.00     0.010 A 
ATOM     38  C   UNL     1       4.171   0.931   9.860  1.00  0.00     0.010 A 
ATOM     39  C   UNL     1       4.506   1.786  10.920  1.00  0.00    -0.014 A 
BRANCH  39  40
ATOM     40  C   UNL     1       3.602   1.881  12.095  1.00  0.00     0.031 A 
ATOM     41  C   UNL     1       3.364   0.677  12.966  1.00  0.00     0.074 A 
ATOM     42  C   UNL     1       2.926   3.024  12.323  1.00  0.00     0.049 A 
ATOM     43  N   UNL     1       2.567   0.547  13.995  1.00  0.00    -0.248 NA
ATOM     44  C   UNL     1       4.098  -0.552  12.620  1.00  0.00     0.031 C 
ATOM     45  C   UNL     1       3.014   4.235  11.504  1.00  0.00     0.029 A 
ATOM     46  N   UNL     1       2.012   3.345  13.294  1.00  0.00    -0.354 N 
ATOM     47  C   UNL     1       2.676  -0.779  14.396  1.00  0.00     0.074 A 
ATOM     48  C   UNL     1       3.589  -1.424  13.478  1.00  0.00     0.031 C 
ATOM     49  C   UNL     1       2.192   5.168  12.010  1.00  0.00     0.029 A 
ATOM     50  C   UNL     1       1.500   4.616  13.170  1.00  0.00     0.049 A 
ATOM     51  H   UNL     1       1.748   2.726  14.012  1.00  0.00     0.167 HD
ATOM     52  C   UNL     1       2.095  -1.399  15.452  1.00  0.00     0.034 A 
ATOM     53  C   UNL     1       0.574   5.261  13.906  1.00  0.00     0.034 A 
ATOM     54  C   UNL     1       1.222  -0.742  16.387  1.00  0.00     0.049 A 
ATOM     55  C   UNL     1      -0.030   4.563  15.095  1.00  0.00     0.074 A 
ATOM     56  C   UNL     1       0.649  -1.256  17.537  1.00  0.00     0.029 A 
ATOM     57  N   UNL     1       0.790   0.571  16.277  1.00  0.00    -0.354 N 
ATOM     58  N   UNL     1       0.207   3.357  15.551  1.00  0.00    -0.248 NA
ATOM     59  C   UNL     1      -1.001   5.327  15.891  1.00  0.00     0.031 C 
ATOM     60  C   UNL     1      -0.144  -0.257  18.113  1.00  0.00     0.029 A 
ATOM     61  C   UNL     1      -0.048   0.885  17.334  1.00  0.00     0.049 A 
ATOM     62  H   UNL     1       1.042   1.189  15.554  1.00  0.00     0.167 HD
ATOM     63  C   UNL     1      -0.556   3.229  16.706  1.00  0.00     0.074 A 
ATOM     64  C   UNL     1      -1.247   4.490  16.890  1.00  0.00     0.031 C 
ATOM     65  C   UNL     1      -0.686   2.162  17.532  1.00  0.00     0.034 A 
BRANCH  52  66
ATOM     66  C   UNL     1       2.436  -2.849  15.684  1.00  0.00     0.023 A 
ATOM     67  C   UNL     1       3.728  -3.193  16.135  1.00  0.00     0.012 A 
ATOM     68  C   UNL     1       1.477  -3.864  15.503  1.00  0.00     0.148 A 
ATOM     69  C   UNL     1       4.073  -4.525  16.361  1.00  0.00     0.002 A 
ATOM     70  C   UNL     1       1.815  -5.186  15.774  1.00  0.00     0.091 A 
ATOM     71  F   UNL     1       0.260  -3.524  15.055  1.00  0.00    -0.205 F 
ATOM     72  C   UNL     1       3.115  -5.519  16.190  1.00  0.00     0.022 A 
BRANCH  70  73
ATOM     73  S   UNL     1       0.629  -6.532  15.659  1.00  0.00     0.127 S 
ATOM     74  O   UNL     1       1.072  -7.212  14.442  1.00  0.00    -0.237 OA
ATOM     75  O   UNL     1       0.880  -7.272  16.896  1.00  0.00    -0.237 OA
ATOM     76  O   UNL     1      -0.682  -5.903  15.585  1.00  0.00    -0.744 OA
ENDBRANCH  70  73
ENDBRANCH  52  66
BRANCH  53  77
ATOM     77  C   UNL     1       0.225   6.675  13.588  1.00  0.00     0.023 A 
ATOM     78  C   UNL     1       0.647   7.698  14.460  1.00  0.00     0.012 A 
ATOM     79  C   UNL     1      -0.482   7.017  12.419  1.00  0.00     0.148 A 
ATOM     80  C   UNL     1       0.345   9.033  14.191  1.00  0.00     0.002 A 
ATOM     81  C   UNL     1      -0.734   8.354  12.130  1.00  0.00     0.091 A 
ATOM     82  F   UNL     1      -0.884   6.029  11.608  1.00  0.00    -0.205 F 
ATOM     83  C   UNL     1      -0.336   9.362  13.022  1.00  0.00     0.022 A 
BRANCH  81  84
ATOM     84  S   UNL     1      -1.489   8.883  10.588  1.00  0.00     0.127 S 
ATOM     85  O   UNL     1      -2.800   9.341  11.037  1.00  0.00    -0.237 OA
ATOM     86  O   UNL     1      -0.579   9.944  10.154  1.00  0.00    -0.237 OA
ATOM     87  O   UNL     1      -1.489   7.706   9.727  1.00  0.00    -0.744 OA
ENDBRANCH  81  84
ENDBRANCH  53  77
BRANCH  65  88
ATOM     88  C   UNL     1      -1.585   2.312  18.732  1.00  0.00     0.023 A 
ATOM     89  C   UNL     1      -2.982   2.340  18.559  1.00  0.00     0.012 A 
ATOM     90  C   UNL     1      -1.047   2.352  20.033  1.00  0.00     0.148 A 
ATOM     91  C   UNL     1      -3.831   2.436  19.662  1.00  0.00     0.002 A 
ATOM     92  C   UNL     1      -1.900   2.399  21.130  1.00  0.00     0.091 A 
ATOM     93  F   UNL     1       0.287   2.344  20.176  1.00  0.00    -0.205 F 
ATOM     94  C   UNL     1      -3.291   2.453  20.945  1.00  0.00     0.022 A 
BRANCH  92  95
ATOM     95  S   UNL     1      -1.297   2.328  22.821  1.00  0.00     0.127 S 
ATOM     96  O   UNL     1      -1.498   3.705  23.267  1.00  0.00    -0.237 OA
ATOM     97  O   UNL     1      -2.200   1.351  23.431  1.00  0.00    -0.237 OA
ATOM     98  O   UNL     1       0.090   1.894  22.734  1.00  0.00    -0.744 OA
ENDBRANCH  92  95
ENDBRANCH  65  88
ENDBRANCH  39  40
ENDBRANCH  31  34
ENDBRANCH  29  30
ENDBRANCH  28  29
ENDBRANCH   1  28
TORSDOF 18
