REMARK SMILES O=C(NCCCCCCNC(=O)[C@H]1C[N@H+](Cc2ccc(Cl)c(Cl)c2)CC12CCCCC2)c1ccc(-c2c3nc(c(-c4cccc(S(=O)(=O)[O-])c4F)c4ccc([nH]4)c(-c4cccc(S(=O)(=O)[O-])c4F)c4nc(c(-c5cccc(S(=O)(=O)[O-])c5F)c5ccc2[nH]5)C=C4)C=C3)cc1
REMARK SMILES IDX 6 1 5 2 4 3 3 4 1 5 2 6 32 8 33 9 94 10 34 11 93 12 35 13
REMARK SMILES IDX 36 14 37 15 87 16 38 17 92 18 86 19 88 20 39 21 91 22 85 23
REMARK SMILES IDX 84 24 40 26 72 27 52 28 71 29 53 30 56 31 70 32 89 33 54 34
REMARK SMILES IDX 55 35 69 37 90 38 57 39 41 40 42 41 50 42 43 43 45 44 51 45
REMARK SMILES IDX 44 46 46 47 47 48 48 49 49 50 73 51 74 52 82 53 75 54 77 55
REMARK SMILES IDX 83 56 76 57 78 58 79 59 80 60 81 61 58 62 59 63 67 64 60 65
REMARK SMILES IDX 62 66 68 67 61 68 63 69 64 70 65 71 66 72 7 73 8 74 9 75
REMARK SMILES IDX 10 76 11 77 12 79 13 80 14 81 26 82 15 83 25 84 27 85 31 86
REMARK SMILES IDX 28 88 30 89 29 90 16 91 17 92 18 93 24 94 19 95 22 96 20 97
REMARK SMILES IDX 23 98 21 99
REMARK H PARENT 3 7 88 25 56 36 10 78 15 87
REMARK Flexibility Score: inf
ROOT
ATOM      1  C   UNL     1       4.087   1.500  -3.791  1.00  0.00     0.002 C 
ENDROOT
BRANCH   1   2
ATOM      2  C   UNL     1       4.529   0.338  -2.904  1.00  0.00     0.021 C 
BRANCH   2   3
ATOM      3  C   UNL     1       4.356   0.575  -1.412  1.00  0.00     0.116 C 
BRANCH   3   4
ATOM      4  N   UNL     1       2.959   0.656  -1.018  1.00  0.00    -0.352 N 
ATOM      5  O   UNL     1       1.088   0.038   0.081  1.00  0.00    -0.269 OA
ATOM      6  C   UNL     1       2.311  -0.022  -0.011  1.00  0.00     0.251 C 
ATOM      7  H   UNL     1       2.403   1.278  -1.540  1.00  0.00     0.163 HD
BRANCH   6   8
ATOM      8  C   UNL     1       3.098  -0.845   0.934  1.00  0.00     0.039 A 
ATOM      9  C   UNL     1       4.290  -0.353   1.470  1.00  0.00     0.014 A 
ATOM     10  C   UNL     1       2.654  -2.127   1.273  1.00  0.00     0.014 A 
ATOM     11  C   UNL     1       5.111  -1.194   2.210  1.00  0.00     0.010 A 
ATOM     12  C   UNL     1       3.437  -2.937   2.104  1.00  0.00     0.010 A 
ATOM     13  C   UNL     1       4.688  -2.490   2.554  1.00  0.00    -0.014 A 
BRANCH  13  14
ATOM     14  C   UNL     1       5.546  -3.298   3.458  1.00  0.00     0.031 A 
ATOM     15  C   UNL     1       6.168  -4.595   3.019  1.00  0.00     0.074 A 
ATOM     16  C   UNL     1       5.796  -2.813   4.691  1.00  0.00     0.049 A 
ATOM     17  N   UNL     1       7.016  -5.355   3.666  1.00  0.00    -0.248 NA
ATOM     18  C   UNL     1       5.792  -5.115   1.695  1.00  0.00     0.031 C 
ATOM     19  C   UNL     1       5.194  -1.599   5.251  1.00  0.00     0.029 A 
ATOM     20  N   UNL     1       6.624  -3.260   5.687  1.00  0.00    -0.354 N 
ATOM     21  C   UNL     1       7.253  -6.452   2.847  1.00  0.00     0.074 A 
ATOM     22  C   UNL     1       6.449  -6.268   1.658  1.00  0.00     0.031 C 
ATOM     23  C   UNL     1       5.706  -1.372   6.467  1.00  0.00     0.029 A 
ATOM     24  C   UNL     1       6.633  -2.448   6.798  1.00  0.00     0.049 A 
ATOM     25  H   UNL     1       7.161  -4.082   5.615  1.00  0.00     0.167 HD
ATOM     26  C   UNL     1       8.081  -7.505   3.058  1.00  0.00     0.034 A 
ATOM     27  C   UNL     1       7.305  -2.556   7.959  1.00  0.00     0.034 A 
ATOM     28  C   UNL     1       8.900  -7.668   4.233  1.00  0.00     0.049 A 
ATOM     29  C   UNL     1       8.258  -3.701   8.138  1.00  0.00     0.074 A 
ATOM     30  C   UNL     1       9.798  -8.681   4.522  1.00  0.00     0.029 A 
ATOM     31  N   UNL     1       8.925  -6.796   5.311  1.00  0.00    -0.354 N 
ATOM     32  N   UNL     1       8.558  -4.660   7.296  1.00  0.00    -0.248 NA
ATOM     33  C   UNL     1       8.987  -3.763   9.411  1.00  0.00     0.031 C 
ATOM     34  C   UNL     1      10.359  -8.426   5.779  1.00  0.00     0.029 A 
ATOM     35  C   UNL     1       9.822  -7.246   6.266  1.00  0.00     0.049 A 
ATOM     36  H   UNL     1       8.383  -5.978   5.388  1.00  0.00     0.167 HD
ATOM     37  C   UNL     1       9.515  -5.437   7.934  1.00  0.00     0.074 A 
ATOM     38  C   UNL     1       9.780  -4.807   9.213  1.00  0.00     0.031 C 
ATOM     39  C   UNL     1      10.101  -6.586   7.516  1.00  0.00     0.034 A 
BRANCH  26  40
ATOM     40  C   UNL     1       8.194  -8.543   1.971  1.00  0.00     0.023 A 
ATOM     41  C   UNL     1       8.925  -8.240   0.804  1.00  0.00     0.012 A 
ATOM     42  C   UNL     1       7.661  -9.837   2.135  1.00  0.00     0.148 A 
ATOM     43  C   UNL     1       9.105  -9.199  -0.192  1.00  0.00     0.002 A 
ATOM     44  C   UNL     1       7.876 -10.800   1.154  1.00  0.00     0.091 A 
ATOM     45  F   UNL     1       6.954 -10.102   3.243  1.00  0.00    -0.205 F 
ATOM     46  C   UNL     1       8.591 -10.480  -0.012  1.00  0.00     0.022 A 
BRANCH  44  47
ATOM     47  S   UNL     1       7.318 -12.500   1.319  1.00  0.00     0.127 S 
ATOM     48  O   UNL     1       6.240 -12.553   0.333  1.00  0.00    -0.237 OA
ATOM     49  O   UNL     1       8.517 -13.256   0.954  1.00  0.00    -0.237 OA
ATOM     50  O   UNL     1       6.904 -12.653   2.707  1.00  0.00    -0.744 OA
ENDBRANCH  44  47
ENDBRANCH  26  40
BRANCH  27  51
ATOM     51  C   UNL     1       7.126  -1.518   9.012  1.00  0.00     0.023 A 
ATOM     52  C   UNL     1       8.181  -0.637   9.314  1.00  0.00     0.012 A 
ATOM     53  C   UNL     1       5.891  -1.361   9.671  1.00  0.00     0.148 A 
ATOM     54  C   UNL     1       8.017   0.365  10.271  1.00  0.00     0.002 A 
ATOM     55  C   UNL     1       5.714  -0.320  10.574  1.00  0.00     0.091 A 
ATOM     56  F   UNL     1       4.903  -2.222   9.389  1.00  0.00    -0.205 F 
ATOM     57  C   UNL     1       6.781   0.534  10.889  1.00  0.00     0.022 A 
BRANCH  55  58
ATOM     58  S   UNL     1       4.102   0.051  11.273  1.00  0.00     0.127 S 
ATOM     59  O   UNL     1       4.185  -0.594  12.579  1.00  0.00    -0.237 OA
ATOM     60  O   UNL     1       4.106   1.514  11.306  1.00  0.00    -0.237 OA
ATOM     61  O   UNL     1       3.143  -0.516  10.333  1.00  0.00    -0.744 OA
ENDBRANCH  55  58
ENDBRANCH  27  51
BRANCH  39  62
ATOM     62  C   UNL     1      11.082  -7.233   8.455  1.00  0.00     0.023 A 
ATOM     63  C   UNL     1      10.607  -7.883   9.612  1.00  0.00     0.012 A 
ATOM     64  C   UNL     1      12.463  -7.229   8.181  1.00  0.00     0.148 A 
ATOM     65  C   UNL     1      11.495  -8.485  10.502  1.00  0.00     0.002 A 
ATOM     66  C   UNL     1      13.338  -7.869   9.051  1.00  0.00     0.091 A 
ATOM     67  F   UNL     1      12.899  -6.585   7.088  1.00  0.00    -0.205 F 
ATOM     68  C   UNL     1      12.858  -8.487  10.217  1.00  0.00     0.022 A 
BRANCH  66  69
ATOM     69  S   UNL     1      15.098  -7.988   8.714  1.00  0.00     0.127 S 
ATOM     70  O   UNL     1      15.639  -6.942   9.580  1.00  0.00    -0.237 OA
ATOM     71  O   UNL     1      15.409  -9.353   9.139  1.00  0.00    -0.237 OA
ATOM     72  O   UNL     1      15.241  -7.759   7.282  1.00  0.00    -0.744 OA
ENDBRANCH  66  69
ENDBRANCH  39  62
ENDBRANCH  13  14
ENDBRANCH   6   8
ENDBRANCH   3   4
ENDBRANCH   2   3
ENDBRANCH   1   2
BRANCH   1  73
ATOM     73  C   UNL     1       4.790   2.836  -3.524  1.00  0.00     0.002 C 
BRANCH  73  74
ATOM     74  C   UNL     1       6.323   2.793  -3.535  1.00  0.00     0.021 C 
BRANCH  74  75
ATOM     75  C   UNL     1       6.929   2.153  -4.781  1.00  0.00     0.116 C 
BRANCH  75  76
ATOM     76  N   UNL     1       6.561   2.872  -5.985  1.00  0.00    -0.356 N 
ATOM     77  C   UNL     1       7.308   3.682  -6.792  1.00  0.00     0.229 C 
ATOM     78  H   UNL     1       5.624   2.758  -6.266  1.00  0.00     0.163 HD
ATOM     79  O   UNL     1       6.742   4.183  -7.761  1.00  0.00    -0.275 OA
BRANCH  77  80
ATOM     80  C   UNL     1       8.797   3.825  -6.499  1.00  0.00     0.145 C 
ATOM     81  C   UNL     1       9.492   2.602  -7.103  1.00  0.00     0.276 C 
ATOM     82  C   UNL     1       9.599   5.059  -7.024  1.00  0.00     0.037 C 
ATOM     83  N   UNL     1      10.866   2.991  -7.366  1.00  0.00    -0.330 N 
ATOM     84  C   UNL     1      10.846   4.413  -7.697  1.00  0.00     0.270 C 
ATOM     85  C   UNL     1       8.848   5.976  -8.020  1.00  0.00     0.014 C 
ATOM     86  C   UNL     1       9.985   5.954  -5.814  1.00  0.00     0.014 C 
ATOM     87  H   UNL     1      11.219   2.476  -8.173  1.00  0.00     0.348 HD
ATOM     88  C   UNL     1       9.639   7.225  -8.420  1.00  0.00     0.001 C 
ATOM     89  C   UNL     1      10.815   7.180  -6.192  1.00  0.00     0.001 C 
ATOM     90  C   UNL     1      10.080   8.039  -7.209  1.00  0.00     0.000 C 
BRANCH  83  91
ATOM     91  C   UNL     1      11.898   2.498  -6.456  1.00  0.00     0.299 C 
BRANCH  91  92
ATOM     92  C   UNL     1      11.931   3.070  -5.056  1.00  0.00     0.008 A 
ATOM     93  C   UNL     1      11.044   2.620  -4.068  1.00  0.00     0.011 A 
ATOM     94  C   UNL     1      12.841   4.088  -4.728  1.00  0.00     0.031 A 
ATOM     95  C   UNL     1      10.996   3.240  -2.816  1.00  0.00     0.022 A 
ATOM     96  C   UNL     1      12.807   4.702  -3.469  1.00  0.00     0.060 A 
ATOM     97  C   UNL     1      11.865   4.294  -2.520  1.00  0.00     0.059 A 
ATOM     98  Cl  UNL     1      13.919   5.992  -3.177  1.00  0.00    -0.083 Cl
ATOM     99  Cl  UNL     1      11.697   5.068  -0.986  1.00  0.00    -0.083 Cl
ENDBRANCH  91  92
ENDBRANCH  83  91
ENDBRANCH  77  80
ENDBRANCH  75  76
ENDBRANCH  74  75
ENDBRANCH  73  74
ENDBRANCH   1  73
TORSDOF 18
