REMARK SMILES Cc1nn(CC(=O)NC(C)(C)C)c(C)c1S(=O)(=O)N1CCC[C@@H](C(=O)NCCCCCCNC(=O)c2ccc(-c3c4nc(c(-c5cccc(S(=O)(=O)[O-])c5F)c5ccc([nH]5)c(-c5cccc(S(=O)(=O)[O-])c5F)c5nc(c(-c6cccc(S(=O)(=O)[O-])c6F)c6ccc3[nH]6)C=C5)C=C4)cc2)C1
REMARK SMILES IDX 28 1 27 2 26 3 24 4 25 5 23 7 19 8 20 9 99 10 21 11 22 12
REMARK SMILES IDX 16 13 17 14 18 15 15 16 1 17 2 18 3 19 4 20 13 21 14 22 5 23
REMARK SMILES IDX 6 24 7 25 8 26 9 28 10 29 11 30 12 31 29 32 30 33 31 34
REMARK SMILES IDX 32 35 33 36 34 37 35 39 36 40 37 41 98 42 38 43 97 44 39 45
REMARK SMILES IDX 40 46 41 47 91 48 42 49 96 50 90 51 92 52 43 53 95 54 89 55
REMARK SMILES IDX 88 56 44 58 76 59 56 60 75 61 57 62 60 63 74 64 93 65 58 66
REMARK SMILES IDX 59 67 73 69 94 70 61 71 45 72 46 73 54 74 47 75 49 76 55 77
REMARK SMILES IDX 48 78 50 79 51 80 52 81 53 82 77 83 78 84 86 85 79 86 81 87
REMARK SMILES IDX 87 88 80 89 82 90 83 91 84 92 85 93 62 94 63 95 71 96 64 97
REMARK SMILES IDX 66 98 72 99 65 100 67 101 68 102 69 103 70 104
REMARK H PARENT 26 6 8 27 33 38 92 57 60 68
REMARK Flexibility Score: inf
ROOT
ATOM      1  C   UNL     1       2.901   5.653   0.607  1.00  0.00     0.021 C 
ENDROOT
BRANCH   1   2
ATOM      2  C   UNL     1       2.328   5.402  -0.788  1.00  0.00     0.116 C 
BRANCH   2   3
ATOM      3  N   UNL     1       2.873   4.191  -1.365  1.00  0.00    -0.356 N 
ATOM      4  C   UNL     1       2.265   3.000  -1.618  1.00  0.00     0.224 C 
ATOM      5  O   UNL     1       2.955   2.107  -2.114  1.00  0.00    -0.275 OA
ATOM      6  H   UNL     1       3.825   4.236  -1.612  1.00  0.00     0.163 HD
BRANCH   4   7
ATOM      7  C   UNL     1       0.772   2.833  -1.348  1.00  0.00     0.093 C 
ATOM      8  N   UNL     1      -1.056   1.079  -1.554  1.00  0.00    -0.197 NA
ATOM      9  C   UNL     1      -1.540   1.382  -0.187  1.00  0.00     0.102 C 
ATOM     10  C   UNL     1       0.301   1.516  -1.976  1.00  0.00     0.116 C 
ATOM     11  C   UNL     1      -1.074   2.735   0.305  1.00  0.00     0.018 C 
ATOM     12  C   UNL     1       0.427   2.888   0.140  1.00  0.00     0.016 C 
BRANCH   8  13
ATOM     13  S   UNL     1      -1.545  -0.432  -2.142  1.00  0.00     0.246 S 
ATOM     14  O   UNL     1      -1.067  -0.553  -3.506  1.00  0.00    -0.207 OA
ATOM     15  O   UNL     1      -2.959  -0.584  -1.850  1.00  0.00    -0.207 OA
BRANCH  13  16
ATOM     16  C   UNL     1      -0.822  -1.806  -1.373  1.00  0.00     0.126 A 
ATOM     17  C   UNL     1       1.090  -0.969   0.301  1.00  0.00     0.070 C 
ATOM     18  C   UNL     1       0.284  -1.928  -0.489  1.00  0.00     0.080 A 
ATOM     19  N   UNL     1       0.648  -3.213  -0.365  1.00  0.00    -0.176 NA
ATOM     20  N   UNL     1      -0.193  -3.891  -1.152  1.00  0.00    -0.259 N 
ATOM     21  C   UNL     1      -1.228  -3.119  -1.613  1.00  0.00     0.056 A 
ATOM     22  C   UNL     1      -2.425  -3.655  -2.315  1.00  0.00     0.068 C 
BRANCH  20  23
ATOM     23  C   UNL     1       0.058  -5.295  -1.401  1.00  0.00     0.244 C 
BRANCH  23  24
ATOM     24  C   UNL     1       1.481  -5.635  -1.780  1.00  0.00     0.242 C 
ATOM     25  O   UNL     1       2.151  -6.376  -1.045  1.00  0.00    -0.273 OA
ATOM     26  N   UNL     1       2.063  -5.346  -2.975  1.00  0.00    -0.350 N 
ATOM     27  H   UNL     1       2.881  -5.880  -3.100  1.00  0.00     0.164 HD
BRANCH  26  28
ATOM     28  C   UNL     1       1.832  -4.467  -4.144  1.00  0.00     0.032 C 
ATOM     29  C   UNL     1       2.801  -3.277  -4.049  1.00  0.00     0.034 C 
ATOM     30  C   UNL     1       2.164  -5.291  -5.402  1.00  0.00     0.034 C 
ATOM     31  C   UNL     1       0.418  -3.934  -4.333  1.00  0.00     0.034 C 
ENDBRANCH  26  28
ENDBRANCH  23  24
ENDBRANCH  20  23
ENDBRANCH  13  16
ENDBRANCH   8  13
ENDBRANCH   4   7
ENDBRANCH   2   3
ENDBRANCH   1   2
BRANCH   1  32
ATOM     32  C   UNL     1       4.394   6.002   0.619  1.00  0.00     0.002 C 
BRANCH  32  33
ATOM     33  C   UNL     1       4.824   7.147  -0.308  1.00  0.00     0.002 C 
BRANCH  33  34
ATOM     34  C   UNL     1       4.016   8.450  -0.217  1.00  0.00     0.021 C 
BRANCH  34  35
ATOM     35  C   UNL     1       4.146   9.185   1.110  1.00  0.00     0.116 C 
BRANCH  35  36
ATOM     36  N   UNL     1       5.509   9.669   1.339  1.00  0.00    -0.352 N 
ATOM     37  C   UNL     1       6.075  10.150   2.502  1.00  0.00     0.251 C 
ATOM     38  H   UNL     1       6.104   9.648   0.555  1.00  0.00     0.163 HD
ATOM     39  O   UNL     1       7.080  10.852   2.463  1.00  0.00    -0.269 OA
BRANCH  37  40
ATOM     40  C   UNL     1       5.455   9.805   3.792  1.00  0.00     0.039 A 
ATOM     41  C   UNL     1       5.358  10.735   4.832  1.00  0.00     0.014 A 
ATOM     42  C   UNL     1       4.941   8.523   3.937  1.00  0.00     0.014 A 
ATOM     43  C   UNL     1       4.663  10.382   5.987  1.00  0.00     0.010 A 
ATOM     44  C   UNL     1       4.112   8.241   4.989  1.00  0.00     0.010 A 
ATOM     45  C   UNL     1       4.029   9.134   6.051  1.00  0.00    -0.014 A 
BRANCH  45  46
ATOM     46  C   UNL     1       3.191   8.761   7.185  1.00  0.00     0.031 A 
ATOM     47  C   UNL     1       2.054   9.678   7.454  1.00  0.00     0.074 A 
ATOM     48  C   UNL     1       3.277   7.547   7.770  1.00  0.00     0.049 A 
ATOM     49  N   UNL     1       1.899  10.473   8.461  1.00  0.00    -0.248 NA
ATOM     50  C   UNL     1       1.036   9.843   6.405  1.00  0.00     0.031 C 
ATOM     51  C   UNL     1       4.124   6.414   7.367  1.00  0.00     0.029 A 
ATOM     52  N   UNL     1       2.494   7.003   8.741  1.00  0.00    -0.354 N 
ATOM     53  C   UNL     1       0.633  11.035   8.300  1.00  0.00     0.074 A 
ATOM     54  C   UNL     1       0.281  10.814   6.924  1.00  0.00     0.031 C 
ATOM     55  C   UNL     1       3.617   5.272   7.875  1.00  0.00     0.029 A 
ATOM     56  C   UNL     1       2.544   5.613   8.786  1.00  0.00     0.049 A 
ATOM     57  H   UNL     1       1.944   7.542   9.354  1.00  0.00     0.167 HD
ATOM     58  C   UNL     1      -0.134  11.357   9.382  1.00  0.00     0.034 A 
ATOM     59  C   UNL     1       1.727   4.795   9.488  1.00  0.00     0.034 A 
ATOM     60  C   UNL     1       0.655  11.335  10.594  1.00  0.00     0.049 A 
ATOM     61  C   UNL     1       1.121   5.609  10.564  1.00  0.00     0.074 A 
ATOM     62  C   UNL     1       1.801  11.959  11.043  1.00  0.00     0.029 A 
ATOM     63  N   UNL     1       0.463  10.255  11.424  1.00  0.00    -0.354 N 
ATOM     64  N   UNL     1       1.803   6.128  11.548  1.00  0.00    -0.248 NA
ATOM     65  C   UNL     1      -0.189   6.194  10.335  1.00  0.00     0.031 C 
ATOM     66  C   UNL     1       2.478  10.974  11.823  1.00  0.00     0.029 A 
ATOM     67  C   UNL     1       1.683   9.826  11.860  1.00  0.00     0.049 A 
ATOM     68  H   UNL     1      -0.407   9.860  11.662  1.00  0.00     0.167 HD
ATOM     69  C   UNL     1       1.229   7.377  11.740  1.00  0.00     0.074 A 
ATOM     70  C   UNL     1      -0.070   7.298  11.076  1.00  0.00     0.031 C 
ATOM     71  C   UNL     1       1.985   8.440  12.150  1.00  0.00     0.034 A 
BRANCH  58  72
ATOM     72  C   UNL     1      -1.655  11.259   9.460  1.00  0.00     0.023 A 
ATOM     73  C   UNL     1      -2.247  11.632  10.693  1.00  0.00     0.012 A 
ATOM     74  C   UNL     1      -2.482  10.553   8.557  1.00  0.00     0.148 A 
ATOM     75  C   UNL     1      -3.531  11.212  11.057  1.00  0.00     0.002 A 
ATOM     76  C   UNL     1      -3.782  10.192   8.898  1.00  0.00     0.091 A 
ATOM     77  F   UNL     1      -2.001  10.116   7.395  1.00  0.00    -0.205 F 
ATOM     78  C   UNL     1      -4.297  10.481  10.162  1.00  0.00     0.022 A 
BRANCH  76  79
ATOM     79  S   UNL     1      -4.833   9.276   7.760  1.00  0.00     0.127 S 
ATOM     80  O   UNL     1      -4.829   7.950   8.369  1.00  0.00    -0.237 OA
ATOM     81  O   UNL     1      -6.096  10.007   7.867  1.00  0.00    -0.237 OA
ATOM     82  O   UNL     1      -4.191   9.383   6.456  1.00  0.00    -0.744 OA
ENDBRANCH  76  79
ENDBRANCH  58  72
BRANCH  59  83
ATOM     83  C   UNL     1       1.274   3.420   9.182  1.00  0.00     0.023 A 
ATOM     84  C   UNL     1       0.793   2.602  10.222  1.00  0.00     0.012 A 
ATOM     85  C   UNL     1       1.057   3.005   7.848  1.00  0.00     0.148 A 
ATOM     86  C   UNL     1       0.081   1.430   9.945  1.00  0.00     0.002 A 
ATOM     87  C   UNL     1       0.353   1.835   7.576  1.00  0.00     0.091 A 
ATOM     88  F   UNL     1       1.460   3.802   6.849  1.00  0.00    -0.205 F 
ATOM     89  C   UNL     1      -0.147   1.051   8.624  1.00  0.00     0.022 A 
BRANCH  87  90
ATOM     90  S   UNL     1      -0.001   1.297   5.895  1.00  0.00     0.127 S 
ATOM     91  O   UNL     1       0.383  -0.113   5.939  1.00  0.00    -0.237 OA
ATOM     92  O   UNL     1      -1.437   1.538   5.792  1.00  0.00    -0.237 OA
ATOM     93  O   UNL     1       0.835   2.116   5.024  1.00  0.00    -0.744 OA
ENDBRANCH  87  90
ENDBRANCH  59  83
BRANCH  71  94
ATOM     94  C   UNL     1       3.358   8.166  12.709  1.00  0.00     0.023 A 
ATOM     95  C   UNL     1       4.392   7.597  11.936  1.00  0.00     0.012 A 
ATOM     96  C   UNL     1       3.660   8.658  13.990  1.00  0.00     0.148 A 
ATOM     97  C   UNL     1       5.692   7.501  12.440  1.00  0.00     0.002 A 
ATOM     98  C   UNL     1       4.963   8.605  14.468  1.00  0.00     0.091 A 
ATOM     99  F   UNL     1       2.667   9.199  14.712  1.00  0.00    -0.205 F 
ATOM    100  C   UNL     1       5.981   8.018  13.700  1.00  0.00     0.022 A 
BRANCH  98 101
ATOM    101  S   UNL     1       5.419   9.373  16.025  1.00  0.00     0.127 S 
ATOM    102  O   UNL     1       5.543   8.218  16.910  1.00  0.00    -0.237 OA
ATOM    103  O   UNL     1       6.685  10.030  15.694  1.00  0.00    -0.237 OA
ATOM    104  O   UNL     1       4.338  10.298  16.344  1.00  0.00    -0.744 OA
ENDBRANCH  98 101
ENDBRANCH  71  94
ENDBRANCH  45  46
ENDBRANCH  37  40
ENDBRANCH  35  36
ENDBRANCH  34  35
ENDBRANCH  33  34
ENDBRANCH  32  33
ENDBRANCH   1  32
TORSDOF 21
