REMARK SMILES O=Cc1ccc2c(c1)C=C(C(=O)NCCCCCCNC(=O)c1ccc(-c3c4nc(c(-c5cccc(S(=O)(=O)[O-])c5F)c5ccc([nH]5)c(-c5cccc(S(=O)(=O)[O-])c5F)c5nc(c(-c6cccc(S(=O)(=O)[O-])c6F)c6ccc3[nH]6)C=C5)C=C4)cc1)[C@H](C(F)(F)F)O2
REMARK SMILES IDX 17 1 16 2 15 3 14 4 13 5 11 6 12 7 10 9 3 10 4 11 8 12 5 13
REMARK SMILES IDX 7 14 6 15 9 16 91 17 86 18 2 19 1 20 87 21 88 22 89 23 90 24
REMARK SMILES IDX 18 25 19 26 20 27 21 28 22 30 23 31 24 32 85 33 25 34 84 35
REMARK SMILES IDX 26 36 27 37 28 38 78 39 29 40 83 41 77 42 79 43 30 44 82 45
REMARK SMILES IDX 76 46 75 47 31 49 63 50 43 51 62 52 44 53 47 54 61 55 80 56
REMARK SMILES IDX 45 57 46 58 60 60 81 61 48 62 32 63 33 64 41 65 34 66 36 67
REMARK SMILES IDX 42 68 35 69 37 70 38 71 39 72 40 73 64 74 65 75 73 76 66 77
REMARK SMILES IDX 68 78 74 79 67 80 69 81 70 82 71 83 72 84 49 85 50 86 58 87
REMARK SMILES IDX 51 88 53 89 59 90 52 91 54 92 55 93 56 94 57 95
REMARK H PARENT 13 8 20 29 79 48 47 59
REMARK Flexibility Score: inf
ROOT
ATOM      1  C   UNL     1      10.070  -4.971   0.172  1.00  0.00     0.002 C 
ENDROOT
BRANCH   1   2
ATOM      2  C   UNL     1       8.889  -5.423  -0.695  1.00  0.00     0.002 C 
BRANCH   2   3
ATOM      3  C   UNL     1       7.782  -4.373  -0.866  1.00  0.00     0.021 C 
BRANCH   3   4
ATOM      4  C   UNL     1       8.243  -3.135  -1.645  1.00  0.00     0.116 C 
BRANCH   4   5
ATOM      5  N   UNL     1       8.251  -3.436  -3.067  1.00  0.00    -0.352 N 
ATOM      6  C   UNL     1       7.333  -3.265  -4.051  1.00  0.00     0.251 C 
ATOM      7  O   UNL     1       7.528  -3.826  -5.127  1.00  0.00    -0.270 OA
ATOM      8  H   UNL     1       9.091  -3.847  -3.378  1.00  0.00     0.163 HD
BRANCH   6   9
ATOM      9  C   UNL     1       6.160  -2.361  -3.914  1.00  0.00     0.067 C 
ATOM     10  C   UNL     1       2.688  -0.070  -1.459  1.00  0.00     0.015 A 
ATOM     11  C   UNL     1       2.399   0.709  -2.582  1.00  0.00     0.015 A 
ATOM     12  C   UNL     1       3.674  -1.060  -1.517  1.00  0.00     0.023 A 
ATOM     13  C   UNL     1       3.116   0.512  -3.762  1.00  0.00     0.048 A 
ATOM     14  C   UNL     1       4.381  -1.264  -2.710  1.00  0.00     0.018 A 
ATOM     15  C   UNL     1       4.106  -0.469  -3.822  1.00  0.00     0.128 A 
ATOM     16  C   UNL     1       5.462  -2.237  -2.776  1.00  0.00     0.025 C 
ATOM     17  O   UNL     1       4.807  -0.543  -4.987  1.00  0.00    -0.475 OA
ATOM     18  C   UNL     1       5.685  -1.686  -5.200  1.00  0.00     0.314 C 
BRANCH  10  19
ATOM     19  C   UNL     1       1.964   0.167  -0.193  1.00  0.00     0.260 C 
ATOM     20  O   UNL     1       1.002   0.923  -0.139  1.00  0.00    -0.298 OA
ENDBRANCH  10  19
BRANCH  18  21
ATOM     21  C   UNL     1       6.779  -1.232  -6.196  1.00  0.00     0.429 C 
ATOM     22  F   UNL     1       7.181  -2.223  -7.023  1.00  0.00    -0.167 F 
ATOM     23  F   UNL     1       6.311  -0.252  -7.017  1.00  0.00    -0.167 F 
ATOM     24  F   UNL     1       7.871  -0.729  -5.576  1.00  0.00    -0.167 F 
ENDBRANCH  18  21
ENDBRANCH   6   9
ENDBRANCH   4   5
ENDBRANCH   3   4
ENDBRANCH   2   3
ENDBRANCH   1   2
BRANCH   1  25
ATOM     25  C   UNL     1       9.695  -4.501   1.581  1.00  0.00     0.021 C 
BRANCH  25  26
ATOM     26  C   UNL     1       9.020  -5.564   2.443  1.00  0.00     0.116 C 
BRANCH  26  27
ATOM     27  N   UNL     1       9.912  -6.681   2.711  1.00  0.00    -0.352 N 
ATOM     28  C   UNL     1      10.303  -7.213   3.914  1.00  0.00     0.251 C 
ATOM     29  H   UNL     1      10.291  -7.118   1.914  1.00  0.00     0.163 HD
ATOM     30  O   UNL     1      11.245  -7.998   3.957  1.00  0.00    -0.269 OA
BRANCH  28  31
ATOM     31  C   UNL     1       9.591  -6.838   5.156  1.00  0.00     0.039 A 
ATOM     32  C   UNL     1      10.336  -6.579   6.309  1.00  0.00     0.014 A 
ATOM     33  C   UNL     1       8.195  -6.775   5.193  1.00  0.00     0.014 A 
ATOM     34  C   UNL     1       9.682  -6.219   7.489  1.00  0.00     0.010 A 
ATOM     35  C   UNL     1       7.549  -6.349   6.351  1.00  0.00     0.010 A 
ATOM     36  C   UNL     1       8.284  -6.081   7.515  1.00  0.00    -0.014 A 
BRANCH  36  37
ATOM     37  C   UNL     1       7.580  -5.657   8.752  1.00  0.00     0.031 A 
ATOM     38  C   UNL     1       6.617  -6.588   9.438  1.00  0.00     0.074 A 
ATOM     39  C   UNL     1       7.756  -4.405   9.219  1.00  0.00     0.049 A 
ATOM     40  N   UNL     1       5.899  -6.385  10.513  1.00  0.00    -0.248 NA
ATOM     41  C   UNL     1       6.413  -7.911   8.824  1.00  0.00     0.031 C 
ATOM     42  C   UNL     1       8.597  -3.382   8.595  1.00  0.00     0.029 A 
ATOM     43  N   UNL     1       7.221  -3.774  10.313  1.00  0.00    -0.354 N 
ATOM     44  C   UNL     1       5.139  -7.535  10.686  1.00  0.00     0.074 A 
ATOM     45  C   UNL     1       5.454  -8.419   9.585  1.00  0.00     0.031 C 
ATOM     46  C   UNL     1       8.528  -2.254   9.320  1.00  0.00     0.029 A 
ATOM     47  C   UNL     1       7.623  -2.465  10.446  1.00  0.00     0.049 A 
ATOM     48  H   UNL     1       6.607  -4.215  10.943  1.00  0.00     0.167 HD
ATOM     49  C   UNL     1       4.281  -7.844  11.688  1.00  0.00     0.034 A 
ATOM     50  C   UNL     1       7.301  -1.541  11.372  1.00  0.00     0.034 A 
ATOM     51  C   UNL     1       4.005  -6.982  12.806  1.00  0.00     0.049 A 
ATOM     52  C   UNL     1       6.389  -1.928  12.504  1.00  0.00     0.074 A 
ATOM     53  C   UNL     1       3.220  -7.237  13.916  1.00  0.00     0.029 A 
ATOM     54  N   UNL     1       4.503  -5.697  12.956  1.00  0.00    -0.354 N 
ATOM     55  N   UNL     1       5.808  -3.079  12.738  1.00  0.00    -0.248 NA
ATOM     56  C   UNL     1       6.121  -0.901  13.521  1.00  0.00     0.031 C 
ATOM     57  C   UNL     1       3.230  -6.098  14.730  1.00  0.00     0.029 A 
ATOM     58  C   UNL     1       4.039  -5.142  14.136  1.00  0.00     0.049 A 
ATOM     59  H   UNL     1       5.099  -5.245  12.316  1.00  0.00     0.167 HD
ATOM     60  C   UNL     1       5.136  -2.928  13.945  1.00  0.00     0.074 A 
ATOM     61  C   UNL     1       5.402  -1.580  14.405  1.00  0.00     0.031 C 
ATOM     62  C   UNL     1       4.354  -3.818  14.606  1.00  0.00     0.034 A 
BRANCH  49  63
ATOM     63  C   UNL     1       3.623  -9.200  11.653  1.00  0.00     0.023 A 
ATOM     64  C   UNL     1       4.394 -10.351  11.916  1.00  0.00     0.012 A 
ATOM     65  C   UNL     1       2.240  -9.334  11.418  1.00  0.00     0.148 A 
ATOM     66  C   UNL     1       3.809 -11.616  11.912  1.00  0.00     0.002 A 
ATOM     67  C   UNL     1       1.655 -10.595  11.459  1.00  0.00     0.091 A 
ATOM     68  F   UNL     1       1.526  -8.232  11.148  1.00  0.00    -0.205 F 
ATOM     69  C   UNL     1       2.439 -11.737  11.694  1.00  0.00     0.022 A 
BRANCH  67  70
ATOM     70  S   UNL     1      -0.113 -10.850  11.267  1.00  0.00     0.127 S 
ATOM     71  O   UNL     1      -0.179 -11.461   9.941  1.00  0.00    -0.237 OA
ATOM     72  O   UNL     1      -0.415 -11.759  12.373  1.00  0.00    -0.237 OA
ATOM     73  O   UNL     1      -0.722  -9.532  11.380  1.00  0.00    -0.744 OA
ENDBRANCH  67  70
ENDBRANCH  49  63
BRANCH  50  74
ATOM     74  C   UNL     1       7.914  -0.184  11.310  1.00  0.00     0.023 A 
ATOM     75  C   UNL     1       8.874   0.185  12.272  1.00  0.00     0.012 A 
ATOM     76  C   UNL     1       7.580   0.727  10.289  1.00  0.00     0.148 A 
ATOM     77  C   UNL     1       9.467   1.447  12.239  1.00  0.00     0.002 A 
ATOM     78  C   UNL     1       8.215   1.962  10.229  1.00  0.00     0.091 A 
ATOM     79  F   UNL     1       6.655   0.362   9.390  1.00  0.00    -0.205 F 
ATOM     80  C   UNL     1       9.146   2.331  11.212  1.00  0.00     0.022 A 
BRANCH  78  81
ATOM     81  S   UNL     1       7.965   3.104   8.865  1.00  0.00     0.127 S 
ATOM     82  O   UNL     1       7.167   4.152   9.495  1.00  0.00    -0.237 OA
ATOM     83  O   UNL     1       9.337   3.488   8.534  1.00  0.00    -0.237 OA
ATOM     84  O   UNL     1       7.295   2.332   7.827  1.00  0.00    -0.744 OA
ENDBRANCH  78  81
ENDBRANCH  50  74
BRANCH  62  85
ATOM     85  C   UNL     1       3.752  -3.378  15.915  1.00  0.00     0.023 A 
ATOM     86  C   UNL     1       2.699  -2.441  15.921  1.00  0.00     0.012 A 
ATOM     87  C   UNL     1       4.186  -3.938  17.133  1.00  0.00     0.148 A 
ATOM     88  C   UNL     1       2.112  -2.042  17.121  1.00  0.00     0.002 A 
ATOM     89  C   UNL     1       3.564  -3.571  18.320  1.00  0.00     0.091 A 
ATOM     90  F   UNL     1       5.203  -4.812  17.110  1.00  0.00    -0.205 F 
ATOM     91  C   UNL     1       2.536  -2.615  18.318  1.00  0.00     0.022 A 
BRANCH  89  92
ATOM     92  S   UNL     1       3.981  -4.330  19.894  1.00  0.00     0.127 S 
ATOM     93  O   UNL     1       4.769  -3.277  20.533  1.00  0.00    -0.237 OA
ATOM     94  O   UNL     1       2.665  -4.555  20.492  1.00  0.00    -0.237 OA
ATOM     95  O   UNL     1       4.709  -5.549  19.568  1.00  0.00    -0.744 OA
ENDBRANCH  89  92
ENDBRANCH  62  85
ENDBRANCH  36  37
ENDBRANCH  28  31
ENDBRANCH  26  27
ENDBRANCH  25  26
ENDBRANCH   1  25
TORSDOF 18
