REMARK SMILES O=C(Cc1ccc(F)c(F)c1)NC1(C(=O)NCCCCCCNC(=O)c2ccc(-c3c4nc(c(-c5cccc(S(=O)(=O)[O-])c5F)c5ccc([nH]5)c(-c5cccc(S(=O)(=O)[O-])c5F)c5nc(c(-c6cccc(S(=O)(=O)[O-])c6F)c6ccc3[nH]6)C=C5)C=C4)cc2)CCCC1
REMARK SMILES IDX 19 1 18 2 17 3 16 4 14 5 15 6 13 8 89 9 92 10 90 11 91 12
REMARK SMILES IDX 12 13 1 14 2 15 3 17 4 18 5 19 11 20 6 21 9 22 7 23 10 24
REMARK SMILES IDX 8 25 20 26 21 27 22 28 23 29 24 30 25 32 26 33 27 34 88 35
REMARK SMILES IDX 28 36 87 37 29 38 30 39 31 40 81 41 32 42 86 43 80 44 82 45
REMARK SMILES IDX 33 46 85 47 79 48 78 49 34 51 66 52 46 53 65 54 47 55 50 56
REMARK SMILES IDX 64 57 83 58 48 59 49 60 63 62 84 63 51 64 35 65 36 66 44 67
REMARK SMILES IDX 37 68 39 69 45 70 38 71 40 72 41 73 42 74 43 75 67 76 68 77
REMARK SMILES IDX 76 78 69 79 71 80 77 81 70 82 72 83 73 84 74 85 75 86 52 87
REMARK SMILES IDX 53 88 61 89 54 90 56 91 62 92 55 93 57 94 58 95 59 96 60 97
REMARK H PARENT 16 7 12 16 23 31 82 50 50 61
REMARK Flexibility Score: inf
ROOT
ATOM      1  C   UNL     1      -2.446   2.831  -4.167  1.00  0.00     0.002 C 
ENDROOT
BRANCH   1   2
ATOM      2  C   UNL     1      -0.940   2.652  -4.358  1.00  0.00     0.021 C 
BRANCH   2   3
ATOM      3  C   UNL     1      -0.074   3.212  -3.238  1.00  0.00     0.116 C 
BRANCH   3   4
ATOM      4  N   UNL     1      -0.191   2.499  -1.990  1.00  0.00    -0.354 N 
ATOM      5  C   UNL     1       0.764   2.104  -1.104  1.00  0.00     0.245 C 
ATOM      6  O   UNL     1       0.363   1.917   0.056  1.00  0.00    -0.272 OA
ATOM      7  H   UNL     1      -1.112   2.259  -1.737  1.00  0.00     0.163 HD
BRANCH   5   8
ATOM      8  C   UNL     1       2.295   1.984  -1.457  1.00  0.00     0.119 C 
ATOM      9  C   UNL     1       2.991   3.353  -1.318  1.00  0.00     0.038 C 
ATOM     10  C   UNL     1       2.660   1.483  -2.866  1.00  0.00     0.038 C 
ATOM     11  C   UNL     1       3.256   3.866  -2.721  1.00  0.00     0.003 C 
ATOM     12  C   UNL     1       3.365   2.630  -3.599  1.00  0.00     0.003 C 
BRANCH   8  13
ATOM     13  N   UNL     1       2.876   1.072  -0.445  1.00  0.00    -0.341 N 
ATOM     14  O   UNL     1       1.584  -0.752  -0.988  1.00  0.00    -0.275 OA
ATOM     15  C   UNL     1       2.465  -0.237  -0.306  1.00  0.00     0.225 C 
ATOM     16  H   UNL     1       3.582   1.413   0.150  1.00  0.00     0.164 HD
BRANCH  15  17
ATOM     17  C   UNL     1       3.269  -1.025   0.716  1.00  0.00     0.135 C 
BRANCH  17  18
ATOM     18  C   UNL     1       4.097  -2.077   0.017  1.00  0.00    -0.036 A 
ATOM     19  C   UNL     1       3.749  -3.433   0.107  1.00  0.00     0.007 A 
ATOM     20  C   UNL     1       5.156  -1.691  -0.822  1.00  0.00     0.046 A 
ATOM     21  C   UNL     1       4.434  -4.386  -0.649  1.00  0.00     0.043 A 
ATOM     22  C   UNL     1       5.824  -2.647  -1.577  1.00  0.00     0.159 A 
ATOM     23  C   UNL     1       5.462  -3.985  -1.496  1.00  0.00     0.158 A 
ATOM     24  F   UNL     1       6.809  -2.260  -2.400  1.00  0.00    -0.204 F 
ATOM     25  F   UNL     1       6.095  -4.902  -2.240  1.00  0.00    -0.204 F 
ENDBRANCH  17  18
ENDBRANCH  15  17
ENDBRANCH   8  13
ENDBRANCH   5   8
ENDBRANCH   3   4
ENDBRANCH   2   3
ENDBRANCH   1   2
BRANCH   1  26
ATOM     26  C   UNL     1      -2.901   4.250  -3.812  1.00  0.00     0.002 C 
BRANCH  26  27
ATOM     27  C   UNL     1      -2.395   5.360  -4.737  1.00  0.00     0.021 C 
BRANCH  27  28
ATOM     28  C   UNL     1      -2.730   5.171  -6.210  1.00  0.00     0.116 C 
BRANCH  28  29
ATOM     29  N   UNL     1      -4.165   5.129  -6.444  1.00  0.00    -0.352 N 
ATOM     30  C   UNL     1      -4.915   5.883  -7.316  1.00  0.00     0.251 C 
ATOM     31  H   UNL     1      -4.665   4.473  -5.907  1.00  0.00     0.163 HD
ATOM     32  O   UNL     1      -6.135   5.866  -7.264  1.00  0.00    -0.269 OA
BRANCH  30  33
ATOM     33  C   UNL     1      -4.216   6.729  -8.307  1.00  0.00     0.039 A 
ATOM     34  C   UNL     1      -4.582   8.070  -8.441  1.00  0.00     0.014 A 
ATOM     35  C   UNL     1      -3.181   6.194  -9.079  1.00  0.00     0.014 A 
ATOM     36  C   UNL     1      -3.867   8.895  -9.313  1.00  0.00     0.010 A 
ATOM     37  C   UNL     1      -2.426   7.033  -9.889  1.00  0.00     0.010 A 
ATOM     38  C   UNL     1      -2.765   8.389 -10.022  1.00  0.00    -0.014 A 
BRANCH  38  39
ATOM     39  C   UNL     1      -1.951   9.243 -10.924  1.00  0.00     0.031 A 
ATOM     40  C   UNL     1      -1.873   8.905 -12.389  1.00  0.00     0.074 A 
ATOM     41  C   UNL     1      -1.193  10.234 -10.413  1.00  0.00     0.049 A 
ATOM     42  N   UNL     1      -1.105   9.418 -13.314  1.00  0.00    -0.248 NA
ATOM     43  C   UNL     1      -2.750   7.823 -12.873  1.00  0.00     0.031 C 
ATOM     44  C   UNL     1      -1.133  10.614  -8.999  1.00  0.00     0.029 A 
ATOM     45  N   UNL     1      -0.290  11.073 -11.019  1.00  0.00    -0.354 N 
ATOM     46  C   UNL     1      -1.361   8.687 -14.468  1.00  0.00     0.074 A 
ATOM     47  C   UNL     1      -2.346   7.685 -14.128  1.00  0.00     0.031 C 
ATOM     48  C   UNL     1      -0.230  11.597  -8.845  1.00  0.00     0.029 A 
ATOM     49  C   UNL     1       0.382  11.890 -10.137  1.00  0.00     0.049 A 
ATOM     50  H   UNL     1      -0.137  11.089 -11.991  1.00  0.00     0.167 HD
ATOM     51  C   UNL     1      -0.836   8.849 -15.703  1.00  0.00     0.034 A 
ATOM     52  C   UNL     1       1.395  12.756 -10.343  1.00  0.00     0.034 A 
ATOM     53  C   UNL     1       0.093   9.888 -16.051  1.00  0.00     0.049 A 
ATOM     54  C   UNL     1       1.922  12.945 -11.742  1.00  0.00     0.074 A 
ATOM     55  C   UNL     1       0.597  10.203 -17.300  1.00  0.00     0.029 A 
ATOM     56  N   UNL     1       0.663  10.772 -15.151  1.00  0.00    -0.354 N 
ATOM     57  N   UNL     1       1.549  12.354 -12.851  1.00  0.00    -0.248 NA
ATOM     58  C   UNL     1       2.986  13.944 -11.927  1.00  0.00     0.031 C 
ATOM     59  C   UNL     1       1.498  11.259 -17.151  1.00  0.00     0.029 A 
ATOM     60  C   UNL     1       1.524  11.627 -15.815  1.00  0.00     0.049 A 
ATOM     61  H   UNL     1       0.482  10.790 -14.183  1.00  0.00     0.167 HD
ATOM     62  C   UNL     1       2.293  12.944 -13.866  1.00  0.00     0.074 A 
ATOM     63  C   UNL     1       3.131  13.947 -13.245  1.00  0.00     0.031 C 
ATOM     64  C   UNL     1       2.291  12.672 -15.193  1.00  0.00     0.034 A 
BRANCH  51  65
ATOM     65  C   UNL     1      -1.275   7.912 -16.796  1.00  0.00     0.023 A 
ATOM     66  C   UNL     1      -2.565   8.034 -17.348  1.00  0.00     0.012 A 
ATOM     67  C   UNL     1      -0.367   6.988 -17.350  1.00  0.00     0.148 A 
ATOM     68  C   UNL     1      -2.953   7.237 -18.423  1.00  0.00     0.002 A 
ATOM     69  C   UNL     1      -0.745   6.231 -18.452  1.00  0.00     0.091 A 
ATOM     70  F   UNL     1       0.849   6.877 -16.797  1.00  0.00    -0.205 F 
ATOM     71  C   UNL     1      -2.040   6.347 -18.983  1.00  0.00     0.022 A 
BRANCH  69  72
ATOM     72  S   UNL     1       0.384   5.122 -19.301  1.00  0.00     0.127 S 
ATOM     73  O   UNL     1      -0.233   3.821 -19.045  1.00  0.00    -0.237 OA
ATOM     74  O   UNL     1       0.281   5.583 -20.685  1.00  0.00    -0.237 OA
ATOM     75  O   UNL     1       1.688   5.321 -18.685  1.00  0.00    -0.744 OA
ENDBRANCH  69  72
ENDBRANCH  51  65
BRANCH  52  76
ATOM     76  C   UNL     1       1.967  13.538  -9.208  1.00  0.00     0.023 A 
ATOM     77  C   UNL     1       1.788  14.935  -9.168  1.00  0.00     0.012 A 
ATOM     78  C   UNL     1       2.702  12.913  -8.183  1.00  0.00     0.148 A 
ATOM     79  C   UNL     1       2.374  15.700  -8.158  1.00  0.00     0.002 A 
ATOM     80  C   UNL     1       3.233  13.674  -7.147  1.00  0.00     0.091 A 
ATOM     81  F   UNL     1       2.874  11.584  -8.241  1.00  0.00    -0.205 F 
ATOM     82  C   UNL     1       3.090  15.069  -7.145  1.00  0.00     0.022 A 
BRANCH  80  83
ATOM     83  S   UNL     1       4.055  12.926  -5.736  1.00  0.00     0.127 S 
ATOM     84  O   UNL     1       5.458  13.222  -6.014  1.00  0.00    -0.237 OA
ATOM     85  O   UNL     1       3.478  13.671  -4.616  1.00  0.00    -0.237 OA
ATOM     86  O   UNL     1       3.682  11.518  -5.769  1.00  0.00    -0.744 OA
ENDBRANCH  80  83
ENDBRANCH  52  76
BRANCH  64  87
ATOM     87  C   UNL     1       3.159  13.511 -16.092  1.00  0.00     0.023 A 
ATOM     88  C   UNL     1       4.555  13.331 -16.098  1.00  0.00     0.012 A 
ATOM     89  C   UNL     1       2.569  14.399 -17.014  1.00  0.00     0.148 A 
ATOM     90  C   UNL     1       5.354  14.040 -16.994  1.00  0.00     0.002 A 
ATOM     91  C   UNL     1       3.365  15.060 -17.939  1.00  0.00     0.091 A 
ATOM     92  F   UNL     1       1.239  14.565 -16.979  1.00  0.00    -0.205 F 
ATOM     93  C   UNL     1       4.759  14.891 -17.923  1.00  0.00     0.022 A 
BRANCH  91  94
ATOM     94  S   UNL     1       2.679  16.092 -19.239  1.00  0.00     0.127 S 
ATOM     95  O   UNL     1       3.118  17.424 -18.826  1.00  0.00    -0.237 OA
ATOM     96  O   UNL     1       3.348  15.571 -20.432  1.00  0.00    -0.237 OA
ATOM     97  O   UNL     1       1.238  15.875 -19.209  1.00  0.00    -0.744 OA
ENDBRANCH  91  94
ENDBRANCH  64  87
ENDBRANCH  38  39
ENDBRANCH  30  33
ENDBRANCH  28  29
ENDBRANCH  27  28
ENDBRANCH  26  27
ENDBRANCH   1  26
TORSDOF 19
