REMARK SMILES O=C(CC1(NC(=O)C2(c3ccccc3)CC2)CCC1)NCCCCCCNC(=O)c1ccc(-c2c3nc(c(-c4cccc(S(=O)(=O)[O-])c4F)c4ccc([nH]4)c(-c4cccc(S(=O)(=O)[O-])c4F)c4nc(c(-c5cccc(S(=O)(=O)[O-])c5F)c5ccc2[nH]5)C=C4)C=C3)cc1
REMARK SMILES IDX 23 1 22 2 21 3 20 4 1 5 2 6 3 8 4 9 17 10 19 11 18 12 5 13
REMARK SMILES IDX 6 14 7 16 8 17 15 18 16 19 9 20 10 21 14 22 11 23 13 24
REMARK SMILES IDX 12 25 24 26 25 27 26 28 27 29 28 30 29 32 30 33 31 34 92 35
REMARK SMILES IDX 32 36 91 37 33 38 34 39 35 40 85 41 36 42 90 43 84 44 86 45
REMARK SMILES IDX 37 46 89 47 83 48 82 49 38 51 70 52 50 53 69 54 51 55 54 56
REMARK SMILES IDX 68 57 87 58 52 59 53 60 67 62 88 63 55 64 39 65 40 66 48 67
REMARK SMILES IDX 41 68 43 69 49 70 42 71 44 72 45 73 46 74 47 75 71 76 72 77
REMARK SMILES IDX 80 78 73 79 75 80 81 81 74 82 76 83 77 84 78 85 79 86 56 87
REMARK SMILES IDX 57 88 65 89 58 90 60 91 66 92 59 93 61 94 62 95 63 96 64 97
REMARK H PARENT 20 7 5 15 27 31 86 50 54 61
REMARK Flexibility Score: inf
ROOT
ATOM      1  C   UNL     1       4.002   1.456   4.117  1.00  0.00     0.002 C 
ENDROOT
BRANCH   1   2
ATOM      2  C   UNL     1       2.517   1.062   4.156  1.00  0.00     0.021 C 
BRANCH   2   3
ATOM      3  C   UNL     1       1.884   0.727   2.802  1.00  0.00     0.116 C 
BRANCH   3   4
ATOM      4  N   UNL     1       2.677  -0.251   2.063  1.00  0.00    -0.356 N 
ATOM      5  O   UNL     1       1.208  -0.627   0.624  1.00  0.00    -0.275 OA
ATOM      6  C   UNL     1       2.482  -0.480   0.620  1.00  0.00     0.222 C 
ATOM      7  H   UNL     1       3.362  -0.772   2.542  1.00  0.00     0.163 HD
BRANCH   6   8
ATOM      8  C   UNL     1       3.919  -0.534  -1.020  1.00  0.00     0.128 C 
BRANCH   8   9
ATOM      9  C   UNL     1       3.900   0.129  -2.655  1.00  0.00     0.049 C 
ATOM     10  C   UNL     1       3.948   1.675  -3.031  1.00  0.00     0.029 C 
ATOM     11  C   UNL     1       5.421   0.093  -3.147  1.00  0.00     0.029 C 
ATOM     12  C   UNL     1       5.456   1.613  -3.244  1.00  0.00     0.005 C 
BRANCH   9  13
ATOM     13  N   UNL     1       3.133  -0.650  -3.711  1.00  0.00    -0.349 N 
ATOM     14  C   UNL     1       2.172  -1.635  -3.715  1.00  0.00     0.231 C 
ATOM     15  H   UNL     1       3.388  -0.382  -4.623  1.00  0.00     0.164 HD
ATOM     16  O   UNL     1       1.814  -2.083  -4.805  1.00  0.00    -0.274 OA
BRANCH  14  17
ATOM     17  C   UNL     1       1.569  -2.151  -2.438  1.00  0.00     0.074 C 
ATOM     18  C   UNL     1       0.126  -2.622  -2.459  1.00  0.00     0.023 C 
ATOM     19  C   UNL     1       1.228  -3.635  -2.369  1.00  0.00     0.023 C 
BRANCH  17  20
ATOM     20  C   UNL     1       2.082  -1.464  -1.209  1.00  0.00    -0.032 A 
ATOM     21  C   UNL     1       2.025   0.362  -1.207  1.00  0.00     0.005 A 
ATOM     22  C   UNL     1       3.211  -2.319  -0.084  1.00  0.00     0.005 A 
ATOM     23  C   UNL     1       3.196   1.289  -0.202  1.00  0.00     0.000 A 
ATOM     24  C   UNL     1       4.422  -1.375   0.842  1.00  0.00     0.000 A 
ATOM     25  C   UNL     1       4.420   0.438   0.788  1.00  0.00     0.000 A 
ENDBRANCH  17  20
ENDBRANCH  14  17
ENDBRANCH   9  13
ENDBRANCH   8   9
ENDBRANCH   6   8
ENDBRANCH   3   4
ENDBRANCH   2   3
ENDBRANCH   1   2
BRANCH   1  26
ATOM     26  C   UNL     1       4.319   2.793   3.441  1.00  0.00     0.002 C 
BRANCH  26  27
ATOM     27  C   UNL     1       3.770   4.034   4.141  1.00  0.00     0.021 C 
BRANCH  27  28
ATOM     28  C   UNL     1       4.000   4.077   5.645  1.00  0.00     0.116 C 
BRANCH  28  29
ATOM     29  N   UNL     1       5.402   3.951   6.017  1.00  0.00    -0.352 N 
ATOM     30  C   UNL     1       6.032   4.474   7.120  1.00  0.00     0.251 C 
ATOM     31  H   UNL     1       5.967   3.429   5.403  1.00  0.00     0.163 HD
ATOM     32  O   UNL     1       7.247   4.368   7.256  1.00  0.00    -0.269 OA
BRANCH  30  33
ATOM     33  C   UNL     1       5.224   5.202   8.118  1.00  0.00     0.039 A 
ATOM     34  C   UNL     1       5.620   6.485   8.497  1.00  0.00     0.014 A 
ATOM     35  C   UNL     1       4.045   4.643   8.621  1.00  0.00     0.014 A 
ATOM     36  C   UNL     1       4.798   7.232   9.340  1.00  0.00     0.010 A 
ATOM     37  C   UNL     1       3.188   5.421   9.392  1.00  0.00     0.010 A 
ATOM     38  C   UNL     1       3.560   6.720   9.766  1.00  0.00    -0.014 A 
BRANCH  38  39
ATOM     39  C   UNL     1       2.642   7.550  10.584  1.00  0.00     0.031 A 
ATOM     40  C   UNL     1       2.275   7.137  11.982  1.00  0.00     0.074 A 
ATOM     41  C   UNL     1       2.096   8.656  10.040  1.00  0.00     0.049 A 
ATOM     42  N   UNL     1       1.541   7.771  12.859  1.00  0.00    -0.248 NA
ATOM     43  C   UNL     1       2.772   5.833  12.449  1.00  0.00     0.031 C 
ATOM     44  C   UNL     1       2.298   9.108   8.661  1.00  0.00     0.029 A 
ATOM     45  N   UNL     1       1.256   9.598  10.577  1.00  0.00    -0.354 N 
ATOM     46  C   UNL     1       1.461   6.933  13.965  1.00  0.00     0.074 A 
ATOM     47  C   UNL     1       2.189   5.728  13.634  1.00  0.00     0.031 C 
ATOM     48  C   UNL     1       1.631  10.258   8.473  1.00  0.00     0.029 A 
ATOM     49  C   UNL     1       0.934  10.611   9.705  1.00  0.00     0.049 A 
ATOM     50  H   UNL     1       0.917   9.553  11.500  1.00  0.00     0.167 HD
ATOM     51  C   UNL     1       0.862   7.157  15.158  1.00  0.00     0.034 A 
ATOM     52  C   UNL     1       0.173  11.708   9.882  1.00  0.00     0.034 A 
ATOM     53  C   UNL     1       0.167   8.372  15.492  1.00  0.00     0.049 A 
ATOM     54  C   UNL     1      -0.440  11.957  11.233  1.00  0.00     0.074 A 
ATOM     55  C   UNL     1      -0.381   8.745  16.705  1.00  0.00     0.029 A 
ATOM     56  N   UNL     1      -0.093   9.404  14.602  1.00  0.00    -0.354 N 
ATOM     57  N   UNL     1      -0.343  11.243  12.329  1.00  0.00    -0.248 NA
ATOM     58  C   UNL     1      -1.234  13.184  11.382  1.00  0.00     0.031 C 
ATOM     59  C   UNL     1      -1.009   9.985  16.538  1.00  0.00     0.029 A 
ATOM     60  C   UNL     1      -0.816  10.403  15.232  1.00  0.00     0.049 A 
ATOM     61  H   UNL     1       0.194   9.423  13.661  1.00  0.00     0.167 HD
ATOM     62  C   UNL     1      -1.037  11.949  13.305  1.00  0.00     0.074 A 
ATOM     63  C   UNL     1      -1.520  13.162  12.676  1.00  0.00     0.031 C 
ATOM     64  C   UNL     1      -1.266  11.619  14.601  1.00  0.00     0.034 A 
BRANCH  51  65
ATOM     65  C   UNL     1       0.960   6.075  16.203  1.00  0.00     0.023 A 
ATOM     66  C   UNL     1       2.203   5.793  16.808  1.00  0.00     0.012 A 
ATOM     67  C   UNL     1      -0.183   5.362  16.614  1.00  0.00     0.148 A 
ATOM     68  C   UNL     1       2.315   4.791  17.772  1.00  0.00     0.002 A 
ATOM     69  C   UNL     1      -0.073   4.400  17.612  1.00  0.00     0.091 A 
ATOM     70  F   UNL     1      -1.352   5.625  16.013  1.00  0.00    -0.205 F 
ATOM     71  C   UNL     1       1.176   4.103  18.181  1.00  0.00     0.022 A 
BRANCH  69  72
ATOM     72  S   UNL     1      -1.495   3.519  18.266  1.00  0.00     0.127 S 
ATOM     73  O   UNL     1      -1.290   2.180  17.716  1.00  0.00    -0.237 OA
ATOM     74  O   UNL     1      -1.284   3.624  19.710  1.00  0.00    -0.237 OA
ATOM     75  O   UNL     1      -2.667   4.226  17.771  1.00  0.00    -0.744 OA
ENDBRANCH  69  72
ENDBRANCH  51  65
BRANCH  52  76
ATOM     76  C   UNL     1       0.024  12.698   8.778  1.00  0.00     0.023 A 
ATOM     77  C   UNL     1       0.635  13.961   8.897  1.00  0.00     0.012 A 
ATOM     78  C   UNL     1      -0.690  12.388   7.605  1.00  0.00     0.148 A 
ATOM     79  C   UNL     1       0.512  14.911   7.883  1.00  0.00     0.002 A 
ATOM     80  C   UNL     1      -0.762  13.317   6.574  1.00  0.00     0.091 A 
ATOM     81  F   UNL     1      -1.270  11.183   7.516  1.00  0.00    -0.205 F 
ATOM     82  C   UNL     1      -0.178  14.586   6.718  1.00  0.00     0.022 A 
BRANCH  80  83
ATOM     83  S   UNL     1      -1.514  12.942   4.987  1.00  0.00     0.127 S 
ATOM     84  O   UNL     1      -2.683  13.818   4.995  1.00  0.00    -0.237 OA
ATOM     85  O   UNL     1      -0.456  13.332   4.055  1.00  0.00    -0.237 OA
ATOM     86  O   UNL     1      -1.797  11.513   5.012  1.00  0.00    -0.744 OA
ENDBRANCH  80  83
ENDBRANCH  52  76
BRANCH  64  87
ATOM     87  C   UNL     1      -2.059  12.596  15.432  1.00  0.00     0.023 A 
ATOM     88  C   UNL     1      -3.432  12.784  15.177  1.00  0.00     0.012 A 
ATOM     89  C   UNL     1      -1.452  13.301  16.490  1.00  0.00     0.148 A 
ATOM     90  C   UNL     1      -4.176  13.696  15.925  1.00  0.00     0.002 A 
ATOM     91  C   UNL     1      -2.212  14.166  17.268  1.00  0.00     0.091 A 
ATOM     92  F   UNL     1      -0.141  13.124  16.709  1.00  0.00    -0.205 F 
ATOM     93  C   UNL     1      -3.569  14.378  16.976  1.00  0.00     0.022 A 
BRANCH  91  94
ATOM     94  S   UNL     1      -1.536  15.009  18.703  1.00  0.00     0.127 S 
ATOM     95  O   UNL     1      -1.390  16.375  18.205  1.00  0.00    -0.237 OA
ATOM     96  O   UNL     1      -2.597  14.832  19.696  1.00  0.00    -0.237 OA
ATOM     97  O   UNL     1      -0.293  14.320  19.023  1.00  0.00    -0.744 OA
ENDBRANCH  91  94
ENDBRANCH  64  87
ENDBRANCH  38  39
ENDBRANCH  30  33
ENDBRANCH  28  29
ENDBRANCH  27  28
ENDBRANCH  26  27
ENDBRANCH   1  26
TORSDOF 20
