REMARK SMILES O=C(CCCCc1nc(C[C@H]2CCCO2)no1)NCCCCCCNC(=O)c1ccc(-c2c3nc(c(-c4cccc(S(=O)(=O)[O-])c4F)c4ccc([nH]4)c(-c4cccc(S(=O)(=O)[O-])c4F)c4nc(c(-c5cccc(S(=O)(=O)[O-])c5F)c5ccc2[nH]5)C=C4)C=C3)cc1
REMARK SMILES IDX 20 1 19 2 18 3 1 4 2 5 3 7 4 8 5 9 6 10 7 11 8 12 17 13 9 14
REMARK SMILES IDX 16 15 10 16 11 17 12 18 15 19 13 20 14 21 21 22 22 23 23 24
REMARK SMILES IDX 24 25 25 26 26 27 27 29 28 30 29 31 90 32 30 33 89 34 31 35
REMARK SMILES IDX 32 36 33 37 83 38 34 39 88 40 82 41 84 42 35 43 87 44 81 45
REMARK SMILES IDX 80 46 36 48 68 49 48 50 67 51 49 52 52 53 66 54 85 55 50 56
REMARK SMILES IDX 51 57 65 59 86 60 53 61 37 62 38 63 46 64 39 65 41 66 47 67
REMARK SMILES IDX 40 68 42 69 43 70 44 71 45 72 69 73 70 74 78 75 71 76 73 77
REMARK SMILES IDX 79 78 72 79 74 80 75 81 76 82 77 83 54 84 55 85 63 86 56 87
REMARK SMILES IDX 58 88 64 89 57 90 59 91 60 92 61 93 62 94
REMARK H PARENT 18 6 25 28 84 47 52 58
REMARK Flexibility Score: inf
ROOT
ATOM      1  C   UNL     1       9.220   7.565  11.394  1.00  0.00     0.021 C 
ENDROOT
BRANCH   1   2
ATOM      2  C   UNL     1      10.333   8.450  10.831  1.00  0.00     0.116 C 
BRANCH   2   3
ATOM      3  N   UNL     1      10.319   8.429   9.385  1.00  0.00    -0.356 N 
ATOM      4  O   UNL     1      10.899  10.623   9.022  1.00  0.00    -0.275 OA
ATOM      5  C   UNL     1      10.628   9.507   8.596  1.00  0.00     0.219 C 
ATOM      6  H   UNL     1      10.073   7.587   8.938  1.00  0.00     0.163 HD
BRANCH   5   7
ATOM      7  C   UNL     1      10.590   9.190   7.114  1.00  0.00     0.100 C 
BRANCH   7   8
ATOM      8  C   UNL     1      11.805   8.389   6.641  1.00  0.00     0.010 C 
BRANCH   8   9
ATOM      9  C   UNL     1      11.865   6.904   7.046  1.00  0.00     0.010 C 
BRANCH   9  10
ATOM     10  C   UNL     1      10.646   6.051   6.674  1.00  0.00     0.100 C 
BRANCH  10  11
ATOM     11  C   UNL     1      10.494   5.930   5.210  1.00  0.00     0.226 A 
ATOM     12  N   UNL     1      10.936   5.003   4.393  1.00  0.00    -0.196 NA
ATOM     13  O   UNL     1       9.868   6.961   4.576  1.00  0.00    -0.339 OA
ATOM     14  C   UNL     1      10.591   5.515   3.170  1.00  0.00     0.174 A 
ATOM     15  N   UNL     1       9.964   6.698   3.214  1.00  0.00    -0.062 NA
BRANCH  14  16
ATOM     16  C   UNL     1      10.954   4.850   1.899  1.00  0.00     0.113 C 
BRANCH  16  17
ATOM     17  C   UNL     1       9.751   4.321   1.111  1.00  0.00     0.126 C 
ATOM     18  C   UNL     1       8.857   5.389   0.491  1.00  0.00     0.035 C 
ATOM     19  O   UNL     1      10.261   3.555  -0.008  1.00  0.00    -0.378 OA
ATOM     20  C   UNL     1       9.521   5.645  -0.837  1.00  0.00     0.031 C 
ATOM     21  C   UNL     1       9.961   4.253  -1.226  1.00  0.00     0.160 C 
ENDBRANCH  16  17
ENDBRANCH  14  16
ENDBRANCH  10  11
ENDBRANCH   9  10
ENDBRANCH   8   9
ENDBRANCH   7   8
ENDBRANCH   5   7
ENDBRANCH   2   3
ENDBRANCH   1   2
BRANCH   1  22
ATOM     22  C   UNL     1       9.289   6.087  10.975  1.00  0.00     0.002 C 
BRANCH  22  23
ATOM     23  C   UNL     1      10.564   5.344  11.383  1.00  0.00     0.002 C 
BRANCH  23  24
ATOM     24  C   UNL     1      10.854   5.336  12.885  1.00  0.00     0.021 C 
BRANCH  24  25
ATOM     25  C   UNL     1       9.730   4.782  13.754  1.00  0.00     0.116 C 
BRANCH  25  26
ATOM     26  N   UNL     1       9.464   3.374  13.496  1.00  0.00    -0.352 N 
ATOM     27  C   UNL     1       9.325   2.346  14.397  1.00  0.00     0.251 C 
ATOM     28  H   UNL     1       9.372   3.124  12.548  1.00  0.00     0.163 HD
ATOM     29  O   UNL     1       9.257   1.185  14.001  1.00  0.00    -0.269 OA
BRANCH  27  30
ATOM     30  C   UNL     1       9.282   2.642  15.846  1.00  0.00     0.039 A 
ATOM     31  C   UNL     1      10.065   1.882  16.718  1.00  0.00     0.014 A 
ATOM     32  C   UNL     1       8.484   3.678  16.339  1.00  0.00     0.014 A 
ATOM     33  C   UNL     1      10.094   2.202  18.079  1.00  0.00     0.010 A 
ATOM     34  C   UNL     1       8.574   4.042  17.680  1.00  0.00     0.010 A 
ATOM     35  C   UNL     1       9.374   3.305  18.566  1.00  0.00    -0.014 A 
BRANCH  35  36
ATOM     36  C   UNL     1       9.443   3.708  19.996  1.00  0.00     0.031 A 
ATOM     37  C   UNL     1       8.199   3.697  20.844  1.00  0.00     0.074 A 
ATOM     38  C   UNL     1      10.602   4.173  20.507  1.00  0.00     0.049 A 
ATOM     39  N   UNL     1       8.039   4.092  22.080  1.00  0.00    -0.248 NA
ATOM     40  C   UNL     1       6.964   3.201  20.212  1.00  0.00     0.031 C 
ATOM     41  C   UNL     1      11.861   4.302  19.770  1.00  0.00     0.029 A 
ATOM     42  N   UNL     1      10.901   4.653  21.758  1.00  0.00    -0.354 N 
ATOM     43  C   UNL     1       6.687   3.933  22.360  1.00  0.00     0.074 A 
ATOM     44  C   UNL     1       6.063   3.432  21.155  1.00  0.00     0.031 C 
ATOM     45  C   UNL     1      12.794   4.827  20.581  1.00  0.00     0.029 A 
ATOM     46  C   UNL     1      12.195   5.106  21.882  1.00  0.00     0.049 A 
ATOM     47  H   UNL     1      10.251   4.672  22.497  1.00  0.00     0.167 HD
ATOM     48  C   UNL     1       6.028   4.157  23.521  1.00  0.00     0.034 A 
ATOM     49  C   UNL     1      12.823   5.693  22.920  1.00  0.00     0.034 A 
ATOM     50  C   UNL     1       6.659   4.612  24.730  1.00  0.00     0.049 A 
ATOM     51  C   UNL     1      12.072   5.900  24.209  1.00  0.00     0.074 A 
ATOM     52  C   UNL     1       6.092   4.785  25.981  1.00  0.00     0.029 A 
ATOM     53  N   UNL     1       7.991   4.974  24.841  1.00  0.00    -0.354 N 
ATOM     54  N   UNL     1      10.830   5.598  24.498  1.00  0.00    -0.248 NA
ATOM     55  C   UNL     1      12.820   6.496  25.327  1.00  0.00     0.031 C 
ATOM     56  C   UNL     1       7.076   5.280  26.841  1.00  0.00     0.029 A 
ATOM     57  C   UNL     1       8.264   5.378  26.136  1.00  0.00     0.049 A 
ATOM     58  H   UNL     1       8.647   4.947  24.107  1.00  0.00     0.167 HD
ATOM     59  C   UNL     1      10.662   5.923  25.840  1.00  0.00     0.074 A 
ATOM     60  C   UNL     1      11.933   6.430  26.310  1.00  0.00     0.031 C 
ATOM     61  C   UNL     1       9.550   5.820  26.609  1.00  0.00     0.034 A 
BRANCH  48  62
ATOM     62  C   UNL     1       4.549   3.870  23.561  1.00  0.00     0.023 A 
ATOM     63  C   UNL     1       4.097   2.535  23.532  1.00  0.00     0.012 A 
ATOM     64  C   UNL     1       3.615   4.914  23.706  1.00  0.00     0.148 A 
ATOM     65  C   UNL     1       2.736   2.245  23.617  1.00  0.00     0.002 A 
ATOM     66  C   UNL     1       2.264   4.614  23.838  1.00  0.00     0.091 A 
ATOM     67  F   UNL     1       4.063   6.177  23.713  1.00  0.00    -0.205 F 
ATOM     68  C   UNL     1       1.822   3.282  23.781  1.00  0.00     0.022 A 
BRANCH  66  69
ATOM     69  S   UNL     1       1.015   5.870  24.137  1.00  0.00     0.127 S 
ATOM     70  O   UNL     1       0.258   5.836  22.887  1.00  0.00    -0.237 OA
ATOM     71  O   UNL     1       0.304   5.324  25.295  1.00  0.00    -0.237 OA
ATOM     72  O   UNL     1       1.738   7.107  24.393  1.00  0.00    -0.744 OA
ENDBRANCH  66  69
ENDBRANCH  48  62
BRANCH  49  73
ATOM     73  C   UNL     1      14.258   6.086  22.806  1.00  0.00     0.023 A 
ATOM     74  C   UNL     1      15.227   5.396  23.561  1.00  0.00     0.012 A 
ATOM     75  C   UNL     1      14.666   7.134  21.959  1.00  0.00     0.148 A 
ATOM     76  C   UNL     1      16.570   5.771  23.507  1.00  0.00     0.002 A 
ATOM     77  C   UNL     1      16.013   7.464  21.866  1.00  0.00     0.091 A 
ATOM     78  F   UNL     1      13.729   7.786  21.257  1.00  0.00    -0.205 F 
ATOM     79  C   UNL     1      16.964   6.798  22.655  1.00  0.00     0.022 A 
BRANCH  77  80
ATOM     80  S   UNL     1      16.626   8.684  20.699  1.00  0.00     0.127 S 
ATOM     81  O   UNL     1      16.996   9.785  21.584  1.00  0.00    -0.237 OA
ATOM     82  O   UNL     1      17.752   7.978  20.088  1.00  0.00    -0.237 OA
ATOM     83  O   UNL     1      15.519   8.946  19.789  1.00  0.00    -0.744 OA
ENDBRANCH  77  80
ENDBRANCH  49  73
BRANCH  61  84
ATOM     84  C   UNL     1       9.661   6.203  28.062  1.00  0.00     0.023 A 
ATOM     85  C   UNL     1       9.782   7.557  28.430  1.00  0.00     0.012 A 
ATOM     86  C   UNL     1       9.559   5.219  29.066  1.00  0.00     0.148 A 
ATOM     87  C   UNL     1       9.831   7.923  29.775  1.00  0.00     0.002 A 
ATOM     88  C   UNL     1       9.555   5.596  30.403  1.00  0.00     0.091 A 
ATOM     89  F   UNL     1       9.462   3.934  28.694  1.00  0.00    -0.205 F 
ATOM     90  C   UNL     1       9.704   6.946  30.759  1.00  0.00     0.022 A 
BRANCH  88  91
ATOM     91  S   UNL     1       9.294   4.419  31.735  1.00  0.00     0.127 S 
ATOM     92  O   UNL     1      10.618   4.371  32.353  1.00  0.00    -0.237 OA
ATOM     93  O   UNL     1       8.269   5.085  32.539  1.00  0.00    -0.237 OA
ATOM     94  O   UNL     1       8.857   3.183  31.101  1.00  0.00    -0.744 OA
ENDBRANCH  88  91
ENDBRANCH  61  84
ENDBRANCH  35  36
ENDBRANCH  27  30
ENDBRANCH  25  26
ENDBRANCH  24  25
ENDBRANCH  23  24
ENDBRANCH  22  23
ENDBRANCH   1  22
TORSDOF 22
