REMARK SMILES O=C(NCCCCCCNC(=O)c1ccc(-c2c3nc(c(-c4cccc(S(=O)(=O)[O-])c4F)c4ccc([nH]4)c(-c4cccc(S(=O)(=O)[O-])c4F)c4nc(c(-c5cccc(S(=O)(=O)[O-])c5F)c5ccc2[nH]5)C=C4)C=C3)cc1)c1ccc(NC(=O)[C@@H]2CC=CC[C@H]2C(=O)Nc2cccc([N+](=O)[O-])c2)cc1
REMARK SMILES IDX 5 1 4 2 3 3 1 4 2 5 76 7 77 8 102 9 78 10 101 11 79 12 80 13
REMARK SMILES IDX 81 14 82 16 83 17 84 18 88 19 85 20 87 21 86 22 89 23 90 24
REMARK SMILES IDX 91 25 92 27 93 28 100 29 94 30 96 31 95 32 97 33 98 34 99 35
REMARK SMILES IDX 6 36 7 37 8 38 9 39 10 40 11 41 12 43 13 44 14 45 75 46
REMARK SMILES IDX 15 47 74 48 16 49 17 50 18 51 68 52 19 53 73 54 67 55 69 56
REMARK SMILES IDX 20 57 72 58 66 59 65 60 21 62 53 63 33 64 52 65 34 66 37 67
REMARK SMILES IDX 51 68 70 69 35 70 36 71 50 73 71 74 38 75 22 76 23 77 31 78
REMARK SMILES IDX 24 79 26 80 32 81 25 82 27 83 28 84 29 85 30 86 54 87 55 88
REMARK SMILES IDX 63 89 56 90 58 91 64 92 57 93 59 94 60 95 61 96 62 97 39 98
REMARK SMILES IDX 40 99 48 100 41 101 43 102 49 103 42 104 44 105 45 106
REMARK SMILES IDX 46 107 47 108
REMARK H PARENT 3 6 80 15 91 26 10 42 69 61 37 72
REMARK Flexibility Score: inf
ROOT
ATOM      1  C   UNL     1      11.431   2.300  -2.106  1.00  0.00     0.021 C 
ENDROOT
BRANCH   1   2
ATOM      2  C   UNL     1      11.468   2.336  -0.588  1.00  0.00     0.116 C 
BRANCH   2   3
ATOM      3  N   UNL     1      12.313   3.391  -0.041  1.00  0.00    -0.352 N 
ATOM      4  O   UNL     1      12.828   5.122   1.332  1.00  0.00    -0.269 OA
ATOM      5  C   UNL     1      12.069   4.200   1.049  1.00  0.00     0.251 C 
ATOM      6  H   UNL     1      13.165   3.546  -0.509  1.00  0.00     0.163 HD
BRANCH   5   7
ATOM      7  C   UNL     1      10.860   3.959   1.867  1.00  0.00     0.039 A 
ATOM      8  C   UNL     1      10.488   2.657   2.179  1.00  0.00     0.016 A 
ATOM      9  C   UNL     1      10.049   5.019   2.272  1.00  0.00     0.016 A 
ATOM     10  C   UNL     1       9.239   2.408   2.725  1.00  0.00     0.027 A 
ATOM     11  C   UNL     1       8.854   4.753   2.955  1.00  0.00     0.027 A 
ATOM     12  C   UNL     1       8.443   3.433   3.197  1.00  0.00     0.041 A 
BRANCH  12  13
ATOM     13  N   UNL     1       7.285   3.238   3.958  1.00  0.00    -0.326 N 
ATOM     14  C   UNL     1       6.661   2.173   4.521  1.00  0.00     0.228 C 
ATOM     15  H   UNL     1       6.806   4.081   4.126  1.00  0.00     0.169 HD
ATOM     16  O   UNL     1       5.702   2.459   5.257  1.00  0.00    -0.274 OA
BRANCH  14  17
ATOM     17  C   UNL     1       6.966   0.690   4.300  1.00  0.00     0.095 C 
ATOM     18  C   UNL     1       8.355   0.169   4.711  1.00  0.00     0.041 C 
ATOM     19  C   UNL     1       6.362   0.214   2.969  1.00  0.00     0.095 C 
ATOM     20  C   UNL     1       8.940  -0.886   3.815  1.00  0.00    -0.030 C 
ATOM     21  C   UNL     1       6.877  -1.127   2.424  1.00  0.00     0.041 C 
ATOM     22  C   UNL     1       8.286  -1.455   2.796  1.00  0.00    -0.030 C 
BRANCH  19  23
ATOM     23  C   UNL     1       4.818   0.262   2.934  1.00  0.00     0.228 C 
ATOM     24  O   UNL     1       4.270   1.142   2.256  1.00  0.00    -0.274 OA
ATOM     25  N   UNL     1       4.000  -0.678   3.509  1.00  0.00    -0.326 N 
ATOM     26  H   UNL     1       3.055  -0.614   3.243  1.00  0.00     0.169 HD
BRANCH  25  27
ATOM     27  C   UNL     1       4.279  -1.715   4.411  1.00  0.00     0.048 A 
ATOM     28  C   UNL     1       3.891  -3.015   4.085  1.00  0.00     0.026 A 
ATOM     29  C   UNL     1       4.893  -1.485   5.636  1.00  0.00     0.111 A 
ATOM     30  C   UNL     1       4.282  -4.090   4.892  1.00  0.00     0.009 A 
ATOM     31  C   UNL     1       5.349  -2.559   6.408  1.00  0.00     0.271 A 
ATOM     32  C   UNL     1       5.052  -3.870   6.036  1.00  0.00     0.086 A 
BRANCH  31  33
ATOM     33  N   UNL     1       6.182  -2.292   7.586  1.00  0.00     0.062 N 
ATOM     34  O   UNL     1       6.487  -3.248   8.312  1.00  0.00    -0.258 OA
ATOM     35  O   UNL     1       6.544  -1.122   7.784  1.00  0.00    -0.258 OA
ENDBRANCH  31  33
ENDBRANCH  25  27
ENDBRANCH  19  23
ENDBRANCH  14  17
ENDBRANCH  12  13
ENDBRANCH   5   7
ENDBRANCH   2   3
ENDBRANCH   1   2
BRANCH   1  36
ATOM     36  C   UNL     1      12.746   1.912  -2.774  1.00  0.00     0.002 C 
BRANCH  36  37
ATOM     37  C   UNL     1      13.348   0.572  -2.341  1.00  0.00     0.002 C 
BRANCH  37  38
ATOM     38  C   UNL     1      12.432  -0.652  -2.451  1.00  0.00     0.021 C 
BRANCH  38  39
ATOM     39  C   UNL     1      11.744  -0.854  -3.798  1.00  0.00     0.116 C 
BRANCH  39  40
ATOM     40  N   UNL     1      12.677  -0.902  -4.910  1.00  0.00    -0.352 N 
ATOM     41  C   UNL     1      12.730  -1.769  -5.972  1.00  0.00     0.251 C 
ATOM     42  H   UNL     1      13.377  -0.209  -4.900  1.00  0.00     0.163 HD
ATOM     43  O   UNL     1      13.674  -1.715  -6.755  1.00  0.00    -0.269 OA
BRANCH  41  44
ATOM     44  C   UNL     1      11.671  -2.786  -6.161  1.00  0.00     0.039 A 
ATOM     45  C   UNL     1      12.051  -4.094  -6.475  1.00  0.00     0.014 A 
ATOM     46  C   UNL     1      10.317  -2.458  -6.049  1.00  0.00     0.014 A 
ATOM     47  C   UNL     1      11.077  -5.085  -6.621  1.00  0.00     0.010 A 
ATOM     48  C   UNL     1       9.351  -3.459  -6.136  1.00  0.00     0.010 A 
ATOM     49  C   UNL     1       9.720  -4.781  -6.426  1.00  0.00    -0.014 A 
BRANCH  49  50
ATOM     50  C   UNL     1       8.677  -5.835  -6.506  1.00  0.00     0.031 A 
ATOM     51  C   UNL     1       7.628  -5.788  -7.583  1.00  0.00     0.074 A 
ATOM     52  C   UNL     1       8.621  -6.787  -5.553  1.00  0.00     0.049 A 
ATOM     53  N   UNL     1       6.603  -6.577  -7.769  1.00  0.00    -0.248 NA
ATOM     54  C   UNL     1       7.731  -4.696  -8.565  1.00  0.00     0.031 C 
ATOM     55  C   UNL     1       9.529  -6.892  -4.409  1.00  0.00     0.029 A 
ATOM     56  N   UNL     1       7.743  -7.827  -5.377  1.00  0.00    -0.354 N 
ATOM     57  C   UNL     1       5.922  -6.064  -8.867  1.00  0.00     0.074 A 
ATOM     58  C   UNL     1       6.633  -4.875  -9.285  1.00  0.00     0.031 C 
ATOM     59  C   UNL     1       9.154  -7.930  -3.645  1.00  0.00     0.029 A 
ATOM     60  C   UNL     1       7.971  -8.553  -4.231  1.00  0.00     0.049 A 
ATOM     61  H   UNL     1       7.018  -8.034  -6.010  1.00  0.00     0.167 HD
ATOM     62  C   UNL     1       4.824  -6.555  -9.491  1.00  0.00     0.034 A 
ATOM     63  C   UNL     1       7.301  -9.598  -3.707  1.00  0.00     0.034 A 
ATOM     64  C   UNL     1       4.146  -7.762  -9.104  1.00  0.00     0.049 A 
ATOM     65  C   UNL     1       6.123 -10.161  -4.454  1.00  0.00     0.074 A 
ATOM     66  C   UNL     1       3.071  -8.380  -9.717  1.00  0.00     0.029 A 
ATOM     67  N   UNL     1       4.479  -8.538  -8.005  1.00  0.00    -0.354 N 
ATOM     68  N   UNL     1       5.587  -9.751  -5.578  1.00  0.00    -0.248 NA
ATOM     69  C   UNL     1       5.482 -11.356  -3.885  1.00  0.00     0.031 C 
ATOM     70  C   UNL     1       2.752  -9.530  -8.986  1.00  0.00     0.029 A 
ATOM     71  C   UNL     1       3.634  -9.631  -7.923  1.00  0.00     0.049 A 
ATOM     72  H   UNL     1       5.210  -8.341  -7.375  1.00  0.00     0.167 HD
ATOM     73  C   UNL     1       4.568 -10.650  -5.866  1.00  0.00     0.074 A 
ATOM     74  C   UNL     1       4.576 -11.643  -4.811  1.00  0.00     0.031 C 
ATOM     75  C   UNL     1       3.691 -10.643  -6.900  1.00  0.00     0.034 A 
BRANCH  62  76
ATOM     76  C   UNL     1       4.331  -5.822 -10.711  1.00  0.00     0.023 A 
ATOM     77  C   UNL     1       5.065  -5.916 -11.911  1.00  0.00     0.012 A 
ATOM     78  C   UNL     1       3.126  -5.094 -10.693  1.00  0.00     0.148 A 
ATOM     79  C   UNL     1       4.625  -5.273 -13.066  1.00  0.00     0.002 A 
ATOM     80  C   UNL     1       2.673  -4.487 -11.859  1.00  0.00     0.091 A 
ATOM     81  F   UNL     1       2.454  -4.996  -9.537  1.00  0.00    -0.205 F 
ATOM     82  C   UNL     1       3.425  -4.568 -13.043  1.00  0.00     0.022 A 
BRANCH  80  83
ATOM     83  S   UNL     1       1.103  -3.617 -11.949  1.00  0.00     0.127 S 
ATOM     84  O   UNL     1       1.541  -2.222 -11.986  1.00  0.00    -0.237 OA
ATOM     85  O   UNL     1       0.544  -4.114 -13.206  1.00  0.00    -0.237 OA
ATOM     86  O   UNL     1       0.361  -4.011 -10.759  1.00  0.00    -0.744 OA
ENDBRANCH  80  83
ENDBRANCH  62  76
BRANCH  63  87
ATOM     87  C   UNL     1       7.777 -10.220  -2.440  1.00  0.00     0.023 A 
ATOM     88  C   UNL     1       8.392 -11.486  -2.480  1.00  0.00     0.012 A 
ATOM     89  C   UNL     1       7.663  -9.550  -1.207  1.00  0.00     0.148 A 
ATOM     90  C   UNL     1       8.861 -12.086  -1.311  1.00  0.00     0.002 A 
ATOM     91  C   UNL     1       8.180 -10.129  -0.054  1.00  0.00     0.091 A 
ATOM     92  F   UNL     1       7.060  -8.352  -1.186  1.00  0.00    -0.205 F 
ATOM     93  C   UNL     1       8.766 -11.403  -0.100  1.00  0.00     0.022 A 
BRANCH  91  94
ATOM     94  S   UNL     1       8.215  -9.253   1.515  1.00  0.00     0.127 S 
ATOM     95  O   UNL     1       7.102  -9.870   2.231  1.00  0.00    -0.237 OA
ATOM     96  O   UNL     1       9.543  -9.593   2.029  1.00  0.00    -0.237 OA
ATOM     97  O   UNL     1       8.053  -7.845   1.177  1.00  0.00    -0.744 OA
ENDBRANCH  91  94
ENDBRANCH  63  87
BRANCH  75  98
ATOM     98  C   UNL     1       2.674 -11.752  -6.960  1.00  0.00     0.023 A 
ATOM     99  C   UNL     1       1.578 -11.738  -6.075  1.00  0.00     0.012 A 
ATOM    100  C   UNL     1       2.761 -12.761  -7.940  1.00  0.00     0.148 A 
ATOM    101  C   UNL     1       0.596 -12.725  -6.148  1.00  0.00     0.002 A 
ATOM    102  C   UNL     1       1.757 -13.717  -8.033  1.00  0.00     0.091 A 
ATOM    103  F   UNL     1       3.824 -12.770  -8.758  1.00  0.00    -0.205 F 
ATOM    104  C   UNL     1       0.679 -13.706  -7.133  1.00  0.00     0.022 A 
BRANCH 102 105
ATOM    105  S   UNL     1       1.740 -14.965  -9.326  1.00  0.00     0.127 S 
ATOM    106  O   UNL     1       2.178 -16.154  -8.599  1.00  0.00    -0.237 OA
ATOM    107  O   UNL     1       0.333 -14.980  -9.729  1.00  0.00    -0.237 OA
ATOM    108  O   UNL     1       2.653 -14.483 -10.354  1.00  0.00    -0.744 OA
ENDBRANCH 102 105
ENDBRANCH  75  98
ENDBRANCH  49  50
ENDBRANCH  41  44
ENDBRANCH  39  40
ENDBRANCH  38  39
ENDBRANCH  37  38
ENDBRANCH  36  37
ENDBRANCH   1  36
TORSDOF 21
