REMARK SMILES C[C@@H]1[NH2+]CC[C@H]1C(=O)NCc1cccc(C(=O)NCCCCCCNC(=O)c2ccc(-c3c4nc(c(-c5cccc(S(=O)(=O)[O-])c5F)c5ccc([nH]5)c(-c5cccc(S(=O)(=O)[O-])c5F)c5nc(c(-c6cccc(S(=O)(=O)[O-])c6F)c6ccc3[nH]6)C=C5)C=C4)cc2)c1
REMARK SMILES IDX 21 1 20 2 19 3 18 4 16 5 17 6 15 8 11 9 12 10 91 11 13 12
REMARK SMILES IDX 14 13 10 14 9 15 7 16 8 17 6 19 1 20 2 21 3 22 4 23 5 26
REMARK SMILES IDX 22 27 23 28 24 29 25 30 26 31 27 33 28 34 29 35 90 36 30 37
REMARK SMILES IDX 89 38 31 39 32 40 33 41 83 42 34 43 88 44 82 45 84 46 35 47
REMARK SMILES IDX 87 48 81 49 80 50 36 52 68 53 48 54 67 55 49 56 52 57 66 58
REMARK SMILES IDX 85 59 50 60 51 61 65 63 86 64 53 65 37 66 38 67 46 68 39 69
REMARK SMILES IDX 41 70 47 71 40 72 42 73 43 74 44 75 45 76 69 77 70 78 78 79
REMARK SMILES IDX 71 80 73 81 79 82 72 83 74 84 75 85 76 86 77 87 54 88 55 89
REMARK SMILES IDX 63 90 56 91 58 92 64 93 57 94 59 95 60 96 61 97 62 98
REMARK H PARENT 18 7 9 18 3 24 3 25 25 32 84 51 52 62
REMARK Flexibility Score: inf
ROOT
ATOM      1  C   UNL     1       1.064   5.404   7.097  1.00  0.00     0.002 C 
ENDROOT
BRANCH   1   2
ATOM      2  C   UNL     1       0.243   4.265   6.501  1.00  0.00     0.021 C 
BRANCH   2   3
ATOM      3  C   UNL     1       1.018   3.180   5.767  1.00  0.00     0.116 C 
BRANCH   3   4
ATOM      4  N   UNL     1       1.907   2.381   6.599  1.00  0.00    -0.352 N 
ATOM      5  C   UNL     1       2.182   1.026   6.601  1.00  0.00     0.251 C 
ATOM      6  O   UNL     1       2.995   0.593   7.417  1.00  0.00    -0.269 OA
ATOM      7  H   UNL     1       2.397   2.896   7.280  1.00  0.00     0.163 HD
BRANCH   5   8
ATOM      8  C   UNL     1       1.458   0.064   5.718  1.00  0.00     0.040 A 
ATOM      9  C   UNL     1      -0.097  -0.324   3.894  1.00  0.00    -0.028 A 
ATOM     10  C   UNL     1      -0.318  -1.623   4.367  1.00  0.00     0.005 A 
ATOM     11  C   UNL     1       0.915   0.438   4.492  1.00  0.00     0.019 A 
ATOM     12  C   UNL     1       0.385  -2.096   5.476  1.00  0.00     0.001 A 
ATOM     13  C   UNL     1       1.231  -1.237   6.181  1.00  0.00     0.014 A 
BRANCH   9  14
ATOM     14  C   UNL     1      -1.061   0.289   2.903  1.00  0.00     0.151 C 
BRANCH  14  15
ATOM     15  N   UNL     1      -0.679   1.616   2.468  1.00  0.00    -0.352 N 
ATOM     16  C   UNL     1      -0.146   2.062   1.303  1.00  0.00     0.229 C 
ATOM     17  O   UNL     1       0.263   3.225   1.301  1.00  0.00    -0.275 OA
ATOM     18  H   UNL     1      -0.833   2.320   3.138  1.00  0.00     0.163 HD
BRANCH  16  19
ATOM     19  C   UNL     1      -0.054   1.186   0.065  1.00  0.00     0.142 C 
ATOM     20  C   UNL     1       2.067   0.013  -0.681  1.00  0.00     0.076 C 
ATOM     21  C   UNL     1       0.858  -0.028   0.249  1.00  0.00     0.192 C 
ATOM     22  N   UNL     1       0.063  -1.234  -0.050  1.00  0.00    -0.343 N 
ATOM     23  C   UNL     1      -1.149  -0.802  -0.748  1.00  0.00     0.261 C 
ATOM     24  H   UNL     1      -0.186  -1.711   0.817  1.00  0.00     0.346 HD
ATOM     25  H   UNL     1       0.599  -1.883  -0.627  1.00  0.00     0.346 HD
ATOM     26  C   UNL     1      -1.404   0.647  -0.383  1.00  0.00     0.081 C 
ENDBRANCH  16  19
ENDBRANCH  14  15
ENDBRANCH   9  14
ENDBRANCH   5   8
ENDBRANCH   3   4
ENDBRANCH   2   3
ENDBRANCH   1   2
BRANCH   1  27
ATOM     27  C   UNL     1       2.007   6.130   6.135  1.00  0.00     0.002 C 
BRANCH  27  28
ATOM     28  C   UNL     1       1.385   6.653   4.838  1.00  0.00     0.021 C 
BRANCH  28  29
ATOM     29  C   UNL     1       0.163   7.551   5.003  1.00  0.00     0.116 C 
BRANCH  29  30
ATOM     30  N   UNL     1       0.443   8.739   5.795  1.00  0.00    -0.352 N 
ATOM     31  C   UNL     1       0.239  10.063   5.487  1.00  0.00     0.251 C 
ATOM     32  H   UNL     1       0.836   8.569   6.681  1.00  0.00     0.163 HD
ATOM     33  O   UNL     1       0.692  10.937   6.217  1.00  0.00    -0.269 OA
BRANCH  31  34
ATOM     34  C   UNL     1      -0.511  10.431   4.266  1.00  0.00     0.039 A 
ATOM     35  C   UNL     1      -0.004  11.438   3.439  1.00  0.00     0.014 A 
ATOM     36  C   UNL     1      -1.708   9.790   3.937  1.00  0.00     0.014 A 
ATOM     37  C   UNL     1      -0.665  11.757   2.251  1.00  0.00     0.010 A 
ATOM     38  C   UNL     1      -2.324  10.057   2.716  1.00  0.00     0.010 A 
ATOM     39  C   UNL     1      -1.812  11.044   1.861  1.00  0.00    -0.014 A 
BRANCH  39  40
ATOM     40  C   UNL     1      -2.475  11.302   0.556  1.00  0.00     0.031 A 
ATOM     41  C   UNL     1      -3.895  11.797   0.508  1.00  0.00     0.074 A 
ATOM     42  C   UNL     1      -1.826  11.007  -0.588  1.00  0.00     0.049 A 
ATOM     43  N   UNL     1      -4.656  12.019  -0.532  1.00  0.00    -0.248 NA
ATOM     44  C   UNL     1      -4.556  12.052   1.798  1.00  0.00     0.031 C 
ATOM     45  C   UNL     1      -0.473  10.453  -0.674  1.00  0.00     0.029 A 
ATOM     46  N   UNL     1      -2.227  11.105  -1.898  1.00  0.00    -0.354 N 
ATOM     47  C   UNL     1      -5.891  12.405  -0.026  1.00  0.00     0.074 A 
ATOM     48  C   UNL     1      -5.789  12.354   1.416  1.00  0.00     0.031 C 
ATOM     49  C   UNL     1      -0.154  10.266  -1.964  1.00  0.00     0.029 A 
ATOM     50  C   UNL     1      -1.290  10.649  -2.796  1.00  0.00     0.049 A 
ATOM     51  H   UNL     1      -3.101  11.467  -2.168  1.00  0.00     0.167 HD
ATOM     52  C   UNL     1      -7.002  12.793  -0.697  1.00  0.00     0.034 A 
ATOM     53  C   UNL     1      -1.343  10.538  -4.138  1.00  0.00     0.034 A 
ATOM     54  C   UNL     1      -7.090  12.870  -2.131  1.00  0.00     0.049 A 
ATOM     55  C   UNL     1      -2.583  10.990  -4.861  1.00  0.00     0.074 A 
ATOM     56  C   UNL     1      -8.142  13.329  -2.904  1.00  0.00     0.029 A 
ATOM     57  N   UNL     1      -6.096  12.465  -3.009  1.00  0.00    -0.354 N 
ATOM     58  N   UNL     1      -3.688  11.496  -4.369  1.00  0.00    -0.248 NA
ATOM     59  C   UNL     1      -2.573  10.886  -6.327  1.00  0.00     0.031 C 
ATOM     60  C   UNL     1      -7.798  13.166  -4.250  1.00  0.00     0.029 A 
ATOM     61  C   UNL     1      -6.516  12.646  -4.316  1.00  0.00     0.049 A 
ATOM     62  H   UNL     1      -5.221  12.103  -2.742  1.00  0.00     0.167 HD
ATOM     63  C   UNL     1      -4.487  11.806  -5.463  1.00  0.00     0.074 A 
ATOM     64  C   UNL     1      -3.731  11.447  -6.646  1.00  0.00     0.031 C 
ATOM     65  C   UNL     1      -5.737  12.329  -5.486  1.00  0.00     0.034 A 
BRANCH  52  66
ATOM     66  C   UNL     1      -8.205  13.201   0.116  1.00  0.00     0.023 A 
ATOM     67  C   UNL     1      -8.170  14.396   0.864  1.00  0.00     0.012 A 
ATOM     68  C   UNL     1      -9.386  12.433   0.099  1.00  0.00     0.148 A 
ATOM     69  C   UNL     1      -9.273  14.799   1.615  1.00  0.00     0.002 A 
ATOM     70  C   UNL     1     -10.498  12.866   0.811  1.00  0.00     0.091 A 
ATOM     71  F   UNL     1      -9.396  11.291  -0.602  1.00  0.00    -0.205 F 
ATOM     72  C   UNL     1     -10.440  14.040   1.581  1.00  0.00     0.022 A 
BRANCH  70  73
ATOM     73  S   UNL     1     -12.074  12.004   0.768  1.00  0.00     0.127 S 
ATOM     74  O   UNL     1     -12.148  11.457   2.122  1.00  0.00    -0.237 OA
ATOM     75  O   UNL     1     -13.013  13.092   0.497  1.00  0.00    -0.237 OA
ATOM     76  O   UNL     1     -11.963  11.017  -0.297  1.00  0.00    -0.744 OA
ENDBRANCH  70  73
ENDBRANCH  52  66
BRANCH  53  77
ATOM     77  C   UNL     1      -0.163  10.027  -4.892  1.00  0.00     0.023 A 
ATOM     78  C   UNL     1       0.575  10.909  -5.705  1.00  0.00     0.012 A 
ATOM     79  C   UNL     1       0.244   8.682  -4.792  1.00  0.00     0.148 A 
ATOM     80  C   UNL     1       1.677  10.456  -6.430  1.00  0.00     0.002 A 
ATOM     81  C   UNL     1       1.375   8.249  -5.474  1.00  0.00     0.091 A 
ATOM     82  F   UNL     1      -0.476   7.857  -4.019  1.00  0.00    -0.205 F 
ATOM     83  C   UNL     1       2.082   9.130  -6.308  1.00  0.00     0.022 A 
BRANCH  81  84
ATOM     84  S   UNL     1       2.044   6.593  -5.286  1.00  0.00     0.127 S 
ATOM     85  O   UNL     1       1.828   6.031  -6.617  1.00  0.00    -0.237 OA
ATOM     86  O   UNL     1       3.442   6.871  -4.954  1.00  0.00    -0.237 OA
ATOM     87  O   UNL     1       1.279   5.976  -4.212  1.00  0.00    -0.744 OA
ENDBRANCH  81  84
ENDBRANCH  53  77
BRANCH  65  88
ATOM     88  C   UNL     1      -6.363  12.591  -6.832  1.00  0.00     0.023 A 
ATOM     89  C   UNL     1      -6.789  11.514  -7.634  1.00  0.00     0.012 A 
ATOM     90  C   UNL     1      -6.597  13.911  -7.267  1.00  0.00     0.148 A 
ATOM     91  C   UNL     1      -7.408  11.746  -8.862  1.00  0.00     0.002 A 
ATOM     92  C   UNL     1      -7.263  14.135  -8.466  1.00  0.00     0.091 A 
ATOM     93  F   UNL     1      -6.170  14.922  -6.497  1.00  0.00    -0.205 F 
ATOM     94  C   UNL     1      -7.656  13.054  -9.271  1.00  0.00     0.022 A 
BRANCH  92  95
ATOM     95  S   UNL     1      -7.715  15.780  -9.027  1.00  0.00     0.127 S 
ATOM     96  O   UNL     1      -6.832  15.954 -10.180  1.00  0.00    -0.237 OA
ATOM     97  O   UNL     1      -9.129  15.614  -9.361  1.00  0.00    -0.237 OA
ATOM     98  O   UNL     1      -7.458  16.674  -7.906  1.00  0.00    -0.744 OA
ENDBRANCH  92  95
ENDBRANCH  65  88
ENDBRANCH  39  40
ENDBRANCH  31  34
ENDBRANCH  29  30
ENDBRANCH  28  29
ENDBRANCH  27  28
ENDBRANCH   1  27
TORSDOF 19
