REMARK SMILES Cc1ccc(S(=O)(=O)N2c3ccc(C(=O)NCCCCCCNC(=O)c4ccc(-c5c6nc(c(-c7cccc(S(=O)(=O)[O-])c7F)c7ccc([nH]7)c(-c7cccc(S(=O)(=O)[O-])c7F)c7nc(c(-c8cccc(S(=O)(=O)[O-])c8F)c8ccc5[nH]8)C=C7)C=C6)cc4)cc3C[C@H]2C)cc1
REMARK SMILES IDX 20 1 19 2 18 3 17 4 16 5 14 6 15 7 13 9 9 10 10 11 92 12
REMARK SMILES IDX 11 13 90 14 91 15 93 16 12 17 89 18 6 19 7 20 8 21 5 22 1 23
REMARK SMILES IDX 2 24 3 25 95 26 4 27 94 28 21 29 22 30 23 31 24 32 25 34
REMARK SMILES IDX 26 35 27 36 88 37 28 38 87 39 29 40 30 41 31 42 81 43 32 44
REMARK SMILES IDX 86 45 80 46 82 47 33 48 85 49 79 50 78 51 34 53 66 54 46 55
REMARK SMILES IDX 65 56 47 57 50 58 64 59 83 60 48 61 49 62 63 64 84 65 51 66
REMARK SMILES IDX 35 67 36 68 44 69 37 70 39 71 45 72 38 73 40 74 41 75 42 76
REMARK SMILES IDX 43 77 67 78 68 79 76 80 69 81 71 82 77 83 70 84 72 85 73 86
REMARK SMILES IDX 74 87 75 88 52 89 53 90 61 91 54 92 56 93 62 94 55 95 57 96
REMARK SMILES IDX 58 97 59 98 60 99
REMARK H PARENT 16 8 23 33 82 52 50 63
REMARK Flexibility Score: inf
ROOT
ATOM      1  C   UNL     1     -13.155   0.127   2.185  1.00  0.00     0.002 C 
ENDROOT
BRANCH   1   2
ATOM      2  C   UNL     1     -12.719   1.480   2.764  1.00  0.00     0.002 C 
BRANCH   2   3
ATOM      3  C   UNL     1     -11.225   1.741   2.962  1.00  0.00     0.021 C 
BRANCH   3   4
ATOM      4  C   UNL     1     -10.290   1.413   1.807  1.00  0.00     0.116 C 
BRANCH   4   5
ATOM      5  N   UNL     1     -10.537   2.130   0.574  1.00  0.00    -0.352 N 
ATOM      6  C   UNL     1      -9.648   2.439  -0.433  1.00  0.00     0.251 C 
ATOM      7  O   UNL     1     -10.044   3.054  -1.421  1.00  0.00    -0.269 OA
ATOM      8  H   UNL     1     -11.462   2.439   0.437  1.00  0.00     0.163 HD
BRANCH   6   9
ATOM      9  C   UNL     1      -8.200   2.103  -0.316  1.00  0.00     0.040 A 
ATOM     10  N   UNL     1      -4.030   1.657   0.199  1.00  0.00    -0.263 N 
ATOM     11  C   UNL     1      -5.473   1.658   0.052  1.00  0.00     0.055 A 
ATOM     12  C   UNL     1      -3.600   3.014  -0.333  1.00  0.00     0.101 C 
ATOM     13  C   UNL     1      -6.368   0.706   0.501  1.00  0.00     0.028 A 
ATOM     14  C   UNL     1      -5.922   2.787  -0.629  1.00  0.00    -0.021 A 
ATOM     15  C   UNL     1      -4.775   3.571  -1.162  1.00  0.00     0.063 C 
ATOM     16  C   UNL     1      -3.313   3.931   0.864  1.00  0.00     0.032 C 
ATOM     17  C   UNL     1      -7.731   0.908   0.263  1.00  0.00     0.016 A 
ATOM     18  C   UNL     1      -7.276   3.032  -0.813  1.00  0.00     0.019 A 
BRANCH  10  19
ATOM     19  S   UNL     1      -3.311   0.267  -0.520  1.00  0.00     0.264 S 
ATOM     20  O   UNL     1      -3.379   0.434  -1.958  1.00  0.00    -0.201 OA
ATOM     21  O   UNL     1      -3.882  -0.909   0.113  1.00  0.00    -0.201 OA
BRANCH  19  22
ATOM     22  C   UNL     1      -1.572   0.200  -0.121  1.00  0.00     0.088 A 
ATOM     23  C   UNL     1       2.712  -0.183   0.130  1.00  0.00     0.044 C 
ATOM     24  C   UNL     1       1.218  -0.056   0.101  1.00  0.00    -0.051 A 
ATOM     25  C   UNL     1       0.425  -1.185  -0.118  1.00  0.00     0.005 A 
ATOM     26  C   UNL     1       0.598   1.183   0.292  1.00  0.00     0.005 A 
ATOM     27  C   UNL     1      -0.961  -1.058  -0.231  1.00  0.00     0.022 A 
ATOM     28  C   UNL     1      -0.793   1.310   0.191  1.00  0.00     0.022 A 
ENDBRANCH  19  22
ENDBRANCH  10  19
ENDBRANCH   6   9
ENDBRANCH   4   5
ENDBRANCH   3   4
ENDBRANCH   2   3
ENDBRANCH   1   2
BRANCH   1  29
ATOM     29  C   UNL     1     -12.477  -1.134   2.717  1.00  0.00     0.021 C 
BRANCH  29  30
ATOM     30  C   UNL     1     -12.584  -1.353   4.216  1.00  0.00     0.116 C 
BRANCH  30  31
ATOM     31  N   UNL     1     -13.686  -2.209   4.600  1.00  0.00    -0.352 N 
ATOM     32  C   UNL     1     -14.002  -2.749   5.838  1.00  0.00     0.251 C 
ATOM     33  H   UNL     1     -14.305  -2.444   3.871  1.00  0.00     0.163 HD
ATOM     34  O   UNL     1     -14.800  -3.662   5.881  1.00  0.00    -0.269 OA
BRANCH  32  35
ATOM     35  C   UNL     1     -13.484  -2.114   7.085  1.00  0.00     0.039 A 
ATOM     36  C   UNL     1     -14.375  -2.004   8.163  1.00  0.00     0.014 A 
ATOM     37  C   UNL     1     -12.256  -1.462   7.142  1.00  0.00     0.014 A 
ATOM     38  C   UNL     1     -14.149  -1.055   9.160  1.00  0.00     0.010 A 
ATOM     39  C   UNL     1     -12.064  -0.470   8.077  1.00  0.00     0.010 A 
ATOM     40  C   UNL     1     -13.047  -0.220   9.037  1.00  0.00    -0.014 A 
BRANCH  40  41
ATOM     41  C   UNL     1     -12.823   0.988   9.811  1.00  0.00     0.031 A 
ATOM     42  C   UNL     1     -11.971   0.954  11.008  1.00  0.00     0.074 A 
ATOM     43  C   UNL     1     -13.214   2.160   9.267  1.00  0.00     0.049 A 
ATOM     44  N   UNL     1     -11.852   1.930  11.840  1.00  0.00    -0.248 NA
ATOM     45  C   UNL     1     -11.218  -0.232  11.387  1.00  0.00     0.031 C 
ATOM     46  C   UNL     1     -12.723   3.495   9.580  1.00  0.00     0.029 A 
ATOM     47  N   UNL     1     -14.330   2.384   8.454  1.00  0.00    -0.354 N 
ATOM     48  C   UNL     1     -10.816   1.620  12.695  1.00  0.00     0.074 A 
ATOM     49  C   UNL     1     -10.542   0.227  12.444  1.00  0.00     0.031 C 
ATOM     50  C   UNL     1     -13.659   4.388   9.224  1.00  0.00     0.029 A 
ATOM     51  C   UNL     1     -14.842   3.632   8.849  1.00  0.00     0.049 A 
ATOM     52  H   UNL     1     -14.684   1.792   7.752  1.00  0.00     0.167 HD
ATOM     53  C   UNL     1     -10.234   2.632  13.401  1.00  0.00     0.034 A 
ATOM     54  C   UNL     1     -16.088   3.802   9.379  1.00  0.00     0.034 A 
ATOM     55  C   UNL     1     -11.019   3.871  13.268  1.00  0.00     0.049 A 
ATOM     56  C   UNL     1     -16.070   4.448  10.752  1.00  0.00     0.074 A 
ATOM     57  C   UNL     1     -10.883   5.007  12.486  1.00  0.00     0.029 A 
ATOM     58  N   UNL     1     -12.296   3.925  13.818  1.00  0.00    -0.354 N 
ATOM     59  N   UNL     1     -14.991   4.643  11.460  1.00  0.00    -0.248 NA
ATOM     60  C   UNL     1     -17.269   4.910  11.444  1.00  0.00     0.031 C 
ATOM     61  C   UNL     1     -12.129   5.695  12.494  1.00  0.00     0.029 A 
ATOM     62  C   UNL     1     -13.008   5.000  13.309  1.00  0.00     0.049 A 
ATOM     63  H   UNL     1     -12.646   3.286  14.479  1.00  0.00     0.167 HD
ATOM     64  C   UNL     1     -15.322   5.116  12.703  1.00  0.00     0.074 A 
ATOM     65  C   UNL     1     -16.755   5.344  12.610  1.00  0.00     0.031 C 
ATOM     66  C   UNL     1     -14.397   5.216  13.711  1.00  0.00     0.034 A 
BRANCH  53  67
ATOM     67  C   UNL     1      -8.831   2.616  14.005  1.00  0.00     0.023 A 
ATOM     68  C   UNL     1      -8.286   3.862  14.397  1.00  0.00     0.012 A 
ATOM     69  C   UNL     1      -7.961   1.507  14.136  1.00  0.00     0.148 A 
ATOM     70  C   UNL     1      -6.955   4.012  14.809  1.00  0.00     0.002 A 
ATOM     71  C   UNL     1      -6.625   1.655  14.523  1.00  0.00     0.091 A 
ATOM     72  F   UNL     1      -8.406   0.274  13.920  1.00  0.00    -0.205 F 
ATOM     73  C   UNL     1      -6.115   2.910  14.852  1.00  0.00     0.022 A 
BRANCH  71  74
ATOM     74  S   UNL     1      -5.471   0.267  14.574  1.00  0.00     0.127 S 
ATOM     75  O   UNL     1      -4.435   0.698  13.634  1.00  0.00    -0.237 OA
ATOM     76  O   UNL     1      -5.056   0.257  15.976  1.00  0.00    -0.237 OA
ATOM     77  O   UNL     1      -6.217  -0.911  14.146  1.00  0.00    -0.744 OA
ENDBRANCH  71  74
ENDBRANCH  53  67
BRANCH  54  78
ATOM     78  C   UNL     1     -17.085   2.799   8.898  1.00  0.00     0.023 A 
ATOM     79  C   UNL     1     -17.375   2.807   7.512  1.00  0.00     0.012 A 
ATOM     80  C   UNL     1     -17.401   1.652   9.649  1.00  0.00     0.148 A 
ATOM     81  C   UNL     1     -17.834   1.659   6.866  1.00  0.00     0.002 A 
ATOM     82  C   UNL     1     -17.864   0.509   8.996  1.00  0.00     0.091 A 
ATOM     83  F   UNL     1     -17.167   1.665  10.967  1.00  0.00    -0.205 F 
ATOM     84  C   UNL     1     -18.043   0.499   7.603  1.00  0.00     0.022 A 
BRANCH  82  85
ATOM     85  S   UNL     1     -18.118  -1.041   9.873  1.00  0.00     0.127 S 
ATOM     86  O   UNL     1     -19.549  -0.988  10.152  1.00  0.00    -0.237 OA
ATOM     87  O   UNL     1     -17.721  -2.036   8.877  1.00  0.00    -0.237 OA
ATOM     88  O   UNL     1     -17.230  -0.966  11.024  1.00  0.00    -0.744 OA
ENDBRANCH  82  85
ENDBRANCH  54  78
BRANCH  66  89
ATOM     89  C   UNL     1     -14.699   5.497  15.177  1.00  0.00     0.023 A 
ATOM     90  C   UNL     1     -15.979   5.325  15.737  1.00  0.00     0.012 A 
ATOM     91  C   UNL     1     -13.652   5.804  16.090  1.00  0.00     0.148 A 
ATOM     92  C   UNL     1     -16.226   5.497  17.105  1.00  0.00     0.002 A 
ATOM     93  C   UNL     1     -13.881   5.859  17.464  1.00  0.00     0.091 A 
ATOM     94  F   UNL     1     -12.419   6.068  15.633  1.00  0.00    -0.205 F 
ATOM     95  C   UNL     1     -15.173   5.737  17.974  1.00  0.00     0.022 A 
BRANCH  93  96
ATOM     96  S   UNL     1     -12.505   5.917  18.623  1.00  0.00     0.127 S 
ATOM     97  O   UNL     1     -12.316   7.354  18.803  1.00  0.00    -0.237 OA
ATOM     98  O   UNL     1     -13.046   5.224  19.794  1.00  0.00    -0.237 OA
ATOM     99  O   UNL     1     -11.427   5.199  17.954  1.00  0.00    -0.744 OA
ENDBRANCH  93  96
ENDBRANCH  66  89
ENDBRANCH  40  41
ENDBRANCH  32  35
ENDBRANCH  30  31
ENDBRANCH  29  30
ENDBRANCH   1  29
TORSDOF 18
