REMARK SMILES CC[C@@H](C(=O)NCCCCCCNC(=O)c1ccc(-c2c3nc(c(-c4cccc(S(=O)(=O)[O-])c4F)c4ccc([nH]4)c(-c4cccc(S(=O)(=O)[O-])c4F)c4nc(c(-c5cccc(S(=O)(=O)[O-])c5F)c5ccc2[nH]5)C=C4)C=C3)cc1)N1C(=O)/C(=C/C(C)=C/c2ccccc2)SC1=S
REMARK SMILES IDX 9 1 8 2 7 3 6 4 4 5 5 6 3 8 2 9 1 10 79 11 80 12 94 13 81 14
REMARK SMILES IDX 82 15 93 16 95 17 83 18 84 19 85 20 86 21 87 22 88 23 92 24
REMARK SMILES IDX 89 25 91 26 90 27 10 28 11 29 12 30 13 31 14 32 15 34 16 35
REMARK SMILES IDX 17 36 78 37 18 38 77 39 19 40 20 41 21 42 71 43 22 44 76 45
REMARK SMILES IDX 70 46 72 47 23 48 75 49 69 50 68 51 24 53 56 54 36 55 55 56
REMARK SMILES IDX 37 57 40 58 54 59 73 60 38 61 39 62 53 64 74 65 41 66 25 67
REMARK SMILES IDX 26 68 34 69 27 70 29 71 35 72 28 73 30 74 31 75 32 76 33 77
REMARK SMILES IDX 57 78 58 79 66 80 59 81 61 82 67 83 60 84 62 85 63 86 64 87
REMARK SMILES IDX 65 88 42 89 43 90 51 91 44 92 46 93 52 94 45 95 47 96 48 97
REMARK SMILES IDX 49 98 50 99
REMARK H PARENT 6 7 13 33 72 52 40 63
REMARK Flexibility Score: inf
ROOT
ATOM      1  C   UNL     1       0.611   0.170  -4.168  1.00  0.00     0.002 C 
ENDROOT
BRANCH   1   2
ATOM      2  C   UNL     1       0.876  -0.040  -2.677  1.00  0.00     0.021 C 
BRANCH   2   3
ATOM      3  C   UNL     1       1.525   1.166  -1.996  1.00  0.00     0.116 C 
BRANCH   3   4
ATOM      4  N   UNL     1       0.491   2.102  -1.596  1.00  0.00    -0.354 N 
ATOM      5  C   UNL     1       0.009   2.395  -0.353  1.00  0.00     0.243 C 
ATOM      6  O   UNL     1      -1.024   3.069  -0.288  1.00  0.00    -0.273 OA
ATOM      7  H   UNL     1       0.074   2.603  -2.334  1.00  0.00     0.163 HD
BRANCH   5   8
ATOM      8  C   UNL     1       0.787   1.959   0.909  1.00  0.00     0.181 C 
BRANCH   8   9
ATOM      9  C   UNL     1       0.338   0.592   1.466  1.00  0.00     0.032 C 
ATOM     10  C   UNL     1       0.877  -0.645   0.773  1.00  0.00     0.006 C 
ENDBRANCH   8   9
BRANCH   8  11
ATOM     11  N   UNL     1       0.617   3.082   1.882  1.00  0.00    -0.280 N 
ATOM     12  C   UNL     1      -0.348   3.035   2.879  1.00  0.00     0.266 C 
ATOM     13  C   UNL     1       1.301   4.278   1.775  1.00  0.00     0.149 C 
ATOM     14  O   UNL     1      -1.154   2.146   3.092  1.00  0.00    -0.268 OA
ATOM     15  C   UNL     1      -0.278   4.250   3.743  1.00  0.00     0.080 C 
ATOM     16  S   UNL     1       0.828   5.366   3.072  1.00  0.00    -0.054 SA
ATOM     17  S   UNL     1       2.432   4.738   0.634  1.00  0.00    -0.052 S 
ATOM     18  C   UNL     1      -1.008   4.296   4.868  1.00  0.00     0.024 C 
BRANCH  18  19
ATOM     19  C   UNL     1      -1.162   5.306   5.918  1.00  0.00    -0.049 C 
ATOM     20  C   UNL     1      -1.860   4.800   7.163  1.00  0.00     0.044 C 
ATOM     21  C   UNL     1      -0.832   6.603   5.755  1.00  0.00     0.011 C 
BRANCH  21  22
ATOM     22  C   UNL     1      -0.971   7.716   6.705  1.00  0.00    -0.025 A 
ATOM     23  C   UNL     1      -1.447   8.937   6.207  1.00  0.00     0.008 A 
ATOM     24  C   UNL     1      -0.546   7.647   8.035  1.00  0.00     0.008 A 
ATOM     25  C   UNL     1      -1.515  10.063   7.027  1.00  0.00     0.001 A 
ATOM     26  C   UNL     1      -0.623   8.773   8.860  1.00  0.00     0.001 A 
ATOM     27  C   UNL     1      -1.105   9.980   8.355  1.00  0.00     0.000 A 
ENDBRANCH  21  22
ENDBRANCH  18  19
ENDBRANCH   8  11
ENDBRANCH   5   8
ENDBRANCH   3   4
ENDBRANCH   2   3
ENDBRANCH   1   2
BRANCH   1  28
ATOM     28  C   UNL     1       1.871   0.225  -5.035  1.00  0.00     0.002 C 
BRANCH  28  29
ATOM     29  C   UNL     1       2.809  -0.978  -4.896  1.00  0.00     0.021 C 
BRANCH  29  30
ATOM     30  C   UNL     1       2.148  -2.336  -5.113  1.00  0.00     0.116 C 
BRANCH  30  31
ATOM     31  N   UNL     1       1.561  -2.446  -6.439  1.00  0.00    -0.352 N 
ATOM     32  C   UNL     1       1.842  -3.337  -7.444  1.00  0.00     0.251 C 
ATOM     33  H   UNL     1       0.860  -1.786  -6.646  1.00  0.00     0.163 HD
ATOM     34  O   UNL     1       1.411  -3.139  -8.576  1.00  0.00    -0.269 OA
BRANCH  32  35
ATOM     35  C   UNL     1       2.671  -4.527  -7.162  1.00  0.00     0.039 A 
ATOM     36  C   UNL     1       3.684  -4.874  -8.059  1.00  0.00     0.014 A 
ATOM     37  C   UNL     1       2.443  -5.305  -6.022  1.00  0.00     0.014 A 
ATOM     38  C   UNL     1       4.502  -5.971  -7.785  1.00  0.00     0.010 A 
ATOM     39  C   UNL     1       3.306  -6.354  -5.715  1.00  0.00     0.010 A 
ATOM     40  C   UNL     1       4.341  -6.702  -6.596  1.00  0.00    -0.014 A 
BRANCH  40  41
ATOM     41  C   UNL     1       5.261  -7.817  -6.253  1.00  0.00     0.031 A 
ATOM     42  C   UNL     1       4.744  -9.223  -6.117  1.00  0.00     0.074 A 
ATOM     43  C   UNL     1       6.556  -7.547  -5.991  1.00  0.00     0.049 A 
ATOM     44  N   UNL     1       5.396 -10.313  -5.805  1.00  0.00    -0.248 NA
ATOM     45  C   UNL     1       3.303  -9.431  -6.335  1.00  0.00     0.031 C 
ATOM     46  C   UNL     1       7.160  -6.213  -6.007  1.00  0.00     0.029 A 
ATOM     47  N   UNL     1       7.591  -8.375  -5.639  1.00  0.00    -0.354 N 
ATOM     48  C   UNL     1       4.446 -11.327  -5.759  1.00  0.00     0.074 A 
ATOM     49  C   UNL     1       3.165 -10.716  -6.040  1.00  0.00     0.031 C 
ATOM     50  C   UNL     1       8.460  -6.314  -5.689  1.00  0.00     0.029 A 
ATOM     51  C   UNL     1       8.776  -7.713  -5.417  1.00  0.00     0.049 A 
ATOM     52  H   UNL     1       7.496  -9.351  -5.553  1.00  0.00     0.167 HD
ATOM     53  C   UNL     1       4.626 -12.650  -5.533  1.00  0.00     0.034 A 
ATOM     54  C   UNL     1       9.981  -8.177  -5.032  1.00  0.00     0.034 A 
ATOM     55  C   UNL     1       5.907 -13.258  -5.288  1.00  0.00     0.049 A 
ATOM     56  C   UNL     1      10.161  -9.655  -4.822  1.00  0.00     0.074 A 
ATOM     57  C   UNL     1       6.206 -14.601  -5.136  1.00  0.00     0.029 A 
ATOM     58  N   UNL     1       7.099 -12.566  -5.146  1.00  0.00    -0.354 N 
ATOM     59  N   UNL     1       9.282 -10.620  -4.948  1.00  0.00    -0.248 NA
ATOM     60  C   UNL     1      11.508 -10.115  -4.453  1.00  0.00     0.031 C 
ATOM     61  C   UNL     1       7.574 -14.717  -4.871  1.00  0.00     0.029 A 
ATOM     62  C   UNL     1       8.134 -13.450  -4.893  1.00  0.00     0.049 A 
ATOM     63  H   UNL     1       7.195 -11.588  -5.214  1.00  0.00     0.167 HD
ATOM     64  C   UNL     1       9.974 -11.801  -4.708  1.00  0.00     0.074 A 
ATOM     65  C   UNL     1      11.352 -11.432  -4.454  1.00  0.00     0.031 C 
ATOM     66  C   UNL     1       9.509 -13.074  -4.686  1.00  0.00     0.034 A 
BRANCH  53  67
ATOM     67  C   UNL     1       3.413 -13.543  -5.588  1.00  0.00     0.023 A 
ATOM     68  C   UNL     1       2.790 -13.796  -6.828  1.00  0.00     0.012 A 
ATOM     69  C   UNL     1       2.926 -14.179  -4.429  1.00  0.00     0.148 A 
ATOM     70  C   UNL     1       1.682 -14.638  -6.909  1.00  0.00     0.002 A 
ATOM     71  C   UNL     1       1.850 -15.055  -4.526  1.00  0.00     0.091 A 
ATOM     72  F   UNL     1       3.518 -13.912  -3.256  1.00  0.00    -0.205 F 
ATOM     73  C   UNL     1       1.219 -15.275  -5.761  1.00  0.00     0.022 A 
BRANCH  71  74
ATOM     74  S   UNL     1       1.230 -15.987  -3.121  1.00  0.00     0.127 S 
ATOM     75  O   UNL     1      -0.065 -15.347  -2.891  1.00  0.00    -0.237 OA
ATOM     76  O   UNL     1       1.151 -17.344  -3.664  1.00  0.00    -0.237 OA
ATOM     77  O   UNL     1       2.209 -15.813  -2.058  1.00  0.00    -0.744 OA
ENDBRANCH  71  74
ENDBRANCH  53  67
BRANCH  54  78
ATOM     78  C   UNL     1      11.127  -7.236  -4.881  1.00  0.00     0.023 A 
ATOM     79  C   UNL     1      12.192  -7.287  -5.801  1.00  0.00     0.012 A 
ATOM     80  C   UNL     1      11.155  -6.276  -3.851  1.00  0.00     0.148 A 
ATOM     81  C   UNL     1      13.280  -6.423  -5.679  1.00  0.00     0.002 A 
ATOM     82  C   UNL     1      12.214  -5.380  -3.769  1.00  0.00     0.091 A 
ATOM     83  F   UNL     1      10.137  -6.251  -2.979  1.00  0.00    -0.205 F 
ATOM     84  C   UNL     1      13.287  -5.463  -4.670  1.00  0.00     0.022 A 
BRANCH  82  85
ATOM     85  S   UNL     1      12.239  -4.027  -2.588  1.00  0.00     0.127 S 
ATOM     86  O   UNL     1      13.298  -4.448  -1.673  1.00  0.00    -0.237 OA
ATOM     87  O   UNL     1      12.577  -2.888  -3.441  1.00  0.00    -0.237 OA
ATOM     88  O   UNL     1      10.898  -3.974  -2.022  1.00  0.00    -0.744 OA
ENDBRANCH  82  85
ENDBRANCH  54  78
BRANCH  66  89
ATOM     89  C   UNL     1      10.502 -14.174  -4.407  1.00  0.00     0.023 A 
ATOM     90  C   UNL     1      11.036 -14.328  -3.112  1.00  0.00     0.012 A 
ATOM     91  C   UNL     1      10.855 -15.094  -5.414  1.00  0.00     0.148 A 
ATOM     92  C   UNL     1      11.934 -15.357  -2.834  1.00  0.00     0.002 A 
ATOM     93  C   UNL     1      11.710 -16.148  -5.116  1.00  0.00     0.091 A 
ATOM     94  F   UNL     1      10.350 -14.921  -6.645  1.00  0.00    -0.205 F 
ATOM     95  C   UNL     1      12.261 -16.273  -3.831  1.00  0.00     0.022 A 
BRANCH  93  96
ATOM     96  S   UNL     1      12.111 -17.431  -6.308  1.00  0.00     0.127 S 
ATOM     97  O   UNL     1      13.503 -17.118  -6.625  1.00  0.00    -0.237 OA
ATOM     98  O   UNL     1      11.923 -18.652  -5.524  1.00  0.00    -0.237 OA
ATOM     99  O   UNL     1      11.168 -17.267  -7.406  1.00  0.00    -0.744 OA
ENDBRANCH  93  96
ENDBRANCH  66  89
ENDBRANCH  40  41
ENDBRANCH  32  35
ENDBRANCH  30  31
ENDBRANCH  29  30
ENDBRANCH  28  29
ENDBRANCH   1  28
TORSDOF 20
