REMARK SMILES CC[C@H](C(=O)NCCCCCCNC(=O)c1ccc(-c2c3nc(c(-c4cccc(S(=O)(=O)[O-])c4F)c4ccc([nH]4)c(-c4cccc(S(=O)(=O)[O-])c4F)c4nc(c(-c5cccc(S(=O)(=O)[O-])c5F)c5ccc2[nH]5)C=C4)C=C3)cc1)N1C(=O)c2ccc([N+](=O)[O-])cc2C1=O
REMARK SMILES IDX 10 1 9 2 8 3 7 4 6 5 4 6 5 7 3 9 2 10 1 11 79 12 80 13 91 14
REMARK SMILES IDX 81 15 82 16 90 17 92 18 83 19 89 20 84 21 85 22 86 23 87 24
REMARK SMILES IDX 88 25 11 26 12 27 13 28 14 29 15 31 16 32 17 33 78 34 18 35
REMARK SMILES IDX 77 36 19 37 20 38 21 39 71 40 22 41 76 42 70 43 72 44 23 45
REMARK SMILES IDX 75 46 69 47 68 48 24 50 56 51 36 52 55 53 37 54 40 55 54 56
REMARK SMILES IDX 73 57 38 58 39 59 53 61 74 62 41 63 25 64 26 65 34 66 27 67
REMARK SMILES IDX 29 68 35 69 28 70 30 71 31 72 32 73 33 74 57 75 58 76 66 77
REMARK SMILES IDX 59 78 61 79 67 80 60 81 62 82 63 83 64 84 65 85 42 86 43 87
REMARK SMILES IDX 51 88 44 89 46 90 52 91 45 92 47 93 48 94 49 95 50 96
REMARK H PARENT 6 8 13 30 72 49 40 60
REMARK Flexibility Score: inf
ROOT
ATOM      1  C   UNL     1      -3.382   1.947   1.032  1.00  0.00     0.002 C 
ENDROOT
BRANCH   1   2
ATOM      2  C   UNL     1      -1.867   2.187   0.981  1.00  0.00     0.002 C 
BRANCH   2   3
ATOM      3  C   UNL     1      -1.022   1.165   1.747  1.00  0.00     0.021 C 
BRANCH   3   4
ATOM      4  C   UNL     1      -1.151  -0.252   1.199  1.00  0.00     0.116 C 
BRANCH   4   5
ATOM      5  N   UNL     1      -0.243  -0.475   0.088  1.00  0.00    -0.354 N 
ATOM      6  C   UNL     1       0.605  -1.504  -0.187  1.00  0.00     0.243 C 
ATOM      7  O   UNL     1       1.099  -1.519  -1.324  1.00  0.00    -0.273 OA
ATOM      8  H   UNL     1      -0.240   0.244  -0.585  1.00  0.00     0.163 HD
BRANCH   6   9
ATOM      9  C   UNL     1       0.861  -2.693   0.771  1.00  0.00     0.183 C 
BRANCH   9  10
ATOM     10  C   UNL     1       0.947  -2.494   2.288  1.00  0.00     0.032 C 
ATOM     11  C   UNL     1       1.776  -1.288   2.715  1.00  0.00     0.006 C 
ENDBRANCH   9  10
BRANCH   9  12
ATOM     12  N   UNL     1       0.008  -3.825   0.391  1.00  0.00    -0.262 N 
ATOM     13  C   UNL     1      -1.329  -3.754   0.108  1.00  0.00     0.262 C 
ATOM     14  C   UNL     1       0.432  -5.127   0.429  1.00  0.00     0.262 C 
ATOM     15  O   UNL     1      -2.089  -2.809   0.088  1.00  0.00    -0.269 OA
ATOM     16  C   UNL     1      -1.772  -5.109  -0.190  1.00  0.00     0.053 A 
ATOM     17  C   UNL     1      -0.709  -5.959   0.048  1.00  0.00     0.060 A 
ATOM     18  O   UNL     1       1.521  -5.577   0.730  1.00  0.00    -0.269 OA
ATOM     19  C   UNL     1      -3.003  -5.561  -0.628  1.00  0.00     0.022 A 
ATOM     20  C   UNL     1      -0.826  -7.329  -0.089  1.00  0.00     0.100 A 
ATOM     21  C   UNL     1      -3.151  -6.940  -0.804  1.00  0.00     0.086 A 
ATOM     22  C   UNL     1      -2.072  -7.814  -0.519  1.00  0.00     0.270 A 
BRANCH  22  23
ATOM     23  N   UNL     1      -2.264  -9.260  -0.685  1.00  0.00     0.062 N 
ATOM     24  O   UNL     1      -3.245  -9.637  -1.340  1.00  0.00    -0.258 OA
ATOM     25  O   UNL     1      -1.424 -10.012  -0.173  1.00  0.00    -0.258 OA
ENDBRANCH  22  23
ENDBRANCH   9  12
ENDBRANCH   6   9
ENDBRANCH   4   5
ENDBRANCH   3   4
ENDBRANCH   2   3
ENDBRANCH   1   2
BRANCH   1  26
ATOM     26  C   UNL     1      -3.972   1.773   2.434  1.00  0.00     0.021 C 
BRANCH  26  27
ATOM     27  C   UNL     1      -3.693   2.929   3.388  1.00  0.00     0.116 C 
BRANCH  27  28
ATOM     28  N   UNL     1      -4.278   4.176   2.918  1.00  0.00    -0.352 N 
ATOM     29  C   UNL     1      -5.120   5.034   3.582  1.00  0.00     0.251 C 
ATOM     30  H   UNL     1      -4.038   4.440   2.000  1.00  0.00     0.163 HD
ATOM     31  O   UNL     1      -5.681   5.944   2.981  1.00  0.00    -0.269 OA
BRANCH  29  32
ATOM     32  C   UNL     1      -5.351   4.838   5.027  1.00  0.00     0.039 A 
ATOM     33  C   UNL     1      -6.660   4.819   5.513  1.00  0.00     0.014 A 
ATOM     34  C   UNL     1      -4.269   4.655   5.893  1.00  0.00     0.014 A 
ATOM     35  C   UNL     1      -6.889   4.558   6.867  1.00  0.00     0.010 A 
ATOM     36  C   UNL     1      -4.502   4.332   7.224  1.00  0.00     0.010 A 
ATOM     37  C   UNL     1      -5.812   4.286   7.726  1.00  0.00    -0.014 A 
BRANCH  37  38
ATOM     38  C   UNL     1      -6.017   3.956   9.159  1.00  0.00     0.031 A 
ATOM     39  C   UNL     1      -5.459   4.867  10.218  1.00  0.00     0.074 A 
ATOM     40  C   UNL     1      -6.597   2.790   9.503  1.00  0.00     0.049 A 
ATOM     41  N   UNL     1      -5.407   4.694  11.512  1.00  0.00    -0.248 NA
ATOM     42  C   UNL     1      -4.850   6.126   9.757  1.00  0.00     0.031 C 
ATOM     43  C   UNL     1      -7.120   1.795   8.564  1.00  0.00     0.029 A 
ATOM     44  N   UNL     1      -6.809   2.225  10.736  1.00  0.00    -0.354 N 
ATOM     45  C   UNL     1      -4.723   5.794  12.015  1.00  0.00     0.074 A 
ATOM     46  C   UNL     1      -4.354   6.616  10.883  1.00  0.00     0.031 C 
ATOM     47  C   UNL     1      -7.584   0.740   9.254  1.00  0.00     0.029 A 
ATOM     48  C   UNL     1      -7.362   0.967  10.679  1.00  0.00     0.049 A 
ATOM     49  H   UNL     1      -6.587   2.678  11.581  1.00  0.00     0.167 HD
ATOM     50  C   UNL     1      -4.450   6.106  13.303  1.00  0.00     0.034 A 
ATOM     51  C   UNL     1      -7.644   0.089  11.662  1.00  0.00     0.034 A 
ATOM     52  C   UNL     1      -4.867   5.312  14.426  1.00  0.00     0.049 A 
ATOM     53  C   UNL     1      -7.364   0.478  13.090  1.00  0.00     0.074 A 
ATOM     54  C   UNL     1      -4.715   5.583  15.774  1.00  0.00     0.029 A 
ATOM     55  N   UNL     1      -5.517   4.091  14.333  1.00  0.00    -0.354 N 
ATOM     56  N   UNL     1      -6.845   1.588  13.555  1.00  0.00    -0.248 NA
ATOM     57  C   UNL     1      -7.739  -0.491  14.131  1.00  0.00     0.031 C 
ATOM     58  C   UNL     1      -5.260   4.516  16.497  1.00  0.00     0.029 A 
ATOM     59  C   UNL     1      -5.771   3.594  15.598  1.00  0.00     0.049 A 
ATOM     60  H   UNL     1      -5.761   3.644  13.490  1.00  0.00     0.167 HD
ATOM     61  C   UNL     1      -6.871   1.471  14.940  1.00  0.00     0.074 A 
ATOM     62  C   UNL     1      -7.467   0.186  15.240  1.00  0.00     0.031 C 
ATOM     63  C   UNL     1      -6.429   2.343  15.879  1.00  0.00     0.034 A 
BRANCH  50  64
ATOM     64  C   UNL     1      -3.712   7.391  13.572  1.00  0.00     0.023 A 
ATOM     65  C   UNL     1      -4.373   8.623  13.384  1.00  0.00     0.012 A 
ATOM     66  C   UNL     1      -2.392   7.383  14.063  1.00  0.00     0.148 A 
ATOM     67  C   UNL     1      -3.721   9.826  13.646  1.00  0.00     0.002 A 
ATOM     68  C   UNL     1      -1.764   8.586  14.364  1.00  0.00     0.091 A 
ATOM     69  F   UNL     1      -1.773   6.204  14.216  1.00  0.00    -0.205 F 
ATOM     70  C   UNL     1      -2.422   9.808  14.145  1.00  0.00     0.022 A 
BRANCH  68  71
ATOM     71  S   UNL     1      -0.121   8.666  15.086  1.00  0.00     0.127 S 
ATOM     72  O   UNL     1       0.671   9.164  13.963  1.00  0.00    -0.237 OA
ATOM     73  O   UNL     1      -0.308   9.627  16.174  1.00  0.00    -0.237 OA
ATOM     74  O   UNL     1       0.192   7.312  15.521  1.00  0.00    -0.744 OA
ENDBRANCH  68  71
ENDBRANCH  50  64
BRANCH  51  75
ATOM     75  C   UNL     1      -8.285  -1.216  11.336  1.00  0.00     0.023 A 
ATOM     76  C   UNL     1      -9.627  -1.433  11.703  1.00  0.00     0.012 A 
ATOM     77  C   UNL     1      -7.591  -2.228  10.645  1.00  0.00     0.148 A 
ATOM     78  C   UNL     1     -10.257  -2.645  11.418  1.00  0.00     0.002 A 
ATOM     79  C   UNL     1      -8.240  -3.413  10.315  1.00  0.00     0.091 A 
ATOM     80  F   UNL     1      -6.310  -2.008  10.314  1.00  0.00    -0.205 F 
ATOM     81  C   UNL     1      -9.568  -3.630  10.716  1.00  0.00     0.022 A 
BRANCH  79  82
ATOM     82  S   UNL     1      -7.472  -4.681   9.301  1.00  0.00     0.127 S 
ATOM     83  O   UNL     1      -7.220  -5.736  10.279  1.00  0.00    -0.237 OA
ATOM     84  O   UNL     1      -8.528  -4.978   8.332  1.00  0.00    -0.237 OA
ATOM     85  O   UNL     1      -6.289  -4.058   8.722  1.00  0.00    -0.744 OA
ENDBRANCH  79  82
ENDBRANCH  51  75
BRANCH  63  86
ATOM     86  C   UNL     1      -6.615   1.976  17.327  1.00  0.00     0.023 A 
ATOM     87  C   UNL     1      -5.787   1.001  17.915  1.00  0.00     0.012 A 
ATOM     88  C   UNL     1      -7.538   2.678  18.128  1.00  0.00     0.148 A 
ATOM     89  C   UNL     1      -5.889   0.715  19.276  1.00  0.00     0.002 A 
ATOM     90  C   UNL     1      -7.600   2.422  19.491  1.00  0.00     0.091 A 
ATOM     91  F   UNL     1      -8.327   3.591  17.542  1.00  0.00    -0.205 F 
ATOM     92  C   UNL     1      -6.784   1.434  20.066  1.00  0.00     0.022 A 
BRANCH  90  93
ATOM     93  S   UNL     1      -8.649   3.366  20.603  1.00  0.00     0.127 S 
ATOM     94  O   UNL     1      -9.662   2.376  20.968  1.00  0.00    -0.237 OA
ATOM     95  O   UNL     1      -7.722   3.716  21.680  1.00  0.00    -0.237 OA
ATOM     96  O   UNL     1      -9.137   4.500  19.831  1.00  0.00    -0.744 OA
ENDBRANCH  90  93
ENDBRANCH  63  86
ENDBRANCH  37  38
ENDBRANCH  29  32
ENDBRANCH  27  28
ENDBRANCH  26  27
ENDBRANCH   1  26
TORSDOF 19
