REMARK SMILES Nc1ccc(-c2cc(Cl)cc3c2O[C@H](C(F)(F)F)C(C(=O)NCCCCCCNC(=O)c2ccc(-c4c5nc(c(-c6cccc(S(=O)(=O)[O-])c6F)c6ccc([nH]6)c(-c6cccc(S(=O)(=O)[O-])c6F)c6nc(c(-c7cccc(S(=O)(=O)[O-])c7F)c7ccc4[nH]7)C=C6)C=C5)cc2)=C3)cc1
REMARK SMILES IDX 26 1 25 2 24 3 23 4 22 5 20 6 21 7 19 9 6 10 7 11 12 12 8 13
REMARK SMILES IDX 11 14 13 15 9 16 10 17 95 18 14 19 5 20 2 21 3 22 97 23 4 24
REMARK SMILES IDX 96 25 1 26 15 29 16 30 17 31 18 32 27 33 28 34 29 35 30 36
REMARK SMILES IDX 31 38 32 39 33 40 94 41 34 42 93 43 35 44 36 45 37 46 87 47
REMARK SMILES IDX 38 48 92 49 86 50 88 51 39 52 91 53 85 54 84 55 40 57 72 58
REMARK SMILES IDX 52 59 71 60 53 61 56 62 70 63 89 64 54 65 55 66 69 68 90 69
REMARK SMILES IDX 57 70 41 71 42 72 50 73 43 74 45 75 51 76 44 77 46 78 47 79
REMARK SMILES IDX 48 80 49 81 73 82 74 83 82 84 75 85 77 86 83 87 76 88 78 89
REMARK SMILES IDX 79 90 80 91 81 92 58 93 59 94 67 95 60 96 62 97 68 98 61 99
REMARK SMILES IDX 63 100 64 101 65 102 66 103
REMARK H PARENT 22 8 1 27 1 28 29 37 88 56 56 67
REMARK Flexibility Score: inf
ROOT
ATOM      1  C   UNL     1      -4.061  -4.767   8.361  1.00  0.00     0.002 C 
ENDROOT
BRANCH   1   2
ATOM      2  C   UNL     1      -4.521  -3.311   8.204  1.00  0.00     0.002 C 
BRANCH   2   3
ATOM      3  C   UNL     1      -3.999  -2.581   6.962  1.00  0.00     0.021 C 
BRANCH   3   4
ATOM      4  C   UNL     1      -4.335  -3.275   5.644  1.00  0.00     0.116 C 
BRANCH   4   5
ATOM      5  N   UNL     1      -5.660  -2.916   5.166  1.00  0.00    -0.352 N 
ATOM      6  C   UNL     1      -6.197  -2.294   4.091  1.00  0.00     0.251 C 
ATOM      7  O   UNL     1      -7.431  -2.228   4.084  1.00  0.00    -0.270 OA
ATOM      8  H   UNL     1      -6.359  -3.205   5.797  1.00  0.00     0.163 HD
BRANCH   6   9
ATOM      9  C   UNL     1      -5.427  -1.705   2.954  1.00  0.00     0.067 C 
ATOM     10  C   UNL     1      -3.369   0.140  -0.233  1.00  0.00     0.026 A 
ATOM     11  C   UNL     1      -4.112   0.696  -1.284  1.00  0.00     0.033 A 
ATOM     12  C   UNL     1      -4.075  -0.418   0.852  1.00  0.00     0.135 A 
ATOM     13  C   UNL     1      -5.508   0.686  -1.244  1.00  0.00     0.042 A 
ATOM     14  C   UNL     1      -5.472  -0.436   0.892  1.00  0.00     0.019 A 
ATOM     15  O   UNL     1      -3.334  -0.878   1.907  1.00  0.00    -0.475 OA
ATOM     16  Cl  UNL     1      -6.400   1.382  -2.543  1.00  0.00    -0.084 Cl
ATOM     17  C   UNL     1      -6.191   0.122  -0.166  1.00  0.00     0.032 A 
ATOM     18  C   UNL     1      -6.148  -1.010   2.052  1.00  0.00     0.025 C 
ATOM     19  C   UNL     1      -3.949  -1.874   2.757  1.00  0.00     0.314 C 
BRANCH  10  20
ATOM     20  C   UNL     1      -1.897   0.128  -0.266  1.00  0.00    -0.014 A 
ATOM     21  C   UNL     1       0.932   0.075  -0.129  1.00  0.00     0.031 A 
ATOM     22  C   UNL     1       0.205  -1.109  -0.232  1.00  0.00     0.026 A 
ATOM     23  C   UNL     1       0.241   1.287  -0.169  1.00  0.00     0.026 A 
ATOM     24  C   UNL     1      -1.192  -1.086  -0.290  1.00  0.00     0.011 A 
ATOM     25  C   UNL     1      -1.158   1.317  -0.225  1.00  0.00     0.011 A 
BRANCH  21  26
ATOM     26  N   UNL     1       2.317   0.051  -0.123  1.00  0.00    -0.399 N 
ATOM     27  H   UNL     1       2.794  -0.810  -0.095  1.00  0.00     0.156 HD
ATOM     28  H   UNL     1       2.825   0.894  -0.146  1.00  0.00     0.156 HD
ENDBRANCH  21  26
ENDBRANCH  10  20
BRANCH  19  29
ATOM     29  C   UNL     1      -3.568  -3.279   2.255  1.00  0.00     0.429 C 
ATOM     30  F   UNL     1      -2.234  -3.487   2.372  1.00  0.00    -0.167 F 
ATOM     31  F   UNL     1      -4.174  -4.262   2.962  1.00  0.00    -0.167 F 
ATOM     32  F   UNL     1      -3.896  -3.470   0.957  1.00  0.00    -0.167 F 
ENDBRANCH  19  29
ENDBRANCH   6   9
ENDBRANCH   4   5
ENDBRANCH   3   4
ENDBRANCH   2   3
ENDBRANCH   1   2
BRANCH   1  33
ATOM     33  C   UNL     1      -2.559  -5.012   8.195  1.00  0.00     0.021 C 
BRANCH  33  34
ATOM     34  C   UNL     1      -1.669  -4.229   9.153  1.00  0.00     0.116 C 
BRANCH  34  35
ATOM     35  N   UNL     1      -1.889  -4.595  10.543  1.00  0.00    -0.352 N 
ATOM     36  C   UNL     1      -0.969  -4.955  11.500  1.00  0.00     0.251 C 
ATOM     37  H   UNL     1      -2.827  -4.582  10.841  1.00  0.00     0.163 HD
ATOM     38  O   UNL     1      -1.349  -5.381  12.586  1.00  0.00    -0.269 OA
BRANCH  36  39
ATOM     39  C   UNL     1       0.475  -4.856  11.196  1.00  0.00     0.039 A 
ATOM     40  C   UNL     1       0.996  -3.707  10.597  1.00  0.00     0.014 A 
ATOM     41  C   UNL     1       1.308  -5.939  11.486  1.00  0.00     0.014 A 
ATOM     42  C   UNL     1       2.312  -3.703  10.147  1.00  0.00     0.010 A 
ATOM     43  C   UNL     1       2.651  -5.903  11.100  1.00  0.00     0.010 A 
ATOM     44  C   UNL     1       3.152  -4.804  10.385  1.00  0.00    -0.014 A 
BRANCH  44  45
ATOM     45  C   UNL     1       4.547  -4.780   9.878  1.00  0.00     0.031 A 
ATOM     46  C   UNL     1       5.002  -5.742   8.815  1.00  0.00     0.074 A 
ATOM     47  C   UNL     1       5.399  -3.849  10.349  1.00  0.00     0.049 A 
ATOM     48  N   UNL     1       6.174  -5.837   8.242  1.00  0.00    -0.248 NA
ATOM     49  C   UNL     1       4.019  -6.725   8.331  1.00  0.00     0.031 C 
ATOM     50  C   UNL     1       5.081  -2.872  11.392  1.00  0.00     0.029 A 
ATOM     51  N   UNL     1       6.694  -3.560  10.004  1.00  0.00    -0.354 N 
ATOM     52  C   UNL     1       6.082  -6.903   7.356  1.00  0.00     0.074 A 
ATOM     53  C   UNL     1       4.741  -7.434   7.473  1.00  0.00     0.031 C 
ATOM     54  C   UNL     1       6.135  -2.064  11.571  1.00  0.00     0.029 A 
ATOM     55  C   UNL     1       7.219  -2.493  10.693  1.00  0.00     0.049 A 
ATOM     56  H   UNL     1       7.199  -4.067   9.328  1.00  0.00     0.167 HD
ATOM     57  C   UNL     1       7.019  -7.380   6.503  1.00  0.00     0.034 A 
ATOM     58  C   UNL     1       8.437  -1.921  10.632  1.00  0.00     0.034 A 
ATOM     59  C   UNL     1       8.338  -6.828   6.355  1.00  0.00     0.049 A 
ATOM     60  C   UNL     1       9.457  -2.460   9.673  1.00  0.00     0.074 A 
ATOM     61  C   UNL     1       9.348  -7.237   5.503  1.00  0.00     0.029 A 
ATOM     62  N   UNL     1       8.827  -5.744   7.066  1.00  0.00    -0.354 N 
ATOM     63  N   UNL     1       9.330  -3.435   8.807  1.00  0.00    -0.248 NA
ATOM     64  C   UNL     1      10.778  -1.818   9.671  1.00  0.00     0.031 C 
ATOM     65  C   UNL     1      10.449  -6.395   5.695  1.00  0.00     0.029 A 
ATOM     66  C   UNL     1      10.122  -5.462   6.666  1.00  0.00     0.049 A 
ATOM     67  H   UNL     1       8.327  -5.247   7.754  1.00  0.00     0.167 HD
ATOM     68  C   UNL     1      10.552  -3.525   8.154  1.00  0.00     0.074 A 
ATOM     69  C   UNL     1      11.400  -2.487   8.707  1.00  0.00     0.031 C 
ATOM     70  C   UNL     1      10.940  -4.403   7.198  1.00  0.00     0.034 A 
BRANCH  57  71
ATOM     71  C   UNL     1       6.630  -8.525   5.610  1.00  0.00     0.023 A 
ATOM     72  C   UNL     1       5.859  -8.262   4.460  1.00  0.00     0.012 A 
ATOM     73  C   UNL     1       7.075  -9.837   5.862  1.00  0.00     0.148 A 
ATOM     74  C   UNL     1       5.522  -9.290   3.581  1.00  0.00     0.002 A 
ATOM     75  C   UNL     1       6.758 -10.853   4.967  1.00  0.00     0.091 A 
ATOM     76  F   UNL     1       7.790 -10.067   6.972  1.00  0.00    -0.205 F 
ATOM     77  C   UNL     1       5.978 -10.582   3.829  1.00  0.00     0.022 A 
BRANCH  75  78
ATOM     78  S   UNL     1       7.338 -12.541   5.168  1.00  0.00     0.127 S 
ATOM     79  O   UNL     1       6.104 -13.234   5.535  1.00  0.00    -0.237 OA
ATOM     80  O   UNL     1       7.841 -12.857   3.831  1.00  0.00    -0.237 OA
ATOM     81  O   UNL     1       8.360 -12.492   6.205  1.00  0.00    -0.744 OA
ENDBRANCH  75  78
ENDBRANCH  57  71
BRANCH  58  82
ATOM     82  C   UNL     1       8.709  -0.732  11.482  1.00  0.00     0.023 A 
ATOM     83  C   UNL     1       8.691   0.548  10.898  1.00  0.00     0.012 A 
ATOM     84  C   UNL     1       8.848  -0.857  12.878  1.00  0.00     0.148 A 
ATOM     85  C   UNL     1       8.800   1.689  11.693  1.00  0.00     0.002 A 
ATOM     86  C   UNL     1       8.911   0.284  13.668  1.00  0.00     0.091 A 
ATOM     87  F   UNL     1       8.857  -2.089  13.404  1.00  0.00    -0.205 F 
ATOM     88  C   UNL     1       8.896   1.558  13.077  1.00  0.00     0.022 A 
BRANCH  86  89
ATOM     89  S   UNL     1       8.906   0.223  15.462  1.00  0.00     0.127 S 
ATOM     90  O   UNL     1      10.162   0.895  15.788  1.00  0.00    -0.237 OA
ATOM     91  O   UNL     1       7.699   0.985  15.780  1.00  0.00    -0.237 OA
ATOM     92  O   UNL     1       8.848  -1.189  15.813  1.00  0.00    -0.744 OA
ENDBRANCH  86  89
ENDBRANCH  58  82
BRANCH  70  93
ATOM     93  C   UNL     1      12.348  -4.302   6.681  1.00  0.00     0.023 A 
ATOM     94  C   UNL     1      13.394  -4.872   7.430  1.00  0.00     0.012 A 
ATOM     95  C   UNL     1      12.615  -3.757   5.411  1.00  0.00     0.148 A 
ATOM     96  C   UNL     1      14.692  -4.898   6.924  1.00  0.00     0.002 A 
ATOM     97  C   UNL     1      13.906  -3.812   4.899  1.00  0.00     0.091 A 
ATOM     98  F   UNL     1      11.600  -3.211   4.724  1.00  0.00    -0.205 F 
ATOM     99  C   UNL     1      14.946  -4.379   5.656  1.00  0.00     0.022 A 
BRANCH  97 100
ATOM    100  S   UNL     1      14.321  -3.233   3.250  1.00  0.00     0.127 S 
ATOM    101  O   UNL     1      15.174  -2.083   3.545  1.00  0.00    -0.237 OA
ATOM    102  O   UNL     1      15.022  -4.386   2.686  1.00  0.00    -0.237 OA
ATOM    103  O   UNL     1      13.055  -2.915   2.603  1.00  0.00    -0.744 OA
ENDBRANCH  97 100
ENDBRANCH  70  93
ENDBRANCH  44  45
ENDBRANCH  36  39
ENDBRANCH  34  35
ENDBRANCH  33  34
ENDBRANCH   1  33
TORSDOF 19
