REMARK SMILES COc1ccc(C(=O)NCCCCCCNC(=O)c2ccc(-c3c4nc(c(-c5cccc(S(=O)(=O)[O-])c5F)c5ccc([nH]5)c(-c5cccc(S(=O)(=O)[O-])c5F)c5nc(c(-c6cccc(S(=O)(=O)[O-])c6F)c6ccc3[nH]6)C=C5)C=C4)cc2)cc1NCc1cc(C#N)cs1
REMARK SMILES IDX 12 1 11 2 10 3 9 4 7 5 8 6 6 8 3 9 4 10 83 11 5 12 82 13
REMARK SMILES IDX 2 14 1 15 84 16 85 18 86 19 87 20 92 21 88 22 91 23 89 24
REMARK SMILES IDX 90 25 13 26 14 27 15 28 16 29 17 30 18 32 19 33 20 34 81 35
REMARK SMILES IDX 21 36 80 37 22 38 23 39 24 40 74 41 25 42 79 43 73 44 75 45
REMARK SMILES IDX 26 46 78 47 72 48 71 49 27 51 59 52 39 53 58 54 40 55 43 56
REMARK SMILES IDX 57 57 76 58 41 59 42 60 56 62 77 63 44 64 28 65 29 66 37 67
REMARK SMILES IDX 30 68 32 69 38 70 31 71 33 72 34 73 35 74 36 75 60 76 61 77
REMARK SMILES IDX 69 78 62 79 64 80 70 81 63 82 65 83 66 84 67 85 68 86 45 87
REMARK SMILES IDX 46 88 54 89 47 90 49 91 55 92 48 93 50 94 51 95 52 96 53 97
REMARK H PARENT 9 7 84 17 16 31 75 50 43 61
REMARK Flexibility Score: inf
ROOT
ATOM      1  C   UNL     1       6.164   3.786   6.387  1.00  0.00     0.002 C 
ENDROOT
BRANCH   1   2
ATOM      2  C   UNL     1       5.369   3.224   5.203  1.00  0.00     0.021 C 
BRANCH   2   3
ATOM      3  C   UNL     1       4.203   2.340   5.654  1.00  0.00     0.116 C 
BRANCH   3   4
ATOM      4  N   UNL     1       3.058   3.171   5.978  1.00  0.00    -0.352 N 
ATOM      5  C   UNL     1       1.910   3.470   5.291  1.00  0.00     0.251 C 
ATOM      6  O   UNL     1       1.110   4.242   5.822  1.00  0.00    -0.269 OA
ATOM      7  H   UNL     1       3.118   3.603   6.861  1.00  0.00     0.163 HD
BRANCH   5   8
ATOM      8  C   UNL     1       1.568   2.853   3.978  1.00  0.00     0.042 A 
ATOM      9  C   UNL     1       0.820   1.616   1.574  1.00  0.00     0.142 A 
ATOM     10  C   UNL     1      -0.146   2.193   2.416  1.00  0.00     0.049 A 
ATOM     11  C   UNL     1       2.186   1.638   1.920  1.00  0.00     0.078 A 
ATOM     12  C   UNL     1       0.220   2.769   3.631  1.00  0.00     0.018 A 
ATOM     13  C   UNL     1       2.518   2.369   3.072  1.00  0.00     0.043 A 
BRANCH   9  14
ATOM     14  O   UNL     1       0.317   1.205   0.364  1.00  0.00    -0.495 OA
ATOM     15  C   UNL     1       0.576  -0.146   0.009  1.00  0.00     0.278 C 
ENDBRANCH   9  14
BRANCH  11  16
ATOM     16  N   UNL     1       3.175   1.031   1.163  1.00  0.00    -0.377 N 
ATOM     17  H   UNL     1       2.969   0.866   0.215  1.00  0.00     0.161 HD
BRANCH  16  18
ATOM     18  C   UNL     1       4.496   0.611   1.634  1.00  0.00     0.160 C 
BRANCH  18  19
ATOM     19  C   UNL     1       4.658  -0.830   2.058  1.00  0.00     0.025 A 
ATOM     20  C   UNL     1       5.416  -1.318   3.108  1.00  0.00     0.036 A 
ATOM     21  S   UNL     1       3.952  -2.119   1.171  1.00  0.00    -0.146 S 
ATOM     22  C   UNL     1       5.378  -2.744   3.216  1.00  0.00     0.063 A 
ATOM     23  C   UNL     1       4.636  -3.309   2.204  1.00  0.00     0.084 A 
BRANCH  22  24
ATOM     24  C   UNL     1       5.995  -3.474   4.290  1.00  0.00     0.100 C 
ATOM     25  N   UNL     1       6.413  -3.909   5.280  1.00  0.00    -0.192 NA
ENDBRANCH  22  24
ENDBRANCH  18  19
ENDBRANCH  16  18
ENDBRANCH  11  16
ENDBRANCH   5   8
ENDBRANCH   3   4
ENDBRANCH   2   3
ENDBRANCH   1   2
BRANCH   1  26
ATOM     26  C   UNL     1       6.847   2.713   7.244  1.00  0.00     0.002 C 
BRANCH  26  27
ATOM     27  C   UNL     1       7.803   1.800   6.472  1.00  0.00     0.021 C 
BRANCH  27  28
ATOM     28  C   UNL     1       8.984   2.539   5.851  1.00  0.00     0.116 C 
BRANCH  28  29
ATOM     29  N   UNL     1       9.813   3.165   6.873  1.00  0.00    -0.352 N 
ATOM     30  C   UNL     1      11.121   2.913   7.202  1.00  0.00     0.251 C 
ATOM     31  H   UNL     1       9.372   3.868   7.403  1.00  0.00     0.163 HD
ATOM     32  O   UNL     1      11.585   3.332   8.257  1.00  0.00    -0.269 OA
BRANCH  30  33
ATOM     33  C   UNL     1      11.958   2.122   6.279  1.00  0.00     0.039 A 
ATOM     34  C   UNL     1      12.749   1.093   6.792  1.00  0.00     0.014 A 
ATOM     35  C   UNL     1      11.939   2.385   4.906  1.00  0.00     0.014 A 
ATOM     36  C   UNL     1      13.461   0.273   5.915  1.00  0.00     0.010 A 
ATOM     37  C   UNL     1      12.588   1.521   4.030  1.00  0.00     0.010 A 
ATOM     38  C   UNL     1      13.345   0.449   4.526  1.00  0.00    -0.014 A 
BRANCH  38  39
ATOM     39  C   UNL     1      13.950  -0.520   3.578  1.00  0.00     0.031 A 
ATOM     40  C   UNL     1      14.994  -0.079   2.592  1.00  0.00     0.074 A 
ATOM     41  C   UNL     1      13.477  -1.783   3.544  1.00  0.00     0.049 A 
ATOM     42  N   UNL     1      15.573  -0.770   1.646  1.00  0.00    -0.248 NA
ATOM     43  C   UNL     1      15.432   1.325   2.663  1.00  0.00     0.031 C 
ATOM     44  C   UNL     1      12.414  -2.312   4.403  1.00  0.00     0.029 A 
ATOM     45  N   UNL     1      13.804  -2.842   2.735  1.00  0.00    -0.354 N 
ATOM     46  C   UNL     1      16.413   0.117   0.985  1.00  0.00     0.074 A 
ATOM     47  C   UNL     1      16.257   1.404   1.627  1.00  0.00     0.031 C 
ATOM     48  C   UNL     1      12.175  -3.590   4.074  1.00  0.00     0.029 A 
ATOM     49  C   UNL     1      13.030  -3.958   2.951  1.00  0.00     0.049 A 
ATOM     50  H   UNL     1      14.524  -2.806   2.064  1.00  0.00     0.167 HD
ATOM     51  C   UNL     1      17.247  -0.123  -0.055  1.00  0.00     0.034 A 
ATOM     52  C   UNL     1      12.986  -5.136   2.299  1.00  0.00     0.034 A 
ATOM     53  C   UNL     1      17.411  -1.409  -0.677  1.00  0.00     0.049 A 
ATOM     54  C   UNL     1      13.923  -5.372   1.147  1.00  0.00     0.074 A 
ATOM     55  C   UNL     1      18.303  -1.771  -1.671  1.00  0.00     0.029 A 
ATOM     56  N   UNL     1      16.650  -2.532  -0.395  1.00  0.00    -0.354 N 
ATOM     57  N   UNL     1      14.832  -4.571   0.647  1.00  0.00    -0.248 NA
ATOM     58  C   UNL     1      13.844  -6.681   0.481  1.00  0.00     0.031 C 
ATOM     59  C   UNL     1      18.039  -3.095  -2.034  1.00  0.00     0.029 A 
ATOM     60  C   UNL     1      17.022  -3.575  -1.226  1.00  0.00     0.049 A 
ATOM     61  H   UNL     1      15.949  -2.581   0.294  1.00  0.00     0.167 HD
ATOM     62  C   UNL     1      15.446  -5.284  -0.376  1.00  0.00     0.074 A 
ATOM     63  C   UNL     1      14.827  -6.593  -0.405  1.00  0.00     0.031 C 
ATOM     64  C   UNL     1      16.422  -4.885  -1.227  1.00  0.00     0.034 A 
BRANCH  51  65
ATOM     65  C   UNL     1      18.061   1.025  -0.591  1.00  0.00     0.023 A 
ATOM     66  C   UNL     1      19.125   1.553   0.168  1.00  0.00     0.012 A 
ATOM     67  C   UNL     1      17.824   1.522  -1.888  1.00  0.00     0.148 A 
ATOM     68  C   UNL     1      19.922   2.576  -0.344  1.00  0.00     0.002 A 
ATOM     69  C   UNL     1      18.652   2.507  -2.410  1.00  0.00     0.091 A 
ATOM     70  F   UNL     1      16.796   1.018  -2.586  1.00  0.00    -0.205 F 
ATOM     71  C   UNL     1      19.694   3.044  -1.636  1.00  0.00     0.022 A 
BRANCH  69  72
ATOM     72  S   UNL     1      18.493   3.117  -4.091  1.00  0.00     0.127 S 
ATOM     73  O   UNL     1      18.083   4.502  -3.864  1.00  0.00    -0.237 OA
ATOM     74  O   UNL     1      19.854   2.959  -4.603  1.00  0.00    -0.237 OA
ATOM     75  O   UNL     1      17.495   2.274  -4.735  1.00  0.00    -0.744 OA
ENDBRANCH  69  72
ENDBRANCH  51  65
BRANCH  52  76
ATOM     76  C   UNL     1      12.013  -6.186   2.712  1.00  0.00     0.023 A 
ATOM     77  C   UNL     1      12.480  -7.380   3.294  1.00  0.00     0.012 A 
ATOM     78  C   UNL     1      10.629  -6.009   2.514  1.00  0.00     0.148 A 
ATOM     79  C   UNL     1      11.588  -8.397   3.635  1.00  0.00     0.002 A 
ATOM     80  C   UNL     1       9.742  -7.009   2.893  1.00  0.00     0.091 A 
ATOM     81  F   UNL     1      10.207  -4.865   1.958  1.00  0.00    -0.205 F 
ATOM     82  C   UNL     1      10.221  -8.209   3.442  1.00  0.00     0.022 A 
BRANCH  80  83
ATOM     83  S   UNL     1       7.961  -6.829   2.737  1.00  0.00     0.127 S 
ATOM     84  O   UNL     1       7.657  -7.779   1.671  1.00  0.00    -0.237 OA
ATOM     85  O   UNL     1       7.497  -7.230   4.064  1.00  0.00    -0.237 OA
ATOM     86  O   UNL     1       7.721  -5.428   2.407  1.00  0.00    -0.744 OA
ENDBRANCH  80  83
ENDBRANCH  52  76
BRANCH  64  87
ATOM     87  C   UNL     1      16.905  -5.873  -2.257  1.00  0.00     0.023 A 
ATOM     88  C   UNL     1      16.079  -6.214  -3.345  1.00  0.00     0.012 A 
ATOM     89  C   UNL     1      18.213  -6.394  -2.191  1.00  0.00     0.148 A 
ATOM     90  C   UNL     1      16.536  -7.080  -4.338  1.00  0.00     0.002 A 
ATOM     91  C   UNL     1      18.680  -7.213  -3.210  1.00  0.00     0.091 A 
ATOM     92  F   UNL     1      18.979  -6.065  -1.140  1.00  0.00    -0.205 F 
ATOM     93  C   UNL     1      17.839  -7.569  -4.277  1.00  0.00     0.022 A 
BRANCH  91  94
ATOM     94  S   UNL     1      20.371  -7.817  -3.270  1.00  0.00     0.127 S 
ATOM     95  O   UNL     1      20.176  -9.261  -3.143  1.00  0.00    -0.237 OA
ATOM     96  O   UNL     1      20.807  -7.374  -4.594  1.00  0.00    -0.237 OA
ATOM     97  O   UNL     1      21.067  -7.188  -2.156  1.00  0.00    -0.744 OA
ENDBRANCH  91  94
ENDBRANCH  64  87
ENDBRANCH  38  39
ENDBRANCH  30  33
ENDBRANCH  28  29
ENDBRANCH  27  28
ENDBRANCH  26  27
ENDBRANCH   1  26
TORSDOF 21
