REMARK SMILES C[C@H]1OCC[C@@H]1C(=O)Nc1ccc(Cl)c(C(=O)NCCCCCCNC(=O)c2ccc(-c3c4nc(c(-c5cccc(S(=O)(=O)[O-])c5F)c5ccc([nH]5)c(-c5cccc(S(=O)(=O)[O-])c5F)c5nc(c(-c6cccc(S(=O)(=O)[O-])c6F)c6ccc3[nH]6)C=C5)C=C4)cc2)c1
REMARK SMILES IDX 22 1 21 2 20 3 19 4 18 5 16 6 17 7 15 9 10 10 11 11 91 12
REMARK SMILES IDX 12 13 13 14 14 15 9 16 7 17 8 18 6 20 1 21 2 22 3 23 4 24
REMARK SMILES IDX 5 25 23 26 24 27 25 28 26 29 27 31 28 32 29 33 90 34 30 35
REMARK SMILES IDX 89 36 31 37 32 38 33 39 83 40 34 41 88 42 82 43 84 44 35 45
REMARK SMILES IDX 87 46 81 47 80 48 36 50 68 51 48 52 67 53 49 54 52 55 66 56
REMARK SMILES IDX 85 57 50 58 51 59 65 61 86 62 53 63 37 64 38 65 46 66 39 67
REMARK SMILES IDX 41 68 47 69 40 70 42 71 43 72 44 73 45 74 69 75 70 76 78 77
REMARK SMILES IDX 71 78 73 79 79 80 72 81 74 82 75 83 76 84 77 85 54 86 55 87
REMARK SMILES IDX 63 88 56 89 58 90 64 91 57 92 59 93 60 94 61 95 62 96
REMARK H PARENT 18 8 9 19 25 30 84 49 52 60
REMARK Flexibility Score: inf
ROOT
ATOM      1  C   UNL     1      -1.697   6.082   7.247  1.00  0.00     0.002 C 
ENDROOT
BRANCH   1   2
ATOM      2  C   UNL     1      -2.273   4.824   7.906  1.00  0.00     0.002 C 
BRANCH   2   3
ATOM      3  C   UNL     1      -2.898   3.775   6.987  1.00  0.00     0.021 C 
BRANCH   3   4
ATOM      4  C   UNL     1      -2.087   3.374   5.767  1.00  0.00     0.116 C 
BRANCH   4   5
ATOM      5  N   UNL     1      -0.830   2.698   6.027  1.00  0.00    -0.352 N 
ATOM      6  C   UNL     1      -0.166   1.761   5.262  1.00  0.00     0.252 C 
ATOM      7  O   UNL     1       0.939   1.367   5.635  1.00  0.00    -0.269 OA
ATOM      8  H   UNL     1      -0.387   2.943   6.872  1.00  0.00     0.163 HD
BRANCH   6   9
ATOM      9  C   UNL     1      -0.802   1.109   4.084  1.00  0.00     0.060 A 
ATOM     10  C   UNL     1      -1.160  -0.944   2.854  1.00  0.00     0.042 A 
ATOM     11  C   UNL     1      -2.226  -0.355   2.193  1.00  0.00     0.028 A 
ATOM     12  C   UNL     1      -0.555  -0.267   3.912  1.00  0.00     0.041 A 
ATOM     13  C   UNL     1      -2.420   1.014   2.299  1.00  0.00     0.023 A 
ATOM     14  C   UNL     1      -1.589   1.760   3.130  1.00  0.00     0.053 A 
ATOM     15  Cl  UNL     1      -1.440   3.437   2.742  1.00  0.00    -0.083 Cl
BRANCH  10  16
ATOM     16  N   UNL     1      -0.659  -2.177   2.435  1.00  0.00    -0.326 N 
ATOM     17  C   UNL     1      -0.245  -2.545   1.178  1.00  0.00     0.230 C 
ATOM     18  O   UNL     1       0.034  -3.740   1.010  1.00  0.00    -0.274 OA
ATOM     19  H   UNL     1      -0.594  -2.872   3.129  1.00  0.00     0.169 HD
BRANCH  17  20
ATOM     20  C   UNL     1       0.008  -1.560   0.017  1.00  0.00     0.110 C 
ATOM     21  C   UNL     1       2.055  -0.128  -0.466  1.00  0.00     0.039 C 
ATOM     22  C   UNL     1       0.817  -0.324   0.405  1.00  0.00     0.127 C 
ATOM     23  O   UNL     1      -0.042   0.807   0.210  1.00  0.00    -0.378 OA
ATOM     24  C   UNL     1      -1.014   0.471  -0.781  1.00  0.00     0.161 C 
ATOM     25  C   UNL     1      -1.190  -1.036  -0.747  1.00  0.00     0.044 C 
ENDBRANCH  17  20
ENDBRANCH  10  16
ENDBRANCH   6   9
ENDBRANCH   4   5
ENDBRANCH   3   4
ENDBRANCH   2   3
ENDBRANCH   1   2
BRANCH   1  26
ATOM     26  C   UNL     1      -2.603   6.851   6.282  1.00  0.00     0.021 C 
BRANCH  26  27
ATOM     27  C   UNL     1      -3.986   7.226   6.801  1.00  0.00     0.116 C 
BRANCH  27  28
ATOM     28  N   UNL     1      -3.938   8.025   8.012  1.00  0.00    -0.352 N 
ATOM     29  C   UNL     1      -4.586   9.195   8.318  1.00  0.00     0.251 C 
ATOM     30  H   UNL     1      -3.352   7.674   8.720  1.00  0.00     0.163 HD
ATOM     31  O   UNL     1      -4.299   9.785   9.360  1.00  0.00    -0.269 OA
BRANCH  29  32
ATOM     32  C   UNL     1      -5.608   9.764   7.409  1.00  0.00     0.039 A 
ATOM     33  C   UNL     1      -5.631  11.148   7.213  1.00  0.00     0.014 A 
ATOM     34  C   UNL     1      -6.568   8.960   6.786  1.00  0.00     0.014 A 
ATOM     35  C   UNL     1      -6.589  11.720   6.371  1.00  0.00     0.010 A 
ATOM     36  C   UNL     1      -7.475   9.523   5.889  1.00  0.00     0.010 A 
ATOM     37  C   UNL     1      -7.510  10.911   5.687  1.00  0.00    -0.014 A 
BRANCH  37  38
ATOM     38  C   UNL     1      -8.526  11.508   4.779  1.00  0.00     0.031 A 
ATOM     39  C   UNL     1      -9.995  11.380   5.090  1.00  0.00     0.074 A 
ATOM     40  C   UNL     1      -8.132  12.116   3.642  1.00  0.00     0.049 A 
ATOM     41  N   UNL     1     -11.024  11.819   4.411  1.00  0.00    -0.248 NA
ATOM     42  C   UNL     1     -10.359  10.639   6.310  1.00  0.00     0.031 C 
ATOM     43  C   UNL     1      -6.746  12.234   3.182  1.00  0.00     0.029 A 
ATOM     44  N   UNL     1      -8.862  12.729   2.654  1.00  0.00    -0.354 N 
ATOM     45  C   UNL     1     -12.150  11.378   5.096  1.00  0.00     0.074 A 
ATOM     46  C   UNL     1     -11.681  10.608   6.226  1.00  0.00     0.031 C 
ATOM     47  C   UNL     1      -6.726  12.883   2.006  1.00  0.00     0.029 A 
ATOM     48  C   UNL     1      -8.095  13.209   1.617  1.00  0.00     0.049 A 
ATOM     49  H   UNL     1      -9.842  12.818   2.685  1.00  0.00     0.167 HD
ATOM     50  C   UNL     1     -13.457  11.616   4.827  1.00  0.00     0.034 A 
ATOM     51  C   UNL     1      -8.453  13.839   0.481  1.00  0.00     0.034 A 
ATOM     52  C   UNL     1     -13.920  12.426   3.732  1.00  0.00     0.049 A 
ATOM     53  C   UNL     1      -9.906  14.153   0.246  1.00  0.00     0.074 A 
ATOM     54  C   UNL     1     -15.217  12.799   3.427  1.00  0.00     0.029 A 
ATOM     55  N   UNL     1     -13.104  12.987   2.763  1.00  0.00    -0.354 N 
ATOM     56  N   UNL     1     -10.945  13.865   0.992  1.00  0.00    -0.248 NA
ATOM     57  C   UNL     1     -10.233  14.923  -0.964  1.00  0.00     0.031 C 
ATOM     58  C   UNL     1     -15.187  13.570   2.260  1.00  0.00     0.029 A 
ATOM     59  C   UNL     1     -13.868  13.703   1.857  1.00  0.00     0.049 A 
ATOM     60  H   UNL     1     -12.125  12.890   2.724  1.00  0.00     0.167 HD
ATOM     61  C   UNL     1     -12.039  14.454   0.368  1.00  0.00     0.074 A 
ATOM     62  C   UNL     1     -11.532  15.133  -0.807  1.00  0.00     0.031 C 
ATOM     63  C   UNL     1     -13.345  14.426   0.728  1.00  0.00     0.034 A 
BRANCH  50  64
ATOM     64  C   UNL     1     -14.485  11.039   5.767  1.00  0.00     0.023 A 
ATOM     65  C   UNL     1     -14.624  11.576   7.063  1.00  0.00     0.012 A 
ATOM     66  C   UNL     1     -15.360  10.018   5.346  1.00  0.00     0.148 A 
ATOM     67  C   UNL     1     -15.592  11.085   7.937  1.00  0.00     0.002 A 
ATOM     68  C   UNL     1     -16.354   9.565   6.207  1.00  0.00     0.091 A 
ATOM     69  F   UNL     1     -15.201   9.506   4.117  1.00  0.00    -0.205 F 
ATOM     70  C   UNL     1     -16.463  10.088   7.505  1.00  0.00     0.022 A 
BRANCH  68  71
ATOM     71  S   UNL     1     -17.577   8.344   5.718  1.00  0.00     0.127 S 
ATOM     72  O   UNL     1     -17.184   7.192   6.530  1.00  0.00    -0.237 OA
ATOM     73  O   UNL     1     -18.829   8.981   6.131  1.00  0.00    -0.237 OA
ATOM     74  O   UNL     1     -17.427   8.174   4.281  1.00  0.00    -0.744 OA
ENDBRANCH  68  71
ENDBRANCH  50  64
BRANCH  51  75
ATOM     75  C   UNL     1      -7.411  14.285  -0.487  1.00  0.00     0.023 A 
ATOM     76  C   UNL     1      -7.149  15.661  -0.641  1.00  0.00     0.012 A 
ATOM     77  C   UNL     1      -6.672  13.357  -1.245  1.00  0.00     0.148 A 
ATOM     78  C   UNL     1      -6.199  16.106  -1.561  1.00  0.00     0.002 A 
ATOM     79  C   UNL     1      -5.687  13.805  -2.119  1.00  0.00     0.091 A 
ATOM     80  F   UNL     1      -6.943  12.053  -1.094  1.00  0.00    -0.205 F 
ATOM     81  C   UNL     1      -5.462  15.179  -2.292  1.00  0.00     0.022 A 
BRANCH  79  82
ATOM     82  S   UNL     1      -4.604  12.675  -3.000  1.00  0.00     0.127 S 
ATOM     83  O   UNL     1      -5.107  12.787  -4.369  1.00  0.00    -0.237 OA
ATOM     84  O   UNL     1      -3.289  13.282  -2.778  1.00  0.00    -0.237 OA
ATOM     85  O   UNL     1      -4.782  11.383  -2.362  1.00  0.00    -0.744 OA
ENDBRANCH  79  82
ENDBRANCH  51  75
BRANCH  63  86
ATOM     86  C   UNL     1     -14.321  15.197  -0.123  1.00  0.00     0.023 A 
ATOM     87  C   UNL     1     -14.651  14.739  -1.414  1.00  0.00     0.012 A 
ATOM     88  C   UNL     1     -14.956  16.349   0.384  1.00  0.00     0.148 A 
ATOM     89  C   UNL     1     -15.564  15.438  -2.203  1.00  0.00     0.002 A 
ATOM     90  C   UNL     1     -15.903  17.011  -0.388  1.00  0.00     0.091 A 
ATOM     91  F   UNL     1     -14.615  16.783   1.606  1.00  0.00    -0.205 F 
ATOM     92  C   UNL     1     -16.198  16.566  -1.686  1.00  0.00     0.022 A 
BRANCH  90  93
ATOM     93  S   UNL     1     -16.838  18.410   0.240  1.00  0.00     0.127 S 
ATOM     94  O   UNL     1     -16.176  19.532  -0.421  1.00  0.00    -0.237 OA
ATOM     95  O   UNL     1     -18.190  18.127  -0.246  1.00  0.00    -0.237 OA
ATOM     96  O   UNL     1     -16.700  18.362   1.690  1.00  0.00    -0.744 OA
ENDBRANCH  90  93
ENDBRANCH  63  86
ENDBRANCH  37  38
ENDBRANCH  29  32
ENDBRANCH  27  28
ENDBRANCH  26  27
ENDBRANCH   1  26
TORSDOF 18
