REMARK SMILES CC(=O)NS(=O)(=O)c1cc(-c2ccn(C(F)F)c(=O)c2)ccc1C(=O)NCCCCCCNC(=O)c1ccc(-c2c3nc(c(-c4cccc(S(=O)(=O)[O-])c4F)c4ccc([nH]4)c(-c4cccc(S(=O)(=O)[O-])c4F)c4nc(c(-c5cccc(S(=O)(=O)[O-])c5F)c5ccc2[nH]5)C=C4)C=C3)cc1
REMARK SMILES IDX 30 1 29 2 28 3 27 4 26 5 24 6 25 7 23 9 8 10 9 11 10 12
REMARK SMILES IDX 22 13 21 14 5 15 6 16 7 17 4 18 1 19 2 20 3 21 11 23 12 24
REMARK SMILES IDX 20 25 13 26 18 27 14 28 19 29 15 30 16 31 17 32 31 33 32 34
REMARK SMILES IDX 33 35 34 36 35 38 36 39 37 40 98 41 38 42 97 43 39 44 40 45
REMARK SMILES IDX 41 46 91 47 42 48 96 49 90 50 92 51 43 52 95 53 89 54 88 55
REMARK SMILES IDX 44 57 76 58 56 59 75 60 57 61 60 62 74 63 93 64 58 65 59 66
REMARK SMILES IDX 73 68 94 69 61 70 45 71 46 72 54 73 47 74 49 75 55 76 48 77
REMARK SMILES IDX 50 78 51 79 52 80 53 81 77 82 78 83 86 84 79 85 81 86 87 87
REMARK SMILES IDX 80 88 82 89 83 90 84 91 85 92 62 93 63 94 71 95 64 96 66 97
REMARK SMILES IDX 72 98 65 99 67 100 68 101 69 102 70 103
REMARK H PARENT 26 8 4 22 33 37 92 56 60 67
REMARK Flexibility Score: inf
ROOT
ATOM      1  C   UNL     1       1.641   1.623   5.076  1.00  0.00     0.002 C 
ENDROOT
BRANCH   1   2
ATOM      2  C   UNL     1       3.170   1.636   4.983  1.00  0.00     0.002 C 
BRANCH   2   3
ATOM      3  C   UNL     1       3.896   0.382   4.473  1.00  0.00     0.021 C 
BRANCH   3   4
ATOM      4  C   UNL     1       3.285  -0.343   3.279  1.00  0.00     0.116 C 
BRANCH   4   5
ATOM      5  N   UNL     1       3.046   0.500   2.127  1.00  0.00    -0.352 N 
ATOM      6  C   UNL     1       2.780   0.156   0.830  1.00  0.00     0.252 C 
ATOM      7  O   UNL     1       2.563   1.036  -0.000  1.00  0.00    -0.269 OA
ATOM      8  H   UNL     1       3.080   1.468   2.304  1.00  0.00     0.163 HD
BRANCH   6   9
ATOM      9  C   UNL     1       2.816  -1.243   0.358  1.00  0.00     0.060 A 
ATOM     10  C   UNL     1       1.946  -2.272   0.718  1.00  0.00     0.101 A 
ATOM     11  C   UNL     1       2.087  -3.549   0.132  1.00  0.00     0.031 A 
ATOM     12  C   UNL     1       3.025  -3.797  -0.879  1.00  0.00    -0.017 A 
ATOM     13  C   UNL     1       3.749  -1.487  -0.668  1.00  0.00     0.016 A 
ATOM     14  C   UNL     1       3.845  -2.741  -1.285  1.00  0.00     0.009 A 
BRANCH  10  15
ATOM     15  S   UNL     1       0.517  -2.090   1.745  1.00  0.00     0.264 S 
ATOM     16  O   UNL     1       0.927  -2.473   3.073  1.00  0.00    -0.201 OA
ATOM     17  O   UNL     1      -0.569  -2.780   1.078  1.00  0.00    -0.201 OA
BRANCH  15  18
ATOM     18  N   UNL     1       0.136  -0.489   1.788  1.00  0.00    -0.249 N 
ATOM     19  C   UNL     1      -0.592  -0.134  -0.589  1.00  0.00     0.115 C 
ATOM     20  C   UNL     1      -0.569   0.282   0.855  1.00  0.00     0.230 C 
ATOM     21  O   UNL     1      -1.050   1.345   1.228  1.00  0.00    -0.274 OA
ATOM     22  H   UNL     1       0.449  -0.003   2.585  1.00  0.00     0.183 HD
ENDBRANCH  15  18
ENDBRANCH  10  15
BRANCH  12  23
ATOM     23  C   UNL     1       3.131  -5.132  -1.518  1.00  0.00    -0.011 A 
ATOM     24  C   UNL     1       4.405  -5.795  -1.745  1.00  0.00     0.027 A 
ATOM     25  C   UNL     1       2.006  -5.764  -1.905  1.00  0.00     0.080 A 
ATOM     26  C   UNL     1       4.457  -7.012  -2.300  1.00  0.00     0.095 A 
ATOM     27  C   UNL     1       2.048  -7.116  -2.532  1.00  0.00     0.255 A 
ATOM     28  N   UNL     1       3.306  -7.673  -2.681  1.00  0.00    -0.258 N 
ATOM     29  O   UNL     1       0.992  -7.637  -2.874  1.00  0.00    -0.269 OA
BRANCH  28  30
ATOM     30  C   UNL     1       3.372  -8.991  -3.259  1.00  0.00     0.451 C 
ATOM     31  F   UNL     1       2.667  -9.887  -2.527  1.00  0.00    -0.185 F 
ATOM     32  F   UNL     1       2.876  -8.995  -4.521  1.00  0.00    -0.185 F 
ENDBRANCH  28  30
ENDBRANCH  12  23
ENDBRANCH   6   9
ENDBRANCH   4   5
ENDBRANCH   3   4
ENDBRANCH   2   3
ENDBRANCH   1   2
BRANCH   1  33
ATOM     33  C   UNL     1       0.965   0.496   5.859  1.00  0.00     0.021 C 
BRANCH  33  34
ATOM     34  C   UNL     1       1.522   0.168   7.238  1.00  0.00     0.116 C 
BRANCH  34  35
ATOM     35  N   UNL     1       1.539   1.298   8.145  1.00  0.00    -0.352 N 
ATOM     36  C   UNL     1       1.284   1.353   9.495  1.00  0.00     0.251 C 
ATOM     37  H   UNL     1       1.770   2.160   7.730  1.00  0.00     0.163 HD
ATOM     38  O   UNL     1       1.307   2.450  10.052  1.00  0.00    -0.269 OA
BRANCH  36  39
ATOM     39  C   UNL     1       0.958   0.137  10.285  1.00  0.00     0.039 A 
ATOM     40  C   UNL     1       0.018   0.257  11.316  1.00  0.00     0.014 A 
ATOM     41  C   UNL     1       1.587  -1.094  10.076  1.00  0.00     0.014 A 
ATOM     42  C   UNL     1      -0.312  -0.850  12.106  1.00  0.00     0.010 A 
ATOM     43  C   UNL     1       1.210  -2.215  10.822  1.00  0.00     0.010 A 
ATOM     44  C   UNL     1       0.272  -2.101  11.857  1.00  0.00    -0.014 A 
BRANCH  44  45
ATOM     45  C   UNL     1      -0.072  -3.283  12.692  1.00  0.00     0.031 A 
ATOM     46  C   UNL     1       0.961  -3.906  13.594  1.00  0.00     0.074 A 
ATOM     47  C   UNL     1      -1.299  -3.833  12.605  1.00  0.00     0.049 A 
ATOM     48  N   UNL     1       0.844  -4.931  14.399  1.00  0.00    -0.248 NA
ATOM     49  C   UNL     1       2.311  -3.317  13.570  1.00  0.00     0.031 C 
ATOM     50  C   UNL     1      -2.366  -3.382  11.709  1.00  0.00     0.029 A 
ATOM     51  N   UNL     1      -1.851  -4.902  13.267  1.00  0.00    -0.354 N 
ATOM     52  C   UNL     1       2.104  -5.130  14.951  1.00  0.00     0.074 A 
ATOM     53  C   UNL     1       2.981  -4.139  14.366  1.00  0.00     0.031 C 
ATOM     54  C   UNL     1      -3.444  -4.165  11.882  1.00  0.00     0.029 A 
ATOM     55  C   UNL     1      -3.147  -5.174  12.895  1.00  0.00     0.049 A 
ATOM     56  H   UNL     1      -1.364  -5.425  13.944  1.00  0.00     0.167 HD
ATOM     57  C   UNL     1       2.492  -6.030  15.886  1.00  0.00     0.034 A 
ATOM     58  C   UNL     1      -4.004  -6.117  13.332  1.00  0.00     0.034 A 
ATOM     59  C   UNL     1       1.608  -6.973  16.518  1.00  0.00     0.049 A 
ATOM     60  C   UNL     1      -3.576  -7.042  14.440  1.00  0.00     0.074 A 
ATOM     61  C   UNL     1       1.888  -7.868  17.536  1.00  0.00     0.029 A 
ATOM     62  N   UNL     1       0.270  -7.136  16.200  1.00  0.00    -0.354 N 
ATOM     63  N   UNL     1      -2.428  -7.101  15.069  1.00  0.00    -0.248 NA
ATOM     64  C   UNL     1      -4.579  -7.999  14.932  1.00  0.00     0.031 C 
ATOM     65  C   UNL     1       0.714  -8.569  17.838  1.00  0.00     0.029 A 
ATOM     66  C   UNL     1      -0.294  -8.110  17.006  1.00  0.00     0.049 A 
ATOM     67  H   UNL     1      -0.210  -6.632  15.503  1.00  0.00     0.167 HD
ATOM     68  C   UNL     1      -2.579  -8.074  16.051  1.00  0.00     0.074 A 
ATOM     69  C   UNL     1      -3.939  -8.562  15.949  1.00  0.00     0.031 C 
ATOM     70  C   UNL     1      -1.668  -8.538  16.941  1.00  0.00     0.034 A 
BRANCH  57  71
ATOM     71  C   UNL     1       3.925  -5.980  16.344  1.00  0.00     0.023 A 
ATOM     72  C   UNL     1       4.334  -4.939  17.202  1.00  0.00     0.012 A 
ATOM     73  C   UNL     1       4.852  -6.973  15.971  1.00  0.00     0.148 A 
ATOM     74  C   UNL     1       5.649  -4.867  17.657  1.00  0.00     0.002 A 
ATOM     75  C   UNL     1       6.154  -6.914  16.458  1.00  0.00     0.091 A 
ATOM     76  F   UNL     1       4.455  -7.941  15.134  1.00  0.00    -0.205 F 
ATOM     77  C   UNL     1       6.556  -5.859  17.294  1.00  0.00     0.022 A 
BRANCH  75  78
ATOM     78  S   UNL     1       7.373  -8.183  16.094  1.00  0.00     0.127 S 
ATOM     79  O   UNL     1       8.166  -7.539  15.048  1.00  0.00    -0.237 OA
ATOM     80  O   UNL     1       8.064  -8.334  17.375  1.00  0.00    -0.237 OA
ATOM     81  O   UNL     1       6.611  -9.353  15.680  1.00  0.00    -0.744 OA
ENDBRANCH  75  78
ENDBRANCH  57  71
BRANCH  58  82
ATOM     82  C   UNL     1      -5.394  -6.158  12.799  1.00  0.00     0.023 A 
ATOM     83  C   UNL     1      -6.454  -5.717  13.616  1.00  0.00     0.012 A 
ATOM     84  C   UNL     1      -5.671  -6.589  11.488  1.00  0.00     0.148 A 
ATOM     85  C   UNL     1      -7.767  -5.730  13.147  1.00  0.00     0.002 A 
ATOM     86  C   UNL     1      -6.977  -6.554  11.011  1.00  0.00     0.091 A 
ATOM     87  F   UNL     1      -4.654  -7.024  10.732  1.00  0.00    -0.205 F 
ATOM     88  C   UNL     1      -8.028  -6.137  11.842  1.00  0.00     0.022 A 
BRANCH  86  89
ATOM     89  S   UNL     1      -7.374  -6.943   9.302  1.00  0.00     0.127 S 
ATOM     90  O   UNL     1      -7.868  -8.312   9.413  1.00  0.00    -0.237 OA
ATOM     91  O   UNL     1      -8.395  -5.943   8.985  1.00  0.00    -0.237 OA
ATOM     92  O   UNL     1      -6.125  -6.768   8.572  1.00  0.00    -0.744 OA
ENDBRANCH  86  89
ENDBRANCH  58  82
BRANCH  70  93
ATOM     93  C   UNL     1      -2.111  -9.614  17.895  1.00  0.00     0.023 A 
ATOM     94  C   UNL     1      -2.265 -10.934  17.425  1.00  0.00     0.012 A 
ATOM     95  C   UNL     1      -2.312  -9.339  19.261  1.00  0.00     0.148 A 
ATOM     96  C   UNL     1      -2.639 -11.957  18.296  1.00  0.00     0.002 A 
ATOM     97  C   UNL     1      -2.647 -10.372  20.130  1.00  0.00     0.091 A 
ATOM     98  F   UNL     1      -2.186  -8.074  19.689  1.00  0.00    -0.205 F 
ATOM     99  C   UNL     1      -2.819 -11.679  19.649  1.00  0.00     0.022 A 
BRANCH  97 100
ATOM    100  S   UNL     1      -2.809 -10.091  21.898  1.00  0.00     0.127 S 
ATOM    101  O   UNL     1      -4.236  -9.810  22.030  1.00  0.00    -0.237 OA
ATOM    102  O   UNL     1      -2.385 -11.371  22.468  1.00  0.00    -0.237 OA
ATOM    103  O   UNL     1      -1.909  -8.983  22.192  1.00  0.00    -0.744 OA
ENDBRANCH  97 100
ENDBRANCH  70  93
ENDBRANCH  44  45
ENDBRANCH  36  39
ENDBRANCH  34  35
ENDBRANCH  33  34
ENDBRANCH   1  33
TORSDOF 20
