REMARK SMILES Cc1nc(C[N@@H+]2CCC[C@H]2C(=O)NCCCCCCNC(=O)c2ccc(-c3c4nc(c(-c5cccc(S(=O)(=O)[O-])c5F)c5ccc([nH]5)c(-c5cccc(S(=O)(=O)[O-])c5F)c5nc(c(-c6cccc(S(=O)(=O)[O-])c6F)c6ccc3[nH]6)C=C5)C=C4)cc2)cs1
REMARK SMILES IDX 17 1 16 2 15 3 14 4 13 5 11 6 12 7 10 9 6 10 7 11 8 13 9 14
REMARK SMILES IDX 5 15 4 16 1 17 2 18 3 19 87 20 86 21 18 22 19 23 20 24 21 25
REMARK SMILES IDX 22 27 23 28 24 29 85 30 25 31 84 32 26 33 27 34 28 35 78 36
REMARK SMILES IDX 29 37 83 38 77 39 79 40 30 41 82 42 76 43 75 44 31 46 63 47
REMARK SMILES IDX 43 48 62 49 44 50 47 51 61 52 80 53 45 54 46 55 60 57 81 58
REMARK SMILES IDX 48 59 32 60 33 61 41 62 34 63 36 64 42 65 35 66 37 67 38 68
REMARK SMILES IDX 39 69 40 70 64 71 65 72 73 73 66 74 68 75 74 76 67 77 69 78
REMARK SMILES IDX 70 79 71 80 72 81 49 82 50 83 58 84 51 85 53 86 59 87 52 88
REMARK SMILES IDX 54 89 55 90 56 91 57 92
REMARK H PARENT 13 8 6 12 20 26 79 45 47 56
REMARK Flexibility Score: inf
ROOT
ATOM      1  C   UNL     1       5.803  -7.042  -2.666  1.00  0.00     0.002 C 
ENDROOT
BRANCH   1   2
ATOM      2  C   UNL     1       4.281  -7.119  -2.512  1.00  0.00     0.002 C 
BRANCH   2   3
ATOM      3  C   UNL     1       3.671  -6.090  -1.557  1.00  0.00     0.021 C 
BRANCH   3   4
ATOM      4  C   UNL     1       4.011  -4.640  -1.884  1.00  0.00     0.116 C 
BRANCH   4   5
ATOM      5  N   UNL     1       3.420  -4.228  -3.142  1.00  0.00    -0.351 N 
ATOM      6  C   UNL     1       2.568  -3.225  -3.480  1.00  0.00     0.278 C 
ATOM      7  O   UNL     1       2.215  -3.212  -4.669  1.00  0.00    -0.268 OA
ATOM      8  H   UNL     1       3.690  -4.788  -3.905  1.00  0.00     0.163 HD
BRANCH   6   9
ATOM      9  C   UNL     1       1.990  -2.182  -2.491  1.00  0.00     0.274 C 
ATOM     10  N   UNL     1       2.773  -2.034  -1.258  1.00  0.00    -0.320 N 
ATOM     11  C   UNL     1       3.657  -0.890  -1.399  1.00  0.00     0.263 C 
ATOM     12  H   UNL     1       3.371  -2.852  -1.139  1.00  0.00     0.349 HD
ATOM     13  C   UNL     1       2.921   0.077  -2.299  1.00  0.00     0.068 C 
ATOM     14  C   UNL     1       2.011  -0.794  -3.152  1.00  0.00     0.081 C 
BRANCH  10  15
ATOM     15  C   UNL     1       2.002  -2.136  -0.015  1.00  0.00     0.321 C 
BRANCH  15  16
ATOM     16  C   UNL     1       1.025  -1.024   0.223  1.00  0.00     0.106 A 
ATOM     17  C   UNL     1      -2.469   0.007  -0.047  1.00  0.00     0.079 C 
ATOM     18  C   UNL     1      -1.006  -0.134   0.182  1.00  0.00     0.090 A 
ATOM     19  N   UNL     1      -0.298  -1.184  -0.174  1.00  0.00    -0.241 NA
ATOM     20  S   UNL     1      -0.129   1.124   0.954  1.00  0.00    -0.127 S 
ATOM     21  C   UNL     1       1.287   0.170   0.871  1.00  0.00     0.096 A 
ENDBRANCH  15  16
ENDBRANCH  10  15
ENDBRANCH   6   9
ENDBRANCH   4   5
ENDBRANCH   3   4
ENDBRANCH   2   3
ENDBRANCH   1   2
BRANCH   1  22
ATOM     22  C   UNL     1       6.596  -7.076  -1.357  1.00  0.00     0.021 C 
BRANCH  22  23
ATOM     23  C   UNL     1       6.324  -8.291  -0.479  1.00  0.00     0.116 C 
BRANCH  23  24
ATOM     24  N   UNL     1       6.694  -9.534  -1.135  1.00  0.00    -0.352 N 
ATOM     25  C   UNL     1       7.470 -10.563  -0.664  1.00  0.00     0.251 C 
ATOM     26  H   UNL     1       6.338  -9.654  -2.045  1.00  0.00     0.163 HD
ATOM     27  O   UNL     1       7.836 -11.452  -1.425  1.00  0.00    -0.269 OA
BRANCH  25  28
ATOM     28  C   UNL     1       7.872 -10.589   0.760  1.00  0.00     0.039 A 
ATOM     29  C   UNL     1       9.187 -10.931   1.085  1.00  0.00     0.014 A 
ATOM     30  C   UNL     1       6.952 -10.296   1.771  1.00  0.00     0.014 A 
ATOM     31  C   UNL     1       9.588 -10.943   2.423  1.00  0.00     0.010 A 
ATOM     32  C   UNL     1       7.375 -10.231   3.096  1.00  0.00     0.010 A 
ATOM     33  C   UNL     1       8.691 -10.574   3.439  1.00  0.00    -0.014 A 
BRANCH  33  34
ATOM     34  C   UNL     1       9.097 -10.578   4.868  1.00  0.00     0.031 A 
ATOM     35  C   UNL     1       8.415 -11.509   5.838  1.00  0.00     0.074 A 
ATOM     36  C   UNL     1      10.027  -9.707   5.306  1.00  0.00     0.049 A 
ATOM     37  N   UNL     1       8.575 -11.616   7.131  1.00  0.00    -0.248 NA
ATOM     38  C   UNL     1       7.399 -12.423   5.285  1.00  0.00     0.031 C 
ATOM     39  C   UNL     1      10.718  -8.715   4.479  1.00  0.00     0.029 A 
ATOM     40  N   UNL     1      10.538  -9.501   6.564  1.00  0.00    -0.354 N 
ATOM     41  C   UNL     1       7.668 -12.584   7.549  1.00  0.00     0.074 A 
ATOM     42  C   UNL     1       6.926 -13.000   6.380  1.00  0.00     0.031 C 
ATOM     43  C   UNL     1      11.565  -8.011   5.249  1.00  0.00     0.029 A 
ATOM     44  C   UNL     1      11.457  -8.479   6.627  1.00  0.00     0.049 A 
ATOM     45  H   UNL     1      10.272 -10.035   7.347  1.00  0.00     0.167 HD
ATOM     46  C   UNL     1       7.491 -13.107   8.785  1.00  0.00     0.034 A 
ATOM     47  C   UNL     1      12.130  -7.973   7.680  1.00  0.00     0.034 A 
ATOM     48  C   UNL     1       8.258 -12.722   9.938  1.00  0.00     0.049 A 
ATOM     49  C   UNL     1      11.925  -8.589   9.040  1.00  0.00     0.074 A 
ATOM     50  C   UNL     1       8.190 -13.225  11.225  1.00  0.00     0.029 A 
ATOM     51  N   UNL     1       9.238 -11.742   9.942  1.00  0.00    -0.354 N 
ATOM     52  N   UNL     1      11.151  -9.588   9.387  1.00  0.00    -0.248 NA
ATOM     53  C   UNL     1      12.720  -8.034  10.146  1.00  0.00     0.031 C 
ATOM     54  C   UNL     1       9.120 -12.539  12.012  1.00  0.00     0.029 A 
ATOM     55  C   UNL     1       9.789 -11.631  11.207  1.00  0.00     0.049 A 
ATOM     56  H   UNL     1       9.504 -11.205   9.161  1.00  0.00     0.167 HD
ATOM     57  C   UNL     1      11.408  -9.817  10.735  1.00  0.00     0.074 A 
ATOM     58  C   UNL     1      12.419  -8.862  11.136  1.00  0.00     0.031 C 
ATOM     59  C   UNL     1      10.849 -10.727  11.569  1.00  0.00     0.034 A 
BRANCH  46  60
ATOM     60  C   UNL     1       6.470 -14.205   8.944  1.00  0.00     0.023 A 
ATOM     61  C   UNL     1       6.734 -15.478   8.398  1.00  0.00     0.012 A 
ATOM     62  C   UNL     1       5.291 -14.003   9.688  1.00  0.00     0.148 A 
ATOM     63  C   UNL     1       5.827 -16.524   8.560  1.00  0.00     0.002 A 
ATOM     64  C   UNL     1       4.414 -15.064   9.886  1.00  0.00     0.091 A 
ATOM     65  F   UNL     1       5.050 -12.782  10.185  1.00  0.00    -0.205 F 
ATOM     66  C   UNL     1       4.674 -16.320   9.313  1.00  0.00     0.022 A 
BRANCH  64  67
ATOM     67  S   UNL     1       2.942 -14.932  10.906  1.00  0.00     0.127 S 
ATOM     68  O   UNL     1       1.879 -15.087   9.913  1.00  0.00    -0.237 OA
ATOM     69  O   UNL     1       3.096 -16.067  11.815  1.00  0.00    -0.237 OA
ATOM     70  O   UNL     1       3.008 -13.625  11.544  1.00  0.00    -0.744 OA
ENDBRANCH  64  67
ENDBRANCH  46  60
BRANCH  47  71
ATOM     71  C   UNL     1      13.110  -6.864   7.493  1.00  0.00     0.023 A 
ATOM     72  C   UNL     1      14.483  -7.114   7.692  1.00  0.00     0.012 A 
ATOM     73  C   UNL     1      12.695  -5.566   7.141  1.00  0.00     0.148 A 
ATOM     74  C   UNL     1      15.417  -6.082   7.599  1.00  0.00     0.002 A 
ATOM     75  C   UNL     1      13.638  -4.554   6.993  1.00  0.00     0.091 A 
ATOM     76  F   UNL     1      11.385  -5.342   6.965  1.00  0.00    -0.205 F 
ATOM     77  C   UNL     1      14.996  -4.804   7.242  1.00  0.00     0.022 A 
BRANCH  75  78
ATOM     78  S   UNL     1      13.197  -2.911   6.415  1.00  0.00     0.127 S 
ATOM     79  O   UNL     1      13.300  -2.125   7.641  1.00  0.00    -0.237 OA
ATOM     80  O   UNL     1      14.241  -2.647   5.423  1.00  0.00    -0.237 OA
ATOM     81  O   UNL     1      11.859  -3.041   5.853  1.00  0.00    -0.744 OA
ENDBRANCH  75  78
ENDBRANCH  47  71
BRANCH  59  82
ATOM     82  C   UNL     1      11.368 -10.795  12.982  1.00  0.00     0.023 A 
ATOM     83  C   UNL     1      11.071  -9.767  13.897  1.00  0.00     0.012 A 
ATOM     84  C   UNL     1      12.097 -11.920  13.417  1.00  0.00     0.148 A 
ATOM     85  C   UNL     1      11.526  -9.838  15.213  1.00  0.00     0.002 A 
ATOM     86  C   UNL     1      12.500 -12.009  14.743  1.00  0.00     0.091 A 
ATOM     87  F   UNL     1      12.386 -12.880  12.525  1.00  0.00    -0.205 F 
ATOM     88  C   UNL     1      12.229 -10.963  15.639  1.00  0.00     0.022 A 
BRANCH  86  89
ATOM     89  S   UNL     1      13.320 -13.465  15.402  1.00  0.00     0.127 S 
ATOM     90  O   UNL     1      14.689 -12.982  15.576  1.00  0.00    -0.237 OA
ATOM     91  O   UNL     1      12.590 -13.693  16.650  1.00  0.00    -0.237 OA
ATOM     92  O   UNL     1      13.148 -14.510  14.402  1.00  0.00    -0.744 OA
ENDBRANCH  86  89
ENDBRANCH  59  82
ENDBRANCH  33  34
ENDBRANCH  25  28
ENDBRANCH  23  24
ENDBRANCH  22  23
ENDBRANCH   1  22
TORSDOF 18
