REMARK SMILES COc1cccc([C@@H]2CN(C(=O)c3cnn(C)c3)C[C@H]2C(=O)NCCCCCCNC(=O)c2ccc(-c3c4nc(c(-c5cccc(S(=O)(=O)[O-])c5F)c5ccc([nH]5)c(-c5cccc(S(=O)(=O)[O-])c5F)c5nc(c(-c6cccc(S(=O)(=O)[O-])c6F)c6ccc3[nH]6)C=C5)C=C4)cc2)c1OC
REMARK SMILES IDX 27 1 26 2 25 3 24 4 23 5 21 6 22 7 20 9 8 10 9 11 10 12
REMARK SMILES IDX 19 13 7 14 3 15 4 16 96 17 5 18 6 19 2 20 1 21 97 22 98 23
REMARK SMILES IDX 11 24 12 25 13 26 14 27 18 28 15 29 16 30 17 31 28 32 29 33
REMARK SMILES IDX 30 34 31 35 32 37 33 38 34 39 95 40 35 41 94 42 36 43 37 44
REMARK SMILES IDX 38 45 88 46 39 47 93 48 87 49 89 50 40 51 92 52 86 53 85 54
REMARK SMILES IDX 41 56 73 57 53 58 72 59 54 60 57 61 71 62 90 63 55 64 56 65
REMARK SMILES IDX 70 67 91 68 58 69 42 70 43 71 51 72 44 73 46 74 52 75 45 76
REMARK SMILES IDX 47 77 48 78 49 79 50 80 74 81 75 82 83 83 76 84 78 85 84 86
REMARK SMILES IDX 77 87 79 88 80 89 81 90 82 91 59 92 60 93 68 94 61 95 63 96
REMARK SMILES IDX 69 97 62 98 64 99 65 100 66 101 67 102
REMARK H PARENT 23 8 30 36 89 55 57 66
REMARK Flexibility Score: inf
ROOT
ATOM      1  C   UNL     1       6.021   3.171   9.260  1.00  0.00     0.002 C 
ENDROOT
BRANCH   1   2
ATOM      2  C   UNL     1       4.714   3.425   8.503  1.00  0.00     0.002 C 
BRANCH   2   3
ATOM      3  C   UNL     1       4.865   3.712   7.005  1.00  0.00     0.021 C 
BRANCH   3   4
ATOM      4  C   UNL     1       5.623   2.640   6.225  1.00  0.00     0.116 C 
BRANCH   4   5
ATOM      5  N   UNL     1       4.867   1.402   6.146  1.00  0.00    -0.356 N 
ATOM      6  C   UNL     1       4.386   0.709   5.081  1.00  0.00     0.225 C 
ATOM      7  O   UNL     1       3.773  -0.337   5.322  1.00  0.00    -0.275 OA
ATOM      8  H   UNL     1       4.667   0.994   7.019  1.00  0.00     0.163 HD
BRANCH   6   9
ATOM      9  C   UNL     1       4.573   1.167   3.646  1.00  0.00     0.107 C 
ATOM     10  C   UNL     1       3.908   2.520   3.330  1.00  0.00     0.057 C 
ATOM     11  C   UNL     1       4.901   3.247   2.419  1.00  0.00     0.129 C 
ATOM     12  N   UNL     1       6.192   2.648   2.708  1.00  0.00    -0.337 N 
ATOM     13  C   UNL     1       6.041   1.314   3.261  1.00  0.00     0.134 C 
BRANCH  10  14
ATOM     14  C   UNL     1       2.498   2.442   2.770  1.00  0.00     0.004 A 
ATOM     15  C   UNL     1       0.861   1.754   1.106  1.00  0.00     0.161 A 
ATOM     16  C   UNL     1      -0.148   2.406   1.824  1.00  0.00     0.050 A 
ATOM     17  C   UNL     1       2.189   1.779   1.563  1.00  0.00     0.164 A 
ATOM     18  C   UNL     1       0.151   3.051   3.020  1.00  0.00     0.004 A 
ATOM     19  C   UNL     1       1.461   3.062   3.492  1.00  0.00     0.008 A 
BRANCH  15  20
ATOM     20  O   UNL     1       0.553   1.173  -0.097  1.00  0.00    -0.493 OA
ATOM     21  C   UNL     1      -0.354   0.082   0.065  1.00  0.00     0.278 C 
ENDBRANCH  15  20
BRANCH  17  22
ATOM     22  O   UNL     1       3.257   1.253   0.882  1.00  0.00    -0.493 OA
ATOM     23  C   UNL     1       3.053  -0.002   0.247  1.00  0.00     0.278 C 
ENDBRANCH  17  22
ENDBRANCH  10  14
BRANCH  12  24
ATOM     24  C   UNL     1       7.434   3.068   2.253  1.00  0.00     0.257 C 
ATOM     25  O   UNL     1       8.421   2.337   2.341  1.00  0.00    -0.269 OA
BRANCH  24  26
ATOM     26  C   UNL     1       7.518   4.363   1.609  1.00  0.00     0.077 A 
ATOM     27  C   UNL     1       8.208   4.672   0.416  1.00  0.00     0.149 A 
ATOM     28  C   UNL     1       7.018   5.585   2.023  1.00  0.00     0.122 A 
ATOM     29  N   UNL     1       8.043   5.943   0.037  1.00  0.00    -0.181 NA
ATOM     30  N   UNL     1       7.346   6.484   1.050  1.00  0.00    -0.275 N 
ATOM     31  C   UNL     1       6.985   7.881   1.003  1.00  0.00     0.173 C 
ENDBRANCH  24  26
ENDBRANCH  12  24
ENDBRANCH   6   9
ENDBRANCH   4   5
ENDBRANCH   3   4
ENDBRANCH   2   3
ENDBRANCH   1   2
BRANCH   1  32
ATOM     32  C   UNL     1       7.113   4.226   9.067  1.00  0.00     0.021 C 
BRANCH  32  33
ATOM     33  C   UNL     1       6.708   5.650   9.429  1.00  0.00     0.116 C 
BRANCH  33  34
ATOM     34  N   UNL     1       6.404   5.796  10.843  1.00  0.00    -0.352 N 
ATOM     35  C   UNL     1       6.833   6.768  11.715  1.00  0.00     0.251 C 
ATOM     36  H   UNL     1       5.814   5.108  11.227  1.00  0.00     0.163 HD
ATOM     37  O   UNL     1       6.614   6.659  12.918  1.00  0.00    -0.269 OA
BRANCH  35  38
ATOM     38  C   UNL     1       7.575   7.937  11.196  1.00  0.00     0.039 A 
ATOM     39  C   UNL     1       8.762   8.323  11.825  1.00  0.00     0.014 A 
ATOM     40  C   UNL     1       7.096   8.649  10.093  1.00  0.00     0.014 A 
ATOM     41  C   UNL     1       9.497   9.397  11.318  1.00  0.00     0.010 A 
ATOM     42  C   UNL     1       7.858   9.682   9.555  1.00  0.00     0.010 A 
ATOM     43  C   UNL     1       9.060  10.072  10.167  1.00  0.00    -0.014 A 
BRANCH  43  44
ATOM     44  C   UNL     1       9.820  11.209   9.591  1.00  0.00     0.031 A 
ATOM     45  C   UNL     1       9.206  12.583   9.584  1.00  0.00     0.074 A 
ATOM     46  C   UNL     1      11.001  10.992   8.982  1.00  0.00     0.049 A 
ATOM     47  N   UNL     1       9.633  13.676   9.009  1.00  0.00    -0.248 NA
ATOM     48  C   UNL     1       7.923  12.738  10.292  1.00  0.00     0.031 C 
ATOM     49  C   UNL     1      11.671   9.695   8.872  1.00  0.00     0.029 A 
ATOM     50  N   UNL     1      11.832  11.853   8.310  1.00  0.00    -0.354 N 
ATOM     51  C   UNL     1       8.654  14.633   9.243  1.00  0.00     0.074 A 
ATOM     52  C   UNL     1       7.600  13.988   9.993  1.00  0.00     0.031 C 
ATOM     53  C   UNL     1      12.806   9.845   8.168  1.00  0.00     0.029 A 
ATOM     54  C   UNL     1      12.931  11.240   7.755  1.00  0.00     0.049 A 
ATOM     55  H   UNL     1      11.658  12.819   8.232  1.00  0.00     0.167 HD
ATOM     56  C   UNL     1       8.646  15.940   8.889  1.00  0.00     0.034 A 
ATOM     57  C   UNL     1      13.923  11.744   6.995  1.00  0.00     0.034 A 
ATOM     58  C   UNL     1       9.726  16.594   8.203  1.00  0.00     0.049 A 
ATOM     59  C   UNL     1      13.920  13.214   6.669  1.00  0.00     0.074 A 
ATOM     60  C   UNL     1       9.847  17.930   7.864  1.00  0.00     0.029 A 
ATOM     61  N   UNL     1      10.879  15.962   7.764  1.00  0.00    -0.354 N 
ATOM     62  N   UNL     1      13.047  14.131   7.009  1.00  0.00    -0.248 NA
ATOM     63  C   UNL     1      15.055  13.726   5.886  1.00  0.00     0.031 C 
ATOM     64  C   UNL     1      11.077  18.107   7.221  1.00  0.00     0.029 A 
ATOM     65  C   UNL     1      11.722  16.881   7.166  1.00  0.00     0.049 A 
ATOM     66  H   UNL     1      11.069  15.002   7.863  1.00  0.00     0.167 HD
ATOM     67  C   UNL     1      13.548  15.333   6.522  1.00  0.00     0.074 A 
ATOM     68  C   UNL     1      14.805  15.030   5.870  1.00  0.00     0.031 C 
ATOM     69  C   UNL     1      13.008  16.574   6.595  1.00  0.00     0.034 A 
BRANCH  56  70
ATOM     70  C   UNL     1       7.456  16.765   9.298  1.00  0.00     0.023 A 
ATOM     71  C   UNL     1       7.309  17.139  10.650  1.00  0.00     0.012 A 
ATOM     72  C   UNL     1       6.514  17.210   8.351  1.00  0.00     0.148 A 
ATOM     73  C   UNL     1       6.227  17.916  11.058  1.00  0.00     0.002 A 
ATOM     74  C   UNL     1       5.458  18.018   8.760  1.00  0.00     0.091 A 
ATOM     75  F   UNL     1       6.654  16.823   7.075  1.00  0.00    -0.205 F 
ATOM     76  C   UNL     1       5.308  18.364  10.113  1.00  0.00     0.022 A 
BRANCH  74  77
ATOM     77  S   UNL     1       4.267  18.698   7.599  1.00  0.00     0.127 S 
ATOM     78  O   UNL     1       3.120  17.815   7.802  1.00  0.00    -0.237 OA
ATOM     79  O   UNL     1       4.083  20.060   8.100  1.00  0.00    -0.237 OA
ATOM     80  O   UNL     1       4.901  18.618   6.290  1.00  0.00    -0.744 OA
ENDBRANCH  74  77
ENDBRANCH  56  70
BRANCH  57  81
ATOM     81  C   UNL     1      15.048  10.867   6.565  1.00  0.00     0.023 A 
ATOM     82  C   UNL     1      16.311  11.030   7.167  1.00  0.00     0.012 A 
ATOM     83  C   UNL     1      14.872   9.856   5.601  1.00  0.00     0.148 A 
ATOM     84  C   UNL     1      17.385  10.219   6.800  1.00  0.00     0.002 A 
ATOM     85  C   UNL     1      15.934   9.019   5.277  1.00  0.00     0.091 A 
ATOM     86  F   UNL     1      13.668   9.728   5.026  1.00  0.00    -0.205 F 
ATOM     87  C   UNL     1      17.194   9.207   5.864  1.00  0.00     0.022 A 
BRANCH  85  88
ATOM     88  S   UNL     1      15.739   7.611   4.178  1.00  0.00     0.127 S 
ATOM     89  O   UNL     1      16.355   8.103   2.950  1.00  0.00    -0.237 OA
ATOM     90  O   UNL     1      16.497   6.571   4.876  1.00  0.00    -0.237 OA
ATOM     91  O   UNL     1      14.304   7.366   4.122  1.00  0.00    -0.744 OA
ENDBRANCH  85  88
ENDBRANCH  57  81
BRANCH  69  92
ATOM     92  C   UNL     1      13.787  17.718   6.006  1.00  0.00     0.023 A 
ATOM     93  C   UNL     1      13.806  17.902   4.610  1.00  0.00     0.012 A 
ATOM     94  C   UNL     1      14.405  18.669   6.842  1.00  0.00     0.148 A 
ATOM     95  C   UNL     1      14.443  19.010   4.053  1.00  0.00     0.002 A 
ATOM     96  C   UNL     1      15.003  19.791   6.282  1.00  0.00     0.091 A 
ATOM     97  F   UNL     1      14.391  18.460   8.167  1.00  0.00    -0.205 F 
ATOM     98  C   UNL     1      15.029  19.960   4.888  1.00  0.00     0.022 A 
BRANCH  96  99
ATOM     99  S   UNL     1      15.699  21.108   7.286  1.00  0.00     0.127 S 
ATOM    100  O   UNL     1      17.134  20.877   7.128  1.00  0.00    -0.237 OA
ATOM    101  O   UNL     1      15.197  22.309   6.617  1.00  0.00    -0.237 OA
ATOM    102  O   UNL     1      15.175  20.905   8.630  1.00  0.00    -0.744 OA
ENDBRANCH  96  99
ENDBRANCH  69  92
ENDBRANCH  43  44
ENDBRANCH  35  38
ENDBRANCH  33  34
ENDBRANCH  32  33
ENDBRANCH   1  32
TORSDOF 21
