REMARK SMILES Cc1cc(C(=O)NCCCCCCNC(=O)c2ccc(-c3c4nc(c(-c5cccc(S(=O)(=O)[O-])c5F)c5ccc([nH]5)c(-c5cccc(S(=O)(=O)[O-])c5F)c5nc(c(-c6cccc(S(=O)(=O)[O-])c6F)c6ccc3[nH]6)C=C5)C=C4)cc2)ccc1NC(=O)c1ccc(=O)n(CCOc2ccccc2)n1
REMARK SMILES IDX 9 1 8 2 7 3 5 4 6 5 4 7 1 8 2 9 3 10 82 11 81 12 80 13 83 14
REMARK SMILES IDX 84 15 85 17 86 18 87 19 101 20 88 21 91 22 89 23 90 24 92 25
REMARK SMILES IDX 93 26 94 27 95 28 96 29 100 30 97 31 99 32 98 33 10 34 11 35
REMARK SMILES IDX 12 36 13 37 14 38 15 39 16 41 17 42 18 43 79 44 19 45 78 46
REMARK SMILES IDX 20 47 21 48 22 49 72 50 23 51 77 52 71 53 73 54 24 55 76 56
REMARK SMILES IDX 70 57 69 58 25 60 57 61 37 62 56 63 38 64 41 65 55 66 74 67
REMARK SMILES IDX 39 68 40 69 54 71 75 72 42 73 26 74 27 75 35 76 28 77 30 78
REMARK SMILES IDX 36 79 29 80 31 81 32 82 33 83 34 84 58 85 59 86 67 87 60 88
REMARK SMILES IDX 62 89 68 90 61 91 63 92 64 93 65 94 66 95 43 96 44 97 52 98
REMARK SMILES IDX 45 99 47 100 53 101 46 102 48 103 49 104 50 105 51 106
REMARK H PARENT 7 6 83 16 14 40 73 59 41 70
REMARK Flexibility Score: inf
ROOT
ATOM      1  C   UNL     1      -4.765  -1.631  -0.901  1.00  0.00     0.021 C 
ENDROOT
BRANCH   1   2
ATOM      2  C   UNL     1      -3.788  -1.707   0.275  1.00  0.00     0.116 C 
BRANCH   2   3
ATOM      3  N   UNL     1      -2.813  -2.779   0.107  1.00  0.00    -0.352 N 
ATOM      4  C   UNL     1      -1.445  -2.760  -0.030  1.00  0.00     0.251 C 
ATOM      5  O   UNL     1      -0.825  -3.821   0.035  1.00  0.00    -0.269 OA
ATOM      6  H   UNL     1      -3.207  -3.681   0.089  1.00  0.00     0.163 HD
BRANCH   4   7
ATOM      7  C   UNL     1      -0.686  -1.496  -0.205  1.00  0.00     0.040 A 
ATOM      8  C   UNL     1       2.811  -0.228   0.572  1.00  0.00     0.046 C 
ATOM      9  C   UNL     1       1.345  -0.180   0.239  1.00  0.00    -0.027 A 
ATOM     10  C   UNL     1       0.625  -1.399   0.283  1.00  0.00     0.019 A 
ATOM     11  C   UNL     1       0.686   0.970  -0.212  1.00  0.00     0.044 A 
ATOM     12  C   UNL     1      -0.486   0.778  -0.939  1.00  0.00     0.027 A 
ATOM     13  C   UNL     1      -1.180  -0.430  -0.935  1.00  0.00     0.016 A 
BRANCH  11  14
ATOM     14  N   UNL     1       1.187   2.261   0.083  1.00  0.00    -0.320 N 
ATOM     15  C   UNL     1       0.509   3.464   0.250  1.00  0.00     0.276 C 
ATOM     16  H   UNL     1       2.164   2.316   0.184  1.00  0.00     0.170 HD
ATOM     17  O   UNL     1       1.097   4.503   0.534  1.00  0.00    -0.267 OA
BRANCH  15  18
ATOM     18  C   UNL     1      -1.000   3.499   0.103  1.00  0.00     0.149 A 
ATOM     19  C   UNL     1      -1.483   3.890  -1.237  1.00  0.00     0.042 A 
ATOM     20  N   UNL     1      -1.766   3.137   1.092  1.00  0.00    -0.164 NA
ATOM     21  C   UNL     1      -2.653   3.348  -1.582  1.00  0.00     0.076 A 
ATOM     22  N   UNL     1      -3.088   2.865   0.739  1.00  0.00    -0.226 N 
ATOM     23  C   UNL     1      -3.414   2.561  -0.579  1.00  0.00     0.266 A 
ATOM     24  O   UNL     1      -4.300   1.796  -0.941  1.00  0.00    -0.268 OA
BRANCH  22  25
ATOM     25  C   UNL     1      -4.063   2.643   1.810  1.00  0.00     0.190 C 
BRANCH  25  26
ATOM     26  C   UNL     1      -4.754   3.946   2.267  1.00  0.00     0.253 C 
BRANCH  26  27
ATOM     27  O   UNL     1      -5.991   4.205   1.567  1.00  0.00    -0.492 OA
BRANCH  27  28
ATOM     28  C   UNL     1      -5.862   5.202   0.640  1.00  0.00     0.119 A 
ATOM     29  C   UNL     1      -6.178   6.521   0.945  1.00  0.00     0.046 A 
ATOM     30  C   UNL     1      -5.514   4.871  -0.662  1.00  0.00     0.046 A 
ATOM     31  C   UNL     1      -6.016   7.513  -0.032  1.00  0.00     0.004 A 
ATOM     32  C   UNL     1      -5.274   5.857  -1.614  1.00  0.00     0.004 A 
ATOM     33  C   UNL     1      -5.518   7.186  -1.295  1.00  0.00     0.000 A 
ENDBRANCH  27  28
ENDBRANCH  26  27
ENDBRANCH  25  26
ENDBRANCH  22  25
ENDBRANCH  15  18
ENDBRANCH  11  14
ENDBRANCH   4   7
ENDBRANCH   2   3
ENDBRANCH   1   2
BRANCH   1  34
ATOM     34  C   UNL     1      -5.820  -2.746  -0.945  1.00  0.00     0.002 C 
BRANCH  34  35
ATOM     35  C   UNL     1      -6.694  -2.913   0.309  1.00  0.00     0.002 C 
BRANCH  35  36
ATOM     36  C   UNL     1      -7.264  -1.626   0.909  1.00  0.00     0.021 C 
BRANCH  36  37
ATOM     37  C   UNL     1      -8.285  -0.925   0.024  1.00  0.00     0.116 C 
BRANCH  37  38
ATOM     38  N   UNL     1      -9.658  -1.291   0.327  1.00  0.00    -0.352 N 
ATOM     39  C   UNL     1     -10.840  -0.810  -0.205  1.00  0.00     0.251 C 
ATOM     40  H   UNL     1      -9.763  -1.987   1.015  1.00  0.00     0.163 HD
ATOM     41  O   UNL     1     -11.891  -1.080   0.375  1.00  0.00    -0.269 OA
BRANCH  39  42
ATOM     42  C   UNL     1     -10.848  -0.127  -1.524  1.00  0.00     0.039 A 
ATOM     43  C   UNL     1     -11.859  -0.476  -2.429  1.00  0.00     0.014 A 
ATOM     44  C   UNL     1      -9.768   0.636  -1.959  1.00  0.00     0.014 A 
ATOM     45  C   UNL     1     -11.646  -0.317  -3.797  1.00  0.00     0.010 A 
ATOM     46  C   UNL     1      -9.512   0.716  -3.308  1.00  0.00     0.010 A 
ATOM     47  C   UNL     1     -10.410   0.160  -4.220  1.00  0.00    -0.014 A 
BRANCH  47  48
ATOM     48  C   UNL     1      -9.923   0.136  -5.587  1.00  0.00     0.031 A 
ATOM     49  C   UNL     1     -10.157   1.303  -6.454  1.00  0.00     0.074 A 
ATOM     50  C   UNL     1      -9.076  -0.855  -5.949  1.00  0.00     0.049 A 
ATOM     51  N   UNL     1      -9.875   1.340  -7.708  1.00  0.00    -0.248 NA
ATOM     52  C   UNL     1     -10.743   2.539  -5.954  1.00  0.00     0.031 C 
ATOM     53  C   UNL     1      -8.181  -0.886  -7.100  1.00  0.00     0.029 A 
ATOM     54  N   UNL     1      -8.988  -2.154  -5.437  1.00  0.00    -0.354 N 
ATOM     55  C   UNL     1     -10.001   2.645  -8.132  1.00  0.00     0.074 A 
ATOM     56  C   UNL     1     -10.609   3.335  -7.019  1.00  0.00     0.031 C 
ATOM     57  C   UNL     1      -7.896  -2.167  -7.387  1.00  0.00     0.029 A 
ATOM     58  C   UNL     1      -8.771  -2.978  -6.559  1.00  0.00     0.049 A 
ATOM     59  H   UNL     1      -9.063  -2.433  -4.496  1.00  0.00     0.167 HD
ATOM     60  C   UNL     1      -9.459   2.986  -9.336  1.00  0.00     0.034 A 
ATOM     61  C   UNL     1      -9.714  -3.853  -7.032  1.00  0.00     0.034 A 
ATOM     62  C   UNL     1      -9.011   1.781 -10.059  1.00  0.00     0.049 A 
ATOM     63  C   UNL     1     -10.148  -3.568  -8.473  1.00  0.00     0.074 A 
ATOM     64  C   UNL     1      -7.801   1.125 -10.224  1.00  0.00     0.029 A 
ATOM     65  N   UNL     1      -9.981   0.898 -10.498  1.00  0.00    -0.354 N 
ATOM     66  N   UNL     1      -9.687  -2.593  -9.212  1.00  0.00    -0.248 NA
ATOM     67  C   UNL     1     -11.213  -4.310  -9.153  1.00  0.00     0.031 C 
ATOM     68  C   UNL     1      -8.079  -0.199 -10.693  1.00  0.00     0.029 A 
ATOM     69  C   UNL     1      -9.449  -0.330 -10.847  1.00  0.00     0.049 A 
ATOM     70  H   UNL     1     -10.939   1.119 -10.555  1.00  0.00     0.167 HD
ATOM     71  C   UNL     1     -10.466  -2.458 -10.332  1.00  0.00     0.074 A 
ATOM     72  C   UNL     1     -11.383  -3.584 -10.271  1.00  0.00     0.031 C 
ATOM     73  C   UNL     1     -10.370  -1.406 -11.202  1.00  0.00     0.034 A 
BRANCH  60  74
ATOM     74  C   UNL     1      -9.139   4.395  -9.811  1.00  0.00     0.023 A 
ATOM     75  C   UNL     1      -8.224   4.518 -10.883  1.00  0.00     0.012 A 
ATOM     76  C   UNL     1      -9.600   5.614  -9.259  1.00  0.00     0.148 A 
ATOM     77  C   UNL     1      -7.738   5.754 -11.325  1.00  0.00     0.002 A 
ATOM     78  C   UNL     1      -9.075   6.847  -9.661  1.00  0.00     0.091 A 
ATOM     79  F   UNL     1     -10.602   5.616  -8.383  1.00  0.00    -0.205 F 
ATOM     80  C   UNL     1      -8.141   6.920 -10.695  1.00  0.00     0.022 A 
BRANCH  78  81
ATOM     81  S   UNL     1      -9.501   8.398  -8.843  1.00  0.00     0.127 S 
ATOM     82  O   UNL     1      -8.185   8.902  -8.443  1.00  0.00    -0.237 OA
ATOM     83  O   UNL     1     -10.139   9.156  -9.917  1.00  0.00    -0.237 OA
ATOM     84  O   UNL     1     -10.369   8.050  -7.724  1.00  0.00    -0.744 OA
ENDBRANCH  78  81
ENDBRANCH  60  74
BRANCH  61  85
ATOM     85  C   UNL     1     -10.617  -4.380  -5.957  1.00  0.00     0.023 A 
ATOM     86  C   UNL     1     -10.000  -5.020  -4.854  1.00  0.00     0.012 A 
ATOM     87  C   UNL     1     -11.940  -3.928  -5.816  1.00  0.00     0.148 A 
ATOM     88  C   UNL     1     -10.605  -5.016  -3.595  1.00  0.00     0.002 A 
ATOM     89  C   UNL     1     -12.553  -3.965  -4.565  1.00  0.00     0.091 A 
ATOM     90  F   UNL     1     -12.569  -3.410  -6.877  1.00  0.00    -0.205 F 
ATOM     91  C   UNL     1     -11.864  -4.448  -3.443  1.00  0.00     0.022 A 
BRANCH  89  92
ATOM     92  S   UNL     1     -14.207  -3.300  -4.341  1.00  0.00     0.127 S 
ATOM     93  O   UNL     1     -15.032  -4.462  -4.653  1.00  0.00    -0.237 OA
ATOM     94  O   UNL     1     -14.208  -2.906  -2.933  1.00  0.00    -0.237 OA
ATOM     95  O   UNL     1     -14.277  -2.182  -5.271  1.00  0.00    -0.744 OA
ENDBRANCH  89  92
ENDBRANCH  61  85
BRANCH  73  96
ATOM     96  C   UNL     1     -11.176  -1.329 -12.482  1.00  0.00     0.023 A 
ATOM     97  C   UNL     1     -11.350  -2.483 -13.274  1.00  0.00     0.012 A 
ATOM     98  C   UNL     1     -11.649  -0.106 -13.018  1.00  0.00     0.148 A 
ATOM     99  C   UNL     1     -12.013  -2.439 -14.505  1.00  0.00     0.002 A 
ATOM    100  C   UNL     1     -12.209  -0.050 -14.291  1.00  0.00     0.091 A 
ATOM    101  F   UNL     1     -11.610   1.007 -12.277  1.00  0.00    -0.205 F 
ATOM    102  C   UNL     1     -12.423  -1.219 -15.024  1.00  0.00     0.022 A 
BRANCH 100 103
ATOM    103  S   UNL     1     -12.552   1.513 -15.115  1.00  0.00     0.127 S 
ATOM    104  O   UNL     1     -11.967   1.288 -16.439  1.00  0.00    -0.237 OA
ATOM    105  O   UNL     1     -14.012   1.551 -15.094  1.00  0.00    -0.237 OA
ATOM    106  O   UNL     1     -11.873   2.533 -14.330  1.00  0.00    -0.744 OA
ENDBRANCH 100 103
ENDBRANCH  73  96
ENDBRANCH  47  48
ENDBRANCH  39  42
ENDBRANCH  37  38
ENDBRANCH  36  37
ENDBRANCH  35  36
ENDBRANCH  34  35
ENDBRANCH   1  34
TORSDOF 22
