REMARK SMILES C[C@H](C(=O)NCCCCCCNC(=O)c1ccc(-c2c3nc(c(-c4cccc(S(=O)(=O)[O-])c4F)c4ccc([nH]4)c(-c4cccc(S(=O)(=O)[O-])c4F)c4nc(c(-c5cccc(S(=O)(=O)[O-])c5F)c5ccc2[nH]5)C=C4)C=C3)cc1)[C@@H](C)Nc1cccc2ccccc12
REMARK SMILES IDX 8 1 7 2 6 3 5 4 3 5 4 6 2 8 1 9 78 10 79 11 80 12 81 14
REMARK SMILES IDX 82 15 90 16 83 17 85 18 89 19 84 20 86 21 88 22 87 23 9 24
REMARK SMILES IDX 10 25 11 26 12 27 13 28 14 30 15 31 16 32 77 33 17 34 76 35
REMARK SMILES IDX 18 36 19 37 20 38 70 39 21 40 75 41 69 42 71 43 22 44 74 45
REMARK SMILES IDX 68 46 67 47 23 49 55 50 35 51 54 52 36 53 39 54 53 55 72 56
REMARK SMILES IDX 37 57 38 58 52 60 73 61 40 62 24 63 25 64 33 65 26 66 28 67
REMARK SMILES IDX 34 68 27 69 29 70 30 71 31 72 32 73 56 74 57 75 65 76 58 77
REMARK SMILES IDX 60 78 66 79 59 80 61 81 62 82 63 83 64 84 41 85 42 86 50 87
REMARK SMILES IDX 43 88 45 89 51 90 44 91 46 92 47 93 48 94 49 95
REMARK H PARENT 5 7 80 13 12 29 71 48 39 59
REMARK Flexibility Score: inf
ROOT
ATOM      1  C   UNL     1       2.147  -2.147  -3.299  1.00  0.00     0.002 C 
ENDROOT
BRANCH   1   2
ATOM      2  C   UNL     1       1.036  -1.097  -3.239  1.00  0.00     0.021 C 
BRANCH   2   3
ATOM      3  C   UNL     1       0.155  -1.162  -1.997  1.00  0.00     0.116 C 
BRANCH   3   4
ATOM      4  N   UNL     1       0.894  -0.947  -0.767  1.00  0.00    -0.356 N 
ATOM      5  C   UNL     1       1.002   0.131   0.049  1.00  0.00     0.224 C 
ATOM      6  O   UNL     1       1.712   0.009   1.053  1.00  0.00    -0.275 OA
ATOM      7  H   UNL     1       1.414  -1.728  -0.470  1.00  0.00     0.163 HD
BRANCH   5   8
ATOM      8  C   UNL     1       0.300   1.455  -0.225  1.00  0.00     0.097 C 
ATOM      9  C   UNL     1       0.813   2.090  -1.518  1.00  0.00     0.020 C 
BRANCH   8  10
ATOM     10  C   UNL     1      -1.241   1.371  -0.145  1.00  0.00     0.088 C 
ATOM     11  C   UNL     1      -1.707   0.801   1.199  1.00  0.00     0.031 C 
BRANCH  10  12
ATOM     12  N   UNL     1      -1.798   2.711  -0.269  1.00  0.00    -0.381 N 
ATOM     13  H   UNL     1      -1.573   3.323   0.469  1.00  0.00     0.160 HD
BRANCH  12  14
ATOM     14  C   UNL     1      -2.595   3.262  -1.262  1.00  0.00     0.042 A 
ATOM     15  C   UNL     1      -2.260   4.593  -1.598  1.00  0.00     0.026 A 
ATOM     16  C   UNL     1      -3.693   2.645  -1.947  1.00  0.00     0.005 A 
ATOM     17  C   UNL     1      -3.018   5.350  -2.481  1.00  0.00     0.003 A 
ATOM     18  C   UNL     1      -4.500   3.464  -2.794  1.00  0.00    -0.016 A 
ATOM     19  C   UNL     1      -4.102   1.289  -1.839  1.00  0.00     0.011 A 
ATOM     20  C   UNL     1      -4.159   4.799  -3.038  1.00  0.00     0.009 A 
ATOM     21  C   UNL     1      -5.659   2.957  -3.404  1.00  0.00     0.009 A 
ATOM     22  C   UNL     1      -5.215   0.777  -2.520  1.00  0.00     0.001 A 
ATOM     23  C   UNL     1      -6.012   1.619  -3.278  1.00  0.00     0.001 A 
ENDBRANCH  12  14
ENDBRANCH  10  12
ENDBRANCH   8  10
ENDBRANCH   5   8
ENDBRANCH   3   4
ENDBRANCH   2   3
ENDBRANCH   1   2
BRANCH   1  24
ATOM     24  C   UNL     1       1.686  -3.601  -3.167  1.00  0.00     0.002 C 
BRANCH  24  25
ATOM     25  C   UNL     1       0.603  -4.044  -4.154  1.00  0.00     0.021 C 
BRANCH  25  26
ATOM     26  C   UNL     1       0.945  -3.853  -5.628  1.00  0.00     0.116 C 
BRANCH  26  27
ATOM     27  N   UNL     1       2.124  -4.603  -6.027  1.00  0.00    -0.352 N 
ATOM     28  C   UNL     1       2.301  -5.469  -7.077  1.00  0.00     0.251 C 
ATOM     29  H   UNL     1       2.915  -4.471  -5.456  1.00  0.00     0.163 HD
ATOM     30  O   UNL     1       3.331  -6.135  -7.141  1.00  0.00    -0.269 OA
BRANCH  28  31
ATOM     31  C   UNL     1       1.258  -5.620  -8.118  1.00  0.00     0.039 A 
ATOM     32  C   UNL     1       0.973  -6.902  -8.595  1.00  0.00     0.014 A 
ATOM     33  C   UNL     1       0.581  -4.516  -8.645  1.00  0.00     0.014 A 
ATOM     34  C   UNL     1      -0.021  -7.081  -9.560  1.00  0.00     0.010 A 
ATOM     35  C   UNL     1      -0.463  -4.704  -9.552  1.00  0.00     0.010 A 
ATOM     36  C   UNL     1      -0.771  -5.987 -10.026  1.00  0.00    -0.014 A 
BRANCH  36  37
ATOM     37  C   UNL     1      -1.886  -6.189 -10.990  1.00  0.00     0.031 A 
ATOM     38  C   UNL     1      -1.842  -5.571 -12.364  1.00  0.00     0.074 A 
ATOM     39  C   UNL     1      -2.970  -6.895 -10.609  1.00  0.00     0.049 A 
ATOM     40  N   UNL     1      -2.723  -5.647 -13.329  1.00  0.00    -0.248 NA
ATOM     41  C   UNL     1      -0.669  -4.744 -12.691  1.00  0.00     0.031 C 
ATOM     42  C   UNL     1      -3.178  -7.470  -9.277  1.00  0.00     0.029 A 
ATOM     43  N   UNL     1      -4.109  -7.234 -11.296  1.00  0.00    -0.354 N 
ATOM     44  C   UNL     1      -2.221  -4.871 -14.367  1.00  0.00     0.074 A 
ATOM     45  C   UNL     1      -0.982  -4.292 -13.897  1.00  0.00     0.031 C 
ATOM     46  C   UNL     1      -4.367  -8.092  -9.247  1.00  0.00     0.029 A 
ATOM     47  C   UNL     1      -5.018  -7.941 -10.544  1.00  0.00     0.049 A 
ATOM     48  H   UNL     1      -4.262  -6.993 -12.238  1.00  0.00     0.167 HD
ATOM     49  C   UNL     1      -2.724  -4.685 -15.612  1.00  0.00     0.034 A 
ATOM     50  C   UNL     1      -6.242  -8.410 -10.858  1.00  0.00     0.034 A 
ATOM     51  C   UNL     1      -3.946  -5.279 -16.088  1.00  0.00     0.049 A 
ATOM     52  C   UNL     1      -6.761  -8.218 -12.257  1.00  0.00     0.074 A 
ATOM     53  C   UNL     1      -4.508  -5.197 -17.350  1.00  0.00     0.029 A 
ATOM     54  N   UNL     1      -4.797  -6.062 -15.323  1.00  0.00    -0.354 N 
ATOM     55  N   UNL     1      -6.197  -7.608 -13.271  1.00  0.00    -0.248 NA
ATOM     56  C   UNL     1      -8.067  -8.817 -12.569  1.00  0.00     0.031 C 
ATOM     57  C   UNL     1      -5.710  -5.913 -17.342  1.00  0.00     0.029 A 
ATOM     58  C   UNL     1      -5.880  -6.468 -16.085  1.00  0.00     0.049 A 
ATOM     59  H   UNL     1      -4.652  -6.295 -14.378  1.00  0.00     0.167 HD
ATOM     60  C   UNL     1      -7.061  -7.778 -14.347  1.00  0.00     0.074 A 
ATOM     61  C   UNL     1      -8.171  -8.576 -13.868  1.00  0.00     0.031 C 
ATOM     62  C   UNL     1      -6.955  -7.302 -15.611  1.00  0.00     0.034 A 
BRANCH  49  63
ATOM     63  C   UNL     1      -1.917  -3.853 -16.576  1.00  0.00     0.023 A 
ATOM     64  C   UNL     1      -0.708  -4.370 -17.089  1.00  0.00     0.012 A 
ATOM     65  C   UNL     1      -2.378  -2.602 -17.031  1.00  0.00     0.148 A 
ATOM     66  C   UNL     1       0.044  -3.644 -18.011  1.00  0.00     0.002 A 
ATOM     67  C   UNL     1      -1.645  -1.904 -17.985  1.00  0.00     0.091 A 
ATOM     68  F   UNL     1      -3.520  -2.118 -16.523  1.00  0.00    -0.205 F 
ATOM     69  C   UNL     1      -0.429  -2.418 -18.467  1.00  0.00     0.022 A 
BRANCH  67  70
ATOM     70  S   UNL     1      -2.202  -0.352 -18.700  1.00  0.00     0.127 S 
ATOM     71  O   UNL     1      -1.216   0.587 -18.170  1.00  0.00    -0.237 OA
ATOM     72  O   UNL     1      -2.086  -0.616 -20.133  1.00  0.00    -0.237 OA
ATOM     73  O   UNL     1      -3.566  -0.156 -18.224  1.00  0.00    -0.744 OA
ENDBRANCH  67  70
ENDBRANCH  49  63
BRANCH  50  74
ATOM     74  C   UNL     1      -7.043  -9.149  -9.841  1.00  0.00     0.023 A 
ATOM     75  C   UNL     1      -7.285 -10.527 -10.004  1.00  0.00     0.012 A 
ATOM     76  C   UNL     1      -7.561  -8.492  -8.708  1.00  0.00     0.148 A 
ATOM     77  C   UNL     1      -8.064 -11.227  -9.082  1.00  0.00     0.002 A 
ATOM     78  C   UNL     1      -8.284  -9.208  -7.761  1.00  0.00     0.091 A 
ATOM     79  F   UNL     1      -7.332  -7.178  -8.575  1.00  0.00    -0.205 F 
ATOM     80  C   UNL     1      -8.556 -10.570  -7.957  1.00  0.00     0.022 A 
BRANCH  78  81
ATOM     81  S   UNL     1      -8.832  -8.470  -6.218  1.00  0.00     0.127 S 
ATOM     82  O   UNL     1     -10.269  -8.340  -6.442  1.00  0.00    -0.237 OA
ATOM     83  O   UNL     1      -8.450  -9.491  -5.242  1.00  0.00    -0.237 OA
ATOM     84  O   UNL     1      -8.091  -7.222  -6.097  1.00  0.00    -0.744 OA
ENDBRANCH  78  81
ENDBRANCH  50  74
BRANCH  62  85
ATOM     85  C   UNL     1      -8.051  -7.660 -16.583  1.00  0.00     0.023 A 
ATOM     86  C   UNL     1      -9.332  -7.092 -16.439  1.00  0.00     0.012 A 
ATOM     87  C   UNL     1      -7.796  -8.524 -17.666  1.00  0.00     0.148 A 
ATOM     88  C   UNL     1     -10.355  -7.413 -17.330  1.00  0.00     0.002 A 
ATOM     89  C   UNL     1      -8.806  -8.799 -18.581  1.00  0.00     0.091 A 
ATOM     90  F   UNL     1      -6.576  -9.070 -17.777  1.00  0.00    -0.205 F 
ATOM     91  C   UNL     1     -10.090  -8.257 -18.406  1.00  0.00     0.022 A 
BRANCH  89  92
ATOM     92  S   UNL     1      -8.530  -9.797 -20.048  1.00  0.00     0.127 S 
ATOM     93  O   UNL     1      -9.235 -11.031 -19.706  1.00  0.00    -0.237 OA
ATOM     94  O   UNL     1      -9.172  -8.998 -21.092  1.00  0.00    -0.237 OA
ATOM     95  O   UNL     1      -7.085  -9.918 -20.185  1.00  0.00    -0.744 OA
ENDBRANCH  89  92
ENDBRANCH  62  85
ENDBRANCH  36  37
ENDBRANCH  28  31
ENDBRANCH  26  27
ENDBRANCH  25  26
ENDBRANCH  24  25
ENDBRANCH   1  24
TORSDOF 19
