REMARK SMILES Cc1nc(C)c(C(=O)N[C@@H](CCS(C)(=O)=O)C(=O)NCCCCCCNC(=O)c2ccc(-c3c4nc(c(-c5cccc(S(=O)(=O)[O-])c5F)c5ccc([nH]5)c(-c5cccc(S(=O)(=O)[O-])c5F)c5nc(c(-c6cccc(S(=O)(=O)[O-])c6F)c6ccc3[nH]6)C=C5)C=C4)cc2)s1
REMARK SMILES IDX 22 1 21 2 20 3 19 4 17 5 18 6 10 8 9 9 7 10 8 11 6 13 1 14
REMARK SMILES IDX 2 15 3 16 92 17 4 18 5 19 11 20 12 21 13 22 14 23 15 24
REMARK SMILES IDX 16 25 23 26 24 27 25 28 26 29 27 30 28 32 29 33 30 34 91 35
REMARK SMILES IDX 31 36 90 37 32 38 33 39 34 40 84 41 35 42 89 43 83 44 85 45
REMARK SMILES IDX 36 46 88 47 82 48 81 49 37 51 69 52 49 53 68 54 50 55 53 56
REMARK SMILES IDX 67 57 86 58 51 59 52 60 66 62 87 63 54 64 38 65 39 66 47 67
REMARK SMILES IDX 40 68 42 69 48 70 41 71 43 72 44 73 45 74 46 75 70 76 71 77
REMARK SMILES IDX 79 78 72 79 74 80 80 81 73 82 75 83 76 84 77 85 78 86 55 87
REMARK SMILES IDX 56 88 64 89 57 90 59 91 65 92 58 93 60 94 61 95 62 96 63 97
REMARK H PARENT 19 7 9 12 26 31 85 50 53 61
REMARK Flexibility Score: inf
ROOT
ATOM      1  C   UNL     1      -1.450  -8.118  -2.738  1.00  0.00     0.002 C 
ENDROOT
BRANCH   1   2
ATOM      2  C   UNL     1      -2.156  -7.066  -1.873  1.00  0.00     0.021 C 
BRANCH   2   3
ATOM      3  C   UNL     1      -1.252  -6.235  -0.968  1.00  0.00     0.116 C 
BRANCH   3   4
ATOM      4  N   UNL     1      -0.282  -5.443  -1.696  1.00  0.00    -0.354 N 
ATOM      5  C   UNL     1       0.645  -4.543  -1.270  1.00  0.00     0.242 C 
ATOM      6  O   UNL     1       1.552  -4.238  -2.054  1.00  0.00    -0.273 OA
ATOM      7  H   UNL     1      -0.297  -5.579  -2.671  1.00  0.00     0.163 HD
BRANCH   5   8
ATOM      8  C   UNL     1       0.663  -3.955   0.152  1.00  0.00     0.172 C 
BRANCH   8   9
ATOM      9  N   UNL     1      -0.648  -3.475   0.590  1.00  0.00    -0.339 N 
ATOM     10  C   UNL     1      -1.305  -2.268   0.433  1.00  0.00     0.263 C 
ATOM     11  O   UNL     1      -2.529  -2.372   0.564  1.00  0.00    -0.268 OA
ATOM     12  H   UNL     1      -1.166  -4.143   1.096  1.00  0.00     0.164 HD
BRANCH  10  13
ATOM     13  C   UNL     1      -0.671  -0.968   0.196  1.00  0.00     0.115 A 
ATOM     14  C   UNL     1       1.956   1.917  -0.048  1.00  0.00     0.079 C 
ATOM     15  C   UNL     1       0.793   0.990  -0.009  1.00  0.00     0.091 A 
ATOM     16  N   UNL     1      -0.456   1.365  -0.131  1.00  0.00    -0.246 NA
ATOM     17  S   UNL     1       1.018  -0.672   0.266  1.00  0.00    -0.113 S 
ATOM     18  C   UNL     1      -1.305   0.267   0.005  1.00  0.00     0.061 A 
ATOM     19  C   UNL     1      -2.762   0.586  -0.018  1.00  0.00     0.068 C 
ENDBRANCH  10  13
ENDBRANCH   8   9
BRANCH   8  20
ATOM     20  C   UNL     1       1.443  -4.693   1.262  1.00  0.00     0.051 C 
BRANCH  20  21
ATOM     21  C   UNL     1       1.278  -6.186   1.505  1.00  0.00     0.139 C 
BRANCH  21  22
ATOM     22  S   UNL     1       2.246  -7.285   0.467  1.00  0.00     0.147 S 
ATOM     23  C   UNL     1       3.938  -6.799   0.673  1.00  0.00     0.158 C 
ATOM     24  O   UNL     1       2.111  -8.621   1.020  1.00  0.00    -0.229 OA
ATOM     25  O   UNL     1       1.923  -7.048  -0.919  1.00  0.00    -0.229 OA
ENDBRANCH  21  22
ENDBRANCH  20  21
ENDBRANCH   8  20
ENDBRANCH   5   8
ENDBRANCH   3   4
ENDBRANCH   2   3
ENDBRANCH   1   2
BRANCH   1  26
ATOM     26  C   UNL     1      -0.584  -9.150  -2.012  1.00  0.00     0.002 C 
BRANCH  26  27
ATOM     27  C   UNL     1      -1.234  -9.896  -0.849  1.00  0.00     0.021 C 
BRANCH  27  28
ATOM     28  C   UNL     1      -2.556 -10.570  -1.178  1.00  0.00     0.116 C 
BRANCH  28  29
ATOM     29  N   UNL     1      -2.454 -11.512  -2.280  1.00  0.00    -0.352 N 
ATOM     30  C   UNL     1      -3.011 -12.760  -2.405  1.00  0.00     0.251 C 
ATOM     31  H   UNL     1      -1.908 -11.214  -3.044  1.00  0.00     0.163 HD
ATOM     32  O   UNL     1      -2.714 -13.475  -3.358  1.00  0.00    -0.269 OA
BRANCH  30  33
ATOM     33  C   UNL     1      -3.950 -13.249  -1.372  1.00  0.00     0.039 A 
ATOM     34  C   UNL     1      -3.819 -14.562  -0.913  1.00  0.00     0.014 A 
ATOM     35  C   UNL     1      -4.947 -12.419  -0.853  1.00  0.00     0.014 A 
ATOM     36  C   UNL     1      -4.662 -15.026   0.098  1.00  0.00     0.010 A 
ATOM     37  C   UNL     1      -5.723 -12.853   0.216  1.00  0.00     0.010 A 
ATOM     38  C   UNL     1      -5.604 -14.167   0.690  1.00  0.00    -0.014 A 
BRANCH  38  39
ATOM     39  C   UNL     1      -6.482 -14.635   1.791  1.00  0.00     0.031 A 
ATOM     40  C   UNL     1      -7.977 -14.652   1.610  1.00  0.00     0.074 A 
ATOM     41  C   UNL     1      -5.939 -14.983   2.975  1.00  0.00     0.049 A 
ATOM     42  N   UNL     1      -8.906 -14.999   2.462  1.00  0.00    -0.248 NA
ATOM     43  C   UNL     1      -8.500 -14.192   0.312  1.00  0.00     0.031 C 
ATOM     44  C   UNL     1      -4.511 -14.933   3.299  1.00  0.00     0.029 A 
ATOM     45  N   UNL     1      -6.526 -15.429   4.132  1.00  0.00    -0.354 N 
ATOM     46  C   UNL     1     -10.117 -14.767   1.820  1.00  0.00     0.074 A 
ATOM     47  C   UNL     1      -9.807 -14.210   0.522  1.00  0.00     0.031 C 
ATOM     48  C   UNL     1      -4.332 -15.344   4.564  1.00  0.00     0.029 A 
ATOM     49  C   UNL     1      -5.631 -15.655   5.152  1.00  0.00     0.049 A 
ATOM     50  H   UNL     1      -7.495 -15.573   4.224  1.00  0.00     0.167 HD
ATOM     51  C   UNL     1     -11.373 -15.024   2.256  1.00  0.00     0.034 A 
ATOM     52  C   UNL     1      -5.835 -16.061   6.420  1.00  0.00     0.034 A 
ATOM     53  C   UNL     1     -11.673 -15.613   3.533  1.00  0.00     0.049 A 
ATOM     54  C   UNL     1      -7.238 -16.375   6.867  1.00  0.00     0.074 A 
ATOM     55  C   UNL     1     -12.904 -15.989   4.038  1.00  0.00     0.029 A 
ATOM     56  N   UNL     1     -10.733 -15.902   4.510  1.00  0.00    -0.354 N 
ATOM     57  N   UNL     1      -8.358 -16.292   6.191  1.00  0.00    -0.248 NA
ATOM     58  C   UNL     1      -7.400 -16.879   8.238  1.00  0.00     0.031 C 
ATOM     59  C   UNL     1     -12.713 -16.474   5.336  1.00  0.00     0.029 A 
ATOM     60  C   UNL     1     -11.358 -16.443   5.621  1.00  0.00     0.049 A 
ATOM     61  H   UNL     1      -9.765 -15.747   4.427  1.00  0.00     0.167 HD
ATOM     62  C   UNL     1      -9.351 -16.772   7.038  1.00  0.00     0.074 A 
ATOM     63  C   UNL     1      -8.695 -17.162   8.269  1.00  0.00     0.031 C 
ATOM     64  C   UNL     1     -10.685 -16.872   6.820  1.00  0.00     0.034 A 
BRANCH  51  65
ATOM     65  C   UNL     1     -12.517 -14.707   1.327  1.00  0.00     0.023 A 
ATOM     66  C   UNL     1     -12.702 -15.474   0.157  1.00  0.00     0.012 A 
ATOM     67  C   UNL     1     -13.440 -13.690   1.637  1.00  0.00     0.148 A 
ATOM     68  C   UNL     1     -13.763 -15.208  -0.708  1.00  0.00     0.002 A 
ATOM     69  C   UNL     1     -14.523 -13.463   0.796  1.00  0.00     0.091 A 
ATOM     70  F   UNL     1     -13.237 -12.957   2.741  1.00  0.00    -0.205 F 
ATOM     71  C   UNL     1     -14.678 -14.211  -0.383  1.00  0.00     0.022 A 
BRANCH  69  72
ATOM     72  S   UNL     1     -15.805 -12.261   1.168  1.00  0.00     0.127 S 
ATOM     73  O   UNL     1     -15.578 -11.257   0.130  1.00  0.00    -0.237 OA
ATOM     74  O   UNL     1     -17.024 -13.051   0.995  1.00  0.00    -0.237 OA
ATOM     75  O   UNL     1     -15.557 -11.815   2.531  1.00  0.00    -0.744 OA
ENDBRANCH  69  72
ENDBRANCH  51  65
BRANCH  52  76
ATOM     76  C   UNL     1      -4.678 -16.253   7.340  1.00  0.00     0.023 A 
ATOM     77  C   UNL     1      -4.320 -17.553   7.747  1.00  0.00     0.012 A 
ATOM     78  C   UNL     1      -3.923 -15.158   7.802  1.00  0.00     0.148 A 
ATOM     79  C   UNL     1      -3.258 -17.757   8.628  1.00  0.00     0.002 A 
ATOM     80  C   UNL     1      -2.831 -15.371   8.634  1.00  0.00     0.091 A 
ATOM     81  F   UNL     1      -4.284 -13.928   7.410  1.00  0.00    -0.205 F 
ATOM     82  C   UNL     1      -2.508 -16.668   9.065  1.00  0.00     0.022 A 
BRANCH  80  83
ATOM     83  S   UNL     1      -1.733 -14.044   9.144  1.00  0.00     0.127 S 
ATOM     84  O   UNL     1      -2.025 -13.946  10.572  1.00  0.00    -0.237 OA
ATOM     85  O   UNL     1      -0.419 -14.599   8.819  1.00  0.00    -0.237 OA
ATOM     86  O   UNL     1      -2.111 -12.888   8.342  1.00  0.00    -0.744 OA
ENDBRANCH  80  83
ENDBRANCH  52  76
BRANCH  64  87
ATOM     87  C   UNL     1     -11.527 -17.478   7.914  1.00  0.00     0.023 A 
ATOM     88  C   UNL     1     -11.750 -16.771   9.112  1.00  0.00     0.012 A 
ATOM     89  C   UNL     1     -12.148 -18.728   7.723  1.00  0.00     0.148 A 
ATOM     90  C   UNL     1     -12.543 -17.319  10.120  1.00  0.00     0.002 A 
ATOM     91  C   UNL     1     -12.982 -19.242   8.707  1.00  0.00     0.091 A 
ATOM     92  F   UNL     1     -11.910 -19.394   6.583  1.00  0.00    -0.205 F 
ATOM     93  C   UNL     1     -13.168 -18.547   9.913  1.00  0.00     0.022 A 
BRANCH  91  94
ATOM     94  S   UNL     1     -13.908 -20.765   8.486  1.00  0.00     0.127 S 
ATOM     95  O   UNL     1     -13.201 -21.676   9.383  1.00  0.00    -0.237 OA
ATOM     96  O   UNL     1     -15.246 -20.381   8.936  1.00  0.00    -0.237 OA
ATOM     97  O   UNL     1     -13.817 -21.088   7.068  1.00  0.00    -0.744 OA
ENDBRANCH  91  94
ENDBRANCH  64  87
ENDBRANCH  38  39
ENDBRANCH  30  33
ENDBRANCH  28  29
ENDBRANCH  27  28
ENDBRANCH  26  27
ENDBRANCH   1  26
TORSDOF 21
