REMARK SMILES CC(C)CSc1cc2c(cc1Cl)C=C(C(=O)NCCCCCCNC(=O)c1ccc(-c3c4nc(c(-c5cccc(S(=O)(=O)[O-])c5F)c5ccc([nH]5)c(-c5cccc(S(=O)(=O)[O-])c5F)c5nc(c(-c6cccc(S(=O)(=O)[O-])c6F)c6ccc3[nH]6)C=C5)C=C4)cc1)[C@H](C(F)(F)F)O2
REMARK SMILES IDX 20 1 19 2 18 3 17 4 15 5 16 6 14 8 6 9 7 10 11 11 8 12 10 13
REMARK SMILES IDX 12 14 9 15 95 16 13 17 90 18 5 19 4 20 2 21 1 22 3 23 91 24
REMARK SMILES IDX 92 25 93 26 94 27 21 28 22 29 23 30 24 31 25 32 26 34 27 35
REMARK SMILES IDX 28 36 89 37 29 38 88 39 30 40 31 41 32 42 82 43 33 44 87 45
REMARK SMILES IDX 81 46 83 47 34 48 86 49 80 50 79 51 35 53 67 54 47 55 66 56
REMARK SMILES IDX 48 57 51 58 65 59 84 60 49 61 50 62 64 64 85 65 52 66 36 67
REMARK SMILES IDX 37 68 45 69 38 70 40 71 46 72 39 73 41 74 42 75 43 76 44 77
REMARK SMILES IDX 68 78 69 79 77 80 70 81 72 82 78 83 71 84 73 85 74 86 75 87
REMARK SMILES IDX 76 88 53 89 54 90 62 91 55 92 57 93 63 94 56 95 58 96 59 97
REMARK SMILES IDX 60 98 61 99
REMARK H PARENT 17 7 24 33 83 52 51 63
REMARK Flexibility Score: inf
ROOT
ATOM      1  C   UNL     1       3.202   1.720  -9.398  1.00  0.00     0.002 C 
ENDROOT
BRANCH   1   2
ATOM      2  C   UNL     1       2.765   1.628  -7.935  1.00  0.00     0.021 C 
BRANCH   2   3
ATOM      3  C   UNL     1       1.326   1.160  -7.737  1.00  0.00     0.116 C 
BRANCH   3   4
ATOM      4  N   UNL     1       1.215  -0.290  -7.771  1.00  0.00    -0.352 N 
ATOM      5  C   UNL     1       0.841  -1.287  -6.934  1.00  0.00     0.251 C 
ATOM      6  O   UNL     1       0.900  -2.426  -7.410  1.00  0.00    -0.270 OA
ATOM      7  H   UNL     1       1.488  -0.647  -8.647  1.00  0.00     0.163 HD
BRANCH   5   8
ATOM      8  C   UNL     1       0.371  -1.108  -5.527  1.00  0.00     0.067 C 
ATOM      9  C   UNL     1      -1.321  -1.758  -0.819  1.00  0.00     0.030 A 
ATOM     10  C   UNL     1      -1.205  -0.668  -1.682  1.00  0.00     0.063 A 
ATOM     11  C   UNL     1      -1.103  -3.045  -1.355  1.00  0.00     0.055 A 
ATOM     12  C   UNL     1      -0.742  -0.838  -2.983  1.00  0.00     0.129 A 
ATOM     13  C   UNL     1      -0.707  -3.214  -2.693  1.00  0.00     0.033 A 
ATOM     14  Cl  UNL     1      -1.293  -4.489  -0.416  1.00  0.00    -0.083 Cl
ATOM     15  C   UNL     1      -0.494  -2.102  -3.506  1.00  0.00     0.019 A 
ATOM     16  O   UNL     1      -0.551   0.307  -3.697  1.00  0.00    -0.475 OA
ATOM     17  C   UNL     1      -0.051  -2.218  -4.890  1.00  0.00     0.025 C 
ATOM     18  C   UNL     1       0.386   0.207  -4.801  1.00  0.00     0.314 C 
BRANCH   9  19
ATOM     19  S   UNL     1      -1.706  -1.505   0.916  1.00  0.00    -0.124 SA
BRANCH  19  20
ATOM     20  C   UNL     1      -0.995   0.145   1.318  1.00  0.00     0.078 C 
BRANCH  20  21
ATOM     21  C   UNL     1       0.534   0.207   1.513  1.00  0.00    -0.007 C 
ATOM     22  C   UNL     1       1.350   0.022   0.233  1.00  0.00     0.008 C 
ATOM     23  C   UNL     1       0.900   1.565   2.126  1.00  0.00     0.008 C 
ENDBRANCH  20  21
ENDBRANCH  19  20
ENDBRANCH   9  19
BRANCH  18  24
ATOM     24  C   UNL     1       1.802   0.610  -4.344  1.00  0.00     0.429 C 
ATOM     25  F   UNL     1       2.125   0.093  -3.136  1.00  0.00    -0.167 F 
ATOM     26  F   UNL     1       2.760   0.203  -5.209  1.00  0.00    -0.167 F 
ATOM     27  F   UNL     1       1.911   1.957  -4.253  1.00  0.00    -0.167 F 
ENDBRANCH  18  24
ENDBRANCH   5   8
ENDBRANCH   3   4
ENDBRANCH   2   3
ENDBRANCH   1   2
BRANCH   1  28
ATOM     28  C   UNL     1       2.357   2.647 -10.280  1.00  0.00     0.002 C 
BRANCH  28  29
ATOM     29  C   UNL     1       2.107   4.047  -9.717  1.00  0.00     0.021 C 
BRANCH  29  30
ATOM     30  C   UNL     1       3.367   4.835  -9.379  1.00  0.00     0.116 C 
BRANCH  30  31
ATOM     31  N   UNL     1       4.190   5.091 -10.551  1.00  0.00    -0.352 N 
ATOM     32  C   UNL     1       4.611   6.290 -11.076  1.00  0.00     0.251 C 
ATOM     33  H   UNL     1       4.488   4.290 -11.039  1.00  0.00     0.163 HD
ATOM     34  O   UNL     1       5.141   6.319 -12.183  1.00  0.00    -0.269 OA
BRANCH  32  35
ATOM     35  C   UNL     1       4.396   7.539 -10.314  1.00  0.00     0.039 A 
ATOM     36  C   UNL     1       4.652   7.581  -8.943  1.00  0.00     0.014 A 
ATOM     37  C   UNL     1       3.919   8.675 -10.973  1.00  0.00     0.014 A 
ATOM     38  C   UNL     1       4.265   8.693  -8.205  1.00  0.00     0.010 A 
ATOM     39  C   UNL     1       3.624   9.831 -10.240  1.00  0.00     0.010 A 
ATOM     40  C   UNL     1       3.748   9.834  -8.843  1.00  0.00    -0.014 A 
BRANCH  40  41
ATOM     41  C   UNL     1       3.378  11.012  -8.014  1.00  0.00     0.031 A 
ATOM     42  C   UNL     1       1.957  11.503  -7.939  1.00  0.00     0.074 A 
ATOM     43  C   UNL     1       4.333  11.601  -7.266  1.00  0.00     0.049 A 
ATOM     44  N   UNL     1       1.458  12.442  -7.176  1.00  0.00    -0.248 NA
ATOM     45  C   UNL     1       0.967  10.873  -8.829  1.00  0.00     0.031 C 
ATOM     46  C   UNL     1       5.753  11.241  -7.284  1.00  0.00     0.029 A 
ATOM     47  N   UNL     1       4.257  12.601  -6.330  1.00  0.00    -0.354 N 
ATOM     48  C   UNL     1       0.115  12.540  -7.516  1.00  0.00     0.074 A 
ATOM     49  C   UNL     1      -0.129  11.571  -8.561  1.00  0.00     0.031 C 
ATOM     50  C   UNL     1       6.402  11.960  -6.357  1.00  0.00     0.029 A 
ATOM     51  C   UNL     1       5.458  12.869  -5.715  1.00  0.00     0.049 A 
ATOM     52  H   UNL     1       3.424  13.080  -6.117  1.00  0.00     0.167 HD
ATOM     53  C   UNL     1      -0.834  13.347  -6.987  1.00  0.00     0.034 A 
ATOM     54  C   UNL     1       5.773  13.744  -4.740  1.00  0.00     0.034 A 
ATOM     55  C   UNL     1      -0.604  14.268  -5.908  1.00  0.00     0.049 A 
ATOM     56  C   UNL     1       4.697  14.608  -4.154  1.00  0.00     0.074 A 
ATOM     57  C   UNL     1      -1.525  15.074  -5.263  1.00  0.00     0.029 A 
ATOM     58  N   UNL     1       0.625  14.508  -5.318  1.00  0.00    -0.354 N 
ATOM     59  N   UNL     1       3.413  14.605  -4.417  1.00  0.00    -0.248 NA
ATOM     60  C   UNL     1       5.101  15.585  -3.134  1.00  0.00     0.031 C 
ATOM     61  C   UNL     1      -0.850  15.811  -4.287  1.00  0.00     0.029 A 
ATOM     62  C   UNL     1       0.489  15.456  -4.321  1.00  0.00     0.049 A 
ATOM     63  H   UNL     1       1.470  14.069  -5.570  1.00  0.00     0.167 HD
ATOM     64  C   UNL     1       2.854  15.572  -3.592  1.00  0.00     0.074 A 
ATOM     65  C   UNL     1       3.935  16.128  -2.804  1.00  0.00     0.031 C 
ATOM     66  C   UNL     1       1.563  15.969  -3.512  1.00  0.00     0.034 A 
BRANCH  53  67
ATOM     67  C   UNL     1      -2.239  13.241  -7.513  1.00  0.00     0.023 A 
ATOM     68  C   UNL     1      -3.062  12.190  -7.064  1.00  0.00     0.012 A 
ATOM     69  C   UNL     1      -2.781  14.246  -8.337  1.00  0.00     0.148 A 
ATOM     70  C   UNL     1      -4.405  12.136  -7.432  1.00  0.00     0.002 A 
ATOM     71  C   UNL     1      -4.128  14.201  -8.677  1.00  0.00     0.091 A 
ATOM     72  F   UNL     1      -1.975  15.232  -8.756  1.00  0.00    -0.205 F 
ATOM     73  C   UNL     1      -4.940  13.146  -8.228  1.00  0.00     0.022 A 
BRANCH  71  74
ATOM     74  S   UNL     1      -4.933  15.480  -9.649  1.00  0.00     0.127 S 
ATOM     75  O   UNL     1      -5.299  14.742 -10.858  1.00  0.00    -0.237 OA
ATOM     76  O   UNL     1      -6.061  15.850  -8.795  1.00  0.00    -0.237 OA
ATOM     77  O   UNL     1      -3.939  16.527  -9.842  1.00  0.00    -0.744 OA
ENDBRANCH  71  74
ENDBRANCH  53  67
BRANCH  54  78
ATOM     78  C   UNL     1       7.170  13.787  -4.232  1.00  0.00     0.023 A 
ATOM     79  C   UNL     1       7.469  13.214  -2.982  1.00  0.00     0.012 A 
ATOM     80  C   UNL     1       8.215  14.300  -5.026  1.00  0.00     0.148 A 
ATOM     81  C   UNL     1       8.787  13.151  -2.530  1.00  0.00     0.002 A 
ATOM     82  C   UNL     1       9.529  14.194  -4.590  1.00  0.00     0.091 A 
ATOM     83  F   UNL     1       7.900  14.842  -6.211  1.00  0.00    -0.205 F 
ATOM     84  C   UNL     1       9.817  13.628  -3.338  1.00  0.00     0.022 A 
BRANCH  82  85
ATOM     85  S   UNL     1      10.929  14.671  -5.609  1.00  0.00     0.127 S 
ATOM     86  O   UNL     1      11.493  15.777  -4.840  1.00  0.00    -0.237 OA
ATOM     87  O   UNL     1      11.729  13.446  -5.607  1.00  0.00    -0.237 OA
ATOM     88  O   UNL     1      10.372  15.028  -6.906  1.00  0.00    -0.744 OA
ENDBRANCH  82  85
ENDBRANCH  54  78
BRANCH  66  89
ATOM     89  C   UNL     1       1.209  17.062  -2.543  1.00  0.00     0.023 A 
ATOM     90  C   UNL     1       1.412  18.402  -2.921  1.00  0.00     0.012 A 
ATOM     91  C   UNL     1       0.516  16.766  -1.354  1.00  0.00     0.148 A 
ATOM     92  C   UNL     1       0.920  19.438  -2.130  1.00  0.00     0.002 A 
ATOM     93  C   UNL     1      -0.000  17.803  -0.588  1.00  0.00     0.091 A 
ATOM     94  F   UNL     1       0.337  15.479  -1.024  1.00  0.00    -0.205 F 
ATOM     95  C   UNL     1       0.203  19.140  -0.973  1.00  0.00     0.022 A 
BRANCH  93  96
ATOM     96  S   UNL     1      -1.005  17.523   0.874  1.00  0.00     0.127 S 
ATOM     97  O   UNL     1      -0.212  18.180   1.913  1.00  0.00    -0.237 OA
ATOM     98  O   UNL     1      -2.248  18.210   0.527  1.00  0.00    -0.237 OA
ATOM     99  O   UNL     1      -1.121  16.078   1.016  1.00  0.00    -0.744 OA
ENDBRANCH  93  96
ENDBRANCH  66  89
ENDBRANCH  40  41
ENDBRANCH  32  35
ENDBRANCH  30  31
ENDBRANCH  29  30
ENDBRANCH  28  29
ENDBRANCH   1  28
TORSDOF 20
