REMARK SMILES O=C(NCCCCCCNC(=O)c1ccc(OC[C@H]2C[C@H]3CC[C@@H]2C3)c(Cl)c1)c1ccc(-c2c3nc(c(-c4cccc(S(=O)(=O)[O-])c4F)c4ccc([nH]4)c(-c4cccc(S(=O)(=O)[O-])c4F)c4nc(c(-c5cccc(S(=O)(=O)[O-])c5F)c5ccc2[nH]5)C=C4)C=C3)cc1
REMARK SMILES IDX 6 1 5 2 4 3 3 4 1 5 2 6 29 8 30 9 91 10 31 11 90 12 32 13
REMARK SMILES IDX 33 14 34 15 84 16 35 17 89 18 83 19 85 20 36 21 88 22 82 23
REMARK SMILES IDX 81 24 37 26 69 27 49 28 68 29 50 30 53 31 67 32 86 33 51 34
REMARK SMILES IDX 52 35 66 37 87 38 54 39 38 40 39 41 47 42 40 43 42 44 48 45
REMARK SMILES IDX 41 46 43 47 44 48 45 49 46 50 70 51 71 52 79 53 72 54 74 55
REMARK SMILES IDX 80 56 73 57 75 58 76 59 77 60 78 61 55 62 56 63 64 64 57 65
REMARK SMILES IDX 59 66 65 67 58 68 60 69 61 70 62 71 63 72 7 73 8 74 9 75
REMARK SMILES IDX 10 76 11 77 12 79 13 80 14 81 28 82 15 83 26 84 16 85 27 86
REMARK SMILES IDX 17 87 18 88 19 89 20 90 24 91 21 92 23 93 25 94 22 95
REMARK H PARENT 3 7 85 25 53 36 10 78
REMARK Flexibility Score: inf
ROOT
ATOM      1  C   UNL     1      19.868  -3.287   3.640  1.00  0.00     0.002 C 
ENDROOT
BRANCH   1   2
ATOM      2  C   UNL     1      20.869  -3.311   4.795  1.00  0.00     0.021 C 
BRANCH   2   3
ATOM      3  C   UNL     1      20.734  -4.508   5.726  1.00  0.00     0.116 C 
BRANCH   3   4
ATOM      4  N   UNL     1      21.025  -5.759   5.049  1.00  0.00    -0.352 N 
ATOM      5  O   UNL     1      22.201  -7.625   4.599  1.00  0.00    -0.269 OA
ATOM      6  C   UNL     1      21.930  -6.730   5.395  1.00  0.00     0.251 C 
ATOM      7  H   UNL     1      20.503  -5.933   4.232  1.00  0.00     0.163 HD
BRANCH   6   8
ATOM      8  C   UNL     1      22.583  -6.679   6.722  1.00  0.00     0.039 A 
ATOM      9  C   UNL     1      21.833  -6.416   7.873  1.00  0.00     0.014 A 
ATOM     10  C   UNL     1      23.955  -6.922   6.816  1.00  0.00     0.014 A 
ATOM     11  C   UNL     1      22.468  -6.301   9.104  1.00  0.00     0.010 A 
ATOM     12  C   UNL     1      24.580  -6.880   8.065  1.00  0.00     0.010 A 
ATOM     13  C   UNL     1      23.843  -6.562   9.217  1.00  0.00    -0.014 A 
BRANCH  13  14
ATOM     14  C   UNL     1      24.464  -6.641  10.562  1.00  0.00     0.031 A 
ATOM     15  C   UNL     1      25.532  -5.678  10.992  1.00  0.00     0.074 A 
ATOM     16  C   UNL     1      24.082  -7.645  11.375  1.00  0.00     0.049 A 
ATOM     17  N   UNL     1      26.192  -5.641  12.121  1.00  0.00    -0.248 NA
ATOM     18  C   UNL     1      25.919  -4.625  10.038  1.00  0.00     0.031 C 
ATOM     19  C   UNL     1      23.094  -8.674  11.032  1.00  0.00     0.029 A 
ATOM     20  N   UNL     1      24.491  -7.989  12.638  1.00  0.00    -0.354 N 
ATOM     21  C   UNL     1      27.101  -4.598  12.000  1.00  0.00     0.074 A 
ATOM     22  C   UNL     1      26.903  -4.016  10.690  1.00  0.00     0.031 C 
ATOM     23  C   UNL     1      22.980  -9.534  12.053  1.00  0.00     0.029 A 
ATOM     24  C   UNL     1      23.921  -9.153  13.099  1.00  0.00     0.049 A 
ATOM     25  H   UNL     1      25.130  -7.455  13.163  1.00  0.00     0.167 HD
ATOM     26  C   UNL     1      28.010  -4.165  12.906  1.00  0.00     0.034 A 
ATOM     27  C   UNL     1      24.154  -9.861  14.220  1.00  0.00     0.034 A 
ATOM     28  C   UNL     1      28.168  -4.727  14.222  1.00  0.00     0.049 A 
ATOM     29  C   UNL     1      25.162  -9.344  15.205  1.00  0.00     0.074 A 
ATOM     30  C   UNL     1      28.973  -4.278  15.255  1.00  0.00     0.029 A 
ATOM     31  N   UNL     1      27.535  -5.872  14.678  1.00  0.00    -0.354 N 
ATOM     32  N   UNL     1      25.873  -8.245  15.153  1.00  0.00    -0.248 NA
ATOM     33  C   UNL     1      25.384 -10.151  16.413  1.00  0.00     0.031 C 
ATOM     34  C   UNL     1      28.853  -5.173  16.323  1.00  0.00     0.029 A 
ATOM     35  C   UNL     1      27.958  -6.167  15.963  1.00  0.00     0.049 A 
ATOM     36  H   UNL     1      26.881  -6.399  14.164  1.00  0.00     0.167 HD
ATOM     37  C   UNL     1      26.619  -8.220  16.324  1.00  0.00     0.074 A 
ATOM     38  C   UNL     1      26.244  -9.396  17.083  1.00  0.00     0.031 C 
ATOM     39  C   UNL     1      27.547  -7.319  16.724  1.00  0.00     0.034 A 
BRANCH  26  40
ATOM     40  C   UNL     1      28.895  -3.005  12.538  1.00  0.00     0.023 A 
ATOM     41  C   UNL     1      28.373  -1.697  12.556  1.00  0.00     0.012 A 
ATOM     42  C   UNL     1      30.271  -3.200  12.299  1.00  0.00     0.148 A 
ATOM     43  C   UNL     1      29.204  -0.600  12.328  1.00  0.00     0.002 A 
ATOM     44  C   UNL     1      31.099  -2.100  12.108  1.00  0.00     0.091 A 
ATOM     45  F   UNL     1      30.742  -4.455  12.270  1.00  0.00    -0.205 F 
ATOM     46  C   UNL     1      30.567  -0.800  12.117  1.00  0.00     0.022 A 
BRANCH  44  47
ATOM     47  S   UNL     1      32.878  -2.246  11.902  1.00  0.00     0.127 S 
ATOM     48  O   UNL     1      33.046  -1.841  10.507  1.00  0.00    -0.237 OA
ATOM     49  O   UNL     1      33.380  -1.281  12.881  1.00  0.00    -0.237 OA
ATOM     50  O   UNL     1      33.205  -3.635  12.191  1.00  0.00    -0.744 OA
ENDBRANCH  44  47
ENDBRANCH  26  40
BRANCH  27  51
ATOM     51  C   UNL     1      23.413 -11.129  14.462  1.00  0.00     0.023 A 
ATOM     52  C   UNL     1      22.463 -11.193  15.498  1.00  0.00     0.012 A 
ATOM     53  C   UNL     1      23.618 -12.259  13.646  1.00  0.00     0.148 A 
ATOM     54  C   UNL     1      21.750 -12.369  15.734  1.00  0.00     0.002 A 
ATOM     55  C   UNL     1      22.861 -13.406  13.848  1.00  0.00     0.091 A 
ATOM     56  F   UNL     1      24.542 -12.187  12.677  1.00  0.00    -0.205 F 
ATOM     57  C   UNL     1      21.939 -13.470  14.902  1.00  0.00     0.022 A 
BRANCH  55  58
ATOM     58  S   UNL     1      22.944 -14.806  12.725  1.00  0.00     0.127 S 
ATOM     59  O   UNL     1      23.797 -15.733  13.463  1.00  0.00    -0.237 OA
ATOM     60  O   UNL     1      21.540 -15.206  12.625  1.00  0.00    -0.237 OA
ATOM     61  O   UNL     1      23.498 -14.271  11.488  1.00  0.00    -0.744 OA
ENDBRANCH  55  58
ENDBRANCH  27  51
BRANCH  39  62
ATOM     62  C   UNL     1      28.227  -7.563  18.044  1.00  0.00     0.023 A 
ATOM     63  C   UNL     1      29.195  -8.582  18.145  1.00  0.00     0.012 A 
ATOM     64  C   UNL     1      27.965  -6.741  19.156  1.00  0.00     0.148 A 
ATOM     65  C   UNL     1      29.874  -8.796  19.343  1.00  0.00     0.002 A 
ATOM     66  C   UNL     1      28.680  -6.929  20.333  1.00  0.00     0.091 A 
ATOM     67  F   UNL     1      27.028  -5.788  19.041  1.00  0.00    -0.205 F 
ATOM     68  C   UNL     1      29.626  -7.963  20.431  1.00  0.00     0.022 A 
BRANCH  66  69
ATOM     69  S   UNL     1      28.495  -5.851  21.758  1.00  0.00     0.127 S 
ATOM     70  O   UNL     1      27.844  -6.739  22.720  1.00  0.00    -0.237 OA
ATOM     71  O   UNL     1      29.884  -5.520  22.076  1.00  0.00    -0.237 OA
ATOM     72  O   UNL     1      27.690  -4.723  21.309  1.00  0.00    -0.744 OA
ENDBRANCH  66  69
ENDBRANCH  39  62
ENDBRANCH  13  14
ENDBRANCH   6   8
ENDBRANCH   3   4
ENDBRANCH   2   3
ENDBRANCH   1   2
BRANCH   1  73
ATOM     73  C   UNL     1      18.393  -3.344   4.051  1.00  0.00     0.002 C 
BRANCH  73  74
ATOM     74  C   UNL     1      17.956  -2.288   5.071  1.00  0.00     0.021 C 
BRANCH  74  75
ATOM     75  C   UNL     1      18.304  -0.850   4.692  1.00  0.00     0.116 C 
BRANCH  75  76
ATOM     76  N   UNL     1      17.674  -0.454   3.443  1.00  0.00    -0.352 N 
ATOM     77  C   UNL     1      16.771   0.551   3.228  1.00  0.00     0.251 C 
ATOM     78  H   UNL     1      17.930  -0.978   2.650  1.00  0.00     0.163 HD
ATOM     79  O   UNL     1      16.209   0.695   2.149  1.00  0.00    -0.269 OA
BRANCH  77  80
ATOM     80  C   UNL     1      16.465   1.464   4.338  1.00  0.00     0.041 A 
ATOM     81  C   UNL     1      17.439   2.333   4.822  1.00  0.00     0.018 A 
ATOM     82  C   UNL     1      15.203   1.406   4.921  1.00  0.00     0.038 A 
ATOM     83  C   UNL     1      17.136   3.143   5.913  1.00  0.00     0.049 A 
ATOM     84  C   UNL     1      14.906   2.208   6.030  1.00  0.00     0.083 A 
ATOM     85  C   UNL     1      15.869   3.107   6.524  1.00  0.00     0.137 A 
ATOM     86  Cl  UNL     1      13.347   1.923   6.719  1.00  0.00    -0.080 Cl
BRANCH  85  87
ATOM     87  O   UNL     1      15.805   3.994   7.562  1.00  0.00    -0.492 OA
BRANCH  87  88
ATOM     88  C   UNL     1      14.559   4.476   8.050  1.00  0.00     0.233 C 
BRANCH  88  89
ATOM     89  C   UNL     1      13.804   5.325   7.025  1.00  0.00     0.030 C 
ATOM     90  C   UNL     1      12.413   5.759   7.525  1.00  0.00     0.011 C 
ATOM     91  C   UNL     1      14.459   6.668   6.607  1.00  0.00    -0.004 C 
ATOM     92  C   UNL     1      12.430   7.279   7.300  1.00  0.00    -0.010 C 
ATOM     93  C   UNL     1      14.764   7.566   7.816  1.00  0.00     0.004 C 
ATOM     94  C   UNL     1      13.249   7.401   6.014  1.00  0.00     0.007 C 
ATOM     95  C   UNL     1      13.365   7.915   8.344  1.00  0.00     0.004 C 
ENDBRANCH  88  89
ENDBRANCH  87  88
ENDBRANCH  85  87
ENDBRANCH  77  80
ENDBRANCH  75  76
ENDBRANCH  74  75
ENDBRANCH  73  74
ENDBRANCH   1  73
TORSDOF 19
