REMARK SMILES C[C@@H]1CN(S(=O)(=O)N2CCC(C(=O)NCCCCCCNC(=O)c3ccc(-c4c5nc(c(-c6cccc(S(=O)(=O)[O-])c6F)c6ccc([nH]6)c(-c6cccc(S(=O)(=O)[O-])c6F)c6nc(c(-c7cccc(S(=O)(=O)[O-])c7F)c7ccc4[nH]7)C=C6)C=C5)cc3)CC2)C[C@@H](C)O1
REMARK SMILES IDX 18 1 17 2 16 3 15 4 14 5 12 6 13 7 11 9 8 10 9 11 88 12
REMARK SMILES IDX 10 13 87 14 5 15 6 16 7 17 4 18 1 19 2 20 3 21 92 22 90 23
REMARK SMILES IDX 89 24 91 25 19 26 20 27 21 28 22 29 23 31 24 32 25 33 86 34
REMARK SMILES IDX 26 35 85 36 27 37 28 38 29 39 79 40 30 41 84 42 78 43 80 44
REMARK SMILES IDX 31 45 83 46 77 47 76 48 32 50 64 51 44 52 63 53 45 54 48 55
REMARK SMILES IDX 62 56 81 57 46 58 47 59 61 61 82 62 49 63 33 64 34 65 42 66
REMARK SMILES IDX 35 67 37 68 43 69 36 70 38 71 39 72 40 73 41 74 65 75 66 76
REMARK SMILES IDX 74 77 67 78 69 79 75 80 68 81 70 82 71 83 72 84 73 85 50 86
REMARK SMILES IDX 51 87 59 88 52 89 54 90 60 91 53 92 55 93 56 94 57 95 58 96
REMARK H PARENT 14 8 21 30 80 49 48 60
REMARK Flexibility Score: inf
ROOT
ATOM      1  C   UNL     1       2.506  -0.636  -3.961  1.00  0.00     0.002 C 
ENDROOT
BRANCH   1   2
ATOM      2  C   UNL     1       2.551  -1.351  -2.608  1.00  0.00     0.002 C 
BRANCH   2   3
ATOM      3  C   UNL     1       1.387  -1.055  -1.667  1.00  0.00     0.021 C 
BRANCH   3   4
ATOM      4  C   UNL     1       0.001  -1.515  -2.107  1.00  0.00     0.116 C 
BRANCH   4   5
ATOM      5  N   UNL     1      -0.233  -2.915  -1.793  1.00  0.00    -0.356 N 
ATOM      6  C   UNL     1      -1.273  -3.537  -1.176  1.00  0.00     0.223 C 
ATOM      7  O   UNL     1      -1.183  -4.759  -1.012  1.00  0.00    -0.275 OA
ATOM      8  H   UNL     1       0.490  -3.520  -2.078  1.00  0.00     0.163 HD
BRANCH   6   9
ATOM      9  C   UNL     1      -2.488  -2.794  -0.622  1.00  0.00     0.081 C 
ATOM     10  N   UNL     1      -3.433  -0.258   0.131  1.00  0.00    -0.189 NA
ATOM     11  C   UNL     1      -4.117  -0.814  -1.046  1.00  0.00     0.104 C 
ATOM     12  C   UNL     1      -3.288  -1.257   1.182  1.00  0.00     0.104 C 
ATOM     13  C   UNL     1      -3.224  -1.905  -1.653  1.00  0.00     0.030 C 
ATOM     14  C   UNL     1      -2.127  -2.118   0.713  1.00  0.00     0.030 C 
BRANCH  10  15
ATOM     15  S   UNL     1      -3.384   1.382   0.433  1.00  0.00     0.282 S 
ATOM     16  O   UNL     1      -4.127   1.651   1.644  1.00  0.00    -0.195 OA
ATOM     17  O   UNL     1      -3.674   2.059  -0.806  1.00  0.00    -0.195 OA
BRANCH  15  18
ATOM     18  N   UNL     1      -1.725   1.612   0.764  1.00  0.00    -0.184 NA
ATOM     19  C   UNL     1       0.943   0.260   1.364  1.00  0.00     0.040 C 
ATOM     20  C   UNL     1       0.267   1.309   2.233  1.00  0.00     0.130 C 
ATOM     21  C   UNL     1      -1.265   1.236   2.141  1.00  0.00     0.135 C 
ATOM     22  O   UNL     1       0.739   2.621   1.918  1.00  0.00    -0.373 OA
ATOM     23  C   UNL     1       0.289   3.094   0.635  1.00  0.00     0.130 C 
ATOM     24  C   UNL     1      -1.249   3.022   0.492  1.00  0.00     0.135 C 
ATOM     25  C   UNL     1       0.802   4.523   0.516  1.00  0.00     0.040 C 
ENDBRANCH  15  18
ENDBRANCH  10  15
ENDBRANCH   6   9
ENDBRANCH   4   5
ENDBRANCH   3   4
ENDBRANCH   2   3
ENDBRANCH   1   2
BRANCH   1  26
ATOM     26  C   UNL     1       2.233   0.873  -3.928  1.00  0.00     0.021 C 
BRANCH  26  27
ATOM     27  C   UNL     1       3.141   1.699  -3.019  1.00  0.00     0.116 C 
BRANCH  27  28
ATOM     28  N   UNL     1       4.546   1.561  -3.364  1.00  0.00    -0.352 N 
ATOM     29  C   UNL     1       5.420   2.476  -3.894  1.00  0.00     0.251 C 
ATOM     30  H   UNL     1       4.930   0.672  -3.191  1.00  0.00     0.163 HD
ATOM     31  O   UNL     1       6.512   2.098  -4.312  1.00  0.00    -0.269 OA
BRANCH  29  32
ATOM     32  C   UNL     1       5.056   3.907  -3.978  1.00  0.00     0.039 A 
ATOM     33  C   UNL     1       5.352   4.609  -5.150  1.00  0.00     0.014 A 
ATOM     34  C   UNL     1       4.460   4.569  -2.901  1.00  0.00     0.014 A 
ATOM     35  C   UNL     1       5.002   5.957  -5.262  1.00  0.00     0.010 A 
ATOM     36  C   UNL     1       4.044   5.892  -3.042  1.00  0.00     0.010 A 
ATOM     37  C   UNL     1       4.315   6.603  -4.221  1.00  0.00    -0.014 A 
BRANCH  37  38
ATOM     38  C   UNL     1       3.859   8.012  -4.362  1.00  0.00     0.031 A 
ATOM     39  C   UNL     1       4.378   9.083  -3.440  1.00  0.00     0.074 A 
ATOM     40  C   UNL     1       2.917   8.316  -5.277  1.00  0.00     0.049 A 
ATOM     41  N   UNL     1       4.062  10.352  -3.391  1.00  0.00    -0.248 NA
ATOM     42  C   UNL     1       5.361   8.672  -2.425  1.00  0.00     0.031 C 
ATOM     43  C   UNL     1       2.281   7.357  -6.184  1.00  0.00     0.029 A 
ATOM     44  N   UNL     1       2.311   9.510  -5.580  1.00  0.00    -0.354 N 
ATOM     45  C   UNL     1       4.775  10.882  -2.323  1.00  0.00     0.074 A 
ATOM     46  C   UNL     1       5.517   9.790  -1.731  1.00  0.00     0.031 C 
ATOM     47  C   UNL     1       1.380   7.999  -6.942  1.00  0.00     0.029 A 
ATOM     48  C   UNL     1       1.343   9.405  -6.553  1.00  0.00     0.049 A 
ATOM     49  H   UNL     1       2.545  10.360  -5.143  1.00  0.00     0.167 HD
ATOM     50  C   UNL     1       4.827  12.164  -1.886  1.00  0.00     0.034 A 
ATOM     51  C   UNL     1       0.508  10.331  -7.065  1.00  0.00     0.034 A 
ATOM     52  C   UNL     1       4.106  13.252  -2.492  1.00  0.00     0.049 A 
ATOM     53  C   UNL     1       0.599  11.751  -6.577  1.00  0.00     0.074 A 
ATOM     54  C   UNL     1       4.160  14.599  -2.179  1.00  0.00     0.029 A 
ATOM     55  N   UNL     1       3.185  13.119  -3.520  1.00  0.00    -0.354 N 
ATOM     56  N   UNL     1       1.393  12.261  -5.668  1.00  0.00    -0.248 NA
ATOM     57  C   UNL     1      -0.298  12.729  -7.210  1.00  0.00     0.031 C 
ATOM     58  C   UNL     1       3.238  15.273  -2.986  1.00  0.00     0.029 A 
ATOM     59  C   UNL     1       2.649  14.355  -3.839  1.00  0.00     0.049 A 
ATOM     60  H   UNL     1       2.948  12.270  -3.959  1.00  0.00     0.167 HD
ATOM     61  C   UNL     1       1.121  13.625  -5.646  1.00  0.00     0.074 A 
ATOM     62  C   UNL     1       0.100  13.862  -6.646  1.00  0.00     0.031 C 
ATOM     63  C   UNL     1       1.663  14.590  -4.864  1.00  0.00     0.034 A 
BRANCH  50  64
ATOM     64  C   UNL     1       5.715  12.467  -0.706  1.00  0.00     0.023 A 
ATOM     65  C   UNL     1       7.117  12.392  -0.843  1.00  0.00     0.012 A 
ATOM     66  C   UNL     1       5.165  12.878   0.525  1.00  0.00     0.148 A 
ATOM     67  C   UNL     1       7.954  12.676   0.236  1.00  0.00     0.002 A 
ATOM     68  C   UNL     1       6.007  13.209   1.580  1.00  0.00     0.091 A 
ATOM     69  F   UNL     1       3.830  12.928   0.644  1.00  0.00    -0.205 F 
ATOM     70  C   UNL     1       7.400  13.094   1.443  1.00  0.00     0.022 A 
BRANCH  68  71
ATOM     71  S   UNL     1       5.395  13.839   3.147  1.00  0.00     0.127 S 
ATOM     72  O   UNL     1       5.678  12.720   4.045  1.00  0.00    -0.237 OA
ATOM     73  O   UNL     1       6.239  15.015   3.355  1.00  0.00    -0.237 OA
ATOM     74  O   UNL     1       3.984  14.131   2.941  1.00  0.00    -0.744 OA
ENDBRANCH  68  71
ENDBRANCH  50  64
BRANCH  51  75
ATOM     75  C   UNL     1      -0.457   9.948  -8.134  1.00  0.00     0.023 A 
ATOM     76  C   UNL     1      -0.268  10.424  -9.446  1.00  0.00     0.012 A 
ATOM     77  C   UNL     1      -1.539   9.089  -7.864  1.00  0.00     0.148 A 
ATOM     78  C   UNL     1      -1.159  10.078 -10.463  1.00  0.00     0.002 A 
ATOM     79  C   UNL     1      -2.388   8.700  -8.892  1.00  0.00     0.091 A 
ATOM     80  F   UNL     1      -1.703   8.652  -6.607  1.00  0.00    -0.205 F 
ATOM     81  C   UNL     1      -2.212   9.209 -10.189  1.00  0.00     0.022 A 
BRANCH  79  82
ATOM     82  S   UNL     1      -3.687   7.482  -8.663  1.00  0.00     0.127 S 
ATOM     83  O   UNL     1      -4.890   8.286  -8.866  1.00  0.00    -0.237 OA
ATOM     84  O   UNL     1      -3.394   6.529  -9.734  1.00  0.00    -0.237 OA
ATOM     85  O   UNL     1      -3.502   6.954  -7.319  1.00  0.00    -0.744 OA
ENDBRANCH  79  82
ENDBRANCH  51  75
BRANCH  63  86
ATOM     86  C   UNL     1       1.205  16.010  -5.082  1.00  0.00     0.023 A 
ATOM     87  C   UNL     1      -0.092  16.405  -4.700  1.00  0.00     0.012 A 
ATOM     88  C   UNL     1       2.094  16.971  -5.604  1.00  0.00     0.148 A 
ATOM     89  C   UNL     1      -0.509  17.725  -4.867  1.00  0.00     0.002 A 
ATOM     90  C   UNL     1       1.691  18.296  -5.717  1.00  0.00     0.091 A 
ATOM     91  F   UNL     1       3.319  16.573  -5.979  1.00  0.00    -0.205 F 
ATOM     92  C   UNL     1       0.385  18.672  -5.363  1.00  0.00     0.022 A 
BRANCH  90  93
ATOM     93  S   UNL     1       2.804  19.601  -6.249  1.00  0.00     0.127 S 
ATOM     94  O   UNL     1       2.250  19.949  -7.557  1.00  0.00    -0.237 OA
ATOM     95  O   UNL     1       2.606  20.616  -5.214  1.00  0.00    -0.237 OA
ATOM     96  O   UNL     1       4.135  19.012  -6.274  1.00  0.00    -0.744 OA
ENDBRANCH  90  93
ENDBRANCH  63  86
ENDBRANCH  37  38
ENDBRANCH  29  32
ENDBRANCH  27  28
ENDBRANCH  26  27
ENDBRANCH   1  26
TORSDOF 18
