REMARK SMILES C[C@@H]1CCC[C@H](S[C@@H]2CCC[C@]([NH2+]C3CC3)(C(=O)NCCCCCCNC(=O)c3ccc(-c4c5nc(c(-c6cccc(S(=O)(=O)[O-])c6F)c6ccc([nH]6)c(-c6cccc(S(=O)(=O)[O-])c6F)c6nc(c(-c7cccc(S(=O)(=O)[O-])c7F)c7ccc4[nH]7)C=C6)C=C5)cc3)C2)C1
REMARK SMILES IDX 23 1 22 2 21 3 20 4 19 5 17 6 18 7 12 9 8 10 9 11 92 12
REMARK SMILES IDX 10 13 11 14 7 15 6 16 1 17 2 18 3 19 93 20 4 21 5 22 13 23
REMARK SMILES IDX 14 26 15 27 16 28 24 29 25 30 26 31 27 32 28 34 29 35 30 36
REMARK SMILES IDX 91 37 31 38 90 39 32 40 33 41 34 42 84 43 35 44 89 45 83 46
REMARK SMILES IDX 85 47 36 48 88 49 82 50 81 51 37 53 69 54 49 55 68 56 50 57
REMARK SMILES IDX 53 58 67 59 86 60 51 61 52 62 66 64 87 65 54 66 38 67 39 68
REMARK SMILES IDX 47 69 40 70 42 71 48 72 41 73 43 74 44 75 45 76 46 77 70 78
REMARK SMILES IDX 71 79 79 80 72 81 74 82 80 83 73 84 75 85 76 86 77 87 78 88
REMARK SMILES IDX 55 89 56 90 64 91 57 92 59 93 65 94 58 95 60 96 61 97 62 98
REMARK SMILES IDX 63 99
REMARK H PARENT 19 8 13 24 13 25 26 33 85 52 53 63
REMARK Flexibility Score: inf
ROOT
ATOM      1  C   UNL     1       6.416   5.277   3.437  1.00  0.00     0.002 C 
ENDROOT
BRANCH   1   2
ATOM      2  C   UNL     1       6.158   4.001   4.244  1.00  0.00     0.002 C 
BRANCH   2   3
ATOM      3  C   UNL     1       4.738   3.851   4.792  1.00  0.00     0.021 C 
BRANCH   3   4
ATOM      4  C   UNL     1       3.628   3.985   3.754  1.00  0.00     0.116 C 
BRANCH   4   5
ATOM      5  N   UNL     1       3.683   2.949   2.743  1.00  0.00    -0.351 N 
ATOM      6  C   UNL     1       2.826   1.942   2.408  1.00  0.00     0.281 C 
ATOM      7  O   UNL     1       3.191   1.235   1.462  1.00  0.00    -0.268 OA
ATOM      8  H   UNL     1       4.498   2.977   2.191  1.00  0.00     0.163 HD
BRANCH   6   9
ATOM      9  C   UNL     1       1.461   1.713   3.139  1.00  0.00     0.176 C 
ATOM     10  C   UNL     1      -0.778   0.384   2.885  1.00  0.00     0.053 C 
ATOM     11  C   UNL     1      -1.595   1.670   2.788  1.00  0.00     0.015 C 
ATOM     12  C   UNL     1       0.695   0.517   2.515  1.00  0.00     0.093 C 
ATOM     13  C   UNL     1      -0.849   2.855   3.394  1.00  0.00     0.008 C 
ATOM     14  C   UNL     1       0.580   2.969   2.871  1.00  0.00     0.079 C 
BRANCH  10  15
ATOM     15  S   UNL     1      -1.596  -1.107   2.139  1.00  0.00    -0.155 SA
BRANCH  15  16
ATOM     16  C   UNL     1      -1.613  -1.011   0.284  1.00  0.00     0.047 C 
ATOM     17  C   UNL     1       1.875  -1.496   0.151  1.00  0.00     0.007 C 
ATOM     18  C   UNL     1       0.753  -1.122  -0.822  1.00  0.00    -0.013 C 
ATOM     19  C   UNL     1       0.619   0.383  -1.141  1.00  0.00     0.003 C 
ATOM     20  C   UNL     1      -0.545  -1.840  -0.446  1.00  0.00     0.017 C 
ATOM     21  C   UNL     1      -0.630   1.137  -0.678  1.00  0.00     0.001 C 
ATOM     22  C   UNL     1      -1.869   0.294  -0.450  1.00  0.00     0.014 C 
ENDBRANCH  15  16
ENDBRANCH  10  15
BRANCH   9  23
ATOM     23  N   UNL     1       1.678   1.485   4.584  1.00  0.00    -0.331 N 
ATOM     24  H   UNL     1       0.750   1.433   5.004  1.00  0.00     0.347 HD
ATOM     25  H   UNL     1       2.298   2.259   4.825  1.00  0.00     0.347 HD
BRANCH  23  26
ATOM     26  C   UNL     1       2.426   0.328   5.103  1.00  0.00     0.183 C 
ATOM     27  C   UNL     1       3.084  -0.773   4.317  1.00  0.00     0.071 C 
ATOM     28  C   UNL     1       3.930   0.249   5.003  1.00  0.00     0.071 C 
ENDBRANCH  23  26
ENDBRANCH   9  23
ENDBRANCH   6   9
ENDBRANCH   4   5
ENDBRANCH   3   4
ENDBRANCH   2   3
ENDBRANCH   1   2
BRANCH   1  29
ATOM     29  C   UNL     1       5.955   6.580   4.096  1.00  0.00     0.021 C 
BRANCH  29  30
ATOM     30  C   UNL     1       6.476   6.813   5.508  1.00  0.00     0.116 C 
BRANCH  30  31
ATOM     31  N   UNL     1       7.923   6.892   5.554  1.00  0.00    -0.352 N 
ATOM     32  C   UNL     1       8.719   7.858   6.114  1.00  0.00     0.251 C 
ATOM     33  H   UNL     1       8.401   6.147   5.122  1.00  0.00     0.163 HD
ATOM     34  O   UNL     1       9.926   7.853   5.893  1.00  0.00    -0.269 OA
BRANCH  32  35
ATOM     35  C   UNL     1       8.121   8.914   6.962  1.00  0.00     0.039 A 
ATOM     36  C   UNL     1       8.561  10.228   6.795  1.00  0.00     0.014 A 
ATOM     37  C   UNL     1       7.149   8.617   7.923  1.00  0.00     0.014 A 
ATOM     38  C   UNL     1       7.998  11.247   7.564  1.00  0.00     0.010 A 
ATOM     39  C   UNL     1       6.531   9.646   8.631  1.00  0.00     0.010 A 
ATOM     40  C   UNL     1       6.960  10.970   8.471  1.00  0.00    -0.014 A 
BRANCH  40  41
ATOM     41  C   UNL     1       6.315  12.074   9.227  1.00  0.00     0.031 A 
ATOM     42  C   UNL     1       6.409  12.148  10.726  1.00  0.00     0.074 A 
ATOM     43  C   UNL     1       5.612  13.006   8.554  1.00  0.00     0.049 A 
ATOM     44  N   UNL     1       5.993  13.093  11.530  1.00  0.00    -0.248 NA
ATOM     45  C   UNL     1       7.025  11.004  11.417  1.00  0.00     0.031 C 
ATOM     46  C   UNL     1       5.363  12.992   7.111  1.00  0.00     0.029 A 
ATOM     47  N   UNL     1       4.980  14.142   8.990  1.00  0.00    -0.354 N 
ATOM     48  C   UNL     1       6.277  12.652  12.818  1.00  0.00     0.074 A 
ATOM     49  C   UNL     1       6.857  11.333  12.690  1.00  0.00     0.031 C 
ATOM     50  C   UNL     1       4.665  14.088   6.775  1.00  0.00     0.029 A 
ATOM     51  C   UNL     1       4.400  14.871   7.978  1.00  0.00     0.049 A 
ATOM     52  H   UNL     1       4.945  14.410   9.936  1.00  0.00     0.167 HD
ATOM     53  C   UNL     1       6.103  13.297  13.997  1.00  0.00     0.034 A 
ATOM     54  C   UNL     1       3.747  16.048   8.011  1.00  0.00     0.034 A 
ATOM     55  C   UNL     1       5.546  14.620  14.116  1.00  0.00     0.049 A 
ATOM     56  C   UNL     1       3.615  16.772   9.322  1.00  0.00     0.074 A 
ATOM     57  C   UNL     1       5.406  15.398  15.251  1.00  0.00     0.029 A 
ATOM     58  N   UNL     1       5.021  15.355  13.063  1.00  0.00    -0.354 N 
ATOM     59  N   UNL     1       4.051  16.421  10.508  1.00  0.00    -0.248 NA
ATOM     60  C   UNL     1       2.938  18.075   9.290  1.00  0.00     0.031 C 
ATOM     61  C   UNL     1       4.769  16.592  14.888  1.00  0.00     0.029 A 
ATOM     62  C   UNL     1       4.542  16.571  13.522  1.00  0.00     0.049 A 
ATOM     63  H   UNL     1       4.992  15.055  12.126  1.00  0.00     0.167 HD
ATOM     64  C   UNL     1       3.728  17.471  11.359  1.00  0.00     0.074 A 
ATOM     65  C   UNL     1       3.087  18.484  10.543  1.00  0.00     0.031 C 
ATOM     66  C   UNL     1       3.930  17.582  12.696  1.00  0.00     0.034 A 
BRANCH  53  67
ATOM     67  C   UNL     1       6.566  12.592  15.248  1.00  0.00     0.023 A 
ATOM     68  C   UNL     1       7.947  12.395  15.467  1.00  0.00     0.012 A 
ATOM     69  C   UNL     1       5.647  12.146  16.217  1.00  0.00     0.148 A 
ATOM     70  C   UNL     1       8.401  11.725  16.602  1.00  0.00     0.002 A 
ATOM     71  C   UNL     1       6.111  11.521  17.371  1.00  0.00     0.091 A 
ATOM     72  F   UNL     1       4.338  12.318  15.987  1.00  0.00    -0.205 F 
ATOM     73  C   UNL     1       7.485  11.297  17.557  1.00  0.00     0.022 A 
BRANCH  71  74
ATOM     74  S   UNL     1       5.014  11.006  18.697  1.00  0.00     0.127 S 
ATOM     75  O   UNL     1       4.989   9.556  18.513  1.00  0.00    -0.237 OA
ATOM     76  O   UNL     1       5.735  11.457  19.888  1.00  0.00    -0.237 OA
ATOM     77  O   UNL     1       3.752  11.693  18.459  1.00  0.00    -0.744 OA
ENDBRANCH  71  74
ENDBRANCH  53  67
BRANCH  54  78
ATOM     78  C   UNL     1       3.263  16.657   6.741  1.00  0.00     0.023 A 
ATOM     79  C   UNL     1       3.915  17.795   6.229  1.00  0.00     0.012 A 
ATOM     80  C   UNL     1       2.204  16.084   6.011  1.00  0.00     0.148 A 
ATOM     81  C   UNL     1       3.505  18.368   5.025  1.00  0.00     0.002 A 
ATOM     82  C   UNL     1       1.837  16.626   4.785  1.00  0.00     0.091 A 
ATOM     83  F   UNL     1       1.594  15.004   6.521  1.00  0.00    -0.205 F 
ATOM     84  C   UNL     1       2.475  17.778   4.298  1.00  0.00     0.022 A 
BRANCH  82  85
ATOM     85  S   UNL     1       0.618  15.856   3.715  1.00  0.00     0.127 S 
ATOM     86  O   UNL     1      -0.459  16.842   3.729  1.00  0.00    -0.237 OA
ATOM     87  O   UNL     1       1.349  15.757   2.451  1.00  0.00    -0.237 OA
ATOM     88  O   UNL     1       0.305  14.573   4.331  1.00  0.00    -0.744 OA
ENDBRANCH  82  85
ENDBRANCH  54  78
BRANCH  66  89
ATOM     89  C   UNL     1       3.463  18.854  13.359  1.00  0.00     0.023 A 
ATOM     90  C   UNL     1       2.083  19.113  13.489  1.00  0.00     0.012 A 
ATOM     91  C   UNL     1       4.388  19.780  13.879  1.00  0.00     0.148 A 
ATOM     92  C   UNL     1       1.633  20.294  14.078  1.00  0.00     0.002 A 
ATOM     93  C   UNL     1       3.932  20.930  14.513  1.00  0.00     0.091 A 
ATOM     94  F   UNL     1       5.698  19.531  13.731  1.00  0.00    -0.205 F 
ATOM     95  C   UNL     1       2.556  21.197  14.598  1.00  0.00     0.022 A 
BRANCH  93  96
ATOM     96  S   UNL     1       5.049  22.099  15.296  1.00  0.00     0.127 S 
ATOM     97  O   UNL     1       5.076  23.187  14.320  1.00  0.00    -0.237 OA
ATOM     98  O   UNL     1       4.349  22.415  16.542  1.00  0.00    -0.237 OA
ATOM     99  O   UNL     1       6.306  21.384  15.479  1.00  0.00    -0.744 OA
ENDBRANCH  93  96
ENDBRANCH  66  89
ENDBRANCH  40  41
ENDBRANCH  32  35
ENDBRANCH  30  31
ENDBRANCH  29  30
ENDBRANCH   1  29
TORSDOF 20
