REMARK SMILES CN(C)S(=O)(=O)c1cccc(-c2cc(Cl)cc(C(=O)NCCCCCCNC(=O)c3ccc(-c4c5nc(c(-c6cccc(S(=O)(=O)[O-])c6F)c6ccc([nH]6)c(-c6cccc(S(=O)(=O)[O-])c6F)c6nc(c(-c7cccc(S(=O)(=O)[O-])c7F)c7ccc4[nH]7)C=C6)C=C5)cc3)c2)c1
REMARK SMILES IDX 23 1 22 2 21 3 20 4 18 5 19 6 17 8 12 9 13 10 93 11 14 12
REMARK SMILES IDX 15 13 16 14 11 15 7 16 8 17 94 18 9 19 10 20 4 21 5 22 6 23
REMARK SMILES IDX 2 24 1 25 3 26 24 27 25 28 26 29 27 30 28 31 29 33 30 34
REMARK SMILES IDX 31 35 92 36 32 37 91 38 33 39 34 40 35 41 85 42 36 43 90 44
REMARK SMILES IDX 84 45 86 46 37 47 89 48 83 49 82 50 38 52 70 53 50 54 69 55
REMARK SMILES IDX 51 56 54 57 68 58 87 59 52 60 53 61 67 63 88 64 55 65 39 66
REMARK SMILES IDX 40 67 48 68 41 69 43 70 49 71 42 72 44 73 45 74 46 75 47 76
REMARK SMILES IDX 71 77 72 78 80 79 73 80 75 81 81 82 74 83 76 84 77 85 78 86
REMARK SMILES IDX 79 87 56 88 57 89 65 90 58 91 60 92 66 93 59 94 61 95 62 96
REMARK SMILES IDX 63 97 64 98
REMARK H PARENT 20 7 27 32 86 51 54 62
REMARK Flexibility Score: inf
ROOT
ATOM      1  C   UNL     1      -6.550   1.622  -2.424  1.00  0.00     0.002 C 
ENDROOT
BRANCH   1   2
ATOM      2  C   UNL     1      -5.533   2.273  -3.361  1.00  0.00     0.021 C 
BRANCH   2   3
ATOM      3  C   UNL     1      -4.420   1.380  -3.898  1.00  0.00     0.116 C 
BRANCH   3   4
ATOM      4  N   UNL     1      -4.875   0.267  -4.719  1.00  0.00    -0.352 N 
ATOM      5  C   UNL     1      -4.319  -0.307  -5.843  1.00  0.00     0.251 C 
ATOM      6  O   UNL     1      -4.909  -1.233  -6.396  1.00  0.00    -0.269 OA
ATOM      7  H   UNL     1      -5.720  -0.143  -4.424  1.00  0.00     0.163 HD
BRANCH   5   8
ATOM      8  C   UNL     1      -3.053   0.199  -6.439  1.00  0.00     0.041 A 
ATOM      9  C   UNL     1      -0.954   1.428  -6.227  1.00  0.00    -0.016 A 
ATOM     10  C   UNL     1      -0.837   1.435  -7.622  1.00  0.00     0.029 A 
ATOM     11  C   UNL     1      -2.020   0.712  -5.656  1.00  0.00     0.022 A 
ATOM     12  C   UNL     1      -1.798   0.798  -8.411  1.00  0.00     0.042 A 
ATOM     13  Cl  UNL     1      -1.639   0.820 -10.125  1.00  0.00    -0.084 Cl
ATOM     14  C   UNL     1      -2.918   0.204  -7.830  1.00  0.00     0.034 A 
BRANCH   9  15
ATOM     15  C   UNL     1      -0.147   2.295  -5.351  1.00  0.00    -0.017 A 
ATOM     16  C   UNL     1       0.857   2.727  -3.185  1.00  0.00     0.083 A 
ATOM     17  C   UNL     1       0.891   4.098  -3.450  1.00  0.00     0.022 A 
ATOM     18  C   UNL     1       0.377   1.823  -4.137  1.00  0.00     0.030 A 
ATOM     19  C   UNL     1       0.447   4.571  -4.679  1.00  0.00     0.002 A 
ATOM     20  C   UNL     1      -0.074   3.677  -5.616  1.00  0.00     0.009 A 
BRANCH  16  21
ATOM     21  S   UNL     1       1.367   2.181  -1.573  1.00  0.00     0.242 S 
ATOM     22  O   UNL     1       0.801   3.120  -0.624  1.00  0.00    -0.207 OA
ATOM     23  O   UNL     1       2.781   1.923  -1.681  1.00  0.00    -0.207 OA
BRANCH  21  24
ATOM     24  N   UNL     1       0.556   0.679  -1.320  1.00  0.00    -0.204 NA
ATOM     25  C   UNL     1       1.154  -0.058  -0.168  1.00  0.00     0.124 C 
ATOM     26  C   UNL     1      -0.913   0.780  -1.154  1.00  0.00     0.124 C 
ENDBRANCH  21  24
ENDBRANCH  16  21
ENDBRANCH   9  15
ENDBRANCH   5   8
ENDBRANCH   3   4
ENDBRANCH   2   3
ENDBRANCH   1   2
BRANCH   1  27
ATOM     27  C   UNL     1      -5.993   0.872  -1.212  1.00  0.00     0.002 C 
BRANCH  27  28
ATOM     28  C   UNL     1      -5.005   1.629  -0.322  1.00  0.00     0.021 C 
BRANCH  28  29
ATOM     29  C   UNL     1      -5.460   2.991   0.194  1.00  0.00     0.116 C 
BRANCH  29  30
ATOM     30  N   UNL     1      -6.662   2.924   1.004  1.00  0.00    -0.352 N 
ATOM     31  C   UNL     1      -6.930   3.497   2.225  1.00  0.00     0.251 C 
ATOM     32  H   UNL     1      -7.396   2.389   0.623  1.00  0.00     0.163 HD
ATOM     33  O   UNL     1      -7.981   3.223   2.801  1.00  0.00    -0.269 OA
BRANCH  31  34
ATOM     34  C   UNL     1      -5.958   4.416   2.864  1.00  0.00     0.039 A 
ATOM     35  C   UNL     1      -5.719   4.292   4.237  1.00  0.00     0.014 A 
ATOM     36  C   UNL     1      -5.306   5.415   2.135  1.00  0.00     0.014 A 
ATOM     37  C   UNL     1      -4.795   5.132   4.866  1.00  0.00     0.010 A 
ATOM     38  C   UNL     1      -4.337   6.208   2.750  1.00  0.00     0.010 A 
ATOM     39  C   UNL     1      -4.079   6.084   4.123  1.00  0.00    -0.014 A 
BRANCH  39  40
ATOM     40  C   UNL     1      -3.072   6.970   4.766  1.00  0.00     0.031 A 
ATOM     41  C   UNL     1      -3.294   8.459   4.813  1.00  0.00     0.074 A 
ATOM     42  C   UNL     1      -1.921   6.447   5.236  1.00  0.00     0.049 A 
ATOM     43  N   UNL     1      -2.508   9.397   5.274  1.00  0.00    -0.248 NA
ATOM     44  C   UNL     1      -4.555   8.962   4.242  1.00  0.00     0.031 C 
ATOM     45  C   UNL     1      -1.553   5.031   5.185  1.00  0.00     0.029 A 
ATOM     46  N   UNL     1      -0.838   7.050   5.826  1.00  0.00    -0.354 N 
ATOM     47  C   UNL     1      -3.156  10.599   5.015  1.00  0.00     0.074 A 
ATOM     48  C   UNL     1      -4.388  10.274   4.329  1.00  0.00     0.031 C 
ATOM     49  C   UNL     1      -0.332   4.874   5.722  1.00  0.00     0.029 A 
ATOM     50  C   UNL     1       0.180   6.178   6.136  1.00  0.00     0.049 A 
ATOM     51  H   UNL     1      -0.793   8.016   6.010  1.00  0.00     0.167 HD
ATOM     52  C   UNL     1      -2.780  11.858   5.346  1.00  0.00     0.034 A 
ATOM     53  C   UNL     1       1.387   6.402   6.693  1.00  0.00     0.034 A 
ATOM     54  C   UNL     1      -1.584  12.175   6.079  1.00  0.00     0.049 A 
ATOM     55  C   UNL     1       1.752   7.803   7.108  1.00  0.00     0.074 A 
ATOM     56  C   UNL     1      -1.152  13.410   6.530  1.00  0.00     0.029 A 
ATOM     57  N   UNL     1      -0.631  11.249   6.474  1.00  0.00    -0.354 N 
ATOM     58  N   UNL     1       1.055   8.907   6.991  1.00  0.00    -0.248 NA
ATOM     59  C   UNL     1       3.052   7.983   7.771  1.00  0.00     0.031 C 
ATOM     60  C   UNL     1       0.066  13.231   7.195  1.00  0.00     0.029 A 
ATOM     61  C   UNL     1       0.385  11.882   7.169  1.00  0.00     0.049 A 
ATOM     62  H   UNL     1      -0.670  10.283   6.288  1.00  0.00     0.167 HD
ATOM     63  C   UNL     1       1.808   9.901   7.604  1.00  0.00     0.074 A 
ATOM     64  C   UNL     1       3.009   9.266   8.106  1.00  0.00     0.031 C 
ATOM     65  C   UNL     1       1.538  11.224   7.727  1.00  0.00     0.034 A 
BRANCH  52  66
ATOM     66  C   UNL     1      -3.710  12.985   4.977  1.00  0.00     0.023 A 
ATOM     67  C   UNL     1      -4.920  13.140   5.685  1.00  0.00     0.012 A 
ATOM     68  C   UNL     1      -3.370  13.916   3.977  1.00  0.00     0.148 A 
ATOM     69  C   UNL     1      -5.793  14.183   5.380  1.00  0.00     0.002 A 
ATOM     70  C   UNL     1      -4.227  14.978   3.708  1.00  0.00     0.091 A 
ATOM     71  F   UNL     1      -2.227  13.741   3.299  1.00  0.00    -0.205 F 
ATOM     72  C   UNL     1      -5.443  15.107   4.400  1.00  0.00     0.022 A 
BRANCH  70  73
ATOM     73  S   UNL     1      -3.830  16.262   2.515  1.00  0.00     0.127 S 
ATOM     74  O   UNL     1      -4.719  15.920   1.406  1.00  0.00    -0.237 OA
ATOM     75  O   UNL     1      -4.198  17.481   3.236  1.00  0.00    -0.237 OA
ATOM     76  O   UNL     1      -2.405  16.127   2.243  1.00  0.00    -0.744 OA
ENDBRANCH  70  73
ENDBRANCH  52  66
BRANCH  53  77
ATOM     77  C   UNL     1       2.298   5.257   6.983  1.00  0.00     0.023 A 
ATOM     78  C   UNL     1       2.507   4.870   8.321  1.00  0.00     0.012 A 
ATOM     79  C   UNL     1       2.933   4.534   5.954  1.00  0.00     0.148 A 
ATOM     80  C   UNL     1       3.355   3.808   8.633  1.00  0.00     0.002 A 
ATOM     81  C   UNL     1       3.733   3.441   6.269  1.00  0.00     0.091 A 
ATOM     82  F   UNL     1       2.737   4.925   4.687  1.00  0.00    -0.205 F 
ATOM     83  C   UNL     1       3.960   3.087   7.608  1.00  0.00     0.022 A 
BRANCH  81  84
ATOM     84  S   UNL     1       4.438   2.372   5.008  1.00  0.00     0.127 S 
ATOM     85  O   UNL     1       5.838   2.784   5.014  1.00  0.00    -0.237 OA
ATOM     86  O   UNL     1       4.185   1.039   5.560  1.00  0.00    -0.237 OA
ATOM     87  O   UNL     1       3.688   2.662   3.793  1.00  0.00    -0.744 OA
ENDBRANCH  81  84
ENDBRANCH  53  77
BRANCH  65  88
ATOM     88  C   UNL     1       2.529  12.076   8.476  1.00  0.00     0.023 A 
ATOM     89  C   UNL     1       3.758  12.412   7.875  1.00  0.00     0.012 A 
ATOM     90  C   UNL     1       2.209  12.607   9.741  1.00  0.00     0.148 A 
ATOM     91  C   UNL     1       4.666  13.240   8.535  1.00  0.00     0.002 A 
ATOM     92  C   UNL     1       3.099  13.468  10.373  1.00  0.00     0.091 A 
ATOM     93  F   UNL     1       1.044  12.258  10.306  1.00  0.00    -0.205 F 
ATOM     94  C   UNL     1       4.332  13.777   9.776  1.00  0.00     0.022 A 
BRANCH  92  95
ATOM     95  S   UNL     1       2.704  14.277  11.928  1.00  0.00     0.127 S 
ATOM     96  O   UNL     1       3.471  13.480  12.883  1.00  0.00    -0.237 OA
ATOM     97  O   UNL     1       3.215  15.632  11.716  1.00  0.00    -0.237 OA
ATOM     98  O   UNL     1       1.255  14.197  12.059  1.00  0.00    -0.744 OA
ENDBRANCH  92  95
ENDBRANCH  65  88
ENDBRANCH  39  40
ENDBRANCH  31  34
ENDBRANCH  29  30
ENDBRANCH  28  29
ENDBRANCH  27  28
ENDBRANCH   1  27
TORSDOF 19
