REMARK SMILES CC(C)N(c1cc2c(cc1Cl)C=C(C(=O)NCCCCCCNC(=O)c1ccc(-c3c4nc(c(-c5cccc(S(=O)(=O)[O-])c5F)c5ccc([nH]5)c(-c5cccc(S(=O)(=O)[O-])c5F)c5nc(c(-c6cccc(S(=O)(=O)[O-])c6F)c6ccc3[nH]6)C=C5)C=C4)cc1)[C@@H](C(F)(F)F)O2)C(C)C
REMARK SMILES IDX 20 1 19 2 18 3 17 4 16 5 14 6 15 7 13 9 5 10 6 11 10 12 7 13
REMARK SMILES IDX 9 14 11 15 8 16 94 17 12 18 89 19 4 20 2 21 1 22 3 23 95 24
REMARK SMILES IDX 96 25 97 26 90 27 91 28 92 29 93 30 21 31 22 32 23 33 24 34
REMARK SMILES IDX 25 36 26 37 27 38 88 39 28 40 87 41 29 42 30 43 31 44 81 45
REMARK SMILES IDX 32 46 86 47 80 48 82 49 33 50 85 51 79 52 78 53 34 55 66 56
REMARK SMILES IDX 46 57 65 58 47 59 50 60 64 61 83 62 48 63 49 64 63 66 84 67
REMARK SMILES IDX 51 68 35 69 36 70 44 71 37 72 39 73 45 74 38 75 40 76 41 77
REMARK SMILES IDX 42 78 43 79 67 80 68 81 76 82 69 83 71 84 77 85 70 86 72 87
REMARK SMILES IDX 73 88 74 89 75 90 52 91 53 92 61 93 54 94 56 95 62 96 55 97
REMARK SMILES IDX 57 98 58 99 59 100 60 101
REMARK H PARENT 16 8 23 35 82 54 50 65
REMARK Flexibility Score: inf
ROOT
ATOM      1  C   UNL     1      -9.227  -8.806   0.784  1.00  0.00     0.002 C 
ENDROOT
BRANCH   1   2
ATOM      2  C   UNL     1      -7.716  -9.074   0.770  1.00  0.00     0.002 C 
BRANCH   2   3
ATOM      3  C   UNL     1      -6.829  -7.871   0.433  1.00  0.00     0.021 C 
BRANCH   3   4
ATOM      4  C   UNL     1      -7.034  -6.664   1.345  1.00  0.00     0.116 C 
BRANCH   4   5
ATOM      5  N   UNL     1      -6.275  -6.785   2.578  1.00  0.00    -0.352 N 
ATOM      6  C   UNL     1      -5.279  -6.117   3.204  1.00  0.00     0.251 C 
ATOM      7  O   UNL     1      -4.945  -6.585   4.298  1.00  0.00    -0.270 OA
ATOM      8  H   UNL     1      -6.565  -7.566   3.102  1.00  0.00     0.163 HD
BRANCH   6   9
ATOM      9  C   UNL     1      -4.582  -4.902   2.683  1.00  0.00     0.067 C 
ATOM     10  C   UNL     1      -1.408  -0.987   2.054  1.00  0.00     0.060 A 
ATOM     11  C   UNL     1      -2.345  -1.660   1.250  1.00  0.00     0.074 A 
ATOM     12  C   UNL     1      -1.210  -1.497   3.359  1.00  0.00     0.065 A 
ATOM     13  C   UNL     1      -3.057  -2.763   1.720  1.00  0.00     0.130 A 
ATOM     14  C   UNL     1      -1.896  -2.637   3.812  1.00  0.00     0.034 A 
ATOM     15  Cl  UNL     1      -0.179  -0.720   4.517  1.00  0.00    -0.082 Cl
ATOM     16  C   UNL     1      -2.825  -3.272   2.992  1.00  0.00     0.019 A 
ATOM     17  O   UNL     1      -3.950  -3.324   0.856  1.00  0.00    -0.475 OA
ATOM     18  C   UNL     1      -3.540  -4.469   3.419  1.00  0.00     0.025 C 
ATOM     19  C   UNL     1      -4.995  -4.139   1.454  1.00  0.00     0.314 C 
BRANCH  10  20
ATOM     20  N   UNL     1      -0.737   0.138   1.532  1.00  0.00    -0.365 N 
BRANCH  20  21
ATOM     21  C   UNL     1       0.735   0.035   1.432  1.00  0.00     0.076 C 
ATOM     22  C   UNL     1       1.221  -0.260   0.014  1.00  0.00     0.030 C 
ATOM     23  C   UNL     1       1.462   1.243   2.018  1.00  0.00     0.030 C 
ENDBRANCH  20  21
BRANCH  20  24
ATOM     24  C   UNL     1      -1.588   1.185   0.919  1.00  0.00     0.076 C 
ATOM     25  C   UNL     1      -1.396   2.552   1.570  1.00  0.00     0.030 C 
ATOM     26  C   UNL     1      -1.463   1.275  -0.599  1.00  0.00     0.030 C 
ENDBRANCH  20  24
ENDBRANCH  10  20
BRANCH  19  27
ATOM     27  C   UNL     1      -6.249  -3.277   1.695  1.00  0.00     0.429 C 
ATOM     28  F   UNL     1      -6.748  -2.816   0.523  1.00  0.00    -0.167 F 
ATOM     29  F   UNL     1      -7.246  -3.975   2.289  1.00  0.00    -0.167 F 
ATOM     30  F   UNL     1      -5.997  -2.206   2.482  1.00  0.00    -0.167 F 
ENDBRANCH  19  27
ENDBRANCH   6   9
ENDBRANCH   4   5
ENDBRANCH   3   4
ENDBRANCH   2   3
ENDBRANCH   1   2
BRANCH   1  31
ATOM     31  C   UNL     1      -9.780  -8.044  -0.422  1.00  0.00     0.021 C 
BRANCH  31  32
ATOM     32  C   UNL     1      -9.519  -8.698  -1.773  1.00  0.00     0.116 C 
BRANCH  32  33
ATOM     33  N   UNL     1     -10.212  -9.967  -1.925  1.00  0.00    -0.352 N 
ATOM     34  C   UNL     1     -11.011 -10.388  -2.962  1.00  0.00     0.251 C 
ATOM     35  H   UNL     1     -10.094 -10.609  -1.188  1.00  0.00     0.163 HD
ATOM     36  O   UNL     1     -11.636 -11.441  -2.873  1.00  0.00    -0.269 OA
BRANCH  34  37
ATOM     37  C   UNL     1     -11.134  -9.539  -4.166  1.00  0.00     0.039 A 
ATOM     38  C   UNL     1      -9.990  -9.040  -4.797  1.00  0.00     0.014 A 
ATOM     39  C   UNL     1     -12.405  -9.192  -4.630  1.00  0.00     0.014 A 
ATOM     40  C   UNL     1     -10.120  -8.077  -5.792  1.00  0.00     0.010 A 
ATOM     41  C   UNL     1     -12.531  -8.276  -5.678  1.00  0.00     0.010 A 
ATOM     42  C   UNL     1     -11.391  -7.675  -6.235  1.00  0.00    -0.014 A 
BRANCH  42  43
ATOM     43  C   UNL     1     -11.508  -6.627  -7.282  1.00  0.00     0.031 A 
ATOM     44  C   UNL     1     -12.140  -5.295  -6.976  1.00  0.00     0.074 A 
ATOM     45  C   UNL     1     -11.022  -6.874  -8.514  1.00  0.00     0.049 A 
ATOM     46  N   UNL     1     -12.332  -4.277  -7.775  1.00  0.00    -0.248 NA
ATOM     47  C   UNL     1     -12.622  -5.072  -5.602  1.00  0.00     0.031 C 
ATOM     48  C   UNL     1     -10.412  -8.135  -8.941  1.00  0.00     0.029 A 
ATOM     49  N   UNL     1     -10.964  -6.081  -9.632  1.00  0.00    -0.354 N 
ATOM     50  C   UNL     1     -12.997  -3.317  -7.021  1.00  0.00     0.074 A 
ATOM     51  C   UNL     1     -13.168  -3.866  -5.694  1.00  0.00     0.031 C 
ATOM     52  C   UNL     1     -10.023  -8.024 -10.220  1.00  0.00     0.029 A 
ATOM     53  C   UNL     1     -10.393  -6.703 -10.717  1.00  0.00     0.049 A 
ATOM     54  H   UNL     1     -11.299  -5.156  -9.655  1.00  0.00     0.167 HD
ATOM     55  C   UNL     1     -13.411  -2.085  -7.398  1.00  0.00     0.034 A 
ATOM     56  C   UNL     1     -10.199  -6.268 -11.977  1.00  0.00     0.034 A 
ATOM     57  C   UNL     1     -13.183  -1.513  -8.697  1.00  0.00     0.049 A 
ATOM     58  C   UNL     1     -10.620  -4.877 -12.350  1.00  0.00     0.074 A 
ATOM     59  C   UNL     1     -13.529  -0.251  -9.148  1.00  0.00     0.029 A 
ATOM     60  N   UNL     1     -12.546  -2.155  -9.746  1.00  0.00    -0.354 N 
ATOM     61  N   UNL     1     -11.172  -3.959 -11.595  1.00  0.00    -0.248 NA
ATOM     62  C   UNL     1     -10.375  -4.451 -13.735  1.00  0.00     0.031 C 
ATOM     63  C   UNL     1     -13.094  -0.126 -10.470  1.00  0.00     0.029 A 
ATOM     64  C   UNL     1     -12.479  -1.311 -10.840  1.00  0.00     0.049 A 
ATOM     65  H   UNL     1     -12.194  -3.073  -9.717  1.00  0.00     0.167 HD
ATOM     66  C   UNL     1     -11.329  -2.844 -12.408  1.00  0.00     0.074 A 
ATOM     67  C   UNL     1     -10.793  -3.192 -13.708  1.00  0.00     0.031 C 
ATOM     68  C   UNL     1     -11.889  -1.649 -12.107  1.00  0.00     0.034 A 
BRANCH  55  69
ATOM     69  C   UNL     1     -14.109  -1.222  -6.385  1.00  0.00     0.023 A 
ATOM     70  C   UNL     1     -13.338  -0.475  -5.474  1.00  0.00     0.012 A 
ATOM     71  C   UNL     1     -15.505  -1.040  -6.431  1.00  0.00     0.148 A 
ATOM     72  C   UNL     1     -13.946   0.447  -4.623  1.00  0.00     0.002 A 
ATOM     73  C   UNL     1     -16.101  -0.101  -5.598  1.00  0.00     0.091 A 
ATOM     74  F   UNL     1     -16.214  -1.768  -7.306  1.00  0.00    -0.205 F 
ATOM     75  C   UNL     1     -15.324   0.641  -4.692  1.00  0.00     0.022 A 
BRANCH  73  76
ATOM     76  S   UNL     1     -17.858   0.270  -5.643  1.00  0.00     0.127 S 
ATOM     77  O   UNL     1     -18.268  -0.075  -4.282  1.00  0.00    -0.237 OA
ATOM     78  O   UNL     1     -17.860   1.703  -5.935  1.00  0.00    -0.237 OA
ATOM     79  O   UNL     1     -18.424  -0.574  -6.686  1.00  0.00    -0.744 OA
ENDBRANCH  73  76
ENDBRANCH  55  69
BRANCH  56  80
ATOM     80  C   UNL     1      -9.528  -7.163 -12.958  1.00  0.00     0.023 A 
ATOM     81  C   UNL     1      -8.193  -6.910 -13.323  1.00  0.00     0.012 A 
ATOM     82  C   UNL     1     -10.180  -8.303 -13.463  1.00  0.00     0.148 A 
ATOM     83  C   UNL     1      -7.519  -7.777 -14.183  1.00  0.00     0.002 A 
ATOM     84  C   UNL     1      -9.488  -9.188 -14.280  1.00  0.00     0.091 A 
ATOM     85  F   UNL     1     -11.457  -8.512 -13.113  1.00  0.00    -0.205 F 
ATOM     86  C   UNL     1      -8.161  -8.922 -14.650  1.00  0.00     0.022 A 
BRANCH  84  87
ATOM     87  S   UNL     1     -10.196 -10.750 -14.817  1.00  0.00     0.127 S 
ATOM     88  O   UNL     1     -10.463 -10.486 -16.228  1.00  0.00    -0.237 OA
ATOM     89  O   UNL     1      -9.100 -11.685 -14.560  1.00  0.00    -0.237 OA
ATOM     90  O   UNL     1     -11.367 -10.957 -13.976  1.00  0.00    -0.744 OA
ENDBRANCH  84  87
ENDBRANCH  56  80
BRANCH  68  91
ATOM     91  C   UNL     1     -11.947  -0.606 -13.187  1.00  0.00     0.023 A 
ATOM     92  C   UNL     1     -12.967  -0.676 -14.154  1.00  0.00     0.012 A 
ATOM     93  C   UNL     1     -11.075   0.498 -13.168  1.00  0.00     0.148 A 
ATOM     94  C   UNL     1     -13.115   0.341 -15.096  1.00  0.00     0.002 A 
ATOM     95  C   UNL     1     -11.247   1.523 -14.091  1.00  0.00     0.091 A 
ATOM     96  F   UNL     1     -10.104   0.530 -12.244  1.00  0.00    -0.205 F 
ATOM     97  C   UNL     1     -12.264   1.444 -15.057  1.00  0.00     0.022 A 
BRANCH  95  98
ATOM     98  S   UNL     1     -10.248   3.015 -14.071  1.00  0.00     0.127 S 
ATOM     99  O   UNL     1      -9.418   2.833 -15.261  1.00  0.00    -0.237 OA
ATOM    100  O   UNL     1     -11.258   4.068 -14.185  1.00  0.00    -0.237 OA
ATOM    101  O   UNL     1      -9.531   3.002 -12.803  1.00  0.00    -0.744 OA
ENDBRANCH  95  98
ENDBRANCH  68  91
ENDBRANCH  42  43
ENDBRANCH  34  37
ENDBRANCH  32  33
ENDBRANCH  31  32
ENDBRANCH   1  31
TORSDOF 20
