REMARK SMILES O=C(CCCNC(=O)[C@@H]1CCCN(S(=O)(=O)c2ccc(F)cc2)C1)NCCCCCCNC(=O)c1ccc(-c2c3nc(c(-c4cccc(S(=O)(=O)[O-])c4F)c4ccc([nH]4)c(-c4cccc(S(=O)(=O)[O-])c4F)c4nc(c(-c5cccc(S(=O)(=O)[O-])c5F)c5ccc2[nH]5)C=C4)C=C3)cc1
REMARK SMILES IDX 27 1 26 2 25 3 1 4 2 5 3 7 4 8 5 9 6 10 7 11 8 13 9 14 10 15
REMARK SMILES IDX 24 16 11 17 13 18 12 19 14 20 15 21 16 22 17 23 18 24 23 25
REMARK SMILES IDX 19 26 22 27 20 28 21 29 28 30 29 31 30 32 31 33 32 34 33 35
REMARK SMILES IDX 34 37 35 38 36 39 97 40 37 41 96 42 38 43 39 44 40 45 90 46
REMARK SMILES IDX 41 47 95 48 89 49 91 50 42 51 94 52 88 53 87 54 43 56 75 57
REMARK SMILES IDX 55 58 74 59 56 60 59 61 73 62 92 63 57 64 58 65 72 67 93 68
REMARK SMILES IDX 60 69 44 70 45 71 53 72 46 73 48 74 54 75 47 76 49 77 50 78
REMARK SMILES IDX 51 79 52 80 76 81 77 82 85 83 78 84 80 85 86 86 79 87 81 88
REMARK SMILES IDX 82 89 83 90 84 91 61 92 62 93 70 94 63 95 65 96 71 97 64 98
REMARK SMILES IDX 66 99 67 100 68 101 69 102
REMARK H PARENT 25 6 6 12 32 36 91 55 59 66
REMARK Flexibility Score: inf
ROOT
ATOM      1  C   UNL     1       2.548   1.183   3.243  1.00  0.00     0.021 C 
ENDROOT
BRANCH   1   2
ATOM      2  C   UNL     1       2.034   1.406   1.819  1.00  0.00     0.116 C 
BRANCH   2   3
ATOM      3  N   UNL     1       2.651   0.478   0.891  1.00  0.00    -0.356 N 
ATOM      4  O   UNL     1       0.726  -0.105  -0.221  1.00  0.00    -0.275 OA
ATOM      5  C   UNL     1       1.928  -0.243  -0.027  1.00  0.00     0.220 C 
ATOM      6  H   UNL     1       3.628   0.360   0.921  1.00  0.00     0.163 HD
BRANCH   5   7
ATOM      7  C   UNL     1       2.737  -1.284  -0.769  1.00  0.00     0.102 C 
BRANCH   7   8
ATOM      8  C   UNL     1       3.524  -0.739  -1.958  1.00  0.00     0.031 C 
BRANCH   8   9
ATOM      9  C   UNL     1       4.701   0.181  -1.635  1.00  0.00     0.116 C 
BRANCH   9  10
ATOM     10  N   UNL     1       5.624  -0.381  -0.668  1.00  0.00    -0.356 N 
ATOM     11  C   UNL     1       6.936  -0.125  -0.432  1.00  0.00     0.224 C 
ATOM     12  H   UNL     1       5.231  -1.067  -0.082  1.00  0.00     0.163 HD
ATOM     13  O   UNL     1       7.429  -0.737   0.521  1.00  0.00    -0.275 OA
BRANCH  11  14
ATOM     14  C   UNL     1       7.790   0.740  -1.362  1.00  0.00     0.093 C 
ATOM     15  C   UNL     1       9.230   0.848  -0.837  1.00  0.00     0.016 C 
ATOM     16  C   UNL     1       7.290   2.150  -1.652  1.00  0.00     0.116 C 
ATOM     17  C   UNL     1       9.295   1.756   0.388  1.00  0.00     0.018 C 
ATOM     18  N   UNL     1       7.321   3.059  -0.455  1.00  0.00    -0.197 NA
ATOM     19  C   UNL     1       8.696   3.135   0.129  1.00  0.00     0.102 C 
BRANCH  18  20
ATOM     20  S   UNL     1       6.655   4.606  -0.918  1.00  0.00     0.243 S 
ATOM     21  O   UNL     1       7.669   5.279  -1.716  1.00  0.00    -0.207 OA
ATOM     22  O   UNL     1       5.350   4.331  -1.475  1.00  0.00    -0.207 OA
BRANCH  20  23
ATOM     23  C   UNL     1       6.422   5.556   0.564  1.00  0.00     0.082 A 
ATOM     24  C   UNL     1       7.524   6.047   1.273  1.00  0.00     0.025 A 
ATOM     25  C   UNL     1       5.126   5.954   0.921  1.00  0.00     0.025 A 
ATOM     26  C   UNL     1       7.325   6.854   2.396  1.00  0.00     0.040 A 
ATOM     27  C   UNL     1       4.938   6.810   2.009  1.00  0.00     0.040 A 
ATOM     28  C   UNL     1       6.035   7.228   2.754  1.00  0.00     0.123 A 
ATOM     29  F   UNL     1       5.850   8.011   3.824  1.00  0.00    -0.207 F 
ENDBRANCH  20  23
ENDBRANCH  18  20
ENDBRANCH  11  14
ENDBRANCH   9  10
ENDBRANCH   8   9
ENDBRANCH   7   8
ENDBRANCH   5   7
ENDBRANCH   2   3
ENDBRANCH   1   2
BRANCH   1  30
ATOM     30  C   UNL     1       4.045   1.465   3.437  1.00  0.00     0.002 C 
BRANCH  30  31
ATOM     31  C   UNL     1       4.480   2.896   3.113  1.00  0.00     0.002 C 
BRANCH  31  32
ATOM     32  C   UNL     1       3.763   3.977   3.923  1.00  0.00     0.021 C 
BRANCH  32  33
ATOM     33  C   UNL     1       3.973   3.921   5.432  1.00  0.00     0.116 C 
BRANCH  33  34
ATOM     34  N   UNL     1       5.368   4.096   5.807  1.00  0.00    -0.352 N 
ATOM     35  C   UNL     1       5.959   5.008   6.648  1.00  0.00     0.251 C 
ATOM     36  H   UNL     1       5.990   3.456   5.390  1.00  0.00     0.163 HD
ATOM     37  O   UNL     1       7.187   5.076   6.684  1.00  0.00    -0.269 OA
BRANCH  35  38
ATOM     38  C   UNL     1       5.145   5.913   7.496  1.00  0.00     0.039 A 
ATOM     39  C   UNL     1       5.586   7.226   7.692  1.00  0.00     0.014 A 
ATOM     40  C   UNL     1       3.975   5.480   8.127  1.00  0.00     0.014 A 
ATOM     41  C   UNL     1       4.826   8.114   8.462  1.00  0.00     0.010 A 
ATOM     42  C   UNL     1       3.177   6.387   8.824  1.00  0.00     0.010 A 
ATOM     43  C   UNL     1       3.594   7.714   9.004  1.00  0.00    -0.014 A 
BRANCH  43  44
ATOM     44  C   UNL     1       2.722   8.674   9.733  1.00  0.00     0.031 A 
ATOM     45  C   UNL     1       2.369   8.450  11.181  1.00  0.00     0.074 A 
ATOM     46  C   UNL     1       2.178   9.714   9.066  1.00  0.00     0.049 A 
ATOM     47  N   UNL     1       1.595   9.164  11.957  1.00  0.00    -0.248 NA
ATOM     48  C   UNL     1       2.934   7.259  11.837  1.00  0.00     0.031 C 
ATOM     49  C   UNL     1       2.367   9.993   7.641  1.00  0.00     0.029 A 
ATOM     50  N   UNL     1       1.341  10.717   9.491  1.00  0.00    -0.354 N 
ATOM     51  C   UNL     1       1.551   8.495  13.174  1.00  0.00     0.074 A 
ATOM     52  C   UNL     1       2.353   7.301  13.029  1.00  0.00     0.031 C 
ATOM     53  C   UNL     1       1.682  11.100   7.314  1.00  0.00     0.029 A 
ATOM     54  C   UNL     1       0.986  11.599   8.496  1.00  0.00     0.049 A 
ATOM     55  H   UNL     1       1.026  10.798  10.420  1.00  0.00     0.167 HD
ATOM     56  C   UNL     1       0.929   8.859  14.320  1.00  0.00     0.034 A 
ATOM     57  C   UNL     1       0.196  12.692   8.529  1.00  0.00     0.034 A 
ATOM     58  C   UNL     1       0.196  10.084  14.486  1.00  0.00     0.049 A 
ATOM     59  C   UNL     1      -0.413  13.119   9.837  1.00  0.00     0.074 A 
ATOM     60  C   UNL     1      -0.387  10.583  15.639  1.00  0.00     0.029 A 
ATOM     61  N   UNL     1      -0.047  11.006  13.482  1.00  0.00    -0.354 N 
ATOM     62  N   UNL     1      -0.308  12.554  11.015  1.00  0.00    -0.248 NA
ATOM     63  C   UNL     1      -1.216  14.352   9.834  1.00  0.00     0.031 C 
ATOM     64  C   UNL     1      -0.985  11.806  15.331  1.00  0.00     0.029 A 
ATOM     65  C   UNL     1      -0.767  12.073  13.989  1.00  0.00     0.049 A 
ATOM     66  H   UNL     1       0.248  10.915  12.547  1.00  0.00     0.167 HD
ATOM     67  C   UNL     1      -0.998  13.377  11.897  1.00  0.00     0.074 A 
ATOM     68  C   UNL     1      -1.507  14.489  11.123  1.00  0.00     0.031 C 
ATOM     69  C   UNL     1      -1.202  13.214  13.226  1.00  0.00     0.034 A 
BRANCH  56  70
ATOM     70  C   UNL     1       1.082   7.974  15.529  1.00  0.00     0.023 A 
ATOM     71  C   UNL     1       2.301   7.988  16.235  1.00  0.00     0.012 A 
ATOM     72  C   UNL     1      -0.006   7.237  16.035  1.00  0.00     0.148 A 
ATOM     73  C   UNL     1       2.441   7.271  17.422  1.00  0.00     0.002 A 
ATOM     74  C   UNL     1       0.130   6.554  17.239  1.00  0.00     0.091 A 
ATOM     75  F   UNL     1      -1.151   7.227  15.339  1.00  0.00    -0.205 F 
ATOM     76  C   UNL     1       1.353   6.566  17.930  1.00  0.00     0.022 A 
BRANCH  74  77
ATOM     77  S   UNL     1      -1.232   5.681  18.022  1.00  0.00     0.127 S 
ATOM     78  O   UNL     1      -0.800   4.289  17.895  1.00  0.00    -0.237 OA
ATOM     79  O   UNL     1      -1.193   6.209  19.386  1.00  0.00    -0.237 OA
ATOM     80  O   UNL     1      -2.425   6.033  17.266  1.00  0.00    -0.744 OA
ENDBRANCH  74  77
ENDBRANCH  56  70
BRANCH  57  81
ATOM     81  C   UNL     1       0.033  13.517   7.298  1.00  0.00     0.023 A 
ATOM     82  C   UNL     1       0.672  14.770   7.224  1.00  0.00     0.012 A 
ATOM     83  C   UNL     1      -0.684  13.046   6.182  1.00  0.00     0.148 A 
ATOM     84  C   UNL     1       0.583  15.547   6.069  1.00  0.00     0.002 A 
ATOM     85  C   UNL     1      -0.723  13.801   5.014  1.00  0.00     0.091 A 
ATOM     86  F   UNL     1      -1.302  11.859   6.276  1.00  0.00    -0.205 F 
ATOM     87  C   UNL     1      -0.102  15.057   4.960  1.00  0.00     0.022 A 
BRANCH  85  88
ATOM     88  S   UNL     1      -1.459  13.173   3.500  1.00  0.00     0.127 S 
ATOM     89  O   UNL     1      -2.745  13.864   3.481  1.00  0.00    -0.237 OA
ATOM     90  O   UNL     1      -0.505  13.620   2.483  1.00  0.00    -0.237 OA
ATOM     91  O   UNL     1      -1.511  11.727   3.669  1.00  0.00    -0.744 OA
ENDBRANCH  85  88
ENDBRANCH  57  81
BRANCH  69  92
ATOM     92  C   UNL     1      -1.984  14.265  13.966  1.00  0.00     0.023 A 
ATOM     93  C   UNL     1      -3.386  14.291  13.853  1.00  0.00     0.012 A 
ATOM     94  C   UNL     1      -1.343  15.118  14.888  1.00  0.00     0.148 A 
ATOM     95  C   UNL     1      -4.143  15.156  14.643  1.00  0.00     0.002 A 
ATOM     96  C   UNL     1      -2.106  15.948  15.700  1.00  0.00     0.091 A 
ATOM     97  F   UNL     1      -0.005  15.084  14.967  1.00  0.00    -0.205 F 
ATOM     98  C   UNL     1      -3.505  15.972  15.576  1.00  0.00     0.022 A 
BRANCH  96  99
ATOM     99  S   UNL     1      -1.383  16.962  16.997  1.00  0.00     0.127 S 
ATOM    100  O   UNL     1      -1.563  18.308  16.456  1.00  0.00    -0.237 OA
ATOM    101  O   UNL     1      -2.233  16.647  18.146  1.00  0.00    -0.237 OA
ATOM    102  O   UNL     1      -0.001  16.523  17.128  1.00  0.00    -0.744 OA
ENDBRANCH  96  99
ENDBRANCH  69  92
ENDBRANCH  43  44
ENDBRANCH  35  38
ENDBRANCH  33  34
ENDBRANCH  32  33
ENDBRANCH  31  32
ENDBRANCH  30  31
ENDBRANCH   1  30
TORSDOF 22
