REMARK SMILES O=C1C[C@@H](C(=O)NCCCCCCNC(=O)c2ccc(-c3c4nc(c(-c5cccc(S(=O)(=O)[O-])c5F)c5ccc([nH]5)c(-c5cccc(S(=O)(=O)[O-])c5F)c5nc(c(-c6cccc(S(=O)(=O)[O-])c6F)c6ccc3[nH]6)C=C5)C=C4)cc2)C2(CC[NH+](Cc3c[nH]nc3-c3ccc(Cl)cc3)CC2)N1
REMARK SMILES IDX 10 1 9 2 8 3 7 4 5 5 6 6 4 8 1 9 2 10 3 11 99 12 80 13 81 15
REMARK SMILES IDX 98 16 82 17 97 18 83 19 84 21 85 22 86 23 89 24 87 25 88 26
REMARK SMILES IDX 90 28 91 29 96 30 92 31 95 32 93 33 94 34 11 35 12 36 13 37
REMARK SMILES IDX 14 38 15 39 16 41 17 42 18 43 79 44 19 45 78 46 20 47 21 48
REMARK SMILES IDX 22 49 72 50 23 51 77 52 71 53 73 54 24 55 76 56 70 57 69 58
REMARK SMILES IDX 25 60 57 61 37 62 56 63 38 64 41 65 55 66 74 67 39 68 40 69
REMARK SMILES IDX 54 71 75 72 42 73 26 74 27 75 35 76 28 77 30 78 36 79 29 80
REMARK SMILES IDX 31 81 32 82 33 83 34 84 58 85 59 86 67 87 60 88 62 89 68 90
REMARK SMILES IDX 61 91 63 92 64 93 65 94 66 95 43 96 44 97 52 98 45 99 47 100
REMARK SMILES IDX 53 101 46 102 48 103 49 104 50 105 51 106
REMARK H PARENT 7 7 99 14 83 20 87 27 14 40 73 59 41 70
REMARK Flexibility Score: inf
ROOT
ATOM      1  C   UNL     1       1.213   4.519  -2.137  1.00  0.00     0.002 C 
ENDROOT
BRANCH   1   2
ATOM      2  C   UNL     1       1.699   3.487  -1.121  1.00  0.00     0.021 C 
BRANCH   2   3
ATOM      3  C   UNL     1       1.671   2.043  -1.630  1.00  0.00     0.116 C 
BRANCH   3   4
ATOM      4  N   UNL     1       2.676   1.771  -2.645  1.00  0.00    -0.356 N 
ATOM      5  C   UNL     1       3.761   0.955  -2.683  1.00  0.00     0.226 C 
ATOM      6  O   UNL     1       4.444   0.997  -3.714  1.00  0.00    -0.275 OA
ATOM      7  H   UNL     1       2.544   2.284  -3.475  1.00  0.00     0.163 HD
BRANCH   5   8
ATOM      8  C   UNL     1       4.203   0.023  -1.548  1.00  0.00     0.114 C 
ATOM      9  O   UNL     1       1.653  -1.110   0.684  1.00  0.00    -0.275 OA
ATOM     10  C   UNL     1       2.611  -0.632   0.113  1.00  0.00     0.221 C 
ATOM     11  C   UNL     1       3.148  -1.044  -1.230  1.00  0.00     0.116 C 
ATOM     12  N   UNL     1       3.382   0.406   0.590  1.00  0.00    -0.349 N 
ATOM     13  C   UNL     1       4.587   0.651  -0.188  1.00  0.00     0.063 C 
ATOM     14  H   UNL     1       3.139   0.933   1.385  1.00  0.00     0.164 HD
ATOM     15  C   UNL     1       4.902   2.151  -0.268  1.00  0.00     0.091 C 
ATOM     16  C   UNL     1       5.707  -0.162   0.527  1.00  0.00     0.091 C 
ATOM     17  C   UNL     1       6.370   2.474  -0.483  1.00  0.00     0.264 C 
ATOM     18  C   UNL     1       7.121   0.413   0.460  1.00  0.00     0.264 C 
ATOM     19  N   UNL     1       7.220   1.861   0.514  1.00  0.00    -0.331 N 
ATOM     20  H   UNL     1       8.188   2.054   0.254  1.00  0.00     0.348 HD
BRANCH  19  21
ATOM     21  C   UNL     1       7.302   2.531   1.824  1.00  0.00     0.303 C 
BRANCH  21  22
ATOM     22  C   UNL     1       6.053   2.537   2.652  1.00  0.00     0.052 A 
ATOM     23  C   UNL     1       5.565   1.495   3.421  1.00  0.00     0.115 A 
ATOM     24  C   UNL     1       5.162   3.627   2.964  1.00  0.00     0.101 A 
ATOM     25  N   UNL     1       4.398   1.920   3.973  1.00  0.00    -0.285 N 
ATOM     26  N   UNL     1       4.131   3.201   3.712  1.00  0.00    -0.175 NA
ATOM     27  H   UNL     1       3.809   1.342   4.510  1.00  0.00     0.189 HD
BRANCH  24  28
ATOM     28  C   UNL     1       5.248   5.053   2.642  1.00  0.00     0.003 A 
ATOM     29  C   UNL     1       5.242   5.980   3.696  1.00  0.00     0.012 A 
ATOM     30  C   UNL     1       5.287   5.533   1.330  1.00  0.00     0.012 A 
ATOM     31  C   UNL     1       5.318   7.353   3.445  1.00  0.00     0.021 A 
ATOM     32  C   UNL     1       5.373   6.906   1.073  1.00  0.00     0.021 A 
ATOM     33  C   UNL     1       5.396   7.809   2.133  1.00  0.00     0.041 A 
ATOM     34  Cl  UNL     1       5.514   9.496   1.816  1.00  0.00    -0.084 Cl
ENDBRANCH  24  28
ENDBRANCH  21  22
ENDBRANCH  19  21
ENDBRANCH   5   8
ENDBRANCH   3   4
ENDBRANCH   2   3
ENDBRANCH   1   2
BRANCH   1  35
ATOM     35  C   UNL     1      -0.195   4.253  -2.674  1.00  0.00     0.002 C 
BRANCH  35  36
ATOM     36  C   UNL     1      -1.261   4.044  -1.594  1.00  0.00     0.021 C 
BRANCH  36  37
ATOM     37  C   UNL     1      -1.387   5.198  -0.606  1.00  0.00     0.116 C 
BRANCH  37  38
ATOM     38  N   UNL     1      -1.728   6.440  -1.281  1.00  0.00    -0.352 N 
ATOM     39  C   UNL     1      -2.823   7.245  -1.103  1.00  0.00     0.251 C 
ATOM     40  H   UNL     1      -1.084   6.744  -1.961  1.00  0.00     0.163 HD
ATOM     41  O   UNL     1      -3.092   8.111  -1.930  1.00  0.00    -0.269 OA
BRANCH  39  42
ATOM     42  C   UNL     1      -3.676   7.058   0.089  1.00  0.00     0.039 A 
ATOM     43  C   UNL     1      -5.063   7.085  -0.061  1.00  0.00     0.014 A 
ATOM     44  C   UNL     1      -3.103   6.868   1.350  1.00  0.00     0.014 A 
ATOM     45  C   UNL     1      -5.878   6.884   1.054  1.00  0.00     0.010 A 
ATOM     46  C   UNL     1      -3.915   6.584   2.442  1.00  0.00     0.010 A 
ATOM     47  C   UNL     1      -5.311   6.609   2.310  1.00  0.00    -0.014 A 
BRANCH  47  48
ATOM     48  C   UNL     1      -6.168   6.348   3.493  1.00  0.00     0.031 A 
ATOM     49  C   UNL     1      -6.111   7.256   4.690  1.00  0.00     0.074 A 
ATOM     50  C   UNL     1      -6.943   5.246   3.519  1.00  0.00     0.049 A 
ATOM     51  N   UNL     1      -6.766   7.173   5.819  1.00  0.00    -0.248 NA
ATOM     52  C   UNL     1      -5.173   8.389   4.625  1.00  0.00     0.031 C 
ATOM     53  C   UNL     1      -7.012   4.238   2.459  1.00  0.00     0.029 A 
ATOM     54  N   UNL     1      -7.795   4.774   4.484  1.00  0.00    -0.354 N 
ATOM     55  C   UNL     1      -6.292   8.211   6.611  1.00  0.00     0.074 A 
ATOM     56  C   UNL     1      -5.269   8.890   5.847  1.00  0.00     0.031 C 
ATOM     57  C   UNL     1      -7.859   3.267   2.832  1.00  0.00     0.029 A 
ATOM     58  C   UNL     1      -8.366   3.564   4.168  1.00  0.00     0.049 A 
ATOM     59  H   UNL     1      -7.980   5.255   5.323  1.00  0.00     0.167 HD
ATOM     60  C   UNL     1      -6.687   8.580   7.853  1.00  0.00     0.034 A 
ATOM     61  C   UNL     1      -9.192   2.772   4.879  1.00  0.00     0.034 A 
ATOM     62  C   UNL     1      -7.725   7.917   8.595  1.00  0.00     0.049 A 
ATOM     63  C   UNL     1      -9.657   3.227   6.233  1.00  0.00     0.074 A 
ATOM     64  C   UNL     1      -8.277   8.277   9.811  1.00  0.00     0.029 A 
ATOM     65  N   UNL     1      -8.350   6.742   8.205  1.00  0.00    -0.354 N 
ATOM     66  N   UNL     1      -9.333   4.312   6.894  1.00  0.00    -0.248 NA
ATOM     67  C   UNL     1     -10.632   2.372   6.923  1.00  0.00     0.031 C 
ATOM     68  C   UNL     1      -9.201   7.294  10.179  1.00  0.00     0.029 A 
ATOM     69  C   UNL     1      -9.264   6.348   9.168  1.00  0.00     0.049 A 
ATOM     70  H   UNL     1      -8.170   6.259   7.367  1.00  0.00     0.167 HD
ATOM     71  C   UNL     1     -10.083   4.286   8.063  1.00  0.00     0.074 A 
ATOM     72  C   UNL     1     -10.895   3.087   8.009  1.00  0.00     0.031 C 
ATOM     73  C   UNL     1     -10.091   5.170   9.091  1.00  0.00     0.034 A 
BRANCH  60  74
ATOM     74  C   UNL     1      -6.003   9.771   8.477  1.00  0.00     0.023 A 
ATOM     75  C   UNL     1      -6.204  11.061   7.943  1.00  0.00     0.012 A 
ATOM     76  C   UNL     1      -5.185   9.616   9.614  1.00  0.00     0.148 A 
ATOM     77  C   UNL     1      -5.562  12.168   8.497  1.00  0.00     0.002 A 
ATOM     78  C   UNL     1      -4.591  10.732  10.192  1.00  0.00     0.091 A 
ATOM     79  F   UNL     1      -4.987   8.382  10.097  1.00  0.00    -0.205 F 
ATOM     80  C   UNL     1      -4.764  12.005   9.626  1.00  0.00     0.022 A 
BRANCH  78  81
ATOM     81  S   UNL     1      -3.618  10.636  11.698  1.00  0.00     0.127 S 
ATOM     82  O   UNL     1      -2.265  10.858  11.191  1.00  0.00    -0.237 OA
ATOM     83  O   UNL     1      -4.162  11.742  12.487  1.00  0.00    -0.237 OA
ATOM     84  O   UNL     1      -3.869   9.314  12.255  1.00  0.00    -0.744 OA
ENDBRANCH  78  81
ENDBRANCH  60  74
BRANCH  61  85
ATOM     85  C   UNL     1      -9.654   1.484   4.292  1.00  0.00     0.023 A 
ATOM     86  C   UNL     1     -10.990   1.344   3.869  1.00  0.00     0.012 A 
ATOM     87  C   UNL     1      -8.755   0.418   4.097  1.00  0.00     0.148 A 
ATOM     88  C   UNL     1     -11.428   0.156   3.284  1.00  0.00     0.002 A 
ATOM     89  C   UNL     1      -9.182  -0.740   3.461  1.00  0.00     0.091 A 
ATOM     90  F   UNL     1      -7.490   0.573   4.513  1.00  0.00    -0.205 F 
ATOM     91  C   UNL     1     -10.523  -0.881   3.069  1.00  0.00     0.022 A 
BRANCH  89  92
ATOM     92  S   UNL     1      -8.058  -2.069   3.017  1.00  0.00     0.127 S 
ATOM     93  O   UNL     1      -8.541  -3.162   3.857  1.00  0.00    -0.237 OA
ATOM     94  O   UNL     1      -8.328  -2.222   1.587  1.00  0.00    -0.237 OA
ATOM     95  O   UNL     1      -6.723  -1.579   3.330  1.00  0.00    -0.744 OA
ENDBRANCH  89  92
ENDBRANCH  61  85
BRANCH  73  96
ATOM     96  C   UNL     1     -11.033   4.901  10.237  1.00  0.00     0.023 A 
ATOM     97  C   UNL     1     -10.784   3.836  11.124  1.00  0.00     0.012 A 
ATOM     98  C   UNL     1     -12.132   5.752  10.471  1.00  0.00     0.148 A 
ATOM     99  C   UNL     1     -11.633   3.599  12.205  1.00  0.00     0.002 A 
ATOM    100  C   UNL     1     -12.942   5.544  11.580  1.00  0.00     0.091 A 
ATOM    101  F   UNL     1     -12.364   6.750   9.606  1.00  0.00    -0.205 F 
ATOM    102  C   UNL     1     -12.704   4.459  12.439  1.00  0.00     0.022 A 
BRANCH 100 103
ATOM    103  S   UNL     1     -14.281   6.658  12.018  1.00  0.00     0.127 S 
ATOM    104  O   UNL     1     -15.457   5.839  11.727  1.00  0.00    -0.237 OA
ATOM    105  O   UNL     1     -14.037   6.890  13.442  1.00  0.00    -0.237 OA
ATOM    106  O   UNL     1     -14.118   7.836  11.177  1.00  0.00    -0.744 OA
ENDBRANCH 100 103
ENDBRANCH  73  96
ENDBRANCH  47  48
ENDBRANCH  39  42
ENDBRANCH  37  38
ENDBRANCH  36  37
ENDBRANCH  35  36
ENDBRANCH   1  35
TORSDOF 19
