REMARK SMILES CC[C@@H]1CCCN(S(=O)(=O)c2cc(C(=O)NCCCCCCNC(=O)c3ccc(-c4c5nc(c(-c6cccc(S(=O)(=O)[O-])c6F)c6ccc([nH]6)c(-c6cccc(S(=O)(=O)[O-])c6F)c6nc(c(-c7cccc(S(=O)(=O)[O-])c7F)c7ccc4[nH]7)C=C6)C=C5)cc3)ccc2F)C1
REMARK SMILES IDX 19 1 18 2 17 3 16 4 14 5 15 6 13 8 11 9 12 10 91 11 90 12
REMARK SMILES IDX 92 13 89 14 8 15 9 16 10 17 7 18 3 19 4 20 93 21 5 22 6 23
REMARK SMILES IDX 2 24 1 25 20 26 21 27 22 28 23 29 24 30 25 32 26 33 27 34
REMARK SMILES IDX 88 35 28 36 87 37 29 38 30 39 31 40 81 41 32 42 86 43 80 44
REMARK SMILES IDX 82 45 33 46 85 47 79 48 78 49 34 51 66 52 46 53 65 54 47 55
REMARK SMILES IDX 50 56 64 57 83 58 48 59 49 60 63 62 84 63 51 64 35 65 36 66
REMARK SMILES IDX 44 67 37 68 39 69 45 70 38 71 40 72 41 73 42 74 43 75 67 76
REMARK SMILES IDX 68 77 76 78 69 79 71 80 77 81 70 82 72 83 73 84 74 85 75 86
REMARK SMILES IDX 52 87 53 88 61 89 54 90 56 91 62 92 55 93 57 94 58 95 59 96
REMARK SMILES IDX 60 97
REMARK H PARENT 16 7 23 31 82 50 50 61
REMARK Flexibility Score: inf
ROOT
ATOM      1  C   UNL     1      -5.960   8.438   8.713  1.00  0.00     0.002 C 
ENDROOT
BRANCH   1   2
ATOM      2  C   UNL     1      -4.573   8.152   8.118  1.00  0.00     0.021 C 
BRANCH   2   3
ATOM      3  C   UNL     1      -4.410   6.719   7.607  1.00  0.00     0.116 C 
BRANCH   3   4
ATOM      4  N   UNL     1      -5.020   6.577   6.300  1.00  0.00    -0.352 N 
ATOM      5  C   UNL     1      -4.513   6.505   5.032  1.00  0.00     0.251 C 
ATOM      6  O   UNL     1      -5.319   6.348   4.114  1.00  0.00    -0.269 OA
ATOM      7  H   UNL     1      -6.002   6.521   6.331  1.00  0.00     0.163 HD
BRANCH   5   8
ATOM      8  C   UNL     1      -3.060   6.583   4.698  1.00  0.00     0.041 A 
ATOM      9  C   UNL     1      -1.339   6.131   3.024  1.00  0.00     0.119 A 
ATOM     10  C   UNL     1      -2.668   6.039   3.458  1.00  0.00     0.038 A 
ATOM     11  C   UNL     1      -0.399   6.773   3.817  1.00  0.00     0.143 A 
ATOM     12  C   UNL     1      -0.762   7.295   5.053  1.00  0.00     0.041 A 
ATOM     13  F   UNL     1       0.875   6.907   3.428  1.00  0.00    -0.206 F 
ATOM     14  C   UNL     1      -2.093   7.229   5.477  1.00  0.00     0.017 A 
BRANCH   9  15
ATOM     15  S   UNL     1      -0.907   5.626   1.392  1.00  0.00     0.246 S 
ATOM     16  O   UNL     1       0.001   6.613   0.835  1.00  0.00    -0.207 OA
ATOM     17  O   UNL     1      -2.132   5.311   0.690  1.00  0.00    -0.207 OA
BRANCH  15  18
ATOM     18  N   UNL     1      -0.029   4.131   1.551  1.00  0.00    -0.197 NA
ATOM     19  C   UNL     1       1.059   2.283   0.192  1.00  0.00     0.004 C 
ATOM     20  C   UNL     1       2.304   2.409   1.077  1.00  0.00     0.006 C 
ATOM     21  C   UNL     1       0.284   3.608   0.177  1.00  0.00     0.106 C 
ATOM     22  C   UNL     1       1.952   2.922   2.465  1.00  0.00     0.017 C 
ATOM     23  C   UNL     1       1.201   4.244   2.390  1.00  0.00     0.102 C 
BRANCH  19  24
ATOM     24  C   UNL     1       0.166   1.087   0.579  1.00  0.00     0.001 C 
ATOM     25  C   UNL     1       0.721  -0.230   0.047  1.00  0.00     0.004 C 
ENDBRANCH  19  24
ENDBRANCH  15  18
ENDBRANCH   9  15
ENDBRANCH   5   8
ENDBRANCH   3   4
ENDBRANCH   2   3
ENDBRANCH   1   2
BRANCH   1  26
ATOM     26  C   UNL     1      -6.338   7.571   9.921  1.00  0.00     0.002 C 
BRANCH  26  27
ATOM     27  C   UNL     1      -5.313   7.565  11.060  1.00  0.00     0.021 C 
BRANCH  27  28
ATOM     28  C   UNL     1      -5.066   8.932  11.690  1.00  0.00     0.116 C 
BRANCH  28  29
ATOM     29  N   UNL     1      -6.263   9.446  12.340  1.00  0.00    -0.352 N 
ATOM     30  C   UNL     1      -6.443   9.830  13.645  1.00  0.00     0.251 C 
ATOM     31  H   UNL     1      -7.055   9.529  11.762  1.00  0.00     0.163 HD
ATOM     32  O   UNL     1      -7.577  10.008  14.080  1.00  0.00    -0.269 OA
BRANCH  30  33
ATOM     33  C   UNL     1      -5.271  10.024  14.524  1.00  0.00     0.039 A 
ATOM     34  C   UNL     1      -5.309   9.525  15.828  1.00  0.00     0.014 A 
ATOM     35  C   UNL     1      -4.144  10.715  14.067  1.00  0.00     0.014 A 
ATOM     36  C   UNL     1      -4.198   9.679  16.660  1.00  0.00     0.010 A 
ATOM     37  C   UNL     1      -3.014  10.806  14.873  1.00  0.00     0.010 A 
ATOM     38  C   UNL     1      -3.032  10.299  16.180  1.00  0.00    -0.014 A 
BRANCH  38  39
ATOM     39  C   UNL     1      -1.819  10.419  17.029  1.00  0.00     0.031 A 
ATOM     40  C   UNL     1      -1.298  11.775  17.419  1.00  0.00     0.074 A 
ATOM     41  C   UNL     1      -1.142   9.308  17.380  1.00  0.00     0.049 A 
ATOM     42  N   UNL     1      -0.226  12.078  18.103  1.00  0.00    -0.248 NA
ATOM     43  C   UNL     1      -2.064  12.946  16.960  1.00  0.00     0.031 C 
ATOM     44  C   UNL     1      -1.509   7.942  17.000  1.00  0.00     0.029 A 
ATOM     45  N   UNL     1       0.007   9.152  18.115  1.00  0.00    -0.354 N 
ATOM     46  C   UNL     1      -0.171  13.466  18.130  1.00  0.00     0.074 A 
ATOM     47  C   UNL     1      -1.298  13.949  17.365  1.00  0.00     0.031 C 
ATOM     48  C   UNL     1      -0.609   7.088  17.512  1.00  0.00     0.029 A 
ATOM     49  C   UNL     1       0.415   7.843  18.228  1.00  0.00     0.049 A 
ATOM     50  H   UNL     1       0.493   9.905  18.522  1.00  0.00     0.167 HD
ATOM     51  C   UNL     1       0.720  14.265  18.763  1.00  0.00     0.034 A 
ATOM     52  C   UNL     1       1.494   7.309  18.835  1.00  0.00     0.034 A 
ATOM     53  C   UNL     1       1.808  13.778  19.566  1.00  0.00     0.049 A 
ATOM     54  C   UNL     1       2.446   8.217  19.565  1.00  0.00     0.074 A 
ATOM     55  C   UNL     1       2.711  14.508  20.318  1.00  0.00     0.029 A 
ATOM     56  N   UNL     1       2.145  12.443  19.721  1.00  0.00    -0.354 N 
ATOM     57  N   UNL     1       2.399   9.520  19.700  1.00  0.00    -0.248 NA
ATOM     58  C   UNL     1       3.580   7.583  20.254  1.00  0.00     0.031 C 
ATOM     59  C   UNL     1       3.608  13.616  20.909  1.00  0.00     0.029 A 
ATOM     60  C   UNL     1       3.247  12.327  20.549  1.00  0.00     0.049 A 
ATOM     61  H   UNL     1       1.670  11.688  19.304  1.00  0.00     0.167 HD
ATOM     62  C   UNL     1       3.475   9.860  20.513  1.00  0.00     0.074 A 
ATOM     63  C   UNL     1       4.146   8.623  20.855  1.00  0.00     0.031 C 
ATOM     64  C   UNL     1       3.876  11.087  20.925  1.00  0.00     0.034 A 
BRANCH  51  65
ATOM     65  C   UNL     1       0.524  15.756  18.673  1.00  0.00     0.023 A 
ATOM     66  C   UNL     1      -0.537  16.359  19.378  1.00  0.00     0.012 A 
ATOM     67  C   UNL     1       1.443  16.568  17.979  1.00  0.00     0.148 A 
ATOM     68  C   UNL     1      -0.695  17.744  19.376  1.00  0.00     0.002 A 
ATOM     69  C   UNL     1       1.305  17.951  18.020  1.00  0.00     0.091 A 
ATOM     70  F   UNL     1       2.433  15.974  17.298  1.00  0.00    -0.205 F 
ATOM     71  C   UNL     1       0.232  18.539  18.709  1.00  0.00     0.022 A 
BRANCH  69  72
ATOM     72  S   UNL     1       2.494  19.068  17.267  1.00  0.00     0.127 S 
ATOM     73  O   UNL     1       1.706  19.646  16.179  1.00  0.00    -0.237 OA
ATOM     74  O   UNL     1       2.786  19.989  18.364  1.00  0.00    -0.237 OA
ATOM     75  O   UNL     1       3.617  18.241  16.849  1.00  0.00    -0.744 OA
ENDBRANCH  69  72
ENDBRANCH  51  65
BRANCH  52  76
ATOM     76  C   UNL     1       1.676   5.830  18.838  1.00  0.00     0.023 A 
ATOM     77  C   UNL     1       1.480   5.114  20.035  1.00  0.00     0.012 A 
ATOM     78  C   UNL     1       1.969   5.124  17.655  1.00  0.00     0.148 A 
ATOM     79  C   UNL     1       1.591   3.724  20.058  1.00  0.00     0.002 A 
ATOM     80  C   UNL     1       2.020   3.735  17.673  1.00  0.00     0.091 A 
ATOM     81  F   UNL     1       2.162   5.825  16.529  1.00  0.00    -0.205 F 
ATOM     82  C   UNL     1       1.847   3.034  18.876  1.00  0.00     0.022 A 
BRANCH  80  83
ATOM     83  S   UNL     1       2.199   2.757  16.176  1.00  0.00     0.127 S 
ATOM     84  O   UNL     1       3.526   2.174  16.355  1.00  0.00    -0.237 OA
ATOM     85  O   UNL     1       1.087   1.813  16.300  1.00  0.00    -0.237 OA
ATOM     86  O   UNL     1       2.066   3.697  15.071  1.00  0.00    -0.744 OA
ENDBRANCH  80  83
ENDBRANCH  52  76
BRANCH  64  87
ATOM     87  C   UNL     1       5.089  11.177  21.814  1.00  0.00     0.023 A 
ATOM     88  C   UNL     1       6.371  10.978  21.266  1.00  0.00     0.012 A 
ATOM     89  C   UNL     1       4.964  11.586  23.157  1.00  0.00     0.148 A 
ATOM     90  C   UNL     1       7.511  11.169  22.046  1.00  0.00     0.002 A 
ATOM     91  C   UNL     1       6.105  11.822  23.913  1.00  0.00     0.091 A 
ATOM     92  F   UNL     1       3.733  11.754  23.662  1.00  0.00    -0.205 F 
ATOM     93  C   UNL     1       7.379  11.605  23.363  1.00  0.00     0.022 A 
BRANCH  91  94
ATOM     94  S   UNL     1       6.038  12.488  25.581  1.00  0.00     0.127 S 
ATOM     95  O   UNL     1       6.476  11.341  26.376  1.00  0.00    -0.237 OA
ATOM     96  O   UNL     1       7.001  13.587  25.515  1.00  0.00    -0.237 OA
ATOM     97  O   UNL     1       4.659  12.902  25.795  1.00  0.00    -0.744 OA
ENDBRANCH  91  94
ENDBRANCH  64  87
ENDBRANCH  38  39
ENDBRANCH  30  33
ENDBRANCH  28  29
ENDBRANCH  27  28
ENDBRANCH  26  27
ENDBRANCH   1  26
TORSDOF 19
