REMARK SMILES NS(=O)(=O)c1ccc(-n2nc(C(=O)NCCCCCCCCCCC(=O)NCCCCCCNC(=O)c3ccc(-c4c5nc(c(-c6cccc(S(=O)(=O)[O-])c6F)c6ccc([nH]6)c(-c6cccc(S(=O)(=O)[O-])c6F)c6nc(c(-c7cccc(S(=O)(=O)[O-])c7F)c7ccc4[nH]7)C=C6)C=C5)cc3)cc2-c2ccccc2)cc1
REMARK SMILES IDX 23 1 22 2 21 3 20 4 19 5 18 6 17 7 16 8 15 9 14 10 12 11
REMARK SMILES IDX 13 12 11 14 9 15 10 16 101 17 100 18 8 19 5 20 6 21 109 22
REMARK SMILES IDX 7 23 108 24 2 25 3 26 4 27 1 28 102 31 103 32 107 33 104 34
REMARK SMILES IDX 106 35 105 36 24 37 25 38 26 39 27 40 28 42 29 43 30 44
REMARK SMILES IDX 31 45 32 46 33 47 34 48 35 49 36 51 37 52 38 53 99 54 39 55
REMARK SMILES IDX 98 56 40 57 41 58 42 59 92 60 43 61 97 62 91 63 93 64 44 65
REMARK SMILES IDX 96 66 90 67 89 68 45 70 77 71 57 72 76 73 58 74 61 75 75 76
REMARK SMILES IDX 94 77 59 78 60 79 74 81 95 82 62 83 46 84 47 85 55 86 48 87
REMARK SMILES IDX 50 88 56 89 49 90 51 91 52 92 53 93 54 94 78 95 79 96 87 97
REMARK SMILES IDX 80 98 82 99 88 100 81 101 83 102 84 103 85 104 86 105 63 106
REMARK SMILES IDX 64 107 72 108 65 109 67 110 73 111 66 112 68 113 69 114
REMARK SMILES IDX 70 115 71 116
REMARK H PARENT 14 13 1 29 1 30 27 41 34 50 93 69 61 80
REMARK Flexibility Score: inf
ROOT
ATOM      1  C   UNL     1       6.896  11.761  12.872  1.00  0.00     0.010 C 
ENDROOT
BRANCH   1   2
ATOM      2  C   UNL     1       5.561  11.552  12.162  1.00  0.00     0.001 C 
BRANCH   2   3
ATOM      3  C   UNL     1       5.589  11.878  10.662  1.00  0.00     0.000 C 
BRANCH   3   4
ATOM      4  C   UNL     1       5.511  10.641   9.774  1.00  0.00     0.000 C 
BRANCH   4   5
ATOM      5  C   UNL     1       4.205   9.860   9.928  1.00  0.00     0.000 C 
BRANCH   5   6
ATOM      6  C   UNL     1       2.945  10.689   9.650  1.00  0.00     0.000 C 
BRANCH   6   7
ATOM      7  C   UNL     1       2.832  11.194   8.205  1.00  0.00     0.002 C 
BRANCH   7   8
ATOM      8  C   UNL     1       3.025  10.097   7.153  1.00  0.00     0.021 C 
BRANCH   8   9
ATOM      9  C   UNL     1       2.018   8.956   7.322  1.00  0.00     0.116 C 
BRANCH   9  10
ATOM     10  N   UNL     1       0.926   9.136   6.402  1.00  0.00    -0.351 N 
ATOM     11  C   UNL     1       0.619   8.551   5.200  1.00  0.00     0.271 C 
ATOM     12  O   UNL     1      -0.371   9.019   4.623  1.00  0.00    -0.267 OA
ATOM     13  H   UNL     1       0.270   9.811   6.692  1.00  0.00     0.163 HD
BRANCH  11  14
ATOM     14  C   UNL     1       1.428   7.459   4.616  1.00  0.00     0.151 A 
ATOM     15  N   UNL     1       1.708   5.732   3.396  1.00  0.00    -0.232 N 
ATOM     16  N   UNL     1       1.065   6.920   3.430  1.00  0.00    -0.162 NA
ATOM     17  C   UNL     1       2.820   5.738   4.221  1.00  0.00     0.075 A 
ATOM     18  C   UNL     1       2.637   6.841   5.028  1.00  0.00     0.065 A 
BRANCH  15  19
ATOM     19  C   UNL     1       1.309   4.724   2.487  1.00  0.00     0.065 A 
ATOM     20  C   UNL     1       0.713   2.757   0.625  1.00  0.00     0.082 A 
ATOM     21  C   UNL     1       1.168   2.387   1.893  1.00  0.00     0.024 A 
ATOM     22  C   UNL     1       0.498   4.101   0.301  1.00  0.00     0.024 A 
ATOM     23  C   UNL     1       1.475   3.376   2.823  1.00  0.00     0.030 A 
ATOM     24  C   UNL     1       0.768   5.089   1.248  1.00  0.00     0.030 A 
BRANCH  20  25
ATOM     25  S   UNL     1       0.460   1.543  -0.628  1.00  0.00     0.238 S 
ATOM     26  O   UNL     1       1.266   1.911  -1.787  1.00  0.00    -0.207 OA
ATOM     27  O   UNL     1      -0.932   1.233  -0.728  1.00  0.00    -0.207 OA
BRANCH  25  28
ATOM     28  N   UNL     1       1.204   0.159  -0.029  1.00  0.00    -0.225 NA
ATOM     29  H   UNL     1       1.103  -0.601  -0.703  1.00  0.00     0.137 HD
ATOM     30  H   UNL     1       0.767  -0.108   0.853  1.00  0.00     0.137 HD
ENDBRANCH  25  28
ENDBRANCH  20  25
ENDBRANCH  15  19
BRANCH  17  31
ATOM     31  C   UNL     1       3.949   4.814   4.191  1.00  0.00     0.000 A 
ATOM     32  C   UNL     1       4.731   4.687   3.036  1.00  0.00     0.010 A 
ATOM     33  C   UNL     1       4.301   4.090   5.337  1.00  0.00     0.010 A 
ATOM     34  C   UNL     1       5.844   3.845   3.024  1.00  0.00     0.001 A 
ATOM     35  C   UNL     1       5.412   3.245   5.323  1.00  0.00     0.001 A 
ATOM     36  C   UNL     1       6.185   3.125   4.168  1.00  0.00     0.000 A 
ENDBRANCH  17  31
ENDBRANCH  11  14
ENDBRANCH   9  10
ENDBRANCH   8   9
ENDBRANCH   7   8
ENDBRANCH   6   7
ENDBRANCH   5   6
ENDBRANCH   4   5
ENDBRANCH   3   4
ENDBRANCH   2   3
ENDBRANCH   1   2
BRANCH   1  37
ATOM     37  C   UNL     1       7.481  13.172  12.803  1.00  0.00     0.100 C 
BRANCH  37  38
ATOM     38  C   UNL     1       6.968  14.122  13.867  1.00  0.00     0.219 C 
ATOM     39  O   UNL     1       7.595  14.291  14.916  1.00  0.00    -0.275 OA
ATOM     40  N   UNL     1       5.833  14.851  13.673  1.00  0.00    -0.356 N 
ATOM     41  H   UNL     1       5.592  15.447  14.418  1.00  0.00     0.163 HD
BRANCH  40  42
ATOM     42  C   UNL     1       4.924  14.887  12.543  1.00  0.00     0.116 C 
BRANCH  42  43
ATOM     43  C   UNL     1       3.519  14.416  12.934  1.00  0.00     0.021 C 
BRANCH  43  44
ATOM     44  C   UNL     1       2.602  15.527  13.449  1.00  0.00     0.002 C 
BRANCH  44  45
ATOM     45  C   UNL     1       2.280  16.638  12.439  1.00  0.00     0.002 C 
BRANCH  45  46
ATOM     46  C   UNL     1       1.639  16.189  11.117  1.00  0.00     0.021 C 
BRANCH  46  47
ATOM     47  C   UNL     1       0.234  15.622  11.277  1.00  0.00     0.116 C 
BRANCH  47  48
ATOM     48  N   UNL     1      -0.702  16.625  11.784  1.00  0.00    -0.352 N 
ATOM     49  C   UNL     1      -2.024  16.465  12.136  1.00  0.00     0.251 C 
ATOM     50  H   UNL     1      -0.339  17.534  11.887  1.00  0.00     0.163 HD
ATOM     51  O   UNL     1      -2.764  17.437  12.246  1.00  0.00    -0.269 OA
BRANCH  49  52
ATOM     52  C   UNL     1      -2.536  15.106  12.368  1.00  0.00     0.039 A 
ATOM     53  C   UNL     1      -3.755  14.705  11.816  1.00  0.00     0.014 A 
ATOM     54  C   UNL     1      -1.759  14.222  13.115  1.00  0.00     0.014 A 
ATOM     55  C   UNL     1      -4.149  13.377  11.948  1.00  0.00     0.010 A 
ATOM     56  C   UNL     1      -2.091  12.888  13.143  1.00  0.00     0.010 A 
ATOM     57  C   UNL     1      -3.300  12.466  12.594  1.00  0.00    -0.014 A 
BRANCH  57  58
ATOM     58  C   UNL     1      -3.625  11.043  12.602  1.00  0.00     0.031 A 
ATOM     59  C   UNL     1      -3.787  10.415  11.260  1.00  0.00     0.074 A 
ATOM     60  C   UNL     1      -3.552  10.285  13.717  1.00  0.00     0.049 A 
ATOM     61  N   UNL     1      -4.858   9.898  10.753  1.00  0.00    -0.248 NA
ATOM     62  C   UNL     1      -2.650  10.462  10.328  1.00  0.00     0.031 C 
ATOM     63  C   UNL     1      -3.064  10.684  15.043  1.00  0.00     0.029 A 
ATOM     64  N   UNL     1      -3.744   8.944  13.854  1.00  0.00    -0.354 N 
ATOM     65  C   UNL     1      -4.472   9.350   9.529  1.00  0.00     0.074 A 
ATOM     66  C   UNL     1      -3.167   9.886   9.241  1.00  0.00     0.031 C 
ATOM     67  C   UNL     1      -2.734   9.579  15.746  1.00  0.00     0.029 A 
ATOM     68  C   UNL     1      -3.161   8.413  14.999  1.00  0.00     0.049 A 
ATOM     69  H   UNL     1      -4.247   8.402  13.204  1.00  0.00     0.167 HD
ATOM     70  C   UNL     1      -5.151   8.313   8.964  1.00  0.00     0.034 A 
ATOM     71  C   UNL     1      -2.989   7.102  15.284  1.00  0.00     0.034 A 
ATOM     72  C   UNL     1      -6.424   8.104   9.607  1.00  0.00     0.049 A 
ATOM     73  C   UNL     1      -3.946   6.341  14.453  1.00  0.00     0.074 A 
ATOM     74  C   UNL     1      -7.560   8.857   9.821  1.00  0.00     0.029 A 
ATOM     75  N   UNL     1      -6.502   7.046  10.479  1.00  0.00    -0.354 N 
ATOM     76  N   UNL     1      -5.240   6.416  14.589  1.00  0.00    -0.248 NA
ATOM     77  C   UNL     1      -3.479   5.781  13.196  1.00  0.00     0.031 C 
ATOM     78  C   UNL     1      -8.018   8.473  11.117  1.00  0.00     0.029 A 
ATOM     79  C   UNL     1      -7.167   7.474  11.596  1.00  0.00     0.049 A 
ATOM     80  H   UNL     1      -6.144   6.141  10.329  1.00  0.00     0.167 HD
ATOM     81  C   UNL     1      -5.726   6.353  13.290  1.00  0.00     0.074 A 
ATOM     82  C   UNL     1      -4.619   5.822  12.501  1.00  0.00     0.031 C 
ATOM     83  C   UNL     1      -6.870   7.012  12.935  1.00  0.00     0.034 A 
BRANCH  70  84
ATOM     84  C   UNL     1      -4.543   7.236   8.085  1.00  0.00     0.023 A 
ATOM     85  C   UNL     1      -5.439   6.340   7.456  1.00  0.00     0.012 A 
ATOM     86  C   UNL     1      -3.174   6.878   8.079  1.00  0.00     0.148 A 
ATOM     87  C   UNL     1      -5.006   5.127   6.908  1.00  0.00     0.002 A 
ATOM     88  C   UNL     1      -2.738   5.702   7.473  1.00  0.00     0.091 A 
ATOM     89  F   UNL     1      -2.291   7.596   8.781  1.00  0.00    -0.205 F 
ATOM     90  C   UNL     1      -3.653   4.809   6.912  1.00  0.00     0.022 A 
BRANCH  88  91
ATOM     91  S   UNL     1      -0.997   5.240   7.470  1.00  0.00     0.127 S 
ATOM     92  O   UNL     1      -0.951   4.263   8.553  1.00  0.00    -0.237 OA
ATOM     93  O   UNL     1      -0.815   4.679   6.131  1.00  0.00    -0.237 OA
ATOM     94  O   UNL     1      -0.260   6.478   7.699  1.00  0.00    -0.744 OA
ENDBRANCH  88  91
ENDBRANCH  70  84
BRANCH  71  95
ATOM     95  C   UNL     1      -1.903   6.443  16.042  1.00  0.00     0.023 A 
ATOM     96  C   UNL     1      -2.120   5.171  16.604  1.00  0.00     0.012 A 
ATOM     97  C   UNL     1      -0.578   6.931  15.975  1.00  0.00     0.148 A 
ATOM     98  C   UNL     1      -1.047   4.392  17.053  1.00  0.00     0.002 A 
ATOM     99  C   UNL     1       0.484   6.154  16.426  1.00  0.00     0.091 A 
ATOM    100  F   UNL     1      -0.354   8.113  15.385  1.00  0.00    -0.205 F 
ATOM    101  C   UNL     1       0.254   4.878  16.955  1.00  0.00     0.022 A 
BRANCH  99 102
ATOM    102  S   UNL     1       2.193   6.704  16.303  1.00  0.00     0.127 S 
ATOM    103  O   UNL     1       2.700   6.422  17.646  1.00  0.00    -0.237 OA
ATOM    104  O   UNL     1       2.716   5.832  15.254  1.00  0.00    -0.237 OA
ATOM    105  O   UNL     1       2.132   8.122  15.971  1.00  0.00    -0.744 OA
ENDBRANCH  99 102
ENDBRANCH  71  95
BRANCH  83 106
ATOM    106  C   UNL     1      -7.756   7.541  14.036  1.00  0.00     0.023 A 
ATOM    107  C   UNL     1      -7.327   8.530  14.946  1.00  0.00     0.012 A 
ATOM    108  C   UNL     1      -9.106   7.149  14.049  1.00  0.00     0.148 A 
ATOM    109  C   UNL     1      -8.216   9.095  15.864  1.00  0.00     0.002 A 
ATOM    110  C   UNL     1      -9.998   7.746  14.932  1.00  0.00     0.091 A 
ATOM    111  F   UNL     1      -9.503   6.211  13.176  1.00  0.00    -0.205 F 
ATOM    112  C   UNL     1      -9.555   8.712  15.849  1.00  0.00     0.022 A 
BRANCH 110 113
ATOM    113  S   UNL     1     -11.755   7.386  14.875  1.00  0.00     0.127 S 
ATOM    114  O   UNL     1     -11.924   6.502  16.025  1.00  0.00    -0.237 OA
ATOM    115  O   UNL     1     -12.355   8.713  15.029  1.00  0.00    -0.237 OA
ATOM    116  O   UNL     1     -11.994   6.777  13.572  1.00  0.00    -0.744 OA
ENDBRANCH 110 113
ENDBRANCH  83 106
ENDBRANCH  57  58
ENDBRANCH  49  52
ENDBRANCH  47  48
ENDBRANCH  46  47
ENDBRANCH  45  46
ENDBRANCH  44  45
ENDBRANCH  43  44
ENDBRANCH  42  43
ENDBRANCH  40  42
ENDBRANCH  37  38
ENDBRANCH   1  37
TORSDOF 31
