REMARK SMILES [NH3+][C@@H](CSCc1nccs1)C(=O)NCCCCCCNC(=O)c1ccc(-c2c3nc(c(-c4cccc(S(=O)(=O)[O-])c4F)c4ccc([nH]4)c(-c4cccc(S(=O)(=O)[O-])c4F)c4nc(c(-c5cccc(S(=O)(=O)[O-])c5F)c5ccc2[nH]5)C=C4)C=C3)cc1
REMARK SMILES IDX 16 1 15 2 14 3 13 4 11 5 12 6 2 8 1 9 3 13 4 14 5 15 6 16
REMARK SMILES IDX 7 17 10 18 8 19 9 20 17 21 18 22 19 23 20 24 21 25 22 27
REMARK SMILES IDX 23 28 24 29 85 30 25 31 84 32 26 33 27 34 28 35 78 36 29 37
REMARK SMILES IDX 83 38 77 39 79 40 30 41 82 42 76 43 75 44 31 46 63 47 43 48
REMARK SMILES IDX 62 49 44 50 47 51 61 52 80 53 45 54 46 55 60 57 81 58 48 59
REMARK SMILES IDX 32 60 33 61 41 62 34 63 36 64 42 65 35 66 37 67 38 68 39 69
REMARK SMILES IDX 40 70 64 71 65 72 73 73 66 74 68 75 74 76 67 77 69 78 70 79
REMARK SMILES IDX 71 80 72 81 49 82 50 83 58 84 51 85 53 86 59 87 52 88 54 89
REMARK SMILES IDX 55 90 56 91 57 92
REMARK H PARENT 13 7 1 10 1 11 1 12 20 26 79 45 47 56
REMARK Flexibility Score: inf
ROOT
ATOM      1  C   UNL     1      -3.669  -0.891   2.518  1.00  0.00     0.002 C 
ENDROOT
BRANCH   1   2
ATOM      2  C   UNL     1      -2.238  -0.460   2.205  1.00  0.00     0.021 C 
BRANCH   2   3
ATOM      3  C   UNL     1      -1.526  -1.302   1.159  1.00  0.00     0.116 C 
BRANCH   3   4
ATOM      4  N   UNL     1      -1.807  -0.941  -0.207  1.00  0.00    -0.351 N 
ATOM      5  C   UNL     1      -0.949  -0.868  -1.270  1.00  0.00     0.279 C 
ATOM      6  O   UNL     1      -1.457  -0.804  -2.395  1.00  0.00    -0.268 OA
ATOM      7  H   UNL     1      -2.745  -0.717  -0.403  1.00  0.00     0.163 HD
BRANCH   5   8
ATOM      8  C   UNL     1       0.596  -0.837  -1.106  1.00  0.00     0.280 C 
BRANCH   8   9
ATOM      9  N   UNL     1       1.048   0.275  -0.246  1.00  0.00    -0.347 N 
ATOM     10  H   UNL     1       2.065   0.254  -0.169  1.00  0.00     0.345 HD
ATOM     11  H   UNL     1       0.635   0.178   0.681  1.00  0.00     0.345 HD
ATOM     12  H   UNL     1       0.757   1.163  -0.657  1.00  0.00     0.345 HD
ENDBRANCH   8   9
BRANCH   8  13
ATOM     13  C   UNL     1       1.309  -2.198  -0.938  1.00  0.00     0.145 C 
BRANCH  13  14
ATOM     14  S   UNL     1       1.081  -3.280   0.517  1.00  0.00    -0.148 SA
BRANCH  14  15
ATOM     15  C   UNL     1       1.864  -2.348   1.874  1.00  0.00     0.137 C 
BRANCH  15  16
ATOM     16  C   UNL     1       3.346  -2.198   1.788  1.00  0.00     0.102 A 
ATOM     17  N   UNL     1       4.210  -3.189   1.823  1.00  0.00    -0.249 NA
ATOM     18  S   UNL     1       4.043  -0.619   1.786  1.00  0.00    -0.126 S 
ATOM     19  C   UNL     1       5.492  -2.692   1.925  1.00  0.00     0.123 A 
ATOM     20  C   UNL     1       5.599  -1.319   1.921  1.00  0.00     0.087 A 
ENDBRANCH  15  16
ENDBRANCH  14  15
ENDBRANCH  13  14
ENDBRANCH   8  13
ENDBRANCH   5   8
ENDBRANCH   3   4
ENDBRANCH   2   3
ENDBRANCH   1   2
BRANCH   1  21
ATOM     21  C   UNL     1      -3.856  -2.367   2.891  1.00  0.00     0.002 C 
BRANCH  21  22
ATOM     22  C   UNL     1      -2.950  -2.912   4.000  1.00  0.00     0.021 C 
BRANCH  22  23
ATOM     23  C   UNL     1      -2.997  -2.160   5.328  1.00  0.00     0.116 C 
BRANCH  23  24
ATOM     24  N   UNL     1      -4.346  -2.044   5.856  1.00  0.00    -0.352 N 
ATOM     25  C   UNL     1      -4.841  -2.356   7.096  1.00  0.00     0.251 C 
ATOM     26  H   UNL     1      -5.009  -1.685   5.223  1.00  0.00     0.163 HD
ATOM     27  O   UNL     1      -6.056  -2.329   7.283  1.00  0.00    -0.269 OA
BRANCH  25  28
ATOM     28  C   UNL     1      -3.934  -2.735   8.201  1.00  0.00     0.039 A 
ATOM     29  C   UNL     1      -4.306  -3.790   9.041  1.00  0.00     0.014 A 
ATOM     30  C   UNL     1      -2.747  -2.038   8.443  1.00  0.00     0.014 A 
ATOM     31  C   UNL     1      -3.469  -4.174  10.091  1.00  0.00     0.010 A 
ATOM     32  C   UNL     1      -1.881  -2.465   9.449  1.00  0.00     0.010 A 
ATOM     33  C   UNL     1      -2.237  -3.530  10.290  1.00  0.00    -0.014 A 
BRANCH  33  34
ATOM     34  C   UNL     1      -1.309  -3.967  11.364  1.00  0.00     0.031 A 
ATOM     35  C   UNL     1      -0.971  -3.046  12.505  1.00  0.00     0.074 A 
ATOM     36  C   UNL     1      -0.710  -5.171  11.272  1.00  0.00     0.049 A 
ATOM     37  N   UNL     1      -0.172  -3.252  13.521  1.00  0.00    -0.248 NA
ATOM     38  C   UNL     1      -1.587  -1.710  12.490  1.00  0.00     0.031 C 
ATOM     39  C   UNL     1      -0.894  -6.124  10.175  1.00  0.00     0.029 A 
ATOM     40  N   UNL     1       0.190  -5.791  12.103  1.00  0.00    -0.354 N 
ATOM     41  C   UNL     1      -0.158  -2.063  14.242  1.00  0.00     0.074 A 
ATOM     42  C   UNL     1      -1.005  -1.131  13.530  1.00  0.00     0.031 C 
ATOM     43  C   UNL     1      -0.146  -7.214  10.410  1.00  0.00     0.029 A 
ATOM     44  C   UNL     1       0.590  -7.029  11.657  1.00  0.00     0.049 A 
ATOM     45  H   UNL     1       0.517  -5.387  12.939  1.00  0.00     0.167 HD
ATOM     46  C   UNL     1       0.479  -1.781  15.404  1.00  0.00     0.034 A 
ATOM     47  C   UNL     1       1.447  -7.917  12.195  1.00  0.00     0.034 A 
ATOM     48  C   UNL     1       1.277  -2.728  16.136  1.00  0.00     0.049 A 
ATOM     49  C   UNL     1       2.104  -7.597  13.510  1.00  0.00     0.074 A 
ATOM     50  C   UNL     1       1.871  -2.577  17.377  1.00  0.00     0.029 A 
ATOM     51  N   UNL     1       1.603  -3.999  15.690  1.00  0.00    -0.354 N 
ATOM     52  N   UNL     1       1.964  -6.535  14.267  1.00  0.00    -0.248 NA
ATOM     53  C   UNL     1       3.010  -8.614  14.063  1.00  0.00     0.031 C 
ATOM     54  C   UNL     1       2.576  -3.750  17.670  1.00  0.00     0.029 A 
ATOM     55  C   UNL     1       2.403  -4.639  16.621  1.00  0.00     0.049 A 
ATOM     56  H   UNL     1       1.309  -4.390  14.835  1.00  0.00     0.167 HD
ATOM     57  C   UNL     1       2.732  -6.771  15.401  1.00  0.00     0.074 A 
ATOM     58  C   UNL     1       3.319  -8.086  15.240  1.00  0.00     0.031 C 
ATOM     59  C   UNL     1       2.942  -5.968  16.473  1.00  0.00     0.034 A 
BRANCH  46  60
ATOM     60  C   UNL     1       0.296  -0.401  15.982  1.00  0.00     0.023 A 
ATOM     61  C   UNL     1      -0.949  -0.035  16.534  1.00  0.00     0.012 A 
ATOM     62  C   UNL     1       1.363   0.518  16.020  1.00  0.00     0.148 A 
ATOM     63  C   UNL     1      -1.143   1.235  17.075  1.00  0.00     0.002 A 
ATOM     64  C   UNL     1       1.175   1.768  16.601  1.00  0.00     0.091 A 
ATOM     65  F   UNL     1       2.533   0.165  15.470  1.00  0.00    -0.205 F 
ATOM     66  C   UNL     1      -0.079   2.132  17.117  1.00  0.00     0.022 A 
BRANCH  64  67
ATOM     67  S   UNL     1       2.508   2.961  16.769  1.00  0.00     0.127 S 
ATOM     68  O   UNL     1       2.185   3.916  15.710  1.00  0.00    -0.237 OA
ATOM     69  O   UNL     1       2.304   3.466  18.128  1.00  0.00    -0.237 OA
ATOM     70  O   UNL     1       3.740   2.208  16.585  1.00  0.00    -0.744 OA
ENDBRANCH  64  67
ENDBRANCH  46  60
BRANCH  47  71
ATOM     71  C   UNL     1       1.658  -9.238  11.538  1.00  0.00     0.023 A 
ATOM     72  C   UNL     1       1.128 -10.394  12.144  1.00  0.00     0.012 A 
ATOM     73  C   UNL     1       2.340  -9.354  10.312  1.00  0.00     0.148 A 
ATOM     74  C   UNL     1       1.297 -11.647  11.555  1.00  0.00     0.002 A 
ATOM     75  C   UNL     1       2.460 -10.600   9.705  1.00  0.00     0.091 A 
ATOM     76  F   UNL     1       2.844  -8.243   9.758  1.00  0.00    -0.205 F 
ATOM     77  C   UNL     1       1.953 -11.749  10.332  1.00  0.00     0.022 A 
BRANCH  75  78
ATOM     78  S   UNL     1       3.178 -10.809   8.071  1.00  0.00     0.127 S 
ATOM     79  O   UNL     1       4.422 -11.514   8.382  1.00  0.00    -0.237 OA
ATOM     80  O   UNL     1       2.163 -11.624   7.399  1.00  0.00    -0.237 OA
ATOM     81  O   UNL     1       3.328  -9.469   7.532  1.00  0.00    -0.744 OA
ENDBRANCH  75  78
ENDBRANCH  47  71
BRANCH  59  82
ATOM     82  C   UNL     1       3.824  -6.494  17.576  1.00  0.00     0.023 A 
ATOM     83  C   UNL     1       5.214  -6.596  17.372  1.00  0.00     0.012 A 
ATOM     84  C   UNL     1       3.284  -6.829  18.833  1.00  0.00     0.148 A 
ATOM     85  C   UNL     1       6.049  -7.056  18.390  1.00  0.00     0.002 A 
ATOM     86  C   UNL     1       4.128  -7.240  19.859  1.00  0.00     0.091 A 
ATOM     87  F   UNL     1       1.956  -6.747  19.003  1.00  0.00    -0.205 F 
ATOM     88  C   UNL     1       5.508  -7.366  19.635  1.00  0.00     0.022 A 
BRANCH  86  89
ATOM     89  S   UNL     1       3.528  -7.565  21.520  1.00  0.00     0.127 S 
ATOM     90  O   UNL     1       3.539  -9.026  21.562  1.00  0.00    -0.237 OA
ATOM     91  O   UNL     1       4.547  -6.924  22.352  1.00  0.00    -0.237 OA
ATOM     92  O   UNL     1       2.212  -6.944  21.597  1.00  0.00    -0.744 OA
ENDBRANCH  86  89
ENDBRANCH  59  82
ENDBRANCH  33  34
ENDBRANCH  25  28
ENDBRANCH  23  24
ENDBRANCH  22  23
ENDBRANCH  21  22
ENDBRANCH   1  21
TORSDOF 21
