REMARK SMILES C[C@H](O)C[C@@H](Cc1cccc(Br)c1)C(=O)NCCCCCCNC(=O)c1ccc(-c2c3nc(c(-c4cccc(S(=O)(=O)[O-])c4F)c4ccc([nH]4)c(-c4cccc(S(=O)(=O)[O-])c4F)c4nc(c(-c5cccc(S(=O)(=O)[O-])c5F)c5ccc2[nH]5)C=C4)C=C3)cc1
REMARK SMILES IDX 19 1 18 2 17 3 16 4 14 5 15 6 5 8 4 9 2 10 1 11 3 12 6 14
REMARK SMILES IDX 7 15 8 16 13 17 9 18 11 19 10 20 12 21 20 22 21 23 22 24
REMARK SMILES IDX 23 25 24 26 25 28 26 29 27 30 88 31 28 32 87 33 29 34 30 35
REMARK SMILES IDX 31 36 81 37 32 38 86 39 80 40 82 41 33 42 85 43 79 44 78 45
REMARK SMILES IDX 34 47 66 48 46 49 65 50 47 51 50 52 64 53 83 54 48 55 49 56
REMARK SMILES IDX 63 58 84 59 51 60 35 61 36 62 44 63 37 64 39 65 45 66 38 67
REMARK SMILES IDX 40 68 41 69 42 70 43 71 67 72 68 73 76 74 69 75 71 76 77 77
REMARK SMILES IDX 70 78 72 79 73 80 74 81 75 82 52 83 53 84 61 85 54 86 56 87
REMARK SMILES IDX 62 88 55 89 57 90 58 91 59 92 60 93
REMARK H PARENT 16 7 3 13 23 27 82 46 50 57
REMARK Flexibility Score: inf
ROOT
ATOM      1  C   UNL     1      -5.714   2.267  -3.366  1.00  0.00     0.002 C 
ENDROOT
BRANCH   1   2
ATOM      2  C   UNL     1      -4.286   1.788  -3.119  1.00  0.00     0.021 C 
BRANCH   2   3
ATOM      3  C   UNL     1      -3.587   2.420  -1.925  1.00  0.00     0.116 C 
BRANCH   3   4
ATOM      4  N   UNL     1      -3.791   1.744  -0.670  1.00  0.00    -0.356 N 
ATOM      5  C   UNL     1      -2.868   1.436   0.284  1.00  0.00     0.223 C 
ATOM      6  O   UNL     1      -3.296   0.983   1.352  1.00  0.00    -0.275 OA
ATOM      7  H   UNL     1      -4.717   1.469  -0.477  1.00  0.00     0.163 HD
BRANCH   5   8
ATOM      8  C   UNL     1      -1.351   1.578   0.060  1.00  0.00     0.085 C 
BRANCH   8   9
ATOM      9  C   UNL     1      -0.832   0.592  -1.004  1.00  0.00     0.045 C 
BRANCH   9  10
ATOM     10  C   UNL     1       0.697   0.561  -1.122  1.00  0.00     0.112 C 
ATOM     11  C   UNL     1       1.145  -0.196  -2.366  1.00  0.00     0.038 C 
BRANCH  10  12
ATOM     12  O   UNL     1       1.256  -0.048   0.036  1.00  0.00    -0.393 OA
ATOM     13  H   UNL     1       0.939  -0.962   0.106  1.00  0.00     0.210 HD
ENDBRANCH  10  12
ENDBRANCH   9  10
ENDBRANCH   8   9
BRANCH   8  14
ATOM     14  C   UNL     1      -0.814   3.036   0.070  1.00  0.00     0.049 C 
BRANCH  14  15
ATOM     15  C   UNL     1      -0.895   3.984  -1.115  1.00  0.00    -0.046 A 
ATOM     16  C   UNL     1      -0.560   3.634  -2.432  1.00  0.00     0.004 A 
ATOM     17  C   UNL     1      -1.260   5.322  -0.879  1.00  0.00     0.019 A 
ATOM     18  C   UNL     1      -0.721   4.535  -3.491  1.00  0.00     0.001 A 
ATOM     19  C   UNL     1      -1.378   6.234  -1.932  1.00  0.00     0.018 A 
ATOM     20  C   UNL     1      -1.137   5.838  -3.243  1.00  0.00     0.016 A 
ATOM     21  Br  UNL     1      -1.875   8.021  -1.569  1.00  0.00    -0.051 Br
ENDBRANCH  14  15
ENDBRANCH   8  14
ENDBRANCH   5   8
ENDBRANCH   3   4
ENDBRANCH   2   3
ENDBRANCH   1   2
BRANCH   1  22
ATOM     22  C   UNL     1      -5.899   3.785  -3.481  1.00  0.00     0.002 C 
BRANCH  22  23
ATOM     23  C   UNL     1      -4.978   4.508  -4.470  1.00  0.00     0.021 C 
BRANCH  23  24
ATOM     24  C   UNL     1      -5.040   4.009  -5.910  1.00  0.00     0.116 C 
BRANCH  24  25
ATOM     25  N   UNL     1      -6.381   4.095  -6.468  1.00  0.00    -0.352 N 
ATOM     26  C   UNL     1      -6.829   4.752  -7.587  1.00  0.00     0.251 C 
ATOM     27  H   UNL     1      -7.073   3.607  -5.966  1.00  0.00     0.163 HD
ATOM     28  O   UNL     1      -8.034   4.862  -7.787  1.00  0.00    -0.269 OA
BRANCH  26  29
ATOM     29  C   UNL     1      -5.864   5.336  -8.545  1.00  0.00     0.039 A 
ATOM     30  C   UNL     1      -6.105   6.615  -9.055  1.00  0.00     0.014 A 
ATOM     31  C   UNL     1      -4.740   4.618  -8.961  1.00  0.00     0.014 A 
ATOM     32  C   UNL     1      -5.190   7.197  -9.937  1.00  0.00     0.010 A 
ATOM     33  C   UNL     1      -3.795   5.226  -9.785  1.00  0.00     0.010 A 
ATOM     34  C   UNL     1      -4.011   6.518 -10.287  1.00  0.00    -0.014 A 
BRANCH  34  35
ATOM     35  C   UNL     1      -2.990   7.136 -11.174  1.00  0.00     0.031 A 
ATOM     36  C   UNL     1      -2.655   6.499 -12.497  1.00  0.00     0.074 A 
ATOM     37  C   UNL     1      -2.294   8.210 -10.747  1.00  0.00     0.049 A 
ATOM     38  N   UNL     1      -1.728   6.828 -13.359  1.00  0.00    -0.248 NA
ATOM     39  C   UNL     1      -3.447   5.321 -12.893  1.00  0.00     0.031 C 
ATOM     40  C   UNL     1      -2.479   8.883  -9.459  1.00  0.00     0.029 A 
ATOM     41  N   UNL     1      -1.265   8.904 -11.336  1.00  0.00    -0.354 N 
ATOM     42  C   UNL     1      -1.788   5.873 -14.367  1.00  0.00     0.074 A 
ATOM     43  C   UNL     1      -2.835   4.942 -14.007  1.00  0.00     0.031 C 
ATOM     44  C   UNL     1      -1.592   9.886  -9.354  1.00  0.00     0.029 A 
ATOM     45  C   UNL     1      -0.750   9.906 -10.545  1.00  0.00     0.049 A 
ATOM     46  H   UNL     1      -0.927   8.703 -12.239  1.00  0.00     0.167 HD
ATOM     47  C   UNL     1      -1.051   5.790 -15.499  1.00  0.00     0.034 A 
ATOM     48  C   UNL     1       0.295  10.733 -10.748  1.00  0.00     0.034 A 
ATOM     49  C   UNL     1      -0.053   6.750 -15.884  1.00  0.00     0.049 A 
ATOM     50  C   UNL     1       1.071  10.633 -12.035  1.00  0.00     0.074 A 
ATOM     51  C   UNL     1       0.665   6.811 -17.066  1.00  0.00     0.029 A 
ATOM     52  N   UNL     1       0.378   7.804 -15.098  1.00  0.00    -0.354 N 
ATOM     53  N   UNL     1       0.884   9.827 -13.051  1.00  0.00    -0.248 NA
ATOM     54  C   UNL     1       2.183  11.579 -12.218  1.00  0.00     0.031 C 
ATOM     55  C   UNL     1       1.559   7.881 -16.978  1.00  0.00     0.029 A 
ATOM     56  C   UNL     1       1.366   8.511 -15.759  1.00  0.00     0.049 A 
ATOM     57  H   UNL     1       0.032   8.019 -14.201  1.00  0.00     0.167 HD
ATOM     58  C   UNL     1       1.819  10.201 -14.011  1.00  0.00     0.074 A 
ATOM     59  C   UNL     1       2.561  11.315 -13.461  1.00  0.00     0.031 C 
ATOM     60  C   UNL     1       2.049   9.663 -15.232  1.00  0.00     0.034 A 
BRANCH  47  61
ATOM     61  C   UNL     1      -1.309   4.641 -16.438  1.00  0.00     0.023 A 
ATOM     62  C   UNL     1      -2.480   4.625 -17.223  1.00  0.00     0.012 A 
ATOM     63  C   UNL     1      -0.337   3.638 -16.623  1.00  0.00     0.148 A 
ATOM     64  C   UNL     1      -2.688   3.617 -18.163  1.00  0.00     0.002 A 
ATOM     65  C   UNL     1      -0.530   2.664 -17.595  1.00  0.00     0.091 A 
ATOM     66  F   UNL     1       0.760   3.663 -15.854  1.00  0.00    -0.205 F 
ATOM     67  C   UNL     1      -1.709   2.647 -18.359  1.00  0.00     0.022 A 
BRANCH  65  68
ATOM     68  S   UNL     1       0.707   1.421 -17.983  1.00  0.00     0.127 S 
ATOM     69  O   UNL     1       0.035   0.194 -17.559  1.00  0.00    -0.237 OA
ATOM     70  O   UNL     1       0.847   1.572 -19.431  1.00  0.00    -0.237 OA
ATOM     71  O   UNL     1       1.892   1.775 -17.214  1.00  0.00    -0.744 OA
ENDBRANCH  65  68
ENDBRANCH  47  61
BRANCH  48  72
ATOM     72  C   UNL     1       0.658  11.761  -9.729  1.00  0.00     0.023 A 
ATOM     73  C   UNL     1       0.499  13.127 -10.036  1.00  0.00     0.012 A 
ATOM     74  C   UNL     1       1.181  11.398  -8.474  1.00  0.00     0.148 A 
ATOM     75  C   UNL     1       0.901  14.112  -9.134  1.00  0.00     0.002 A 
ATOM     76  C   UNL     1       1.525  12.384  -7.556  1.00  0.00     0.091 A 
ATOM     77  F   UNL     1       1.339  10.095  -8.203  1.00  0.00    -0.205 F 
ATOM     78  C   UNL     1       1.408  13.741  -7.891  1.00  0.00     0.022 A 
BRANCH  76  79
ATOM     79  S   UNL     1       2.064  11.991  -5.888  1.00  0.00     0.127 S 
ATOM     80  O   UNL     1       3.495  12.272  -5.962  1.00  0.00    -0.237 OA
ATOM     81  O   UNL     1       1.289  12.939  -5.088  1.00  0.00    -0.237 OA
ATOM     82  O   UNL     1       1.698  10.596  -5.682  1.00  0.00    -0.744 OA
ENDBRANCH  76  79
ENDBRANCH  48  72
BRANCH  60  83
ATOM     83  C   UNL     1       3.099  10.303 -16.101  1.00  0.00     0.023 A 
ATOM     84  C   UNL     1       4.464  10.150 -15.790  1.00  0.00     0.012 A 
ATOM     85  C   UNL     1       2.728  10.979 -17.281  1.00  0.00     0.148 A 
ATOM     86  C   UNL     1       5.444  10.687 -16.625  1.00  0.00     0.002 A 
ATOM     87  C   UNL     1       3.710  11.463 -18.135  1.00  0.00     0.091 A 
ATOM     88  F   UNL     1       1.422  11.127 -17.549  1.00  0.00    -0.205 F 
ATOM     89  C   UNL     1       5.067  11.330 -17.803  1.00  0.00     0.022 A 
BRANCH  87  90
ATOM     90  S   UNL     1       3.323  12.210 -19.722  1.00  0.00     0.127 S 
ATOM     91  O   UNL     1       3.677  13.609 -19.487  1.00  0.00    -0.237 OA
ATOM     92  O   UNL     1       4.224  11.497 -20.627  1.00  0.00    -0.237 OA
ATOM     93  O   UNL     1       1.907  11.957 -19.954  1.00  0.00    -0.744 OA
ENDBRANCH  87  90
ENDBRANCH  60  83
ENDBRANCH  34  35
ENDBRANCH  26  29
ENDBRANCH  24  25
ENDBRANCH  23  24
ENDBRANCH  22  23
ENDBRANCH   1  22
TORSDOF 21
