REMARK SMILES C[C@@]1(CN2C(=O)c3ccc(C(=O)NCCCCCCNC(=O)c4ccc(-c5c6nc(c(-c7cccc(S(=O)(=O)[O-])c7F)c7ccc([nH]7)c(-c7cccc(S(=O)(=O)[O-])c7F)c7nc(c(-c8cccc(S(=O)(=O)[O-])c8F)c8ccc5[nH]8)C=C7)C=C6)cc4)cc3C2=O)CCCO1
REMARK SMILES IDX 17 1 16 2 15 3 14 4 13 5 11 6 12 7 10 9 4 10 5 11 88 12 6 13
REMARK SMILES IDX 7 14 87 15 89 16 8 17 86 18 9 19 3 20 2 21 1 22 90 23 93 24
REMARK SMILES IDX 91 25 92 26 18 27 19 28 20 29 21 30 22 32 23 33 24 34 85 35
REMARK SMILES IDX 25 36 84 37 26 38 27 39 28 40 78 41 29 42 83 43 77 44 79 45
REMARK SMILES IDX 30 46 82 47 76 48 75 49 31 51 63 52 43 53 62 54 44 55 47 56
REMARK SMILES IDX 61 57 80 58 45 59 46 60 60 62 81 63 48 64 32 65 33 66 41 67
REMARK SMILES IDX 34 68 36 69 42 70 35 71 37 72 38 73 39 74 40 75 64 76 65 77
REMARK SMILES IDX 73 78 66 79 68 80 74 81 67 82 69 83 70 84 71 85 72 86 49 87
REMARK SMILES IDX 50 88 58 89 51 90 53 91 59 92 52 93 54 94 55 95 56 96 57 97
REMARK H PARENT 13 8 20 31 79 50 47 61
REMARK Flexibility Score: inf
ROOT
ATOM      1  C   UNL     1      -5.004   8.189   5.654  1.00  0.00     0.002 C 
ENDROOT
BRANCH   1   2
ATOM      2  C   UNL     1      -5.520   7.479   4.396  1.00  0.00     0.002 C 
BRANCH   2   3
ATOM      3  C   UNL     1      -4.469   6.646   3.651  1.00  0.00     0.021 C 
BRANCH   3   4
ATOM      4  C   UNL     1      -3.907   5.490   4.482  1.00  0.00     0.116 C 
BRANCH   4   5
ATOM      5  N   UNL     1      -4.828   4.369   4.469  1.00  0.00    -0.352 N 
ATOM      6  C   UNL     1      -4.858   3.201   3.755  1.00  0.00     0.251 C 
ATOM      7  O   UNL     1      -5.785   2.422   3.980  1.00  0.00    -0.269 OA
ATOM      8  H   UNL     1      -5.579   4.467   5.097  1.00  0.00     0.163 HD
BRANCH   6   9
ATOM      9  C   UNL     1      -3.822   2.809   2.754  1.00  0.00     0.040 A 
ATOM     10  N   UNL     1      -1.399  -0.137   0.171  1.00  0.00    -0.271 N 
ATOM     11  C   UNL     1      -1.136   1.185  -0.043  1.00  0.00     0.261 C 
ATOM     12  C   UNL     1      -2.396  -0.316   1.096  1.00  0.00     0.261 C 
ATOM     13  O   UNL     1      -0.390   1.700  -0.857  1.00  0.00    -0.269 OA
ATOM     14  C   UNL     1      -1.973   1.931   0.886  1.00  0.00     0.053 A 
ATOM     15  C   UNL     1      -2.746   1.022   1.580  1.00  0.00     0.054 A 
ATOM     16  O   UNL     1      -2.958  -1.333   1.441  1.00  0.00    -0.269 OA
ATOM     17  C   UNL     1      -2.088   3.289   1.081  1.00  0.00     0.015 A 
ATOM     18  C   UNL     1      -3.677   1.427   2.517  1.00  0.00     0.028 A 
ATOM     19  C   UNL     1      -3.045   3.724   2.006  1.00  0.00     0.015 A 
BRANCH  10  20
ATOM     20  C   UNL     1      -0.741  -1.216  -0.545  1.00  0.00     0.164 C 
BRANCH  20  21
ATOM     21  C   UNL     1       0.627  -1.627   0.067  1.00  0.00     0.084 C 
ATOM     22  C   UNL     1       1.636  -0.478   0.088  1.00  0.00     0.044 C 
ATOM     23  C   UNL     1       1.204  -2.838  -0.674  1.00  0.00     0.039 C 
ATOM     24  O   UNL     1       0.421  -2.071   1.426  1.00  0.00    -0.373 OA
ATOM     25  C   UNL     1       0.585  -4.003   0.057  1.00  0.00     0.031 C 
ATOM     26  C   UNL     1       0.533  -3.499   1.482  1.00  0.00     0.161 C 
ENDBRANCH  20  21
ENDBRANCH  10  20
ENDBRANCH   6   9
ENDBRANCH   4   5
ENDBRANCH   3   4
ENDBRANCH   2   3
ENDBRANCH   1   2
BRANCH   1  27
ATOM     27  C   UNL     1      -3.774   9.074   5.436  1.00  0.00     0.021 C 
BRANCH  27  28
ATOM     28  C   UNL     1      -4.001  10.231   4.469  1.00  0.00     0.116 C 
BRANCH  28  29
ATOM     29  N   UNL     1      -4.976  11.177   4.990  1.00  0.00    -0.352 N 
ATOM     30  C   UNL     1      -4.832  12.521   5.228  1.00  0.00     0.251 C 
ATOM     31  H   UNL     1      -5.862  10.802   5.200  1.00  0.00     0.163 HD
ATOM     32  O   UNL     1      -5.665  13.122   5.900  1.00  0.00    -0.269 OA
BRANCH  30  33
ATOM     33  C   UNL     1      -3.664  13.237   4.674  1.00  0.00     0.039 A 
ATOM     34  C   UNL     1      -2.959  14.129   5.486  1.00  0.00     0.014 A 
ATOM     35  C   UNL     1      -3.276  13.032   3.346  1.00  0.00     0.014 A 
ATOM     36  C   UNL     1      -1.833  14.781   4.979  1.00  0.00     0.010 A 
ATOM     37  C   UNL     1      -2.115  13.629   2.867  1.00  0.00     0.010 A 
ATOM     38  C   UNL     1      -1.388  14.517   3.673  1.00  0.00    -0.014 A 
BRANCH  38  39
ATOM     39  C   UNL     1      -0.173  15.167   3.120  1.00  0.00     0.031 A 
ATOM     40  C   UNL     1      -0.290  16.086   1.933  1.00  0.00     0.074 A 
ATOM     41  C   UNL     1       1.038  14.862   3.626  1.00  0.00     0.049 A 
ATOM     42  N   UNL     1       0.656  16.669   1.245  1.00  0.00    -0.248 NA
ATOM     43  C   UNL     1      -1.649  16.364   1.435  1.00  0.00     0.031 C 
ATOM     44  C   UNL     1       1.284  13.936   4.734  1.00  0.00     0.029 A 
ATOM     45  N   UNL     1       2.293  15.275   3.255  1.00  0.00    -0.354 N 
ATOM     46  C   UNL     1       0.014  17.354   0.220  1.00  0.00     0.074 A 
ATOM     47  C   UNL     1      -1.401  17.084   0.351  1.00  0.00     0.031 C 
ATOM     48  C   UNL     1       2.607  13.852   4.952  1.00  0.00     0.029 A 
ATOM     49  C   UNL     1       3.304  14.690   3.982  1.00  0.00     0.049 A 
ATOM     50  H   UNL     1       2.454  15.928   2.537  1.00  0.00     0.167 HD
ATOM     51  C   UNL     1       0.549  18.163  -0.725  1.00  0.00     0.034 A 
ATOM     52  C   UNL     1       4.642  14.808   3.870  1.00  0.00     0.034 A 
ATOM     53  C   UNL     1       1.951  18.464  -0.824  1.00  0.00     0.049 A 
ATOM     54  C   UNL     1       5.207  15.733   2.824  1.00  0.00     0.074 A 
ATOM     55  C   UNL     1       2.586  19.320  -1.706  1.00  0.00     0.029 A 
ATOM     56  N   UNL     1       2.935  17.923  -0.011  1.00  0.00    -0.354 N 
ATOM     57  N   UNL     1       4.572  16.477   1.951  1.00  0.00    -0.248 NA
ATOM     58  C   UNL     1       6.670  15.862   2.771  1.00  0.00     0.031 C 
ATOM     59  C   UNL     1       3.958  19.286  -1.435  1.00  0.00     0.029 A 
ATOM     60  C   UNL     1       4.172  18.428  -0.369  1.00  0.00     0.049 A 
ATOM     61  H   UNL     1       2.776  17.276   0.713  1.00  0.00     0.167 HD
ATOM     62  C   UNL     1       5.554  17.197   1.280  1.00  0.00     0.074 A 
ATOM     63  C   UNL     1       6.824  16.811   1.857  1.00  0.00     0.031 C 
ATOM     64  C   UNL     1       5.419  18.087   0.266  1.00  0.00     0.034 A 
BRANCH  51  65
ATOM     65  C   UNL     1      -0.392  18.834  -1.692  1.00  0.00     0.023 A 
ATOM     66  C   UNL     1      -1.224  19.877  -1.234  1.00  0.00     0.012 A 
ATOM     67  C   UNL     1      -0.405  18.488  -3.057  1.00  0.00     0.148 A 
ATOM     68  C   UNL     1      -2.074  20.546  -2.112  1.00  0.00     0.002 A 
ATOM     69  C   UNL     1      -1.223  19.190  -3.935  1.00  0.00     0.091 A 
ATOM     70  F   UNL     1       0.379  17.483  -3.470  1.00  0.00    -0.205 F 
ATOM     71  C   UNL     1      -2.065  20.210  -3.463  1.00  0.00     0.022 A 
BRANCH  69  72
ATOM     72  S   UNL     1      -1.231  18.891  -5.707  1.00  0.00     0.127 S 
ATOM     73  O   UNL     1      -2.563  18.320  -5.903  1.00  0.00    -0.237 OA
ATOM     74  O   UNL     1      -1.060  20.240  -6.246  1.00  0.00    -0.237 OA
ATOM     75  O   UNL     1      -0.121  17.985  -5.968  1.00  0.00    -0.744 OA
ENDBRANCH  69  72
ENDBRANCH  51  65
BRANCH  52  76
ATOM     76  C   UNL     1       5.544  14.084   4.811  1.00  0.00     0.023 A 
ATOM     77  C   UNL     1       6.289  14.818   5.755  1.00  0.00     0.012 A 
ATOM     78  C   UNL     1       5.671  12.682   4.779  1.00  0.00     0.148 A 
ATOM     79  C   UNL     1       7.176  14.175   6.619  1.00  0.00     0.002 A 
ATOM     80  C   UNL     1       6.513  12.042   5.682  1.00  0.00     0.091 A 
ATOM     81  F   UNL     1       4.965  11.999   3.867  1.00  0.00    -0.205 F 
ATOM     82  C   UNL     1       7.282  12.787   6.589  1.00  0.00     0.022 A 
BRANCH  80  83
ATOM     83  S   UNL     1       6.610  10.252   5.797  1.00  0.00     0.127 S 
ATOM     84  O   UNL     1       7.896   9.980   5.161  1.00  0.00    -0.237 OA
ATOM     85  O   UNL     1       6.579  10.037   7.244  1.00  0.00    -0.237 OA
ATOM     86  O   UNL     1       5.434   9.754   5.095  1.00  0.00    -0.744 OA
ENDBRANCH  80  83
ENDBRANCH  52  76
BRANCH  64  87
ATOM     87  C   UNL     1       6.664  18.755  -0.252  1.00  0.00     0.023 A 
ATOM     88  C   UNL     1       7.578  18.027  -1.039  1.00  0.00     0.012 A 
ATOM     89  C   UNL     1       6.882  20.129  -0.028  1.00  0.00     0.148 A 
ATOM     90  C   UNL     1       8.706  18.650  -1.571  1.00  0.00     0.002 A 
ATOM     91  C   UNL     1       7.981  20.754  -0.603  1.00  0.00     0.091 A 
ATOM     92  F   UNL     1       6.009  20.798   0.739  1.00  0.00    -0.205 F 
ATOM     93  C   UNL     1       8.901  20.014  -1.364  1.00  0.00     0.022 A 
BRANCH  91  94
ATOM     94  S   UNL     1       8.260  22.524  -0.473  1.00  0.00     0.127 S 
ATOM     95  O   UNL     1       9.409  22.579   0.428  1.00  0.00    -0.237 OA
ATOM     96  O   UNL     1       8.553  22.893  -1.859  1.00  0.00    -0.237 OA
ATOM     97  O   UNL     1       7.025  23.088   0.055  1.00  0.00    -0.744 OA
ENDBRANCH  91  94
ENDBRANCH  64  87
ENDBRANCH  38  39
ENDBRANCH  30  33
ENDBRANCH  28  29
ENDBRANCH  27  28
ENDBRANCH   1  27
TORSDOF 18
