REMARK SMILES CC[C@H](C)[C@H](C(=O)NCCCCCCNC(=O)c1ccc(-c2c3nc(c(-c4cccc(S(=O)(=O)[O-])c4F)c4ccc([nH]4)c(-c4cccc(S(=O)(=O)[O-])c4F)c4nc(c(-c5cccc(S(=O)(=O)[O-])c5F)c5ccc2[nH]5)C=C4)C=C3)cc1)[NH+]1CC2(CC2)C1
REMARK SMILES IDX 12 1 11 2 10 3 9 4 8 5 6 6 7 7 5 9 3 10 4 11 2 12 1 13 81 14
REMARK SMILES IDX 82 15 86 16 83 18 84 19 85 20 13 21 14 22 15 23 16 24 17 26
REMARK SMILES IDX 18 27 19 28 80 29 20 30 79 31 21 32 22 33 23 34 73 35 24 36
REMARK SMILES IDX 78 37 72 38 74 39 25 40 77 41 71 42 70 43 26 45 58 46 38 47
REMARK SMILES IDX 57 48 39 49 42 50 56 51 75 52 40 53 41 54 55 56 76 57 43 58
REMARK SMILES IDX 27 59 28 60 36 61 29 62 31 63 37 64 30 65 32 66 33 67 34 68
REMARK SMILES IDX 35 69 59 70 60 71 68 72 61 73 63 74 69 75 62 76 64 77 65 78
REMARK SMILES IDX 66 79 67 80 44 81 45 82 53 83 46 84 48 85 54 86 47 87 49 88
REMARK SMILES IDX 50 89 51 90 52 91
REMARK H PARENT 8 8 81 17 15 25 74 44 42 55
REMARK Flexibility Score: inf
ROOT
ATOM      1  C   UNL     1      -0.955   2.146   0.767  1.00  0.00     0.002 C 
ENDROOT
BRANCH   1   2
ATOM      2  C   UNL     1      -1.586   0.753   0.670  1.00  0.00     0.002 C 
BRANCH   2   3
ATOM      3  C   UNL     1      -2.004   0.309  -0.741  1.00  0.00     0.021 C 
BRANCH   3   4
ATOM      4  C   UNL     1      -0.905   0.392  -1.800  1.00  0.00     0.116 C 
BRANCH   4   5
ATOM      5  N   UNL     1       0.316  -0.216  -1.319  1.00  0.00    -0.351 N 
ATOM      6  C   UNL     1       1.234  -1.013  -1.917  1.00  0.00     0.278 C 
ATOM      7  O   UNL     1       2.249  -1.200  -1.242  1.00  0.00    -0.268 OA
ATOM      8  H   UNL     1       0.518  -0.013  -0.378  1.00  0.00     0.163 HD
BRANCH   6   9
ATOM      9  C   UNL     1       1.024  -1.506  -3.372  1.00  0.00     0.277 C 
BRANCH   9  10
ATOM     10  C   UNL     1       1.464  -0.375  -4.370  1.00  0.00     0.054 C 
ATOM     11  C   UNL     1       2.818   0.248  -3.995  1.00  0.00     0.014 C 
BRANCH  10  12
ATOM     12  C   UNL     1       1.306  -0.816  -5.853  1.00  0.00     0.006 C 
ATOM     13  C   UNL     1       2.256  -0.177  -6.855  1.00  0.00     0.004 C 
ENDBRANCH  10  12
ENDBRANCH   9  10
BRANCH   9  14
ATOM     14  N   UNL     1       1.620  -2.830  -3.730  1.00  0.00    -0.323 N 
ATOM     15  C   UNL     1       2.852  -3.228  -3.039  1.00  0.00     0.275 C 
ATOM     16  C   UNL     1       0.896  -3.966  -3.132  1.00  0.00     0.275 C 
ATOM     17  H   UNL     1       1.665  -2.688  -4.739  1.00  0.00     0.348 HD
ATOM     18  C   UNL     1       2.014  -4.090  -2.178  1.00  0.00     0.068 C 
ATOM     19  C   UNL     1       1.854  -4.114  -0.688  1.00  0.00     0.020 C 
ATOM     20  C   UNL     1       2.494  -5.274  -1.401  1.00  0.00     0.020 C 
ENDBRANCH   9  14
ENDBRANCH   6   9
ENDBRANCH   4   5
ENDBRANCH   3   4
ENDBRANCH   2   3
ENDBRANCH   1   2
BRANCH   1  21
ATOM     21  C   UNL     1      -1.827   3.285   0.244  1.00  0.00     0.021 C 
BRANCH  21  22
ATOM     22  C   UNL     1      -3.212   3.362   0.873  1.00  0.00     0.116 C 
BRANCH  22  23
ATOM     23  N   UNL     1      -3.160   3.593   2.308  1.00  0.00    -0.352 N 
ATOM     24  C   UNL     1      -3.873   4.497   3.060  1.00  0.00     0.251 C 
ATOM     25  H   UNL     1      -2.530   3.025   2.808  1.00  0.00     0.163 HD
ATOM     26  O   UNL     1      -3.599   4.676   4.237  1.00  0.00    -0.269 OA
BRANCH  24  27
ATOM     27  C   UNL     1      -4.960   5.269   2.416  1.00  0.00     0.039 A 
ATOM     28  C   UNL     1      -5.019   6.649   2.618  1.00  0.00     0.014 A 
ATOM     29  C   UNL     1      -5.896   4.634   1.595  1.00  0.00     0.014 A 
ATOM     30  C   UNL     1      -5.985   7.402   1.948  1.00  0.00     0.010 A 
ATOM     31  C   UNL     1      -6.804   5.395   0.867  1.00  0.00     0.010 A 
ATOM     32  C   UNL     1      -6.864   6.786   1.042  1.00  0.00    -0.014 A 
BRANCH  32  33
ATOM     33  C   UNL     1      -7.847   7.581   0.262  1.00  0.00     0.031 A 
ATOM     34  C   UNL     1      -9.322   7.339   0.429  1.00  0.00     0.074 A 
ATOM     35  C   UNL     1      -7.409   8.463  -0.659  1.00  0.00     0.049 A 
ATOM     36  N   UNL     1     -10.325   7.900  -0.196  1.00  0.00    -0.248 NA
ATOM     37  C   UNL     1      -9.725   6.313   1.406  1.00  0.00     0.031 C 
ATOM     38  C   UNL     1      -6.003   8.729  -0.974  1.00  0.00     0.029 A 
ATOM     39  N   UNL     1      -8.101   9.279  -1.518  1.00  0.00    -0.354 N 
ATOM     40  C   UNL     1     -11.470   7.273   0.282  1.00  0.00     0.074 A 
ATOM     41  C   UNL     1     -11.036   6.263   1.223  1.00  0.00     0.031 C 
ATOM     42  C   UNL     1      -5.938   9.648  -1.950  1.00  0.00     0.029 A 
ATOM     43  C   UNL     1      -7.292  10.012  -2.355  1.00  0.00     0.049 A 
ATOM     44  H   UNL     1      -9.084   9.335  -1.534  1.00  0.00     0.167 HD
ATOM     45  C   UNL     1     -12.766   7.531  -0.013  1.00  0.00     0.034 A 
ATOM     46  C   UNL     1      -7.603  10.871  -3.345  1.00  0.00     0.034 A 
ATOM     47  C   UNL     1     -13.194   8.559  -0.922  1.00  0.00     0.049 A 
ATOM     48  C   UNL     1      -9.051  11.166  -3.630  1.00  0.00     0.074 A 
ATOM     49  C   UNL     1     -14.484   8.962  -1.217  1.00  0.00     0.029 A 
ATOM     50  N   UNL     1     -12.346   9.338  -1.694  1.00  0.00    -0.354 N 
ATOM     51  N   UNL     1     -10.121  10.679  -3.050  1.00  0.00    -0.248 NA
ATOM     52  C   UNL     1      -9.334  12.155  -4.679  1.00  0.00     0.031 C 
ATOM     53  C   UNL     1     -14.417   9.960  -2.196  1.00  0.00     0.029 A 
ATOM     54  C   UNL     1     -13.084  10.207  -2.479  1.00  0.00     0.049 A 
ATOM     55  H   UNL     1     -11.363   9.281  -1.685  1.00  0.00     0.167 HD
ATOM     56  C   UNL     1     -11.201  11.327  -3.638  1.00  0.00     0.074 A 
ATOM     57  C   UNL     1     -10.654  12.257  -4.604  1.00  0.00     0.031 C 
ATOM     58  C   UNL     1     -12.527  11.160  -3.405  1.00  0.00     0.034 A 
BRANCH  45  59
ATOM     59  C   UNL     1     -13.820   6.710   0.685  1.00  0.00     0.023 A 
ATOM     60  C   UNL     1     -14.043   6.884   2.067  1.00  0.00     0.012 A 
ATOM     61  C   UNL     1     -14.624   5.805  -0.034  1.00  0.00     0.148 A 
ATOM     62  C   UNL     1     -15.020   6.143   2.729  1.00  0.00     0.002 A 
ATOM     63  C   UNL     1     -15.630   5.105   0.623  1.00  0.00     0.091 A 
ATOM     64  F   UNL     1     -14.386   5.636  -1.342  1.00  0.00    -0.205 F 
ATOM     65  C   UNL     1     -15.820   5.262   2.006  1.00  0.00     0.022 A 
BRANCH  63  66
ATOM     66  S   UNL     1     -16.767   4.010  -0.233  1.00  0.00     0.127 S 
ATOM     67  O   UNL     1     -16.338   2.700   0.254  1.00  0.00    -0.237 OA
ATOM     68  O   UNL     1     -18.064   4.455   0.278  1.00  0.00    -0.237 OA
ATOM     69  O   UNL     1     -16.560   4.247  -1.655  1.00  0.00    -0.744 OA
ENDBRANCH  63  66
ENDBRANCH  45  59
BRANCH  46  70
ATOM     70  C   UNL     1      -6.518  11.557  -4.103  1.00  0.00     0.023 A 
ATOM     71  C   UNL     1      -6.312  12.939  -3.926  1.00  0.00     0.012 A 
ATOM     72  C   UNL     1      -5.672  10.842  -4.972  1.00  0.00     0.148 A 
ATOM     73  C   UNL     1      -5.305  13.603  -4.626  1.00  0.00     0.002 A 
ATOM     74  C   UNL     1      -4.634  11.498  -5.623  1.00  0.00     0.091 A 
ATOM     75  F   UNL     1      -5.889   9.529  -5.132  1.00  0.00    -0.205 F 
ATOM     76  C   UNL     1      -4.460  12.882  -5.466  1.00  0.00     0.022 A 
BRANCH  74  77
ATOM     77  S   UNL     1      -3.417  10.630  -6.617  1.00  0.00     0.127 S 
ATOM     78  O   UNL     1      -3.725  11.117  -7.960  1.00  0.00    -0.237 OA
ATOM     79  O   UNL     1      -2.160  11.125  -6.054  1.00  0.00    -0.237 OA
ATOM     80  O   UNL     1      -3.660   9.212  -6.389  1.00  0.00    -0.744 OA
ENDBRANCH  74  77
ENDBRANCH  46  70
BRANCH  58  81
ATOM     81  C   UNL     1     -13.488  12.027  -4.176  1.00  0.00     0.023 A 
ATOM     82  C   UNL     1     -13.690  11.806  -5.553  1.00  0.00     0.012 A 
ATOM     83  C   UNL     1     -14.247  13.015  -3.517  1.00  0.00     0.148 A 
ATOM     84  C   UNL     1     -14.606  12.578  -6.268  1.00  0.00     0.002 A 
ATOM     85  C   UNL     1     -15.195  13.743  -4.223  1.00  0.00     0.091 A 
ATOM     86  F   UNL     1     -14.028  13.222  -2.210  1.00  0.00    -0.205 F 
ATOM     87  C   UNL     1     -15.366  13.536  -5.602  1.00  0.00     0.022 A 
BRANCH  85  88
ATOM     88  S   UNL     1     -16.290  14.926  -3.430  1.00  0.00     0.127 S 
ATOM     89  O   UNL     1     -15.776  16.196  -3.942  1.00  0.00    -0.237 OA
ATOM     90  O   UNL     1     -17.598  14.540  -3.959  1.00  0.00    -0.237 OA
ATOM     91  O   UNL     1     -16.133  14.723  -1.997  1.00  0.00    -0.744 OA
ENDBRANCH  85  88
ENDBRANCH  58  81
ENDBRANCH  32  33
ENDBRANCH  24  27
ENDBRANCH  22  23
ENDBRANCH  21  22
ENDBRANCH   1  21
TORSDOF 19
