REMARK SMILES C[C@H]1C[C@](C(=O)NCCCCCCNC(=O)c2ccc(-c3c4nc(c(-c5cccc(S(=O)(=O)[O-])c5F)c5ccc([nH]5)c(-c5cccc(S(=O)(=O)[O-])c5F)c5nc(c(-c6cccc(S(=O)(=O)[O-])c6F)c6ccc3[nH]6)C=C5)C=C4)cc2)(N(C=O)C2CC2)CS1
REMARK SMILES IDX 11 1 10 2 9 3 8 4 7 5 5 6 6 7 4 9 1 10 2 11 3 12 87 13 86 14
REMARK SMILES IDX 80 15 81 16 82 17 83 18 84 19 85 20 12 21 13 22 14 23 15 24
REMARK SMILES IDX 16 26 17 27 18 28 79 29 19 30 78 31 20 32 21 33 22 34 72 35
REMARK SMILES IDX 23 36 77 37 71 38 73 39 24 40 76 41 70 42 69 43 25 45 57 46
REMARK SMILES IDX 37 47 56 48 38 49 41 50 55 51 74 52 39 53 40 54 54 56 75 57
REMARK SMILES IDX 42 58 26 59 27 60 35 61 28 62 30 63 36 64 29 65 31 66 32 67
REMARK SMILES IDX 33 68 34 69 58 70 59 71 67 72 60 73 62 74 68 75 61 76 63 77
REMARK SMILES IDX 64 78 65 79 66 80 43 81 44 82 52 83 45 84 47 85 53 86 46 87
REMARK SMILES IDX 48 88 49 89 50 90 51 91
REMARK H PARENT 7 8 14 25 73 44 41 55
REMARK Flexibility Score: inf
ROOT
ATOM      1  C   UNL     1      -6.938  -3.230  -0.642  1.00  0.00     0.002 C 
ENDROOT
BRANCH   1   2
ATOM      2  C   UNL     1      -6.241  -2.024  -1.278  1.00  0.00     0.002 C 
BRANCH   2   3
ATOM      3  C   UNL     1      -5.066  -1.438  -0.484  1.00  0.00     0.021 C 
BRANCH   3   4
ATOM      4  C   UNL     1      -3.969  -2.432  -0.107  1.00  0.00     0.116 C 
BRANCH   4   5
ATOM      5  N   UNL     1      -3.376  -3.045  -1.282  1.00  0.00    -0.354 N 
ATOM      6  C   UNL     1      -2.092  -3.437  -1.528  1.00  0.00     0.246 C 
ATOM      7  O   UNL     1      -1.879  -3.884  -2.659  1.00  0.00    -0.272 OA
ATOM      8  H   UNL     1      -4.003  -3.205  -2.023  1.00  0.00     0.163 HD
BRANCH   6   9
ATOM      9  C   UNL     1      -0.932  -3.193  -0.487  1.00  0.00     0.131 C 
ATOM     10  C   UNL     1       0.814  -0.771  -2.494  1.00  0.00     0.019 C 
ATOM     11  C   UNL     1       0.762  -1.350  -1.085  1.00  0.00     0.046 C 
ATOM     12  C   UNL     1      -0.664  -1.670  -0.638  1.00  0.00     0.054 C 
ATOM     13  S   UNL     1       1.736  -2.868  -0.997  1.00  0.00    -0.156 SA
ATOM     14  C   UNL     1       0.314  -3.982  -0.953  1.00  0.00     0.108 C 
BRANCH   9  15
ATOM     15  N   UNL     1      -1.383  -3.681   0.868  1.00  0.00    -0.327 N 
BRANCH  15  16
ATOM     16  C   UNL     1      -2.040  -4.931   0.906  1.00  0.00     0.341 C 
ATOM     17  O   UNL     1      -2.403  -5.538   1.906  1.00  0.00    -0.279 OA
ENDBRANCH  15  16
BRANCH  15  18
ATOM     18  C   UNL     1      -0.817  -3.265   2.155  1.00  0.00     0.086 C 
ATOM     19  C   UNL     1       0.485  -2.561   2.387  1.00  0.00     0.027 C 
ATOM     20  C   UNL     1      -0.809  -1.886   2.749  1.00  0.00     0.027 C 
ENDBRANCH  15  18
ENDBRANCH   9  15
ENDBRANCH   6   9
ENDBRANCH   4   5
ENDBRANCH   3   4
ENDBRANCH   2   3
ENDBRANCH   1   2
BRANCH   1  21
ATOM     21  C   UNL     1      -7.453  -3.015   0.781  1.00  0.00     0.021 C 
BRANCH  21  22
ATOM     22  C   UNL     1      -8.357  -1.803   0.969  1.00  0.00     0.116 C 
BRANCH  22  23
ATOM     23  N   UNL     1      -9.560  -1.865   0.153  1.00  0.00    -0.352 N 
ATOM     24  C   UNL     1     -10.862  -1.623   0.518  1.00  0.00     0.251 C 
ATOM     25  H   UNL     1      -9.422  -2.115  -0.789  1.00  0.00     0.163 HD
ATOM     26  O   UNL     1     -11.776  -1.858  -0.269  1.00  0.00    -0.269 OA
BRANCH  24  27
ATOM     27  C   UNL     1     -11.159  -1.103   1.870  1.00  0.00     0.039 A 
ATOM     28  C   UNL     1     -12.182  -1.696   2.613  1.00  0.00     0.014 A 
ATOM     29  C   UNL     1     -10.421  -0.045   2.408  1.00  0.00     0.014 A 
ATOM     30  C   UNL     1     -12.425  -1.267   3.920  1.00  0.00     0.010 A 
ATOM     31  C   UNL     1     -10.613   0.327   3.735  1.00  0.00     0.010 A 
ATOM     32  C   UNL     1     -11.622  -0.273   4.503  1.00  0.00    -0.014 A 
BRANCH  32  33
ATOM     33  C   UNL     1     -11.818   0.153   5.912  1.00  0.00     0.031 A 
ATOM     34  C   UNL     1     -12.210   1.572   6.226  1.00  0.00     0.074 A 
ATOM     35  C   UNL     1     -11.565  -0.713   6.913  1.00  0.00     0.049 A 
ATOM     36  N   UNL     1     -12.373   2.146   7.390  1.00  0.00    -0.248 NA
ATOM     37  C   UNL     1     -12.419   2.473   5.080  1.00  0.00     0.031 C 
ATOM     38  C   UNL     1     -11.114  -2.096   6.743  1.00  0.00     0.029 A 
ATOM     39  N   UNL     1     -11.629  -0.552   8.275  1.00  0.00    -0.354 N 
ATOM     40  C   UNL     1     -12.671   3.476   7.120  1.00  0.00     0.074 A 
ATOM     41  C   UNL     1     -12.623   3.635   5.683  1.00  0.00     0.031 C 
ATOM     42  C   UNL     1     -10.957  -2.660   7.951  1.00  0.00     0.029 A 
ATOM     43  C   UNL     1     -11.260  -1.673   8.982  1.00  0.00     0.049 A 
ATOM     44  H   UNL     1     -11.912   0.287   8.705  1.00  0.00     0.167 HD
ATOM     45  C   UNL     1     -12.989   4.470   7.984  1.00  0.00     0.034 A 
ATOM     46  C   UNL     1     -11.172  -1.880  10.310  1.00  0.00     0.034 A 
ATOM     47  C   UNL     1     -13.066   4.300   9.410  1.00  0.00     0.049 A 
ATOM     48  C   UNL     1     -11.538  -0.762  11.250  1.00  0.00     0.074 A 
ATOM     49  C   UNL     1     -13.449   5.222  10.367  1.00  0.00     0.029 A 
ATOM     50  N   UNL     1     -12.745   3.132  10.086  1.00  0.00    -0.354 N 
ATOM     51  N   UNL     1     -11.958   0.448  10.971  1.00  0.00    -0.248 NA
ATOM     52  C   UNL     1     -11.449  -1.050  12.689  1.00  0.00     0.031 C 
ATOM     53  C   UNL     1     -13.332   4.621  11.625  1.00  0.00     0.029 A 
ATOM     54  C   UNL     1     -12.910   3.312  11.448  1.00  0.00     0.049 A 
ATOM     55  H   UNL     1     -12.445   2.297   9.659  1.00  0.00     0.167 HD
ATOM     56  C   UNL     1     -12.226   1.050  12.196  1.00  0.00     0.074 A 
ATOM     57  C   UNL     1     -11.934   0.065  13.217  1.00  0.00     0.031 C 
ATOM     58  C   UNL     1     -12.666   2.307  12.451  1.00  0.00     0.034 A 
BRANCH  45  59
ATOM     59  C   UNL     1     -13.319   5.820   7.399  1.00  0.00     0.023 A 
ATOM     60  C   UNL     1     -14.508   5.986   6.657  1.00  0.00     0.012 A 
ATOM     61  C   UNL     1     -12.478   6.930   7.607  1.00  0.00     0.148 A 
ATOM     62  C   UNL     1     -14.829   7.218   6.091  1.00  0.00     0.002 A 
ATOM     63  C   UNL     1     -12.830   8.169   7.081  1.00  0.00     0.091 A 
ATOM     64  F   UNL     1     -11.342   6.753   8.297  1.00  0.00    -0.205 F 
ATOM     65  C   UNL     1     -13.996   8.311   6.311  1.00  0.00     0.022 A 
BRANCH  63  66
ATOM     66  S   UNL     1     -11.864   9.655   7.376  1.00  0.00     0.127 S 
ATOM     67  O   UNL     1     -11.253   9.874   6.065  1.00  0.00    -0.237 OA
ATOM     68  O   UNL     1     -12.897  10.627   7.736  1.00  0.00    -0.237 OA
ATOM     69  O   UNL     1     -10.940   9.325   8.451  1.00  0.00    -0.744 OA
ENDBRANCH  63  66
ENDBRANCH  45  59
BRANCH  46  70
ATOM     70  C   UNL     1     -10.791  -3.222  10.834  1.00  0.00     0.023 A 
ATOM     71  C   UNL     1     -11.762  -4.007  11.486  1.00  0.00     0.012 A 
ATOM     72  C   UNL     1      -9.489  -3.734  10.675  1.00  0.00     0.148 A 
ATOM     73  C   UNL     1     -11.437  -5.262  12.000  1.00  0.00     0.002 A 
ATOM     74  C   UNL     1      -9.185  -5.008  11.142  1.00  0.00     0.091 A 
ATOM     75  F   UNL     1      -8.577  -2.969  10.058  1.00  0.00    -0.205 F 
ATOM     76  C   UNL     1     -10.152  -5.766  11.820  1.00  0.00     0.022 A 
BRANCH  74  77
ATOM     77  S   UNL     1      -7.595  -5.791  10.851  1.00  0.00     0.127 S 
ATOM     78  O   UNL     1      -7.043  -5.855  12.202  1.00  0.00    -0.237 OA
ATOM     79  O   UNL     1      -7.994  -7.079  10.285  1.00  0.00    -0.237 OA
ATOM     80  O   UNL     1      -6.889  -4.917   9.923  1.00  0.00    -0.744 OA
ENDBRANCH  74  77
ENDBRANCH  46  70
BRANCH  58  81
ATOM     81  C   UNL     1     -12.907   2.684  13.890  1.00  0.00     0.023 A 
ATOM     82  C   UNL     1     -11.817   2.882  14.761  1.00  0.00     0.012 A 
ATOM     83  C   UNL     1     -14.216   2.915  14.358  1.00  0.00     0.148 A 
ATOM     84  C   UNL     1     -12.029   3.270  16.084  1.00  0.00     0.002 A 
ATOM     85  C   UNL     1     -14.416   3.353  15.662  1.00  0.00     0.091 A 
ATOM     86  F   UNL     1     -15.241   2.704  13.520  1.00  0.00    -0.205 F 
ATOM     87  C   UNL     1     -13.325   3.517  16.530  1.00  0.00     0.022 A 
BRANCH  85  88
ATOM     88  S   UNL     1     -16.039   3.792  16.293  1.00  0.00     0.127 S 
ATOM     89  O   UNL     1     -16.299   2.702  17.232  1.00  0.00    -0.237 OA
ATOM     90  O   UNL     1     -15.786   5.089  16.921  1.00  0.00    -0.237 OA
ATOM     91  O   UNL     1     -16.922   3.843  15.136  1.00  0.00    -0.744 OA
ENDBRANCH  85  88
ENDBRANCH  58  81
ENDBRANCH  32  33
ENDBRANCH  24  27
ENDBRANCH  22  23
ENDBRANCH  21  22
ENDBRANCH   1  21
TORSDOF 19
