REMARK SMILES O=C(NCCCCCCNC(=O)c1cc2c(c(S(=O)(=O)Nc3cc(C(F)(F)F)ccc3-n3cccn3)c1)CCC2)c1ccc(-c2c3nc(c(-c4cccc(S(=O)(=O)[O-])c4F)c4ccc([nH]4)c(-c4cccc(S(=O)(=O)[O-])c4F)c4nc(c(-c5cccc(S(=O)(=O)[O-])c5F)c5ccc2[nH]5)C=C4)C=C3)cc1
REMARK SMILES IDX 7 1 6 2 5 3 4 4 3 5 1 6 2 7 41 9 42 10 103 11 43 12 102 13
REMARK SMILES IDX 44 14 45 15 46 16 96 17 47 18 101 19 95 20 97 21 48 22
REMARK SMILES IDX 100 23 94 24 93 25 49 27 81 28 61 29 80 30 62 31 65 32 79 33
REMARK SMILES IDX 98 34 63 35 64 36 78 38 99 39 66 40 50 41 51 42 59 43 52 44
REMARK SMILES IDX 54 45 60 46 53 47 55 48 56 49 57 50 58 51 82 52 83 53 91 54
REMARK SMILES IDX 84 55 86 56 92 57 85 58 87 59 88 60 89 61 90 62 67 63 68 64
REMARK SMILES IDX 76 65 69 66 71 67 77 68 70 69 72 70 73 71 74 72 75 73 8 74
REMARK SMILES IDX 9 75 10 76 11 77 12 79 13 80 14 81 37 82 15 83 17 84 16 85
REMARK SMILES IDX 40 86 38 87 39 88 18 89 19 90 20 91 21 92 22 94 23 95 31 96
REMARK SMILES IDX 24 97 30 98 29 99 32 100 33 101 36 102 34 103 35 104 25 105
REMARK SMILES IDX 26 106 27 107 28 108
REMARK H PARENT 3 8 97 26 65 37 10 78 21 93
REMARK Flexibility Score: inf
ROOT
ATOM      1  C   UNL     1       4.687   3.558   2.353  1.00  0.00     0.002 C 
ENDROOT
BRANCH   1   2
ATOM      2  C   UNL     1       4.224   3.494   0.891  1.00  0.00     0.002 C 
BRANCH   2   3
ATOM      3  C   UNL     1       4.785   2.335   0.054  1.00  0.00     0.021 C 
BRANCH   3   4
ATOM      4  C   UNL     1       4.608   0.952   0.677  1.00  0.00     0.116 C 
BRANCH   4   5
ATOM      5  N   UNL     1       3.228   0.592   0.922  1.00  0.00    -0.352 N 
ATOM      6  O   UNL     1       1.173  -0.187   0.791  1.00  0.00    -0.269 OA
ATOM      7  C   UNL     1       2.224   0.035   0.182  1.00  0.00     0.251 C 
ATOM      8  H   UNL     1       2.945   0.798   1.843  1.00  0.00     0.163 HD
BRANCH   7   9
ATOM      9  C   UNL     1       2.286  -0.253  -1.277  1.00  0.00     0.039 A 
ATOM     10  C   UNL     1       3.447  -0.310  -2.049  1.00  0.00     0.014 A 
ATOM     11  C   UNL     1       1.048  -0.483  -1.908  1.00  0.00     0.014 A 
ATOM     12  C   UNL     1       3.368  -0.505  -3.426  1.00  0.00     0.010 A 
ATOM     13  C   UNL     1       0.964  -0.695  -3.279  1.00  0.00     0.010 A 
ATOM     14  C   UNL     1       2.125  -0.670  -4.043  1.00  0.00    -0.014 A 
BRANCH  14  15
ATOM     15  C   UNL     1       2.100  -0.973  -5.472  1.00  0.00     0.031 A 
ATOM     16  C   UNL     1       2.749  -2.266  -5.843  1.00  0.00     0.074 A 
ATOM     17  C   UNL     1       1.434  -0.232  -6.381  1.00  0.00     0.049 A 
ATOM     18  N   UNL     1       3.770  -2.460  -6.614  1.00  0.00    -0.248 NA
ATOM     19  C   UNL     1       2.266  -3.485  -5.175  1.00  0.00     0.031 C 
ATOM     20  C   UNL     1       0.509   0.877  -6.135  1.00  0.00     0.029 A 
ATOM     21  N   UNL     1       1.346  -0.410  -7.731  1.00  0.00    -0.354 N 
ATOM     22  C   UNL     1       3.933  -3.844  -6.690  1.00  0.00     0.074 A 
ATOM     23  C   UNL     1       3.085  -4.411  -5.674  1.00  0.00     0.031 C 
ATOM     24  C   UNL     1      -0.223   1.102  -7.250  1.00  0.00     0.029 A 
ATOM     25  C   UNL     1       0.276   0.257  -8.320  1.00  0.00     0.049 A 
ATOM     26  H   UNL     1       1.982  -0.961  -8.242  1.00  0.00     0.167 HD
ATOM     27  C   UNL     1       4.605  -4.442  -7.713  1.00  0.00     0.034 A 
ATOM     28  C   UNL     1      -0.208   0.066  -9.573  1.00  0.00     0.034 A 
ATOM     29  C   UNL     1       5.428  -3.508  -8.431  1.00  0.00     0.049 A 
ATOM     30  C   UNL     1       0.853  -0.591 -10.367  1.00  0.00     0.074 A 
ATOM     31  C   UNL     1       6.501  -2.703  -8.109  1.00  0.00     0.029 A 
ATOM     32  N   UNL     1       4.941  -3.027  -9.621  1.00  0.00    -0.354 N 
ATOM     33  N   UNL     1       1.976  -0.013 -10.685  1.00  0.00    -0.248 NA
ATOM     34  C   UNL     1       0.845  -2.041 -10.449  1.00  0.00     0.031 C 
ATOM     35  C   UNL     1       6.286  -1.501  -8.844  1.00  0.00     0.029 A 
ATOM     36  C   UNL     1       5.133  -1.671  -9.613  1.00  0.00     0.049 A 
ATOM     37  H   UNL     1       4.533  -3.557 -10.343  1.00  0.00     0.167 HD
ATOM     38  C   UNL     1       2.926  -1.017 -10.556  1.00  0.00     0.074 A 
ATOM     39  C   UNL     1       2.160  -2.262 -10.514  1.00  0.00     0.031 C 
ATOM     40  C   UNL     1       4.213  -0.727 -10.207  1.00  0.00     0.034 A 
BRANCH  27  41
ATOM     41  C   UNL     1       4.286  -5.808  -8.275  1.00  0.00     0.023 A 
ATOM     42  C   UNL     1       5.195  -6.371  -9.199  1.00  0.00     0.012 A 
ATOM     43  C   UNL     1       3.027  -6.439  -8.150  1.00  0.00     0.148 A 
ATOM     44  C   UNL     1       4.854  -7.479  -9.985  1.00  0.00     0.002 A 
ATOM     45  C   UNL     1       2.721  -7.586  -8.877  1.00  0.00     0.091 A 
ATOM     46  F   UNL     1       2.062  -5.863  -7.427  1.00  0.00    -0.205 F 
ATOM     47  C   UNL     1       3.620  -8.093  -9.817  1.00  0.00     0.022 A 
BRANCH  45  48
ATOM     48  S   UNL     1       1.160  -8.449  -8.663  1.00  0.00     0.127 S 
ATOM     49  O   UNL     1       0.462  -8.101  -9.897  1.00  0.00    -0.237 OA
ATOM     50  O   UNL     1       1.599  -9.842  -8.571  1.00  0.00    -0.237 OA
ATOM     51  O   UNL     1       0.590  -7.922  -7.430  1.00  0.00    -0.744 OA
ENDBRANCH  45  48
ENDBRANCH  27  41
BRANCH  28  52
ATOM     52  C   UNL     1      -1.603   0.139 -10.067  1.00  0.00     0.023 A 
ATOM     53  C   UNL     1      -1.856   0.317 -11.443  1.00  0.00     0.012 A 
ATOM     54  C   UNL     1      -2.674  -0.262  -9.239  1.00  0.00     0.148 A 
ATOM     55  C   UNL     1      -3.127   0.075 -11.980  1.00  0.00     0.002 A 
ATOM     56  C   UNL     1      -3.936  -0.497  -9.776  1.00  0.00     0.091 A 
ATOM     57  F   UNL     1      -2.430  -0.504  -7.945  1.00  0.00    -0.205 F 
ATOM     58  C   UNL     1      -4.164  -0.341 -11.149  1.00  0.00     0.022 A 
BRANCH  56  59
ATOM     59  S   UNL     1      -5.312  -1.073  -8.773  1.00  0.00     0.127 S 
ATOM     60  O   UNL     1      -6.369  -0.131  -9.144  1.00  0.00    -0.237 OA
ATOM     61  O   UNL     1      -5.501  -2.432  -9.273  1.00  0.00    -0.237 OA
ATOM     62  O   UNL     1      -4.870  -0.964  -7.389  1.00  0.00    -0.744 OA
ENDBRANCH  56  59
ENDBRANCH  28  52
BRANCH  40  63
ATOM     63  C   UNL     1       4.632   0.723 -10.184  1.00  0.00     0.023 A 
ATOM     64  C   UNL     1       4.042   1.666  -9.314  1.00  0.00     0.012 A 
ATOM     65  C   UNL     1       5.758   1.105 -10.930  1.00  0.00     0.148 A 
ATOM     66  C   UNL     1       4.547   2.965  -9.211  1.00  0.00     0.002 A 
ATOM     67  C   UNL     1       6.289   2.382 -10.789  1.00  0.00     0.091 A 
ATOM     68  F   UNL     1       6.314   0.199 -11.748  1.00  0.00    -0.205 F 
ATOM     69  C   UNL     1       5.680   3.319  -9.939  1.00  0.00     0.022 A 
BRANCH  67  70
ATOM     70  S   UNL     1       7.821   2.855 -11.593  1.00  0.00     0.127 S 
ATOM     71  O   UNL     1       7.347   3.730 -12.663  1.00  0.00    -0.237 OA
ATOM     72  O   UNL     1       8.542   3.538 -10.517  1.00  0.00    -0.237 OA
ATOM     73  O   UNL     1       8.446   1.612 -12.028  1.00  0.00    -0.744 OA
ENDBRANCH  67  70
ENDBRANCH  40  63
ENDBRANCH  14  15
ENDBRANCH   7   9
ENDBRANCH   4   5
ENDBRANCH   3   4
ENDBRANCH   2   3
ENDBRANCH   1   2
BRANCH   1  74
ATOM     74  C   UNL     1       6.200   3.586   2.569  1.00  0.00     0.021 C 
BRANCH  74  75
ATOM     75  C   UNL     1       6.919   4.788   1.967  1.00  0.00     0.116 C 
BRANCH  75  76
ATOM     76  N   UNL     1       6.637   6.042   2.667  1.00  0.00    -0.352 N 
ATOM     77  C   UNL     1       7.523   6.994   3.135  1.00  0.00     0.251 C 
ATOM     78  H   UNL     1       5.685   6.233   2.828  1.00  0.00     0.163 HD
ATOM     79  O   UNL     1       7.139   7.934   3.827  1.00  0.00    -0.269 OA
BRANCH  77  80
ATOM     80  C   UNL     1       8.962   6.852   2.815  1.00  0.00     0.041 A 
ATOM     81  C   UNL     1       9.321   6.581   1.499  1.00  0.00     0.018 A 
ATOM     82  C   UNL     1       9.925   6.835   3.847  1.00  0.00     0.036 A 
ATOM     83  C   UNL     1      10.559   6.019   1.292  1.00  0.00    -0.043 A 
ATOM     84  C   UNL     1      11.233   6.352   3.608  1.00  0.00     0.092 A 
ATOM     85  C   UNL     1      11.477   5.820   2.346  1.00  0.00    -0.024 A 
ATOM     86  C   UNL     1      11.024   5.394   0.010  1.00  0.00     0.036 C 
ATOM     87  C   UNL     1      12.510   4.863   1.842  1.00  0.00     0.037 C 
ATOM     88  C   UNL     1      12.495   5.181   0.343  1.00  0.00     0.010 C 
BRANCH  84  89
ATOM     89  S   UNL     1      12.333   6.226   5.006  1.00  0.00     0.262 S 
ATOM     90  O   UNL     1      11.769   7.056   6.057  1.00  0.00    -0.201 OA
ATOM     91  O   UNL     1      12.552   4.818   5.256  1.00  0.00    -0.201 OA
BRANCH  89  92
ATOM     92  N   UNL     1      13.888   6.905   4.783  1.00  0.00    -0.277 N 
ATOM     93  H   UNL     1      14.306   7.369   5.545  1.00  0.00     0.180 HD
BRANCH  92  94
ATOM     94  C   UNL     1      14.618   6.837   3.551  1.00  0.00     0.075 A 
ATOM     95  C   UNL     1      15.507   5.765   3.350  1.00  0.00     0.042 A 
ATOM     96  C   UNL     1      14.381   7.737   2.501  1.00  0.00     0.089 A 
ATOM     97  C   UNL     1      16.095   5.539   2.086  1.00  0.00     0.058 A 
ATOM     98  C   UNL     1      14.997   7.541   1.255  1.00  0.00     0.031 A 
ATOM     99  C   UNL     1      15.847   6.451   1.050  1.00  0.00     0.015 A 
BRANCH  96 100
ATOM    100  N   UNL     1      13.461   8.802   2.641  1.00  0.00    -0.239 N 
ATOM    101  C   UNL     1      13.185   9.545   3.767  1.00  0.00     0.115 A 
ATOM    102  N   UNL     1      12.617   9.112   1.628  1.00  0.00    -0.177 NA
ATOM    103  C   UNL     1      11.990  10.179   3.539  1.00  0.00     0.042 A 
ATOM    104  C   UNL     1      11.662   9.837   2.218  1.00  0.00     0.135 A 
ENDBRANCH  96 100
BRANCH  97 105
ATOM    105  C   UNL     1      16.894   4.280   1.830  1.00  0.00     0.416 C 
ATOM    106  F   UNL     1      18.123   4.315   2.410  1.00  0.00    -0.166 F 
ATOM    107  F   UNL     1      16.277   3.170   2.323  1.00  0.00    -0.166 F 
ATOM    108  F   UNL     1      17.105   4.029   0.509  1.00  0.00    -0.166 F 
ENDBRANCH  97 105
ENDBRANCH  92  94
ENDBRANCH  89  92
ENDBRANCH  84  89
ENDBRANCH  77  80
ENDBRANCH  75  76
ENDBRANCH  74  75
ENDBRANCH   1  74
TORSDOF 21
