REMARK SMILES CC(C)[C@@H](NC(=O)[C@@](C)([NH3+])C(F)(F)F)C(=O)NCCCCCCNC(=O)c1ccc(-c2c3nc(c(-c4cccc(S(=O)(=O)[O-])c4F)c4ccc([nH]4)c(-c4cccc(S(=O)(=O)[O-])c4F)c4nc(c(-c5cccc(S(=O)(=O)[O-])c5F)c5ccc2[nH]5)C=C4)C=C3)cc1
REMARK SMILES IDX 20 1 19 2 18 3 17 4 15 5 16 6 4 8 2 9 1 10 3 11 5 12 6 13
REMARK SMILES IDX 7 15 8 16 9 17 10 18 11 22 12 23 13 24 14 25 21 26 22 27
REMARK SMILES IDX 23 28 24 29 25 30 26 32 27 33 28 34 89 35 29 36 88 37 30 38
REMARK SMILES IDX 31 39 32 40 82 41 33 42 87 43 81 44 83 45 34 46 86 47 80 48
REMARK SMILES IDX 79 49 35 51 67 52 47 53 66 54 48 55 51 56 65 57 84 58 49 59
REMARK SMILES IDX 50 60 64 62 85 63 52 64 36 65 37 66 45 67 38 68 40 69 46 70
REMARK SMILES IDX 39 71 41 72 42 73 43 74 44 75 68 76 69 77 77 78 70 79 72 80
REMARK SMILES IDX 78 81 71 82 73 83 74 84 75 85 76 86 53 87 54 88 62 89 55 90
REMARK SMILES IDX 57 91 63 92 56 93 58 94 59 95 60 96 61 97
REMARK H PARENT 17 7 5 14 10 19 10 20 10 21 24 31 83 50 51 61
REMARK Flexibility Score: inf
ROOT
ATOM      1  C   UNL     1       0.915   6.409   1.277  1.00  0.00     0.002 C 
ENDROOT
BRANCH   1   2
ATOM      2  C   UNL     1       1.664   5.077   1.185  1.00  0.00     0.021 C 
BRANCH   2   3
ATOM      3  C   UNL     1       0.766   3.855   1.054  1.00  0.00     0.116 C 
BRANCH   3   4
ATOM      4  N   UNL     1       0.024   3.873  -0.197  1.00  0.00    -0.354 N 
ATOM      5  C   UNL     1      -0.856   2.955  -0.690  1.00  0.00     0.242 C 
ATOM      6  O   UNL     1      -1.621   3.313  -1.592  1.00  0.00    -0.273 OA
ATOM      7  H   UNL     1       0.179   4.659  -0.769  1.00  0.00     0.163 HD
BRANCH   5   8
ATOM      8  C   UNL     1      -0.906   1.517  -0.153  1.00  0.00     0.174 C 
BRANCH   8   9
ATOM      9  C   UNL     1       0.493   0.841  -0.374  1.00  0.00     0.015 C 
ATOM     10  C   UNL     1       0.521  -0.661  -0.080  1.00  0.00     0.010 C 
ATOM     11  C   UNL     1       1.053   1.069  -1.790  1.00  0.00     0.010 C 
ENDBRANCH   8   9
BRANCH   8  12
ATOM     12  N   UNL     1      -1.355   1.458   1.254  1.00  0.00    -0.338 N 
ATOM     13  C   UNL     1      -2.551   1.740   1.867  1.00  0.00     0.291 C 
ATOM     14  H   UNL     1      -0.656   1.154   1.877  1.00  0.00     0.164 HD
ATOM     15  O   UNL     1      -2.776   1.032   2.856  1.00  0.00    -0.267 OA
BRANCH  13  16
ATOM     16  C   UNL     1      -3.534   2.872   1.453  1.00  0.00     0.267 C 
ATOM     17  C   UNL     1      -2.898   4.265   1.504  1.00  0.00     0.100 C 
BRANCH  16  18
ATOM     18  N   UNL     1      -4.043   2.622   0.060  1.00  0.00    -0.337 N 
ATOM     19  H   UNL     1      -3.257   2.600  -0.590  1.00  0.00     0.345 HD
ATOM     20  H   UNL     1      -4.684   3.369  -0.207  1.00  0.00     0.345 HD
ATOM     21  H   UNL     1      -4.532   1.728   0.033  1.00  0.00     0.345 HD
ENDBRANCH  16  18
BRANCH  16  22
ATOM     22  C   UNL     1      -4.658   2.927   2.542  1.00  0.00     0.453 C 
ATOM     23  F   UNL     1      -5.440   1.830   2.580  1.00  0.00    -0.164 F 
ATOM     24  F   UNL     1      -4.170   3.155   3.784  1.00  0.00    -0.164 F 
ATOM     25  F   UNL     1      -5.489   3.979   2.273  1.00  0.00    -0.164 F 
ENDBRANCH  16  22
ENDBRANCH  13  16
ENDBRANCH   8  12
ENDBRANCH   5   8
ENDBRANCH   3   4
ENDBRANCH   2   3
ENDBRANCH   1   2
BRANCH   1  26
ATOM     26  C   UNL     1      -0.043   6.552   2.461  1.00  0.00     0.002 C 
BRANCH  26  27
ATOM     27  C   UNL     1       0.548   6.252   3.837  1.00  0.00     0.021 C 
BRANCH  27  28
ATOM     28  C   UNL     1       1.851   6.975   4.139  1.00  0.00     0.116 C 
BRANCH  28  29
ATOM     29  N   UNL     1       1.739   8.416   3.990  1.00  0.00    -0.352 N 
ATOM     30  C   UNL     1       2.289   9.403   4.768  1.00  0.00     0.251 C 
ATOM     31  H   UNL     1       1.196   8.725   3.228  1.00  0.00     0.163 HD
ATOM     32  O   UNL     1       1.993  10.574   4.578  1.00  0.00    -0.269 OA
BRANCH  30  33
ATOM     33  C   UNL     1       3.216   9.028   5.856  1.00  0.00     0.039 A 
ATOM     34  C   UNL     1       3.037   9.605   7.114  1.00  0.00     0.014 A 
ATOM     35  C   UNL     1       4.235   8.094   5.643  1.00  0.00     0.014 A 
ATOM     36  C   UNL     1       3.856   9.211   8.171  1.00  0.00     0.010 A 
ATOM     37  C   UNL     1       4.990   7.639   6.718  1.00  0.00     0.010 A 
ATOM     38  C   UNL     1       4.820   8.205   7.989  1.00  0.00    -0.014 A 
BRANCH  38  39
ATOM     39  C   UNL     1       5.657   7.742   9.124  1.00  0.00     0.031 A 
ATOM     40  C   UNL     1       7.152   7.912   9.084  1.00  0.00     0.074 A 
ATOM     41  C   UNL     1       5.072   7.120  10.166  1.00  0.00     0.049 A 
ATOM     42  N   UNL     1       8.041   7.574   9.981  1.00  0.00    -0.248 NA
ATOM     43  C   UNL     1       7.728   8.514   7.870  1.00  0.00     0.031 C 
ATOM     44  C   UNL     1       3.643   6.817  10.278  1.00  0.00     0.029 A 
ATOM     45  N   UNL     1       5.609   6.613  11.323  1.00  0.00    -0.354 N 
ATOM     46  C   UNL     1       9.277   7.891   9.430  1.00  0.00     0.074 A 
ATOM     47  C   UNL     1       9.028   8.411   8.104  1.00  0.00     0.031 C 
ATOM     48  C   UNL     1       3.415   6.193  11.444  1.00  0.00     0.029 A 
ATOM     49  C   UNL     1       4.681   6.022  12.148  1.00  0.00     0.049 A 
ATOM     50  H   UNL     1       6.567   6.668  11.541  1.00  0.00     0.167 HD
ATOM     51  C   UNL     1      10.506   7.787   9.987  1.00  0.00     0.034 A 
ATOM     52  C   UNL     1       4.835   5.408  13.337  1.00  0.00     0.034 A 
ATOM     53  C   UNL     1      10.743   7.304  11.321  1.00  0.00     0.049 A 
ATOM     54  C   UNL     1       6.206   5.347  13.952  1.00  0.00     0.074 A 
ATOM     55  C   UNL     1      11.940   7.246  12.013  1.00  0.00     0.029 A 
ATOM     56  N   UNL     1       9.770   6.785  12.159  1.00  0.00    -0.354 N 
ATOM     57  N   UNL     1       7.342   5.804  13.484  1.00  0.00    -0.248 NA
ATOM     58  C   UNL     1       6.311   4.720  15.277  1.00  0.00     0.031 C 
ATOM     59  C   UNL     1      11.695   6.657  13.257  1.00  0.00     0.029 A 
ATOM     60  C   UNL     1      10.340   6.388  13.357  1.00  0.00     0.049 A 
ATOM     61  H   UNL     1       8.814   6.709  11.936  1.00  0.00     0.167 HD
ATOM     62  C   UNL     1       8.289   5.554  14.471  1.00  0.00     0.074 A 
ATOM     63  C   UNL     1       7.587   4.928  15.572  1.00  0.00     0.031 C 
ATOM     64  C   UNL     1       9.621   5.807  14.461  1.00  0.00     0.034 A 
BRANCH  51  65
ATOM     65  C   UNL     1      11.688   8.244   9.173  1.00  0.00     0.023 A 
ATOM     66  C   UNL     1      11.873   9.618   8.915  1.00  0.00     0.012 A 
ATOM     67  C   UNL     1      12.651   7.321   8.719  1.00  0.00     0.148 A 
ATOM     68  C   UNL     1      12.977  10.064   8.190  1.00  0.00     0.002 A 
ATOM     69  C   UNL     1      13.774   7.778   8.040  1.00  0.00     0.091 A 
ATOM     70  F   UNL     1      12.448   6.018   8.954  1.00  0.00    -0.205 F 
ATOM     71  C   UNL     1      13.933   9.146   7.764  1.00  0.00     0.022 A 
BRANCH  69  72
ATOM     72  S   UNL     1      15.103   6.687   7.519  1.00  0.00     0.127 S 
ATOM     73  O   UNL     1      14.970   6.735   6.063  1.00  0.00    -0.237 OA
ATOM     74  O   UNL     1      16.284   7.372   8.046  1.00  0.00    -0.237 OA
ATOM     75  O   UNL     1      14.826   5.394   8.127  1.00  0.00    -0.744 OA
ENDBRANCH  69  72
ENDBRANCH  51  65
BRANCH  52  76
ATOM     76  C   UNL     1       3.651   4.848  14.047  1.00  0.00     0.023 A 
ATOM     77  C   UNL     1       3.202   5.450  15.239  1.00  0.00     0.012 A 
ATOM     78  C   UNL     1       2.959   3.732  13.540  1.00  0.00     0.148 A 
ATOM     79  C   UNL     1       2.110   4.928  15.933  1.00  0.00     0.002 A 
ATOM     80  C   UNL     1       1.837   3.252  14.204  1.00  0.00     0.091 A 
ATOM     81  F   UNL     1       3.408   3.168  12.409  1.00  0.00    -0.205 F 
ATOM     82  C   UNL     1       1.422   3.835  15.411  1.00  0.00     0.022 A 
BRANCH  80  83
ATOM     83  S   UNL     1       0.815   1.935  13.536  1.00  0.00     0.127 S 
ATOM     84  O   UNL     1       1.099   0.840  14.459  1.00  0.00    -0.237 OA
ATOM     85  O   UNL     1      -0.526   2.509  13.651  1.00  0.00    -0.237 OA
ATOM     86  O   UNL     1       1.270   1.742  12.166  1.00  0.00    -0.744 OA
ENDBRANCH  80  83
ENDBRANCH  52  76
BRANCH  64  87
ATOM     87  C   UNL     1      10.406   5.446  15.695  1.00  0.00     0.023 A 
ATOM     88  C   UNL     1      10.635   4.093  16.016  1.00  0.00     0.012 A 
ATOM     89  C   UNL     1      10.969   6.453  16.504  1.00  0.00     0.148 A 
ATOM     90  C   UNL     1      11.374   3.748  17.147  1.00  0.00     0.002 A 
ATOM     91  C   UNL     1      11.751   6.102  17.598  1.00  0.00     0.091 A 
ATOM     92  F   UNL     1      10.726   7.734  16.192  1.00  0.00    -0.205 F 
ATOM     93  C   UNL     1      11.941   4.751  17.930  1.00  0.00     0.022 A 
BRANCH  91  94
ATOM     94  S   UNL     1      12.603   7.323  18.602  1.00  0.00     0.127 S 
ATOM     95  O   UNL     1      11.829   7.281  19.842  1.00  0.00    -0.237 OA
ATOM     96  O   UNL     1      13.948   6.756  18.702  1.00  0.00    -0.237 OA
ATOM     97  O   UNL     1      12.529   8.575  17.862  1.00  0.00    -0.744 OA
ENDBRANCH  91  94
ENDBRANCH  64  87
ENDBRANCH  38  39
ENDBRANCH  30  33
ENDBRANCH  28  29
ENDBRANCH  27  28
ENDBRANCH  26  27
ENDBRANCH   1  26
TORSDOF 21
