REMARK SMILES [NH3+]C[C@@H]1CC[C@H](C(=O)N[C@@H](Cc2ccccc2)C(=O)NCCCCCCNC(=O)c2ccc(-c3c4nc(c(-c5cccc(S(=O)(=O)[O-])c5F)c5ccc([nH]5)c(-c5cccc(S(=O)(=O)[O-])c5F)c5nc(c(-c6cccc(S(=O)(=O)[O-])c6F)c6ccc3[nH]6)C=C5)C=C4)cc2)O1
REMARK SMILES IDX 23 1 22 2 21 3 20 4 18 5 19 6 10 8 9 9 7 10 8 11 6 13 3 14
REMARK SMILES IDX 4 15 93 16 5 17 2 18 1 19 11 23 12 24 13 25 17 26 14 27
REMARK SMILES IDX 16 28 15 29 24 30 25 31 26 32 27 33 28 34 29 36 30 37 31 38
REMARK SMILES IDX 92 39 32 40 91 41 33 42 34 43 35 44 85 45 36 46 90 47 84 48
REMARK SMILES IDX 86 49 37 50 89 51 83 52 82 53 38 55 70 56 50 57 69 58 51 59
REMARK SMILES IDX 54 60 68 61 87 62 52 63 53 64 67 66 88 67 55 68 39 69 40 70
REMARK SMILES IDX 48 71 41 72 43 73 49 74 42 75 44 76 45 77 46 78 47 79 71 80
REMARK SMILES IDX 72 81 80 82 73 83 75 84 81 85 74 86 76 87 77 88 78 89 79 90
REMARK SMILES IDX 56 91 57 92 65 93 58 94 60 95 66 96 59 97 61 98 62 99 63 100
REMARK SMILES IDX 64 101
REMARK H PARENT 20 7 9 12 1 20 1 21 1 22 27 35 86 54 54 65
REMARK Flexibility Score: inf
ROOT
ATOM      1  C   UNL     1      -6.392  -2.199   1.056  1.00  0.00     0.002 C 
ENDROOT
BRANCH   1   2
ATOM      2  C   UNL     1      -5.417  -3.342   0.756  1.00  0.00     0.021 C 
BRANCH   2   3
ATOM      3  C   UNL     1      -4.595  -3.178  -0.514  1.00  0.00     0.116 C 
BRANCH   3   4
ATOM      4  N   UNL     1      -3.705  -2.039  -0.480  1.00  0.00    -0.354 N 
ATOM      5  C   UNL     1      -2.597  -1.787  -1.225  1.00  0.00     0.242 C 
ATOM      6  O   UNL     1      -2.302  -0.595  -1.381  1.00  0.00    -0.273 OA
ATOM      7  H   UNL     1      -3.936  -1.346   0.180  1.00  0.00     0.163 HD
BRANCH   5   8
ATOM      8  C   UNL     1      -1.800  -2.876  -1.979  1.00  0.00     0.175 C 
BRANCH   8   9
ATOM      9  N   UNL     1      -1.593  -4.159  -1.308  1.00  0.00    -0.342 N 
ATOM     10  C   UNL     1      -0.457  -4.694  -0.779  1.00  0.00     0.249 C 
ATOM     11  O   UNL     1      -0.553  -5.780  -0.200  1.00  0.00    -0.272 OA
ATOM     12  H   UNL     1      -2.396  -4.722  -1.226  1.00  0.00     0.164 HD
BRANCH  10  13
ATOM     13  C   UNL     1       0.919  -4.025  -0.959  1.00  0.00     0.207 C 
ATOM     14  C   UNL     1       1.842  -1.954  -1.450  1.00  0.00     0.174 C 
ATOM     15  C   UNL     1       1.696  -2.657  -2.788  1.00  0.00     0.041 C 
ATOM     16  O   UNL     1       0.977  -2.660  -0.543  1.00  0.00    -0.359 OA
ATOM     17  C   UNL     1       1.439  -4.096  -2.394  1.00  0.00     0.045 C 
BRANCH  14  18
ATOM     18  C   UNL     1       1.455  -0.468  -1.486  1.00  0.00     0.291 C 
BRANCH  18  19
ATOM     19  N   UNL     1       1.522   0.141  -0.151  1.00  0.00    -0.355 N 
ATOM     20  H   UNL     1       1.260   1.124  -0.212  1.00  0.00     0.344 HD
ATOM     21  H   UNL     1       2.473   0.064   0.210  1.00  0.00     0.344 HD
ATOM     22  H   UNL     1       0.880  -0.344   0.475  1.00  0.00     0.344 HD
ENDBRANCH  18  19
ENDBRANCH  14  18
ENDBRANCH  10  13
ENDBRANCH   8   9
BRANCH   8  23
ATOM     23  C   UNL     1      -2.213  -3.029  -3.453  1.00  0.00     0.070 C 
BRANCH  23  24
ATOM     24  C   UNL     1      -3.628  -3.478  -3.703  1.00  0.00    -0.045 A 
ATOM     25  C   UNL     1      -4.614  -2.533  -4.026  1.00  0.00     0.004 A 
ATOM     26  C   UNL     1      -3.984  -4.830  -3.610  1.00  0.00     0.004 A 
ATOM     27  C   UNL     1      -5.935  -2.931  -4.228  1.00  0.00     0.000 A 
ATOM     28  C   UNL     1      -5.309  -5.224  -3.807  1.00  0.00     0.000 A 
ATOM     29  C   UNL     1      -6.283  -4.275  -4.113  1.00  0.00     0.000 A 
ENDBRANCH  23  24
ENDBRANCH   8  23
ENDBRANCH   5   8
ENDBRANCH   3   4
ENDBRANCH   2   3
ENDBRANCH   1   2
BRANCH   1  30
ATOM     30  C   UNL     1      -7.291  -1.750  -0.101  1.00  0.00     0.002 C 
BRANCH  30  31
ATOM     31  C   UNL     1      -8.075  -2.852  -0.815  1.00  0.00     0.021 C 
BRANCH  31  32
ATOM     32  C   UNL     1      -8.911  -3.747   0.085  1.00  0.00     0.116 C 
BRANCH  32  33
ATOM     33  N   UNL     1      -9.940  -3.018   0.805  1.00  0.00    -0.352 N 
ATOM     34  C   UNL     1     -11.255  -3.369   1.007  1.00  0.00     0.251 C 
ATOM     35  H   UNL     1      -9.660  -2.160   1.200  1.00  0.00     0.163 HD
ATOM     36  O   UNL     1     -12.033  -2.584   1.523  1.00  0.00    -0.269 OA
BRANCH  34  37
ATOM     37  C   UNL     1     -11.718  -4.705   0.564  1.00  0.00     0.039 A 
ATOM     38  C   UNL     1     -12.903  -4.801  -0.170  1.00  0.00     0.014 A 
ATOM     39  C   UNL     1     -10.975  -5.851   0.858  1.00  0.00     0.014 A 
ATOM     40  C   UNL     1     -13.320  -6.045  -0.649  1.00  0.00     0.010 A 
ATOM     41  C   UNL     1     -11.350  -7.073   0.314  1.00  0.00     0.010 A 
ATOM     42  C   UNL     1     -12.535  -7.187  -0.429  1.00  0.00    -0.014 A 
BRANCH  42  43
ATOM     43  C   UNL     1     -12.940  -8.525  -0.926  1.00  0.00     0.031 A 
ATOM     44  C   UNL     1     -13.211  -9.628   0.060  1.00  0.00     0.074 A 
ATOM     45  C   UNL     1     -12.954  -8.780  -2.249  1.00  0.00     0.049 A 
ATOM     46  N   UNL     1     -13.436 -10.897  -0.158  1.00  0.00    -0.248 NA
ATOM     47  C   UNL     1     -13.188  -9.260   1.487  1.00  0.00     0.031 C 
ATOM     48  C   UNL     1     -12.643  -7.811  -3.301  1.00  0.00     0.029 A 
ATOM     49  N   UNL     1     -13.203  -9.945  -2.931  1.00  0.00    -0.354 N 
ATOM     50  C   UNL     1     -13.529 -11.486   1.098  1.00  0.00     0.074 A 
ATOM     51  C   UNL     1     -13.302 -10.442   2.073  1.00  0.00     0.031 C 
ATOM     52  C   UNL     1     -12.709  -8.423  -4.495  1.00  0.00     0.029 A 
ATOM     53  C   UNL     1     -13.033  -9.833  -4.291  1.00  0.00     0.049 A 
ATOM     54  H   UNL     1     -13.477 -10.781  -2.489  1.00  0.00     0.167 HD
ATOM     55  C   UNL     1     -13.807 -12.773   1.414  1.00  0.00     0.034 A 
ATOM     56  C   UNL     1     -13.113 -10.764  -5.263  1.00  0.00     0.034 A 
ATOM     57  C   UNL     1     -14.085 -13.793   0.441  1.00  0.00     0.049 A 
ATOM     58  C   UNL     1     -13.476 -12.177  -4.893  1.00  0.00     0.074 A 
ATOM     59  C   UNL     1     -14.463 -15.106   0.654  1.00  0.00     0.029 A 
ATOM     60  N   UNL     1     -14.016 -13.613  -0.932  1.00  0.00    -0.354 N 
ATOM     61  N   UNL     1     -13.698 -12.686  -3.705  1.00  0.00    -0.248 NA
ATOM     62  C   UNL     1     -13.638 -13.135  -5.996  1.00  0.00     0.031 C 
ATOM     63  C   UNL     1     -14.606 -15.725  -0.592  1.00  0.00     0.029 A 
ATOM     64  C   UNL     1     -14.344 -14.790  -1.581  1.00  0.00     0.049 A 
ATOM     65  H   UNL     1     -13.771 -12.771  -1.380  1.00  0.00     0.167 HD
ATOM     66  C   UNL     1     -14.065 -14.010  -3.919  1.00  0.00     0.074 A 
ATOM     67  C   UNL     1     -14.046 -14.221  -5.352  1.00  0.00     0.031 C 
ATOM     68  C   UNL     1     -14.382 -14.965  -3.010  1.00  0.00     0.034 A 
BRANCH  55  69
ATOM     69  C   UNL     1     -13.871 -13.132   2.876  1.00  0.00     0.023 A 
ATOM     70  C   UNL     1     -14.933 -12.645   3.667  1.00  0.00     0.012 A 
ATOM     71  C   UNL     1     -12.904 -13.970   3.462  1.00  0.00     0.148 A 
ATOM     72  C   UNL     1     -15.004 -12.946   5.026  1.00  0.00     0.002 A 
ATOM     73  C   UNL     1     -13.009 -14.307   4.807  1.00  0.00     0.091 A 
ATOM     74  F   UNL     1     -11.888 -14.406   2.703  1.00  0.00    -0.205 F 
ATOM     75  C   UNL     1     -14.048 -13.784   5.593  1.00  0.00     0.022 A 
BRANCH  73  76
ATOM     76  S   UNL     1     -11.873 -15.446   5.607  1.00  0.00     0.127 S 
ATOM     77  O   UNL     1     -11.053 -14.536   6.403  1.00  0.00    -0.237 OA
ATOM     78  O   UNL     1     -12.780 -16.291   6.387  1.00  0.00    -0.237 OA
ATOM     79  O   UNL     1     -11.180 -16.139   4.530  1.00  0.00    -0.744 OA
ENDBRANCH  73  76
ENDBRANCH  55  69
BRANCH  56  80
ATOM     80  C   UNL     1     -12.909 -10.366  -6.684  1.00  0.00     0.023 A 
ATOM     81  C   UNL     1     -14.015 -10.321  -7.555  1.00  0.00     0.012 A 
ATOM     82  C   UNL     1     -11.641  -9.983  -7.163  1.00  0.00     0.148 A 
ATOM     83  C   UNL     1     -13.858  -9.927  -8.884  1.00  0.00     0.002 A 
ATOM     84  C   UNL     1     -11.501  -9.540  -8.473  1.00  0.00     0.091 A 
ATOM     85  F   UNL     1     -10.600 -10.040  -6.320  1.00  0.00    -0.205 F 
ATOM     86  C   UNL     1     -12.605  -9.526  -9.340  1.00  0.00     0.022 A 
BRANCH  84  87
ATOM     87  S   UNL     1      -9.957  -8.879  -9.110  1.00  0.00     0.127 S 
ATOM     88  O   UNL     1      -9.568  -9.902 -10.076  1.00  0.00    -0.237 OA
ATOM     89  O   UNL     1     -10.392  -7.610  -9.695  1.00  0.00    -0.237 OA
ATOM     90  O   UNL     1      -9.082  -8.738  -7.953  1.00  0.00    -0.744 OA
ENDBRANCH  84  87
ENDBRANCH  56  80
BRANCH  68  91
ATOM     91  C   UNL     1     -14.789 -16.320  -3.525  1.00  0.00     0.023 A 
ATOM     92  C   UNL     1     -13.818 -17.198  -4.044  1.00  0.00     0.012 A 
ATOM     93  C   UNL     1     -16.122 -16.759  -3.395  1.00  0.00     0.148 A 
ATOM     94  C   UNL     1     -14.171 -18.485  -4.446  1.00  0.00     0.002 A 
ATOM     95  C   UNL     1     -16.457 -18.058  -3.752  1.00  0.00     0.091 A 
ATOM     96  F   UNL     1     -17.034 -15.900  -2.916  1.00  0.00    -0.205 F 
ATOM     97  C   UNL     1     -15.486 -18.920  -4.287  1.00  0.00     0.022 A 
BRANCH  95  98
ATOM     98  S   UNL     1     -18.100 -18.735  -3.489  1.00  0.00     0.127 S 
ATOM     99  O   UNL     1     -18.608 -18.825  -4.857  1.00  0.00    -0.237 OA
ATOM    100  O   UNL     1     -17.808 -20.025  -2.862  1.00  0.00    -0.237 OA
ATOM    101  O   UNL     1     -18.793 -17.787  -2.627  1.00  0.00    -0.744 OA
ENDBRANCH  95  98
ENDBRANCH  68  91
ENDBRANCH  42  43
ENDBRANCH  34  37
ENDBRANCH  32  33
ENDBRANCH  31  32
ENDBRANCH  30  31
ENDBRANCH   1  30
TORSDOF 22
