REMARK SMILES CC(C)CCc1cc2c(cc1Cl)C=C(C(=O)NCCCCCCNC(=O)c1ccc(-c3c4nc(c(-c5cccc(S(=O)(=O)[O-])c5F)c5ccc([nH]5)c(-c5cccc(S(=O)(=O)[O-])c5F)c5nc(c(-c6cccc(S(=O)(=O)[O-])c6F)c6ccc3[nH]6)C=C5)C=C4)cc1)[C@H](C(F)(F)F)O2
REMARK SMILES IDX 20 1 19 2 18 3 17 4 15 5 16 6 14 8 6 9 7 10 11 11 8 12 10 13
REMARK SMILES IDX 12 14 9 15 95 16 13 17 90 18 5 19 4 20 2 21 1 22 3 23 91 24
REMARK SMILES IDX 92 25 93 26 94 27 21 28 22 29 23 30 24 31 25 32 26 34 27 35
REMARK SMILES IDX 28 36 89 37 29 38 88 39 30 40 31 41 32 42 82 43 33 44 87 45
REMARK SMILES IDX 81 46 83 47 34 48 86 49 80 50 79 51 35 53 67 54 47 55 66 56
REMARK SMILES IDX 48 57 51 58 65 59 84 60 49 61 50 62 64 64 85 65 52 66 36 67
REMARK SMILES IDX 37 68 45 69 38 70 40 71 46 72 39 73 41 74 42 75 43 76 44 77
REMARK SMILES IDX 68 78 69 79 77 80 70 81 72 82 78 83 71 84 73 85 74 86 75 87
REMARK SMILES IDX 76 88 53 89 54 90 62 91 55 92 57 93 63 94 56 95 58 96 59 97
REMARK SMILES IDX 60 98 61 99
REMARK H PARENT 17 7 24 33 83 52 51 63
REMARK Flexibility Score: inf
ROOT
ATOM      1  C   UNL     1      -2.126  12.736   1.101  1.00  0.00     0.002 C 
ENDROOT
BRANCH   1   2
ATOM      2  C   UNL     1      -2.368  11.228   1.201  1.00  0.00     0.021 C 
BRANCH   2   3
ATOM      3  C   UNL     1      -2.336  10.491  -0.135  1.00  0.00     0.116 C 
BRANCH   3   4
ATOM      4  N   UNL     1      -0.979  10.223  -0.572  1.00  0.00    -0.352 N 
ATOM      5  C   UNL     1      -0.193   9.137  -0.745  1.00  0.00     0.251 C 
ATOM      6  O   UNL     1       0.959   9.382  -1.121  1.00  0.00    -0.270 OA
ATOM      7  H   UNL     1      -0.504  11.053  -0.804  1.00  0.00     0.163 HD
BRANCH   5   8
ATOM      8  C   UNL     1      -0.607   7.722  -0.524  1.00  0.00     0.067 C 
ATOM      9  C   UNL     1      -0.639   2.700  -0.028  1.00  0.00    -0.026 A 
ATOM     10  C   UNL     1      -1.629   3.663  -0.302  1.00  0.00     0.052 A 
ATOM     11  C   UNL     1       0.689   3.145   0.107  1.00  0.00     0.045 A 
ATOM     12  C   UNL     1      -1.291   5.008  -0.439  1.00  0.00     0.128 A 
ATOM     13  C   UNL     1       1.032   4.476  -0.147  1.00  0.00     0.032 A 
ATOM     14  Cl  UNL     1       1.967   2.137   0.685  1.00  0.00    -0.084 Cl
ATOM     15  C   UNL     1       0.041   5.411  -0.421  1.00  0.00     0.019 A 
ATOM     16  O   UNL     1      -2.310   5.909  -0.582  1.00  0.00    -0.475 OA
ATOM     17  C   UNL     1       0.368   6.807  -0.670  1.00  0.00     0.025 C 
ATOM     18  C   UNL     1      -1.986   7.261  -0.131  1.00  0.00     0.314 C 
BRANCH   9  19
ATOM     19  C   UNL     1      -1.071   1.258   0.132  1.00  0.00     0.037 C 
BRANCH  19  20
ATOM     20  C   UNL     1      -0.913   0.393  -1.135  1.00  0.00     0.008 C 
BRANCH  20  21
ATOM     21  C   UNL     1       0.514  -0.101  -1.444  1.00  0.00    -0.017 C 
ATOM     22  C   UNL     1       1.059  -1.031  -0.357  1.00  0.00     0.007 C 
ATOM     23  C   UNL     1       0.559  -0.831  -2.789  1.00  0.00     0.007 C 
ENDBRANCH  20  21
ENDBRANCH  19  20
ENDBRANCH   9  19
BRANCH  18  24
ATOM     24  C   UNL     1      -2.238   7.413   1.387  1.00  0.00     0.429 C 
ATOM     25  F   UNL     1      -1.482   8.395   1.936  1.00  0.00    -0.167 F 
ATOM     26  F   UNL     1      -3.530   7.745   1.628  1.00  0.00    -0.167 F 
ATOM     27  F   UNL     1      -1.971   6.287   2.085  1.00  0.00    -0.167 F 
ENDBRANCH  18  24
ENDBRANCH   5   8
ENDBRANCH   3   4
ENDBRANCH   2   3
ENDBRANCH   1   2
BRANCH   1  28
ATOM     28  C   UNL     1      -3.072  13.498   0.167  1.00  0.00     0.002 C 
BRANCH  28  29
ATOM     29  C   UNL     1      -4.561  13.194   0.344  1.00  0.00     0.021 C 
BRANCH  29  30
ATOM     30  C   UNL     1      -5.098  13.421   1.751  1.00  0.00     0.116 C 
BRANCH  30  31
ATOM     31  N   UNL     1      -5.020  14.815   2.153  1.00  0.00    -0.352 N 
ATOM     32  C   UNL     1      -6.026  15.648   2.591  1.00  0.00     0.251 C 
ATOM     33  H   UNL     1      -4.124  15.220   2.105  1.00  0.00     0.163 HD
ATOM     34  O   UNL     1      -5.824  16.843   2.718  1.00  0.00    -0.269 OA
BRANCH  32  35
ATOM     35  C   UNL     1      -7.359  15.070   2.873  1.00  0.00     0.039 A 
ATOM     36  C   UNL     1      -7.476  13.905   3.635  1.00  0.00     0.014 A 
ATOM     37  C   UNL     1      -8.495  15.680   2.336  1.00  0.00     0.014 A 
ATOM     38  C   UNL     1      -8.705  13.263   3.724  1.00  0.00     0.010 A 
ATOM     39  C   UNL     1      -9.744  15.074   2.497  1.00  0.00     0.010 A 
ATOM     40  C   UNL     1      -9.853  13.837   3.151  1.00  0.00    -0.014 A 
BRANCH  40  41
ATOM     41  C   UNL     1     -11.154  13.128   3.259  1.00  0.00     0.031 A 
ATOM     42  C   UNL     1     -11.862  12.617   2.033  1.00  0.00     0.074 A 
ATOM     43  C   UNL     1     -11.680  12.912   4.480  1.00  0.00     0.049 A 
ATOM     44  N   UNL     1     -12.992  11.962   1.953  1.00  0.00    -0.248 NA
ATOM     45  C   UNL     1     -11.227  12.872   0.728  1.00  0.00     0.031 C 
ATOM     46  C   UNL     1     -11.097  13.374   5.741  1.00  0.00     0.029 A 
ATOM     47  N   UNL     1     -12.812  12.240   4.864  1.00  0.00    -0.354 N 
ATOM     48  C   UNL     1     -13.225  11.764   0.598  1.00  0.00     0.074 A 
ATOM     49  C   UNL     1     -12.121  12.369  -0.114  1.00  0.00     0.031 C 
ATOM     50  C   UNL     1     -11.850  12.937   6.760  1.00  0.00     0.029 A 
ATOM     51  C   UNL     1     -12.996  12.209   6.226  1.00  0.00     0.049 A 
ATOM     52  H   UNL     1     -13.434  11.820   4.226  1.00  0.00     0.167 HD
ATOM     53  C   UNL     1     -14.255  11.119   0.002  1.00  0.00     0.034 A 
ATOM     54  C   UNL     1     -13.979  11.664   6.968  1.00  0.00     0.034 A 
ATOM     55  C   UNL     1     -15.323  10.469   0.712  1.00  0.00     0.049 A 
ATOM     56  C   UNL     1     -15.100  10.941   6.283  1.00  0.00     0.074 A 
ATOM     57  C   UNL     1     -16.384   9.749   0.190  1.00  0.00     0.029 A 
ATOM     58  N   UNL     1     -15.466  10.453   2.090  1.00  0.00    -0.354 N 
ATOM     59  N   UNL     1     -15.262  10.704   5.005  1.00  0.00    -0.248 NA
ATOM     60  C   UNL     1     -16.167  10.402   7.138  1.00  0.00     0.031 C 
ATOM     61  C   UNL     1     -17.171   9.299   1.255  1.00  0.00     0.029 A 
ATOM     62  C   UNL     1     -16.596   9.736   2.438  1.00  0.00     0.049 A 
ATOM     63  H   UNL     1     -14.853  10.887   2.726  1.00  0.00     0.167 HD
ATOM     64  C   UNL     1     -16.442   9.980   4.900  1.00  0.00     0.074 A 
ATOM     65  C   UNL     1     -16.945   9.799   6.247  1.00  0.00     0.031 C 
ATOM     66  C   UNL     1     -17.061   9.526   3.784  1.00  0.00     0.034 A 
BRANCH  53  67
ATOM     67  C   UNL     1     -14.260  11.027  -1.499  1.00  0.00     0.023 A 
ATOM     68  C   UNL     1     -13.452  10.062  -2.131  1.00  0.00     0.012 A 
ATOM     69  C   UNL     1     -15.134  11.818  -2.271  1.00  0.00     0.148 A 
ATOM     70  C   UNL     1     -13.505   9.891  -3.513  1.00  0.00     0.002 A 
ATOM     71  C   UNL     1     -15.201  11.622  -3.646  1.00  0.00     0.091 A 
ATOM     72  F   UNL     1     -15.883  12.738  -1.647  1.00  0.00    -0.205 F 
ATOM     73  C   UNL     1     -14.385  10.662  -4.268  1.00  0.00     0.022 A 
BRANCH  71  74
ATOM     74  S   UNL     1     -16.339  12.523  -4.704  1.00  0.00     0.127 S 
ATOM     75  O   UNL     1     -15.418  13.321  -5.513  1.00  0.00    -0.237 OA
ATOM     76  O   UNL     1     -17.006  11.441  -5.429  1.00  0.00    -0.237 OA
ATOM     77  O   UNL     1     -17.202  13.285  -3.813  1.00  0.00    -0.744 OA
ENDBRANCH  71  74
ENDBRANCH  53  67
BRANCH  54  78
ATOM     78  C   UNL     1     -13.897  11.751   8.450  1.00  0.00     0.023 A 
ATOM     79  C   UNL     1     -13.521  10.612   9.185  1.00  0.00     0.012 A 
ATOM     80  C   UNL     1     -14.088  12.976   9.118  1.00  0.00     0.148 A 
ATOM     81  C   UNL     1     -13.335  10.691  10.565  1.00  0.00     0.002 A 
ATOM     82  C   UNL     1     -13.859  13.058  10.485  1.00  0.00     0.091 A 
ATOM     83  F   UNL     1     -14.449  14.043   8.391  1.00  0.00    -0.205 F 
ATOM     84  C   UNL     1     -13.491  11.915  11.213  1.00  0.00     0.022 A 
BRANCH  82  85
ATOM     85  S   UNL     1     -13.917  14.611  11.386  1.00  0.00     0.127 S 
ATOM     86  O   UNL     1     -15.028  14.380  12.306  1.00  0.00    -0.237 OA
ATOM     87  O   UNL     1     -12.595  14.641  12.012  1.00  0.00    -0.237 OA
ATOM     88  O   UNL     1     -14.137  15.644  10.384  1.00  0.00    -0.744 OA
ENDBRANCH  82  85
ENDBRANCH  54  78
BRANCH  66  89
ATOM     89  C   UNL     1     -18.355   8.781   3.950  1.00  0.00     0.023 A 
ATOM     90  C   UNL     1     -19.544   9.508   4.152  1.00  0.00     0.012 A 
ATOM     91  C   UNL     1     -18.410   7.385   3.780  1.00  0.00     0.148 A 
ATOM     92  C   UNL     1     -20.773   8.852   4.187  1.00  0.00     0.002 A 
ATOM     93  C   UNL     1     -19.642   6.742   3.784  1.00  0.00     0.091 A 
ATOM     94  F   UNL     1     -17.261   6.719   3.599  1.00  0.00    -0.205 F 
ATOM     95  C   UNL     1     -20.823   7.474   3.991  1.00  0.00     0.022 A 
BRANCH  93  96
ATOM     96  S   UNL     1     -19.817   4.983   3.466  1.00  0.00     0.127 S 
ATOM     97  O   UNL     1     -20.288   4.493   4.761  1.00  0.00    -0.237 OA
ATOM     98  O   UNL     1     -20.821   4.960   2.402  1.00  0.00    -0.237 OA
ATOM     99  O   UNL     1     -18.498   4.510   3.068  1.00  0.00    -0.744 OA
ENDBRANCH  93  96
ENDBRANCH  66  89
ENDBRANCH  40  41
ENDBRANCH  32  35
ENDBRANCH  30  31
ENDBRANCH  29  30
ENDBRANCH  28  29
ENDBRANCH   1  28
TORSDOF 20
