REMARK SMILES O=C(NCCCCCCNC(=O)[C@@H]1CCCN(C(=O)[C@H]2CC=CCC2)C1)c1ccc(-c2c3nc(c(-c4cccc(S(=O)(=O)[O-])c4F)c4ccc([nH]4)c(-c4cccc(S(=O)(=O)[O-])c4F)c4nc(c(-c5cccc(S(=O)(=O)[O-])c5F)c5ccc2[nH]5)C=C4)C=C3)cc1
REMARK SMILES IDX 6 1 5 2 4 3 3 4 1 5 2 6 27 8 28 9 89 10 29 11 88 12 30 13
REMARK SMILES IDX 31 14 32 15 82 16 33 17 87 18 81 19 83 20 34 21 86 22 80 23
REMARK SMILES IDX 79 24 35 26 67 27 47 28 66 29 48 30 51 31 65 32 84 33 49 34
REMARK SMILES IDX 50 35 64 37 85 38 52 39 36 40 37 41 45 42 38 43 40 44 46 45
REMARK SMILES IDX 39 46 41 47 42 48 43 49 44 50 68 51 69 52 77 53 70 54 72 55
REMARK SMILES IDX 78 56 71 57 73 58 74 59 75 60 76 61 53 62 54 63 62 64 55 65
REMARK SMILES IDX 57 66 63 67 56 68 58 69 59 70 60 71 61 72 7 73 8 74 9 75
REMARK SMILES IDX 10 76 11 77 12 79 13 80 14 81 26 82 15 83 17 84 16 85 18 86
REMARK SMILES IDX 19 87 20 88 21 89 25 90 22 91 24 92 23 93
REMARK H PARENT 3 7 83 25 51 36 10 78
REMARK Flexibility Score: inf
ROOT
ATOM      1  C   UNL     1       3.662   0.332  -3.983  1.00  0.00     0.002 C 
ENDROOT
BRANCH   1   2
ATOM      2  C   UNL     1       4.344  -0.315  -2.774  1.00  0.00     0.021 C 
BRANCH   2   3
ATOM      3  C   UNL     1       4.210   0.457  -1.466  1.00  0.00     0.116 C 
BRANCH   3   4
ATOM      4  N   UNL     1       2.840   0.511  -0.983  1.00  0.00    -0.352 N 
ATOM      5  O   UNL     1       1.040  -0.050   0.240  1.00  0.00    -0.269 OA
ATOM      6  C   UNL     1       2.264  -0.073   0.119  1.00  0.00     0.251 C 
ATOM      7  H   UNL     1       2.228   1.052  -1.533  1.00  0.00     0.163 HD
BRANCH   6   8
ATOM      8  C   UNL     1       3.096  -0.749   1.142  1.00  0.00     0.039 A 
ATOM      9  C   UNL     1       4.291  -0.181   1.588  1.00  0.00     0.014 A 
ATOM     10  C   UNL     1       2.654  -1.954   1.696  1.00  0.00     0.014 A 
ATOM     11  C   UNL     1       5.111  -0.887   2.464  1.00  0.00     0.010 A 
ATOM     12  C   UNL     1       3.435  -2.617   2.651  1.00  0.00     0.010 A 
ATOM     13  C   UNL     1       4.688  -2.106   3.021  1.00  0.00    -0.014 A 
BRANCH  13  14
ATOM     14  C   UNL     1       5.539  -2.765   4.049  1.00  0.00     0.031 A 
ATOM     15  C   UNL     1       6.139  -4.128   3.830  1.00  0.00     0.074 A 
ATOM     16  C   UNL     1       5.789  -2.100   5.196  1.00  0.00     0.049 A 
ATOM     17  N   UNL     1       6.963  -4.795   4.599  1.00  0.00    -0.248 NA
ATOM     18  C   UNL     1       5.765  -4.842   2.599  1.00  0.00     0.031 C 
ATOM     19  C   UNL     1       5.210  -0.804   5.557  1.00  0.00     0.029 A 
ATOM     20  N   UNL     1       6.592  -2.412   6.263  1.00  0.00    -0.354 N 
ATOM     21  C   UNL     1       7.190  -6.009   3.962  1.00  0.00     0.074 A 
ATOM     22  C   UNL     1       6.399  -5.998   2.750  1.00  0.00     0.031 C 
ATOM     23  C   UNL     1       5.697  -0.418   6.745  1.00  0.00     0.029 A 
ATOM     24  C   UNL     1       6.585  -1.457   7.252  1.00  0.00     0.049 A 
ATOM     25  H   UNL     1       7.122  -3.240   6.316  1.00  0.00     0.167 HD
ATOM     26  C   UNL     1       8.001  -7.029   4.339  1.00  0.00     0.034 A 
ATOM     27  C   UNL     1       7.213  -1.419   8.443  1.00  0.00     0.034 A 
ATOM     28  C   UNL     1       8.800  -7.029   5.538  1.00  0.00     0.049 A 
ATOM     29  C   UNL     1       8.133  -2.546   8.816  1.00  0.00     0.074 A 
ATOM     30  C   UNL     1       9.683  -7.999   5.983  1.00  0.00     0.029 A 
ATOM     31  N   UNL     1       8.813  -6.017   6.486  1.00  0.00    -0.354 N 
ATOM     32  N   UNL     1       8.436  -3.622   8.131  1.00  0.00    -0.248 NA
ATOM     33  C   UNL     1       8.824  -2.438  10.107  1.00  0.00     0.031 C 
ATOM     34  C   UNL     1      10.218  -7.579   7.207  1.00  0.00     0.029 A 
ATOM     35  C   UNL     1       9.687  -6.338   7.513  1.00  0.00     0.049 A 
ATOM     36  H   UNL     1       8.278  -5.192   6.437  1.00  0.00     0.167 HD
ATOM     37  C   UNL     1       9.366  -4.310   8.900  1.00  0.00     0.074 A 
ATOM     38  C   UNL     1       9.607  -3.507  10.082  1.00  0.00     0.031 C 
ATOM     39  C   UNL     1       9.949  -5.511   8.662  1.00  0.00     0.034 A 
BRANCH  26  40
ATOM     40  C   UNL     1       8.116  -8.217   3.416  1.00  0.00     0.023 A 
ATOM     41  C   UNL     1       8.838  -8.085   2.212  1.00  0.00     0.012 A 
ATOM     42  C   UNL     1       7.592  -9.476   3.772  1.00  0.00     0.148 A 
ATOM     43  C   UNL     1       9.016  -9.179   1.365  1.00  0.00     0.002 A 
ATOM     44  C   UNL     1       7.809 -10.571   2.941  1.00  0.00     0.091 A 
ATOM     45  F   UNL     1       6.896  -9.580   4.913  1.00  0.00    -0.205 F 
ATOM     46  C   UNL     1       8.511 -10.422   1.734  1.00  0.00     0.022 A 
BRANCH  44  47
ATOM     47  S   UNL     1       7.267 -12.233   3.359  1.00  0.00     0.127 S 
ATOM     48  O   UNL     1       6.207 -12.453   2.376  1.00  0.00    -0.237 OA
ATOM     49  O   UNL     1       8.481 -13.018   3.131  1.00  0.00    -0.237 OA
ATOM     50  O   UNL     1       6.830 -12.177   4.746  1.00  0.00    -0.744 OA
ENDBRANCH  44  47
ENDBRANCH  26  40
BRANCH  27  51
ATOM     51  C   UNL     1       7.016  -0.252   9.347  1.00  0.00     0.023 A 
ATOM     52  C   UNL     1       8.080   0.638   9.585  1.00  0.00     0.012 A 
ATOM     53  C   UNL     1       5.764  -0.000   9.941  1.00  0.00     0.148 A 
ATOM     54  C   UNL     1       7.910   1.740  10.425  1.00  0.00     0.002 A 
ATOM     55  C   UNL     1       5.583   1.133  10.723  1.00  0.00     0.091 A 
ATOM     56  F   UNL     1       4.768  -0.869   9.718  1.00  0.00    -0.205 F 
ATOM     57  C   UNL     1       6.659   1.994  10.983  1.00  0.00     0.022 A 
BRANCH  55  58
ATOM     58  S   UNL     1       3.968   1.608  11.347  1.00  0.00     0.127 S 
ATOM     59  O   UNL     1       4.059   1.210  12.749  1.00  0.00    -0.237 OA
ATOM     60  O   UNL     1       3.962   3.053  11.114  1.00  0.00    -0.237 OA
ATOM     61  O   UNL     1       3.009   0.871  10.534  1.00  0.00    -0.744 OA
ENDBRANCH  55  58
ENDBRANCH  27  51
BRANCH  39  62
ATOM     62  C   UNL     1      10.921  -6.019   9.696  1.00  0.00     0.023 A 
ATOM     63  C   UNL     1      10.442  -6.468  10.943  1.00  0.00     0.012 A 
ATOM     64  C   UNL     1      12.300  -6.086   9.420  1.00  0.00     0.148 A 
ATOM     65  C   UNL     1      11.325  -6.934  11.916  1.00  0.00     0.002 A 
ATOM     66  C   UNL     1      13.169  -6.597  10.377  1.00  0.00     0.091 A 
ATOM     67  F   UNL     1      12.740  -5.635   8.236  1.00  0.00    -0.205 F 
ATOM     68  C   UNL     1      12.686  -7.008  11.630  1.00  0.00     0.022 A 
BRANCH  66  69
ATOM     69  S   UNL     1      14.925  -6.810  10.060  1.00  0.00     0.127 S 
ATOM     70  O   UNL     1      15.501  -5.700  10.817  1.00  0.00    -0.237 OA
ATOM     71  O   UNL     1      15.185  -8.134  10.626  1.00  0.00    -0.237 OA
ATOM     72  O   UNL     1      15.080  -6.733   8.614  1.00  0.00    -0.744 OA
ENDBRANCH  66  69
ENDBRANCH  39  62
ENDBRANCH  13  14
ENDBRANCH   6   8
ENDBRANCH   3   4
ENDBRANCH   2   3
ENDBRANCH   1   2
BRANCH   1  73
ATOM     73  C   UNL     1       4.114   1.759  -4.322  1.00  0.00     0.002 C 
BRANCH  73  74
ATOM     74  C   UNL     1       5.622   1.933  -4.530  1.00  0.00     0.021 C 
BRANCH  74  75
ATOM     75  C   UNL     1       6.180   1.230  -5.759  1.00  0.00     0.116 C 
BRANCH  75  76
ATOM     76  N   UNL     1       6.371   2.129  -6.871  1.00  0.00    -0.356 N 
ATOM     77  C   UNL     1       7.474   2.724  -7.379  1.00  0.00     0.224 C 
ATOM     78  H   UNL     1       5.541   2.351  -7.351  1.00  0.00     0.163 HD
ATOM     79  O   UNL     1       7.298   3.401  -8.402  1.00  0.00    -0.275 OA
BRANCH  77  80
ATOM     80  C   UNL     1       8.876   2.669  -6.765  1.00  0.00     0.098 C 
ATOM     81  C   UNL     1       9.483   1.329  -6.359  1.00  0.00     0.017 C 
ATOM     82  C   UNL     1       9.087   3.789  -5.755  1.00  0.00     0.133 C 
ATOM     83  C   UNL     1       9.607   1.055  -4.859  1.00  0.00     0.022 C 
ATOM     84  N   UNL     1       8.857   3.408  -4.362  1.00  0.00    -0.342 N 
ATOM     85  C   UNL     1       9.628   2.261  -3.922  1.00  0.00     0.119 C 
BRANCH  84  86
ATOM     86  C   UNL     1       8.218   4.339  -3.550  1.00  0.00     0.226 C 
ATOM     87  O   UNL     1       7.669   5.321  -4.074  1.00  0.00    -0.275 OA
BRANCH  86  88
ATOM     88  C   UNL     1       8.125   4.254  -2.009  1.00  0.00     0.083 C 
ATOM     89  C   UNL     1       7.131   3.240  -1.443  1.00  0.00     0.040 C 
ATOM     90  C   UNL     1       9.426   4.361  -1.211  1.00  0.00     0.018 C 
ATOM     91  C   UNL     1       7.742   2.017  -0.837  1.00  0.00    -0.030 C 
ATOM     92  C   UNL     1      10.020   3.046  -0.702  1.00  0.00     0.028 C 
ATOM     93  C   UNL     1       9.034   1.937  -0.496  1.00  0.00    -0.031 C 
ENDBRANCH  86  88
ENDBRANCH  84  86
ENDBRANCH  77  80
ENDBRANCH  75  76
ENDBRANCH  74  75
ENDBRANCH  73  74
ENDBRANCH   1  73
TORSDOF 18
