REMARK SMILES O=C(C[C@@H]1C(=O)N[NH+]=C2c3ccc(F)cc3N=CN21)NCCCCCCNC(=O)c1ccc(-c2c3nc(c(-c4cccc(S(=O)(=O)[O-])c4F)c4ccc([nH]4)c(-c4cccc(S(=O)(=O)[O-])c4F)c4nc(c(-c5cccc(S(=O)(=O)[O-])c5F)c5ccc2[nH]5)C=C4)C=C3)cc1
REMARK SMILES IDX 24 1 23 2 22 3 21 4 20 5 1 6 2 7 3 9 4 10 5 11 19 12 6 13
REMARK SMILES IDX 7 14 9 15 18 16 8 17 10 19 17 20 11 22 16 23 12 24 15 25
REMARK SMILES IDX 13 26 14 27 25 28 26 29 27 30 28 31 29 33 30 34 31 35 92 36
REMARK SMILES IDX 32 37 91 38 33 39 34 40 35 41 85 42 36 43 90 44 84 45 86 46
REMARK SMILES IDX 37 47 89 48 83 49 82 50 38 52 70 53 50 54 69 55 51 56 54 57
REMARK SMILES IDX 68 58 87 59 52 60 53 61 67 63 88 64 55 65 39 66 40 67 48 68
REMARK SMILES IDX 41 69 43 70 49 71 42 72 44 73 45 74 46 75 47 76 71 77 72 78
REMARK SMILES IDX 80 79 73 80 75 81 81 82 74 83 76 84 77 85 78 86 79 87 56 88
REMARK SMILES IDX 57 89 65 90 58 91 60 92 66 93 59 94 61 95 62 96 63 97 64 98
REMARK H PARENT 20 8 7 18 8 21 27 32 86 51 54 62
REMARK Flexibility Score: inf
ROOT
ATOM      1  C   UNL     1       4.675  -0.602   4.291  1.00  0.00     0.002 C 
ENDROOT
BRANCH   1   2
ATOM      2  C   UNL     1       4.121  -1.632   3.303  1.00  0.00     0.002 C 
BRANCH   2   3
ATOM      3  C   UNL     1       2.641  -1.439   2.924  1.00  0.00     0.021 C 
BRANCH   3   4
ATOM      4  C   UNL     1       2.294  -0.063   2.324  1.00  0.00     0.116 C 
BRANCH   4   5
ATOM      5  N   UNL     1       3.083   0.160   1.130  1.00  0.00    -0.356 N 
ATOM      6  O   UNL     1       1.644   1.316  -0.269  1.00  0.00    -0.275 OA
ATOM      7  C   UNL     1       2.554   0.539  -0.090  1.00  0.00     0.224 C 
ATOM      8  H   UNL     1       4.058   0.035   1.191  1.00  0.00     0.163 HD
BRANCH   7   9
ATOM      9  C   UNL     1       3.091  -0.385  -1.145  1.00  0.00     0.160 C 
BRANCH   9  10
ATOM     10  C   UNL     1       3.342   0.095  -2.560  1.00  0.00     0.284 C 
ATOM     11  C   UNL     1       3.399  -1.260  -3.287  1.00  0.00     0.300 C 
ATOM     12  N   UNL     1       4.621   0.799  -2.791  1.00  0.00    -0.203 N 
ATOM     13  O   UNL     1       2.439  -1.791  -3.833  1.00  0.00    -0.267 OA
ATOM     14  N   UNL     1       4.599  -1.929  -3.076  1.00  0.00    -0.193 N 
ATOM     15  C   UNL     1       5.683   0.027  -3.255  1.00  0.00     0.309 C 
ATOM     16  C   UNL     1       4.634   2.170  -2.933  1.00  0.00     0.317 C 
ATOM     17  N   UNL     1       5.783  -1.268  -3.182  1.00  0.00    -0.169 N 
ATOM     18  H   UNL     1       4.591  -2.887  -2.850  1.00  0.00     0.216 HD
ATOM     19  C   UNL     1       6.616   0.710  -4.197  1.00  0.00     0.092 A 
ATOM     20  N   UNL     1       5.439   2.833  -3.707  1.00  0.00    -0.216 NA
ATOM     21  H   UNL     1       6.650  -1.735  -3.201  1.00  0.00     0.340 HD
ATOM     22  C   UNL     1       7.369  -0.092  -5.072  1.00  0.00     0.022 A 
ATOM     23  C   UNL     1       6.306   2.047  -4.506  1.00  0.00     0.085 A 
ATOM     24  C   UNL     1       7.731   0.409  -6.316  1.00  0.00     0.040 A 
ATOM     25  C   UNL     1       6.726   2.547  -5.742  1.00  0.00     0.068 A 
ATOM     26  C   UNL     1       7.393   1.717  -6.644  1.00  0.00     0.125 A 
ATOM     27  F   UNL     1       7.658   2.162  -7.880  1.00  0.00    -0.207 F 
ENDBRANCH   9  10
ENDBRANCH   7   9
ENDBRANCH   4   5
ENDBRANCH   3   4
ENDBRANCH   2   3
ENDBRANCH   1   2
BRANCH   1  28
ATOM     28  C   UNL     1       3.982  -0.597   5.651  1.00  0.00     0.021 C 
BRANCH  28  29
ATOM     29  C   UNL     1       4.084  -1.909   6.419  1.00  0.00     0.116 C 
BRANCH  29  30
ATOM     30  N   UNL     1       5.452  -2.235   6.804  1.00  0.00    -0.352 N 
ATOM     31  C   UNL     1       5.951  -2.549   8.049  1.00  0.00     0.251 C 
ATOM     32  H   UNL     1       6.110  -2.229   6.073  1.00  0.00     0.163 HD
ATOM     33  O   UNL     1       7.162  -2.650   8.219  1.00  0.00    -0.269 OA
BRANCH  31  34
ATOM     34  C   UNL     1       5.013  -2.719   9.180  1.00  0.00     0.039 A 
ATOM     35  C   UNL     1       3.849  -3.472   9.019  1.00  0.00     0.014 A 
ATOM     36  C   UNL     1       5.267  -2.065  10.388  1.00  0.00     0.014 A 
ATOM     37  C   UNL     1       2.850  -3.403   9.982  1.00  0.00     0.010 A 
ATOM     38  C   UNL     1       4.299  -2.080  11.397  1.00  0.00     0.010 A 
ATOM     39  C   UNL     1       3.056  -2.696  11.178  1.00  0.00    -0.014 A 
BRANCH  39  40
ATOM     40  C   UNL     1       1.954  -2.608  12.173  1.00  0.00     0.031 A 
ATOM     41  C   UNL     1       1.351  -1.278  12.549  1.00  0.00     0.074 A 
ATOM     42  C   UNL     1       1.459  -3.742  12.708  1.00  0.00     0.049 A 
ATOM     43  N   UNL     1       0.374  -1.028  13.383  1.00  0.00    -0.248 NA
ATOM     44  C   UNL     1       1.910  -0.073  11.912  1.00  0.00     0.031 C 
ATOM     45  C   UNL     1       1.961  -5.091  12.434  1.00  0.00     0.029 A 
ATOM     46  N   UNL     1       0.420  -3.946  13.581  1.00  0.00    -0.354 N 
ATOM     47  C   UNL     1       0.229   0.354  13.403  1.00  0.00     0.074 A 
ATOM     48  C   UNL     1       1.220   0.896  12.502  1.00  0.00     0.031 C 
ATOM     49  C   UNL     1       1.208  -5.983  13.093  1.00  0.00     0.029 A 
ATOM     50  C   UNL     1       0.209  -5.270  13.882  1.00  0.00     0.049 A 
ATOM     51  H   UNL     1      -0.121  -3.214  13.955  1.00  0.00     0.167 HD
ATOM     52  C   UNL     1      -0.662   1.102  14.095  1.00  0.00     0.034 A 
ATOM     53  C   UNL     1      -0.676  -5.853  14.713  1.00  0.00     0.034 A 
ATOM     54  C   UNL     1      -1.683   0.564  14.952  1.00  0.00     0.049 A 
ATOM     55  C   UNL     1      -1.649  -5.000  15.470  1.00  0.00     0.074 A 
ATOM     56  C   UNL     1      -2.661   1.249  15.652  1.00  0.00     0.029 A 
ATOM     57  N   UNL     1      -1.861  -0.782  15.226  1.00  0.00    -0.354 N 
ATOM     58  N   UNL     1      -1.813  -3.701  15.418  1.00  0.00    -0.248 NA
ATOM     59  C   UNL     1      -2.568  -5.688  16.388  1.00  0.00     0.031 C 
ATOM     60  C   UNL     1      -3.421   0.318  16.364  1.00  0.00     0.029 A 
ATOM     61  C   UNL     1      -2.929  -0.948  16.090  1.00  0.00     0.049 A 
ATOM     62  H   UNL     1      -1.310  -1.512  14.861  1.00  0.00     0.167 HD
ATOM     63  C   UNL     1      -2.861  -3.416  16.283  1.00  0.00     0.074 A 
ATOM     64  C   UNL     1      -3.307  -4.679  16.835  1.00  0.00     0.031 C 
ATOM     65  C   UNL     1      -3.393  -2.212  16.599  1.00  0.00     0.034 A 
BRANCH  52  66
ATOM     66  C   UNL     1      -0.622   2.597  13.928  1.00  0.00     0.023 A 
ATOM     67  C   UNL     1      -1.194   3.179  12.780  1.00  0.00     0.012 A 
ATOM     68  C   UNL     1      -0.134   3.425  14.959  1.00  0.00     0.148 A 
ATOM     69  C   UNL     1      -1.278   4.566  12.657  1.00  0.00     0.002 A 
ATOM     70  C   UNL     1      -0.248   4.805  14.842  1.00  0.00     0.091 A 
ATOM     71  F   UNL     1       0.412   2.845  16.037  1.00  0.00    -0.205 F 
ATOM     72  C   UNL     1      -0.817   5.377  13.691  1.00  0.00     0.022 A 
BRANCH  70  73
ATOM     73  S   UNL     1       0.264   5.939  16.137  1.00  0.00     0.127 S 
ATOM     74  O   UNL     1       1.346   6.670  15.477  1.00  0.00    -0.237 OA
ATOM     75  O   UNL     1      -0.952   6.720  16.359  1.00  0.00    -0.237 OA
ATOM     76  O   UNL     1       0.676   5.111  17.262  1.00  0.00    -0.744 OA
ENDBRANCH  70  73
ENDBRANCH  52  66
BRANCH  53  77
ATOM     77  C   UNL     1      -0.688  -7.336  14.831  1.00  0.00     0.023 A 
ATOM     78  C   UNL     1      -1.715  -8.070  14.211  1.00  0.00     0.012 A 
ATOM     79  C   UNL     1       0.360  -8.018  15.478  1.00  0.00     0.148 A 
ATOM     80  C   UNL     1      -1.700  -9.465  14.235  1.00  0.00     0.002 A 
ATOM     81  C   UNL     1       0.392  -9.406  15.462  1.00  0.00     0.091 A 
ATOM     82  F   UNL     1       1.325  -7.291  16.059  1.00  0.00    -0.205 F 
ATOM     83  C   UNL     1      -0.642 -10.132  14.850  1.00  0.00     0.022 A 
BRANCH  81  84
ATOM     84  S   UNL     1       1.764 -10.352  16.132  1.00  0.00     0.127 S 
ATOM     85  O   UNL     1       1.113 -11.102  17.204  1.00  0.00    -0.237 OA
ATOM     86  O   UNL     1       2.165 -11.153  14.975  1.00  0.00    -0.237 OA
ATOM     87  O   UNL     1       2.749  -9.372  16.565  1.00  0.00    -0.744 OA
ENDBRANCH  81  84
ENDBRANCH  53  77
BRANCH  65  88
ATOM     88  C   UNL     1      -4.534  -2.175  17.576  1.00  0.00     0.023 A 
ATOM     89  C   UNL     1      -4.268  -2.284  18.954  1.00  0.00     0.012 A 
ATOM     90  C   UNL     1      -5.843  -1.895  17.138  1.00  0.00     0.148 A 
ATOM     91  C   UNL     1      -5.292  -2.119  19.885  1.00  0.00     0.002 A 
ATOM     92  C   UNL     1      -6.852  -1.698  18.072  1.00  0.00     0.091 A 
ATOM     93  F   UNL     1      -6.067  -1.802  15.819  1.00  0.00    -0.205 F 
ATOM     94  C   UNL     1      -6.579  -1.813  19.445  1.00  0.00     0.022 A 
BRANCH  92  95
ATOM     95  S   UNL     1      -8.523  -1.231  17.610  1.00  0.00     0.127 S 
ATOM     96  O   UNL     1      -9.289  -2.399  18.044  1.00  0.00    -0.237 OA
ATOM     97  O   UNL     1      -8.739  -0.026  18.411  1.00  0.00    -0.237 OA
ATOM     98  O   UNL     1      -8.499  -1.010  16.170  1.00  0.00    -0.744 OA
ENDBRANCH  92  95
ENDBRANCH  65  88
ENDBRANCH  39  40
ENDBRANCH  31  34
ENDBRANCH  29  30
ENDBRANCH  28  29
ENDBRANCH   1  28
TORSDOF 17
