REMARK SMILES Cc1ccc(NC(=O)C[C@@H](C(=O)NCCCCCCNC(=O)c2ccc(-c3c4nc(c(-c5cccc(S(=O)(=O)[O-])c5F)c5ccc([nH]5)c(-c5cccc(S(=O)(=O)[O-])c5F)c5nc(c(-c6cccc(S(=O)(=O)[O-])c6F)c6ccc3[nH]6)C=C5)C=C4)cc2)[C@@H](C)c2ccccc2)cc1Br
REMARK SMILES IDX 16 1 15 2 14 3 13 4 11 5 12 6 10 8 9 9 7 10 6 11 8 13 5 14
REMARK SMILES IDX 1 15 2 16 3 17 95 18 4 19 94 20 96 21 86 22 87 23 88 24
REMARK SMILES IDX 89 25 93 26 90 27 92 28 91 29 17 30 18 31 19 32 20 33 21 34
REMARK SMILES IDX 22 36 23 37 24 38 85 39 25 40 84 41 26 42 27 43 28 44 78 45
REMARK SMILES IDX 29 46 83 47 77 48 79 49 30 50 82 51 76 52 75 53 31 55 63 56
REMARK SMILES IDX 43 57 62 58 44 59 47 60 61 61 80 62 45 63 46 64 60 66 81 67
REMARK SMILES IDX 48 68 32 69 33 70 41 71 34 72 36 73 42 74 35 75 37 76 38 77
REMARK SMILES IDX 39 78 40 79 64 80 65 81 73 82 66 83 68 84 74 85 67 86 69 87
REMARK SMILES IDX 70 88 71 89 72 90 49 91 50 92 58 93 51 94 53 95 59 96 52 97
REMARK SMILES IDX 54 98 55 99 56 100 57 101
REMARK H PARENT 13 7 6 12 20 35 79 54 47 65
REMARK Flexibility Score: inf
ROOT
ATOM      1  C   UNL     1       5.152   1.465  -0.888  1.00  0.00     0.002 C 
ENDROOT
BRANCH   1   2
ATOM      2  C   UNL     1       4.484   2.845  -0.769  1.00  0.00     0.021 C 
BRANCH   2   3
ATOM      3  C   UNL     1       3.430   3.182  -1.831  1.00  0.00     0.116 C 
BRANCH   3   4
ATOM      4  N   UNL     1       2.432   2.137  -1.919  1.00  0.00    -0.356 N 
ATOM      5  C   UNL     1       1.109   2.068  -1.645  1.00  0.00     0.224 C 
ATOM      6  O   UNL     1       0.652   0.925  -1.674  1.00  0.00    -0.275 OA
ATOM      7  H   UNL     1       2.798   1.286  -2.253  1.00  0.00     0.163 HD
BRANCH   5   8
ATOM      8  C   UNL     1       0.248   3.301  -1.353  1.00  0.00     0.095 C 
BRANCH   8   9
ATOM      9  C   UNL     1       0.427   3.932   0.056  1.00  0.00     0.114 C 
BRANCH   9  10
ATOM     10  C   UNL     1       1.646   3.742   0.924  1.00  0.00     0.225 C 
ATOM     11  N   UNL     1       1.965   2.576   1.549  1.00  0.00    -0.326 N 
ATOM     12  H   UNL     1       2.694   2.653   2.205  1.00  0.00     0.169 HD
ATOM     13  O   UNL     1       2.409   4.700   1.101  1.00  0.00    -0.275 OA
BRANCH  11  14
ATOM     14  C   UNL     1       1.438   1.287   1.422  1.00  0.00     0.042 A 
ATOM     15  C   UNL     1       0.204  -2.656   0.219  1.00  0.00     0.045 C 
ATOM     16  C   UNL     1       0.599  -1.313   0.761  1.00  0.00    -0.037 A 
ATOM     17  C   UNL     1       1.958  -1.029   0.946  1.00  0.00     0.007 A 
ATOM     18  C   UNL     1      -0.337  -0.301   1.030  1.00  0.00     0.022 A 
ATOM     19  C   UNL     1       2.369   0.251   1.313  1.00  0.00     0.026 A 
ATOM     20  C   UNL     1       0.081   0.999   1.347  1.00  0.00     0.042 A 
ATOM     21  Br  UNL     1      -2.209  -0.623   0.947  1.00  0.00    -0.050 Br
ENDBRANCH  11  14
ENDBRANCH   9  10
ENDBRANCH   8   9
BRANCH   8  22
ATOM     22  C   UNL     1      -1.312   3.061  -1.554  1.00  0.00     0.029 C 
ATOM     23  C   UNL     1      -2.094   4.389  -1.379  1.00  0.00     0.013 C 
BRANCH  22  24
ATOM     24  C   UNL     1      -1.797   2.339  -2.816  1.00  0.00    -0.044 A 
ATOM     25  C   UNL     1      -2.268   3.003  -3.958  1.00  0.00     0.004 A 
ATOM     26  C   UNL     1      -1.890   0.935  -2.808  1.00  0.00     0.004 A 
ATOM     27  C   UNL     1      -2.804   2.289  -5.038  1.00  0.00     0.000 A 
ATOM     28  C   UNL     1      -2.379   0.217  -3.901  1.00  0.00     0.000 A 
ATOM     29  C   UNL     1      -2.846   0.897  -5.016  1.00  0.00     0.000 A 
ENDBRANCH  22  24
ENDBRANCH   8  22
ENDBRANCH   5   8
ENDBRANCH   3   4
ENDBRANCH   2   3
ENDBRANCH   1   2
BRANCH   1  30
ATOM     30  C   UNL     1       6.192   1.343  -1.997  1.00  0.00     0.002 C 
BRANCH  30  31
ATOM     31  C   UNL     1       7.279   2.415  -1.964  1.00  0.00     0.021 C 
BRANCH  31  32
ATOM     32  C   UNL     1       7.923   2.628  -0.598  1.00  0.00     0.116 C 
BRANCH  32  33
ATOM     33  N   UNL     1       8.693   1.472  -0.164  1.00  0.00    -0.352 N 
ATOM     34  C   UNL     1      10.037   1.408   0.109  1.00  0.00     0.251 C 
ATOM     35  H   UNL     1       8.188   0.634  -0.051  1.00  0.00     0.163 HD
ATOM     36  O   UNL     1      10.594   0.328   0.287  1.00  0.00    -0.269 OA
BRANCH  34  37
ATOM     37  C   UNL     1      10.806   2.667   0.160  1.00  0.00     0.039 A 
ATOM     38  C   UNL     1      11.937   2.808  -0.643  1.00  0.00     0.014 A 
ATOM     39  C   UNL     1      10.351   3.729   0.948  1.00  0.00     0.014 A 
ATOM     40  C   UNL     1      12.587   4.042  -0.697  1.00  0.00     0.010 A 
ATOM     41  C   UNL     1      10.950   4.978   0.826  1.00  0.00     0.010 A 
ATOM     42  C   UNL     1      12.081   5.145   0.013  1.00  0.00    -0.014 A 
BRANCH  42  43
ATOM     43  C   UNL     1      12.726   6.479  -0.080  1.00  0.00     0.031 A 
ATOM     44  C   UNL     1      13.314   7.117   1.150  1.00  0.00     0.074 A 
ATOM     45  C   UNL     1      12.720   7.148  -1.250  1.00  0.00     0.049 A 
ATOM     46  N   UNL     1      13.890   8.284   1.278  1.00  0.00    -0.248 NA
ATOM     47  C   UNL     1      13.217   6.357   2.408  1.00  0.00     0.031 C 
ATOM     48  C   UNL     1      12.108   6.672  -2.493  1.00  0.00     0.029 A 
ATOM     49  N   UNL     1      13.223   8.381  -1.581  1.00  0.00    -0.354 N 
ATOM     50  C   UNL     1      14.190   8.413   2.629  1.00  0.00     0.074 A 
ATOM     51  C   UNL     1      13.697   7.224   3.288  1.00  0.00     0.031 C 
ATOM     52  C   UNL     1      12.282   7.597  -3.451  1.00  0.00     0.029 A 
ATOM     53  C   UNL     1      12.987   8.743  -2.886  1.00  0.00     0.049 A 
ATOM     54  H   UNL     1      13.708   8.953  -0.943  1.00  0.00     0.167 HD
ATOM     55  C   UNL     1      14.847   9.414   3.261  1.00  0.00     0.034 A 
ATOM     56  C   UNL     1      13.298   9.873  -3.552  1.00  0.00     0.034 A 
ATOM     57  C   UNL     1      15.370  10.576   2.596  1.00  0.00     0.049 A 
ATOM     58  C   UNL     1      14.058  10.956  -2.834  1.00  0.00     0.074 A 
ATOM     59  C   UNL     1      16.128  11.603   3.129  1.00  0.00     0.029 A 
ATOM     60  N   UNL     1      15.178  10.872   1.256  1.00  0.00    -0.354 N 
ATOM     61  N   UNL     1      14.479  10.985  -1.593  1.00  0.00    -0.248 NA
ATOM     62  C   UNL     1      14.419  12.146  -3.618  1.00  0.00     0.031 C 
ATOM     63  C   UNL     1      16.367  12.538   2.117  1.00  0.00     0.029 A 
ATOM     64  C   UNL     1      15.791  12.074   0.945  1.00  0.00     0.049 A 
ATOM     65  H   UNL     1      14.680  10.311   0.619  1.00  0.00     0.167 HD
ATOM     66  C   UNL     1      15.183  12.176  -1.456  1.00  0.00     0.074 A 
ATOM     67  C   UNL     1      15.151  12.830  -2.748  1.00  0.00     0.031 C 
ATOM     68  C   UNL     1      15.790  12.690  -0.357  1.00  0.00     0.034 A 
BRANCH  55  69
ATOM     69  C   UNL     1      15.076   9.272   4.744  1.00  0.00     0.023 A 
ATOM     70  C   UNL     1      15.981   8.302   5.222  1.00  0.00     0.012 A 
ATOM     71  C   UNL     1      14.437  10.130   5.661  1.00  0.00     0.148 A 
ATOM     72  C   UNL     1      16.216   8.159   6.589  1.00  0.00     0.002 A 
ATOM     73  C   UNL     1      14.714  10.015   7.018  1.00  0.00     0.091 A 
ATOM     74  F   UNL     1      13.565  11.033   5.191  1.00  0.00    -0.205 F 
ATOM     75  C   UNL     1      15.592   9.022   7.485  1.00  0.00     0.022 A 
BRANCH  73  76
ATOM     76  S   UNL     1      14.026  11.130   8.246  1.00  0.00     0.127 S 
ATOM     77  O   UNL     1      13.108  10.247   8.965  1.00  0.00    -0.237 OA
ATOM     78  O   UNL     1      15.215  11.521   9.005  1.00  0.00    -0.237 OA
ATOM     79  O   UNL     1      13.397  12.211   7.501  1.00  0.00    -0.744 OA
ENDBRANCH  73  76
ENDBRANCH  55  69
BRANCH  56  80
ATOM     80  C   UNL     1      12.945  10.013  -4.993  1.00  0.00     0.023 A 
ATOM     81  C   UNL     1      13.967  10.010  -5.962  1.00  0.00     0.012 A 
ATOM     82  C   UNL     1      11.604  10.125  -5.410  1.00  0.00     0.148 A 
ATOM     83  C   UNL     1      13.664  10.152  -7.317  1.00  0.00     0.002 A 
ATOM     84  C   UNL     1      11.306  10.209  -6.765  1.00  0.00     0.091 A 
ATOM     85  F   UNL     1      10.647  10.135  -4.473  1.00  0.00    -0.205 F 
ATOM     86  C   UNL     1      12.335  10.242  -7.719  1.00  0.00     0.022 A 
BRANCH  84  87
ATOM     87  S   UNL     1       9.619  10.196  -7.383  1.00  0.00     0.127 S 
ATOM     88  O   UNL     1       9.477  11.556  -7.896  1.00  0.00    -0.237 OA
ATOM     89  O   UNL     1       9.683   9.154  -8.409  1.00  0.00    -0.237 OA
ATOM     90  O   UNL     1       8.782   9.861  -6.239  1.00  0.00    -0.744 OA
ENDBRANCH  84  87
ENDBRANCH  56  80
BRANCH  68  91
ATOM     91  C   UNL     1      16.506  14.007  -0.505  1.00  0.00     0.023 A 
ATOM     92  C   UNL     1      15.767  15.196  -0.666  1.00  0.00     0.012 A 
ATOM     93  C   UNL     1      17.910  14.073  -0.409  1.00  0.00     0.148 A 
ATOM     94  C   UNL     1      16.417  16.426  -0.764  1.00  0.00     0.002 A 
ATOM     95  C   UNL     1      18.547  15.307  -0.454  1.00  0.00     0.091 A 
ATOM     96  F   UNL     1      18.596  12.929  -0.272  1.00  0.00    -0.205 F 
ATOM     97  C   UNL     1      17.804  16.483  -0.646  1.00  0.00     0.022 A 
BRANCH  95  98
ATOM     98  S   UNL     1      20.317  15.488  -0.210  1.00  0.00     0.127 S 
ATOM     99  O   UNL     1      20.768  15.850  -1.553  1.00  0.00    -0.237 OA
ATOM    100  O   UNL     1      20.386  16.572   0.770  1.00  0.00    -0.237 OA
ATOM    101  O   UNL     1      20.790  14.200   0.281  1.00  0.00    -0.744 OA
ENDBRANCH  95  98
ENDBRANCH  68  91
ENDBRANCH  42  43
ENDBRANCH  34  37
ENDBRANCH  32  33
ENDBRANCH  31  32
ENDBRANCH  30  31
ENDBRANCH   1  30
TORSDOF 21
