REMARK SMILES O=C(NCCCCCCNC(=O)c1cc(SCC(=O)N2CCOCC2)ccn1)c1ccc(-c2c3nc(c(-c4cccc(S(=O)(=O)[O-])c4F)c4ccc([nH]4)c(-c4cccc(S(=O)(=O)[O-])c4F)c4nc(c(-c5cccc(S(=O)(=O)[O-])c5F)c5ccc2[nH]5)C=C4)C=C3)cc1
REMARK SMILES IDX 6 1 5 2 4 3 3 4 1 5 2 6 29 8 30 9 91 10 31 11 90 12 32 13
REMARK SMILES IDX 33 14 34 15 84 16 35 17 89 18 83 19 85 20 36 21 88 22 82 23
REMARK SMILES IDX 81 24 37 26 69 27 49 28 68 29 50 30 53 31 67 32 86 33 51 34
REMARK SMILES IDX 52 35 66 37 87 38 54 39 38 40 39 41 47 42 40 43 42 44 48 45
REMARK SMILES IDX 41 46 43 47 44 48 45 49 46 50 70 51 71 52 79 53 72 54 74 55
REMARK SMILES IDX 80 56 73 57 75 58 76 59 77 60 78 61 55 62 56 63 64 64 57 65
REMARK SMILES IDX 59 66 65 67 58 68 60 69 61 70 62 71 63 72 7 73 8 74 9 75
REMARK SMILES IDX 10 76 11 77 12 79 13 80 14 81 28 82 15 83 27 84 26 85 16 86
REMARK SMILES IDX 17 87 18 88 19 89 20 90 21 91 25 92 22 93 24 94 23 95
REMARK H PARENT 3 7 85 25 53 36 10 78
REMARK Flexibility Score: inf
ROOT
ATOM      1  C   UNL     1       4.076  -0.530  -3.933  1.00  0.00     0.002 C 
ENDROOT
BRANCH   1   2
ATOM      2  C   UNL     1       4.578  -1.024  -2.575  1.00  0.00     0.021 C 
BRANCH   2   3
ATOM      3  C   UNL     1       4.348  -0.068  -1.411  1.00  0.00     0.116 C 
BRANCH   3   4
ATOM      4  N   UNL     1       2.939   0.173  -1.153  1.00  0.00    -0.352 N 
ATOM      5  O   UNL     1       1.022   0.181   0.028  1.00  0.00    -0.269 OA
ATOM      6  C   UNL     1       2.246   0.090   0.031  1.00  0.00     0.251 C 
ATOM      7  H   UNL     1       2.405   0.433  -1.937  1.00  0.00     0.163 HD
BRANCH   6   8
ATOM      8  C   UNL     1       2.975  -0.137   1.300  1.00  0.00     0.039 A 
ATOM      9  C   UNL     1       4.145   0.571   1.591  1.00  0.00     0.014 A 
ATOM     10  C   UNL     1       2.473  -1.065   2.216  1.00  0.00     0.014 A 
ATOM     11  C   UNL     1       4.879   0.256   2.730  1.00  0.00     0.010 A 
ATOM     12  C   UNL     1       3.172  -1.323   3.400  1.00  0.00     0.010 A 
ATOM     13  C   UNL     1       4.396  -0.686   3.653  1.00  0.00    -0.014 A 
BRANCH  13  14
ATOM     14  C   UNL     1       5.152  -0.930   4.909  1.00  0.00     0.031 A 
ATOM     15  C   UNL     1       5.774  -2.268   5.203  1.00  0.00     0.074 A 
ATOM     16  C   UNL     1       5.278   0.082   5.790  1.00  0.00     0.049 A 
ATOM     17  N   UNL     1       6.497  -2.627   6.233  1.00  0.00    -0.248 NA
ATOM     18  C   UNL     1       5.555  -3.343   4.222  1.00  0.00     0.031 C 
ATOM     19  C   UNL     1       4.675   1.409   5.636  1.00  0.00     0.029 A 
ATOM     20  N   UNL     1       5.949   0.160   6.983  1.00  0.00    -0.354 N 
ATOM     21  C   UNL     1       6.797  -3.971   6.042  1.00  0.00     0.074 A 
ATOM     22  C   UNL     1       6.165  -4.369   4.803  1.00  0.00     0.031 C 
ATOM     23  C   UNL     1       5.022   2.174   6.681  1.00  0.00     0.029 A 
ATOM     24  C   UNL     1       5.834   1.384   7.599  1.00  0.00     0.049 A 
ATOM     25  H   UNL     1       6.463  -0.589   7.363  1.00  0.00     0.167 HD
ATOM     26  C   UNL     1       7.548  -4.790   6.818  1.00  0.00     0.034 A 
ATOM     27  C   UNL     1       6.319   1.822   8.776  1.00  0.00     0.034 A 
ATOM     28  C   UNL     1       8.196  -4.382   8.037  1.00  0.00     0.049 A 
ATOM     29  C   UNL     1       7.168   0.898   9.600  1.00  0.00     0.074 A 
ATOM     30  C   UNL     1       9.011  -5.128   8.870  1.00  0.00     0.029 A 
ATOM     31  N   UNL     1       8.101  -3.118   8.601  1.00  0.00    -0.354 N 
ATOM     32  N   UNL     1       7.545  -0.330   9.336  1.00  0.00    -0.248 NA
ATOM     33  C   UNL     1       7.684   1.427  10.870  1.00  0.00     0.031 C 
ATOM     34  C   UNL     1       9.403  -4.318   9.942  1.00  0.00     0.029 A 
ATOM     35  C   UNL     1       8.842  -3.063   9.770  1.00  0.00     0.049 A 
ATOM     36  H   UNL     1       7.583  -2.370   8.225  1.00  0.00     0.167 HD
ATOM     37  C   UNL     1       8.359  -0.712  10.394  1.00  0.00     0.074 A 
ATOM     38  C   UNL     1       8.447   0.426  11.287  1.00  0.00     0.031 C 
ATOM     39  C   UNL     1       8.961  -1.906  10.620  1.00  0.00     0.034 A 
BRANCH  26  40
ATOM     40  C   UNL     1       7.762  -6.205   6.344  1.00  0.00     0.023 A 
ATOM     41  C   UNL     1       8.650  -6.446   5.276  1.00  0.00     0.012 A 
ATOM     42  C   UNL     1       7.154  -7.297   6.996  1.00  0.00     0.148 A 
ATOM     43  C   UNL     1       8.912  -7.746   4.848  1.00  0.00     0.002 A 
ATOM     44  C   UNL     1       7.449  -8.593   6.587  1.00  0.00     0.091 A 
ATOM     45  F   UNL     1       6.297  -7.049   7.997  1.00  0.00    -0.205 F 
ATOM     46  C   UNL     1       8.321  -8.819   5.509  1.00  0.00     0.022 A 
BRANCH  44  47
ATOM     47  S   UNL     1       6.794 -10.045   7.420  1.00  0.00     0.127 S 
ATOM     48  O   UNL     1       5.803 -10.516   6.453  1.00  0.00    -0.237 OA
ATOM     49  O   UNL     1       7.979 -10.895   7.539  1.00  0.00    -0.237 OA
ATOM     50  O   UNL     1       6.259  -9.570   8.688  1.00  0.00    -0.744 OA
ENDBRANCH  44  47
ENDBRANCH  26  40
BRANCH  27  51
ATOM     51  C   UNL     1       6.054   3.223   9.208  1.00  0.00     0.023 A 
ATOM     52  C   UNL     1       7.110   4.153   9.233  1.00  0.00     0.012 A 
ATOM     53  C   UNL     1       4.755   3.649   9.546  1.00  0.00     0.148 A 
ATOM     54  C   UNL     1       6.882   5.477   9.611  1.00  0.00     0.002 A 
ATOM     55  C   UNL     1       4.524   4.983   9.863  1.00  0.00     0.091 A 
ATOM     56  F   UNL     1       3.764   2.746   9.539  1.00  0.00    -0.205 F 
ATOM     57  C   UNL     1       5.589   5.895   9.912  1.00  0.00     0.022 A 
BRANCH  55  58
ATOM     58  S   UNL     1       2.864   5.620  10.114  1.00  0.00     0.127 S 
ATOM     59  O   UNL     1       2.777   5.668  11.570  1.00  0.00    -0.237 OA
ATOM     60  O   UNL     1       2.931   6.927   9.457  1.00  0.00    -0.237 OA
ATOM     61  O   UNL     1       1.985   4.667   9.449  1.00  0.00    -0.744 OA
ENDBRANCH  55  58
ENDBRANCH  27  51
BRANCH  39  62
ATOM     62  C   UNL     1       9.783  -2.037  11.873  1.00  0.00     0.023 A 
ATOM     63  C   UNL     1       9.136  -2.144  13.120  1.00  0.00     0.012 A 
ATOM     64  C   UNL     1      11.188  -2.110  11.813  1.00  0.00     0.148 A 
ATOM     65  C   UNL     1       9.877  -2.288  14.293  1.00  0.00     0.002 A 
ATOM     66  C   UNL     1      11.918  -2.297  12.981  1.00  0.00     0.091 A 
ATOM     67  F   UNL     1      11.786  -1.983  10.619  1.00  0.00    -0.205 F 
ATOM     68  C   UNL     1      11.265  -2.375  14.222  1.00  0.00     0.022 A 
BRANCH  66  69
ATOM     69  S   UNL     1      13.702  -2.506  12.971  1.00  0.00     0.127 S 
ATOM     70  O   UNL     1      14.159  -1.194  13.427  1.00  0.00    -0.237 OA
ATOM     71  O   UNL     1      13.897  -3.589  13.936  1.00  0.00    -0.237 OA
ATOM     72  O   UNL     1      14.053  -2.853  11.600  1.00  0.00    -0.744 OA
ENDBRANCH  66  69
ENDBRANCH  39  62
ENDBRANCH  13  14
ENDBRANCH   6   8
ENDBRANCH   3   4
ENDBRANCH   2   3
ENDBRANCH   1   2
BRANCH   1  73
ATOM     73  C   UNL     1       4.606   0.835  -4.383  1.00  0.00     0.002 C 
BRANCH  73  74
ATOM     74  C   UNL     1       6.129   0.995  -4.373  1.00  0.00     0.021 C 
BRANCH  74  75
ATOM     75  C   UNL     1       6.893  -0.062  -5.163  1.00  0.00     0.116 C 
BRANCH  75  76
ATOM     76  N   UNL     1       6.604  -0.019  -6.586  1.00  0.00    -0.351 N 
ATOM     77  C   UNL     1       7.489  -0.039  -7.640  1.00  0.00     0.269 C 
ATOM     78  H   UNL     1       5.650   0.030  -6.827  1.00  0.00     0.163 HD
ATOM     79  O   UNL     1       7.074   0.011  -8.795  1.00  0.00    -0.268 OA
BRANCH  77  80
ATOM     80  C   UNL     1       8.948  -0.125  -7.361  1.00  0.00     0.129 A 
ATOM     81  C   UNL     1       9.463  -1.241  -6.708  1.00  0.00     0.049 A 
ATOM     82  N   UNL     1       9.684   0.948  -7.745  1.00  0.00    -0.251 NA
ATOM     83  C   UNL     1      10.811  -1.230  -6.376  1.00  0.00     0.012 A 
ATOM     84  C   UNL     1      10.995   0.908  -7.454  1.00  0.00     0.113 A 
ATOM     85  C   UNL     1      11.591  -0.138  -6.774  1.00  0.00     0.035 A 
BRANCH  83  86
ATOM     86  S   UNL     1      11.670  -2.517  -5.501  1.00  0.00    -0.116 SA
BRANCH  86  87
ATOM     87  C   UNL     1      10.418  -3.405  -4.539  1.00  0.00     0.175 C 
BRANCH  87  88
ATOM     88  C   UNL     1       9.417  -2.622  -3.706  1.00  0.00     0.233 C 
ATOM     89  O   UNL     1       8.214  -2.751  -3.964  1.00  0.00    -0.274 OA
ATOM     90  N   UNL     1       9.818  -1.955  -2.567  1.00  0.00    -0.337 N 
ATOM     91  C   UNL     1      11.086  -1.256  -2.353  1.00  0.00     0.148 C 
ATOM     92  C   UNL     1       8.868  -1.778  -1.460  1.00  0.00     0.148 C 
ATOM     93  C   UNL     1      11.686  -1.607  -0.992  1.00  0.00     0.181 C 
ATOM     94  C   UNL     1       9.549  -2.143  -0.132  1.00  0.00     0.181 C 
ATOM     95  O   UNL     1      10.741  -1.364   0.058  1.00  0.00    -0.378 OA
ENDBRANCH  87  88
ENDBRANCH  86  87
ENDBRANCH  83  86
ENDBRANCH  77  80
ENDBRANCH  75  76
ENDBRANCH  74  75
ENDBRANCH  73  74
ENDBRANCH   1  73
TORSDOF 19
