REMARK SMILES O=C(C[N@@H+]1CCC[C@@H]1c1nc2ccccc2s1)Nc1sc2c(c1C(=O)NCCCCCCNC(=O)c1ccc(-c3c4nc(c(-c5cccc(S(=O)(=O)[O-])c5F)c5ccc([nH]5)c(-c5cccc(S(=O)(=O)[O-])c5F)c5nc(c(-c6cccc(S(=O)(=O)[O-])c6F)c6ccc3[nH]6)C=C5)C=C4)cc1)CCCC2
REMARK SMILES IDX 29 1 28 2 27 3 26 4 24 5 25 6 23 8 19 9 20 10 21 11 22 12
REMARK SMILES IDX 102 13 99 14 101 15 100 16 18 17 1 18 2 19 3 21 4 22 5 23
REMARK SMILES IDX 8 24 6 26 7 27 9 28 10 29 17 30 11 31 16 32 12 33 15 34
REMARK SMILES IDX 13 35 14 36 30 37 31 38 32 39 33 40 34 41 35 43 36 44 37 45
REMARK SMILES IDX 98 46 38 47 97 48 39 49 40 50 41 51 91 52 42 53 96 54 90 55
REMARK SMILES IDX 92 56 43 57 95 58 89 59 88 60 44 62 76 63 56 64 75 65 57 66
REMARK SMILES IDX 60 67 74 68 93 69 58 70 59 71 73 73 94 74 61 75 45 76 46 77
REMARK SMILES IDX 54 78 47 79 49 80 55 81 48 82 50 83 51 84 52 85 53 86 77 87
REMARK SMILES IDX 78 88 86 89 79 90 81 91 87 92 80 93 82 94 83 95 84 96 85 97
REMARK SMILES IDX 62 98 63 99 71 100 64 101 66 102 72 103 65 104 67 105 68 106
REMARK SMILES IDX 69 107 70 108
REMARK H PARENT 26 7 18 20 4 25 33 42 92 61 60 72
REMARK Flexibility Score: inf
ROOT
ATOM      1  C   UNL     1       5.329  -1.812   7.971  1.00  0.00     0.002 C 
ENDROOT
BRANCH   1   2
ATOM      2  C   UNL     1       4.236  -2.252   6.993  1.00  0.00     0.021 C 
BRANCH   2   3
ATOM      3  C   UNL     1       3.554  -1.080   6.280  1.00  0.00     0.116 C 
BRANCH   3   4
ATOM      4  N   UNL     1       4.154  -0.897   4.981  1.00  0.00    -0.352 N 
ATOM      5  C   UNL     1       3.795  -1.253   3.712  1.00  0.00     0.254 C 
ATOM      6  O   UNL     1       4.603  -0.893   2.844  1.00  0.00    -0.269 OA
ATOM      7  H   UNL     1       5.007  -0.408   5.017  1.00  0.00     0.163 HD
BRANCH   5   8
ATOM      8  C   UNL     1       2.528  -1.905   3.324  1.00  0.00     0.078 A 
ATOM      9  C   UNL     1       2.002  -1.568   2.074  1.00  0.00     0.109 A 
ATOM     10  S   UNL     1       0.593  -2.412   1.658  1.00  0.00    -0.122 S 
ATOM     11  C   UNL     1       0.555  -3.193   3.148  1.00  0.00     0.011 A 
ATOM     12  C   UNL     1       1.636  -2.881   3.964  1.00  0.00    -0.019 A 
ATOM     13  C   UNL     1      -0.550  -4.161   3.449  1.00  0.00     0.047 C 
ATOM     14  C   UNL     1       1.733  -3.554   5.307  1.00  0.00     0.037 C 
ATOM     15  C   UNL     1      -0.598  -4.474   4.942  1.00  0.00     0.006 C 
ATOM     16  C   UNL     1       0.808  -4.771   5.466  1.00  0.00     0.005 C 
BRANCH   9  17
ATOM     17  N   UNL     1       2.533  -0.704   1.125  1.00  0.00    -0.312 N 
ATOM     18  O   UNL     1       0.525   0.280   0.486  1.00  0.00    -0.268 OA
ATOM     19  C   UNL     1       1.744   0.136   0.367  1.00  0.00     0.280 C 
ATOM     20  H   UNL     1       3.508  -0.690   0.989  1.00  0.00     0.170 HD
BRANCH  19  21
ATOM     21  C   UNL     1       2.476   0.942  -0.693  1.00  0.00     0.364 C 
BRANCH  21  22
ATOM     22  N   UNL     1       3.645   1.756  -0.265  1.00  0.00    -0.319 N 
ATOM     23  C   UNL     1       3.516   2.337   1.082  1.00  0.00     0.263 C 
ATOM     24  C   UNL     1       3.849   2.961  -1.177  1.00  0.00     0.245 C 
ATOM     25  H   UNL     1       4.417   1.091  -0.296  1.00  0.00     0.349 HD
ATOM     26  C   UNL     1       2.706   3.591   0.890  1.00  0.00     0.068 C 
ATOM     27  C   UNL     1       3.309   4.170  -0.372  1.00  0.00     0.079 C 
BRANCH  24  28
ATOM     28  C   UNL     1       3.282   2.925  -2.607  1.00  0.00     0.151 A 
ATOM     29  N   UNL     1       2.792   1.862  -3.214  1.00  0.00    -0.235 NA
ATOM     30  S   UNL     1       3.212   4.360  -3.578  1.00  0.00    -0.113 S 
ATOM     31  C   UNL     1       2.051   2.228  -4.319  1.00  0.00     0.082 A 
ATOM     32  C   UNL     1       2.138   3.572  -4.672  1.00  0.00     0.055 A 
ATOM     33  C   UNL     1       1.213   1.375  -5.064  1.00  0.00     0.030 A 
ATOM     34  C   UNL     1       1.415   4.098  -5.756  1.00  0.00     0.021 A 
ATOM     35  C   UNL     1       0.469   1.891  -6.128  1.00  0.00     0.002 A 
ATOM     36  C   UNL     1       0.571   3.237  -6.468  1.00  0.00     0.002 A 
ENDBRANCH  24  28
ENDBRANCH  21  22
ENDBRANCH  19  21
ENDBRANCH   9  17
ENDBRANCH   5   8
ENDBRANCH   3   4
ENDBRANCH   2   3
ENDBRANCH   1   2
BRANCH   1  37
ATOM     37  C   UNL     1       4.795  -1.147   9.244  1.00  0.00     0.002 C 
BRANCH  37  38
ATOM     38  C   UNL     1       3.828  -2.004  10.069  1.00  0.00     0.021 C 
BRANCH  38  39
ATOM     39  C   UNL     1       4.390  -3.350  10.515  1.00  0.00     0.116 C 
BRANCH  39  40
ATOM     40  N   UNL     1       5.549  -3.184  11.378  1.00  0.00    -0.352 N 
ATOM     41  C   UNL     1       5.731  -3.596  12.674  1.00  0.00     0.251 C 
ATOM     42  H   UNL     1       6.311  -2.708  10.975  1.00  0.00     0.163 HD
ATOM     43  O   UNL     1       6.662  -3.144  13.334  1.00  0.00    -0.269 OA
BRANCH  41  44
ATOM     44  C   UNL     1       4.809  -4.586  13.270  1.00  0.00     0.039 A 
ATOM     45  C   UNL     1       4.373  -4.406  14.585  1.00  0.00     0.014 A 
ATOM     46  C   UNL     1       4.411  -5.714  12.546  1.00  0.00     0.014 A 
ATOM     47  C   UNL     1       3.514  -5.343  15.164  1.00  0.00     0.010 A 
ATOM     48  C   UNL     1       3.499  -6.607  13.098  1.00  0.00     0.010 A 
ATOM     49  C   UNL     1       3.060  -6.444  14.421  1.00  0.00    -0.014 A 
BRANCH  49  50
ATOM     50  C   UNL     1       2.154  -7.459  15.016  1.00  0.00     0.031 A 
ATOM     51  C   UNL     1       2.624  -8.880  15.179  1.00  0.00     0.074 A 
ATOM     52  C   UNL     1       0.888  -7.124  15.330  1.00  0.00     0.049 A 
ATOM     53  N   UNL     1       1.965  -9.923  15.612  1.00  0.00    -0.248 NA
ATOM     54  C   UNL     1       4.009  -9.175  14.772  1.00  0.00     0.031 C 
ATOM     55  C   UNL     1       0.292  -5.800  15.145  1.00  0.00     0.029 A 
ATOM     56  N   UNL     1      -0.135  -7.880  15.845  1.00  0.00    -0.354 N 
ATOM     57  C   UNL     1       2.835 -11.001  15.491  1.00  0.00     0.074 A 
ATOM     58  C   UNL     1       4.059 -10.492  14.911  1.00  0.00     0.031 C 
ATOM     59  C   UNL     1      -0.991  -5.836  15.540  1.00  0.00     0.029 A 
ATOM     60  C   UNL     1      -1.316  -7.188  15.984  1.00  0.00     0.049 A 
ATOM     61  H   UNL     1      -0.034  -8.828  16.091  1.00  0.00     0.167 HD
ATOM     62  C   UNL     1       2.647 -12.290  15.857  1.00  0.00     0.034 A 
ATOM     63  C   UNL     1      -2.523  -7.599  16.419  1.00  0.00     0.034 A 
ATOM     64  C   UNL     1       1.449 -12.779  16.485  1.00  0.00     0.049 A 
ATOM     65  C   UNL     1      -2.686  -9.021  16.884  1.00  0.00     0.074 A 
ATOM     66  C   UNL     1       1.188 -14.046  16.973  1.00  0.00     0.029 A 
ATOM     67  N   UNL     1       0.312 -12.019  16.715  1.00  0.00    -0.354 N 
ATOM     68  N   UNL     1      -1.802  -9.989  16.903  1.00  0.00    -0.248 NA
ATOM     69  C   UNL     1      -3.998  -9.396  17.431  1.00  0.00     0.031 C 
ATOM     70  C   UNL     1      -0.113 -14.057  17.487  1.00  0.00     0.029 A 
ATOM     71  C   UNL     1      -0.653 -12.789  17.340  1.00  0.00     0.049 A 
ATOM     72  H   UNL     1       0.207 -11.072  16.470  1.00  0.00     0.167 HD
ATOM     73  C   UNL     1      -2.434 -11.072  17.502  1.00  0.00     0.074 A 
ATOM     74  C   UNL     1      -3.772 -10.636  17.846  1.00  0.00     0.031 C 
ATOM     75  C   UNL     1      -1.956 -12.319  17.736  1.00  0.00     0.034 A 
BRANCH  62  76
ATOM     76  C   UNL     1       3.785 -13.254  15.642  1.00  0.00     0.023 A 
ATOM     77  C   UNL     1       4.941 -13.155  16.445  1.00  0.00     0.012 A 
ATOM     78  C   UNL     1       3.696 -14.285  14.687  1.00  0.00     0.148 A 
ATOM     79  C   UNL     1       6.003 -14.041  16.276  1.00  0.00     0.002 A 
ATOM     80  C   UNL     1       4.740 -15.194  14.556  1.00  0.00     0.091 A 
ATOM     81  F   UNL     1       2.600 -14.352  13.917  1.00  0.00    -0.205 F 
ATOM     82  C   UNL     1       5.898 -15.066  15.340  1.00  0.00     0.022 A 
BRANCH  80  83
ATOM     83  S   UNL     1       4.668 -16.597  13.436  1.00  0.00     0.127 S 
ATOM     84  O   UNL     1       5.613 -16.193  12.396  1.00  0.00    -0.237 OA
ATOM     85  O   UNL     1       5.131 -17.695  14.286  1.00  0.00    -0.237 OA
ATOM     86  O   UNL     1       3.279 -16.702  13.014  1.00  0.00    -0.744 OA
ENDBRANCH  80  83
ENDBRANCH  62  76
BRANCH  63  87
ATOM     87  C   UNL     1      -3.649  -6.627  16.515  1.00  0.00     0.023 A 
ATOM     88  C   UNL     1      -4.092  -6.207  17.784  1.00  0.00     0.012 A 
ATOM     89  C   UNL     1      -4.260  -6.095  15.364  1.00  0.00     0.148 A 
ATOM     90  C   UNL     1      -5.146  -5.301  17.907  1.00  0.00     0.002 A 
ATOM     91  C   UNL     1      -5.273  -5.151  15.492  1.00  0.00     0.091 A 
ATOM     92  F   UNL     1      -3.832  -6.514  14.165  1.00  0.00    -0.205 F 
ATOM     93  C   UNL     1      -5.729  -4.766  16.763  1.00  0.00     0.022 A 
BRANCH  91  94
ATOM     94  S   UNL     1      -5.990  -4.311  14.076  1.00  0.00     0.127 S 
ATOM     95  O   UNL     1      -7.317  -4.917  14.008  1.00  0.00    -0.237 OA
ATOM     96  O   UNL     1      -5.971  -2.913  14.510  1.00  0.00    -0.237 OA
ATOM     97  O   UNL     1      -5.101  -4.601  12.958  1.00  0.00    -0.744 OA
ENDBRANCH  91  94
ENDBRANCH  63  87
BRANCH  75  98
ATOM     98  C   UNL     1      -2.858 -13.294  18.445  1.00  0.00     0.023 A 
ATOM     99  C   UNL     1      -3.957 -13.858  17.767  1.00  0.00     0.012 A 
ATOM    100  C   UNL     1      -2.569 -13.707  19.760  1.00  0.00     0.148 A 
ATOM    101  C   UNL     1      -4.773 -14.794  18.400  1.00  0.00     0.002 A 
ATOM    102  C   UNL     1      -3.358 -14.678  20.367  1.00  0.00     0.091 A 
ATOM    103  F   UNL     1      -1.532 -13.143  20.396  1.00  0.00    -0.205 F 
ATOM    104  C   UNL     1      -4.467 -15.213  19.693  1.00  0.00     0.022 A 
BRANCH 102 105
ATOM    105  S   UNL     1      -2.975 -15.344  21.990  1.00  0.00     0.127 S 
ATOM    106  O   UNL     1      -3.974 -14.682  22.828  1.00  0.00    -0.237 OA
ATOM    107  O   UNL     1      -3.193 -16.779  21.799  1.00  0.00    -0.237 OA
ATOM    108  O   UNL     1      -1.590 -14.978  22.255  1.00  0.00    -0.744 OA
ENDBRANCH 102 105
ENDBRANCH  75  98
ENDBRANCH  49  50
ENDBRANCH  41  44
ENDBRANCH  39  40
ENDBRANCH  38  39
ENDBRANCH  37  38
ENDBRANCH   1  37
TORSDOF 20
