REMARK SMILES C[C@H]1CN(C(=O)C[N@H+]2CCO[C@H](CC(=O)NCCCCCCNC(=O)c3ccc(-c4c5nc(c(-c6cccc(S(=O)(=O)[O-])c6F)c6ccc([nH]6)c(-c6cccc(S(=O)(=O)[O-])c6F)c6nc(c(-c7cccc(S(=O)(=O)[O-])c7F)c7ccc4[nH]7)C=C6)C=C5)cc3)C2)CCO1
REMARK SMILES IDX 19 1 18 2 17 3 16 4 14 5 15 6 13 8 12 9 8 10 9 11 89 12
REMARK SMILES IDX 10 14 11 15 7 16 5 17 6 18 4 19 1 20 2 21 3 22 92 23 91 24
REMARK SMILES IDX 90 25 20 26 21 27 22 28 23 29 24 30 25 32 26 33 27 34 88 35
REMARK SMILES IDX 28 36 87 37 29 38 30 39 31 40 81 41 32 42 86 43 80 44 82 45
REMARK SMILES IDX 33 46 85 47 79 48 78 49 34 51 66 52 46 53 65 54 47 55 50 56
REMARK SMILES IDX 64 57 83 58 48 59 49 60 63 62 84 63 51 64 35 65 36 66 44 67
REMARK SMILES IDX 37 68 39 69 45 70 38 71 40 72 41 73 42 74 43 75 67 76 68 77
REMARK SMILES IDX 76 78 69 79 71 80 77 81 70 82 72 83 73 84 74 85 75 86 52 87
REMARK SMILES IDX 53 88 61 89 54 90 56 91 62 92 55 93 57 94 58 95 59 96 60 97
REMARK H PARENT 16 7 8 13 23 31 82 50 50 61
REMARK Flexibility Score: inf
ROOT
ATOM      1  C   UNL     1      -0.852   2.418   7.801  1.00  0.00     0.002 C 
ENDROOT
BRANCH   1   2
ATOM      2  C   UNL     1      -0.910   2.493   6.269  1.00  0.00     0.021 C 
BRANCH   2   3
ATOM      3  C   UNL     1      -0.501   3.859   5.710  1.00  0.00     0.116 C 
BRANCH   3   4
ATOM      4  N   UNL     1       0.870   4.161   6.088  1.00  0.00    -0.356 N 
ATOM      5  C   UNL     1       1.999   4.164   5.332  1.00  0.00     0.222 C 
ATOM      6  O   UNL     1       3.090   4.307   5.883  1.00  0.00    -0.275 OA
ATOM      7  H   UNL     1       0.999   4.399   7.034  1.00  0.00     0.163 HD
BRANCH   5   8
ATOM      8  C   UNL     1       1.888   4.046   3.842  1.00  0.00     0.138 C 
BRANCH   8   9
ATOM      9  C   UNL     1       1.486   2.669   3.337  1.00  0.00     0.182 C 
ATOM     10  N   UNL     1       2.330   0.307   2.806  1.00  0.00    -0.323 N 
ATOM     11  C   UNL     1       2.019   0.694   1.420  1.00  0.00     0.291 C 
ATOM     12  C   UNL     1       2.580   1.582   3.542  1.00  0.00     0.295 C 
ATOM     13  H   UNL     1       3.150  -0.299   2.824  1.00  0.00     0.348 HD
ATOM     14  C   UNL     1       0.840   1.671   1.304  1.00  0.00     0.222 C 
ATOM     15  O   UNL     1       1.188   2.889   1.944  1.00  0.00    -0.366 OA
BRANCH  10  16
ATOM     16  C   UNL     1       1.284  -0.535   3.451  1.00  0.00     0.363 C 
BRANCH  16  17
ATOM     17  C   UNL     1       1.321  -2.035   3.030  1.00  0.00     0.277 C 
ATOM     18  O   UNL     1       2.126  -2.804   3.569  1.00  0.00    -0.268 OA
BRANCH  17  19
ATOM     19  N   UNL     1       0.386  -2.522   2.117  1.00  0.00    -0.333 N 
ATOM     20  C   UNL     1       0.174  -1.122  -1.384  1.00  0.00     0.040 C 
ATOM     21  C   UNL     1       0.528  -2.054  -0.237  1.00  0.00     0.134 C 
ATOM     22  C   UNL     1      -0.247  -1.742   1.059  1.00  0.00     0.151 C 
ATOM     23  O   UNL     1       0.278  -3.425  -0.596  1.00  0.00    -0.375 OA
ATOM     24  C   UNL     1       0.800  -4.305   0.427  1.00  0.00     0.182 C 
ATOM     25  C   UNL     1       0.284  -3.962   1.843  1.00  0.00     0.148 C 
ENDBRANCH  17  19
ENDBRANCH  16  17
ENDBRANCH  10  16
ENDBRANCH   8   9
ENDBRANCH   5   8
ENDBRANCH   3   4
ENDBRANCH   2   3
ENDBRANCH   1   2
BRANCH   1  26
ATOM     26  C   UNL     1      -1.687   3.482   8.520  1.00  0.00     0.002 C 
BRANCH  26  27
ATOM     27  C   UNL     1      -3.177   3.452   8.178  1.00  0.00     0.021 C 
BRANCH  27  28
ATOM     28  C   UNL     1      -3.869   2.137   8.524  1.00  0.00     0.116 C 
BRANCH  28  29
ATOM     29  N   UNL     1      -3.822   1.859   9.953  1.00  0.00    -0.352 N 
ATOM     30  C   UNL     1      -4.860   1.670  10.831  1.00  0.00     0.251 C 
ATOM     31  H   UNL     1      -2.921   1.799  10.344  1.00  0.00     0.163 HD
ATOM     32  O   UNL     1      -4.656   1.657  12.042  1.00  0.00    -0.269 OA
BRANCH  30  33
ATOM     33  C   UNL     1      -6.229   1.502  10.304  1.00  0.00     0.039 A 
ATOM     34  C   UNL     1      -7.265   2.267  10.844  1.00  0.00     0.014 A 
ATOM     35  C   UNL     1      -6.475   0.617   9.251  1.00  0.00     0.014 A 
ATOM     36  C   UNL     1      -8.536   2.206  10.270  1.00  0.00     0.010 A 
ATOM     37  C   UNL     1      -7.723   0.609   8.637  1.00  0.00     0.010 A 
ATOM     38  C   UNL     1      -8.762   1.413   9.132  1.00  0.00    -0.014 A 
BRANCH  38  39
ATOM     39  C   UNL     1     -10.055   1.452   8.403  1.00  0.00     0.031 A 
ATOM     40  C   UNL     1     -10.895   0.212   8.277  1.00  0.00     0.074 A 
ATOM     41  C   UNL     1     -10.410   2.578   7.751  1.00  0.00     0.049 A 
ATOM     42  N   UNL     1     -11.989   0.027   7.586  1.00  0.00    -0.248 NA
ATOM     43  C   UNL     1     -10.431  -0.983   9.001  1.00  0.00     0.031 C 
ATOM     44  C   UNL     1      -9.642   3.825   7.738  1.00  0.00     0.029 A 
ATOM     45  N   UNL     1     -11.486   2.843   6.940  1.00  0.00    -0.354 N 
ATOM     46  C   UNL     1     -12.326  -1.310   7.760  1.00  0.00     0.074 A 
ATOM     47  C   UNL     1     -11.307  -1.895   8.604  1.00  0.00     0.031 C 
ATOM     48  C   UNL     1     -10.264   4.717   6.952  1.00  0.00     0.029 A 
ATOM     49  C   UNL     1     -11.448   4.095   6.369  1.00  0.00     0.049 A 
ATOM     50  H   UNL     1     -12.214   2.200   6.782  1.00  0.00     0.167 HD
ATOM     51  C   UNL     1     -13.396  -1.983   7.276  1.00  0.00     0.034 A 
ATOM     52  C   UNL     1     -12.257   4.670   5.457  1.00  0.00     0.034 A 
ATOM     53  C   UNL     1     -14.422  -1.388   6.461  1.00  0.00     0.049 A 
ATOM     54  C   UNL     1     -13.443   3.901   4.942  1.00  0.00     0.074 A 
ATOM     55  C   UNL     1     -15.596  -1.963   6.005  1.00  0.00     0.029 A 
ATOM     56  N   UNL     1     -14.391  -0.095   5.963  1.00  0.00    -0.354 N 
ATOM     57  N   UNL     1     -13.837   2.689   5.250  1.00  0.00    -0.248 NA
ATOM     58  C   UNL     1     -14.312   4.586   3.974  1.00  0.00     0.031 C 
ATOM     59  C   UNL     1     -16.253  -1.030   5.197  1.00  0.00     0.029 A 
ATOM     60  C   UNL     1     -15.509   0.138   5.181  1.00  0.00     0.049 A 
ATOM     61  H   UNL     1     -13.678   0.561   6.140  1.00  0.00     0.167 HD
ATOM     62  C   UNL     1     -15.011   2.477   4.537  1.00  0.00     0.074 A 
ATOM     63  C   UNL     1     -15.279   3.695   3.801  1.00  0.00     0.031 C 
ATOM     64  C   UNL     1     -15.788   1.368   4.485  1.00  0.00     0.034 A 
BRANCH  51  65
ATOM     65  C   UNL     1     -13.537  -3.437   7.640  1.00  0.00     0.023 A 
ATOM     66  C   UNL     1     -13.878  -3.798   8.959  1.00  0.00     0.012 A 
ATOM     67  C   UNL     1     -13.404  -4.441   6.661  1.00  0.00     0.148 A 
ATOM     68  C   UNL     1     -14.053  -5.137   9.306  1.00  0.00     0.002 A 
ATOM     69  C   UNL     1     -13.626  -5.770   7.004  1.00  0.00     0.091 A 
ATOM     70  F   UNL     1     -13.060  -4.080   5.417  1.00  0.00    -0.205 F 
ATOM     71  C   UNL     1     -13.939  -6.120   8.328  1.00  0.00     0.022 A 
BRANCH  69  72
ATOM     72  S   UNL     1     -13.581  -7.102   5.800  1.00  0.00     0.127 S 
ATOM     73  O   UNL     1     -12.378  -7.827   6.208  1.00  0.00    -0.237 OA
ATOM     74  O   UNL     1     -14.836  -7.803   6.072  1.00  0.00    -0.237 OA
ATOM     75  O   UNL     1     -13.510  -6.463   4.494  1.00  0.00    -0.744 OA
ENDBRANCH  69  72
ENDBRANCH  51  65
BRANCH  52  76
ATOM     76  C   UNL     1     -11.985   6.059   4.991  1.00  0.00     0.023 A 
ATOM     77  C   UNL     1     -12.862   7.098   5.354  1.00  0.00     0.012 A 
ATOM     78  C   UNL     1     -10.851   6.358   4.211  1.00  0.00     0.148 A 
ATOM     79  C   UNL     1     -12.633   8.405   4.921  1.00  0.00     0.002 A 
ATOM     80  C   UNL     1     -10.597   7.671   3.833  1.00  0.00     0.091 A 
ATOM     81  F   UNL     1     -10.034   5.352   3.866  1.00  0.00    -0.205 F 
ATOM     82  C   UNL     1     -11.497   8.693   4.171  1.00  0.00     0.022 A 
BRANCH  80  83
ATOM     83  S   UNL     1      -9.089   8.152   2.983  1.00  0.00     0.127 S 
ATOM     84  O   UNL     1      -9.592   8.504   1.658  1.00  0.00    -0.237 OA
ATOM     85  O   UNL     1      -8.636   9.284   3.792  1.00  0.00    -0.237 OA
ATOM     86  O   UNL     1      -8.216   6.988   3.039  1.00  0.00    -0.744 OA
ENDBRANCH  80  83
ENDBRANCH  52  76
BRANCH  64  87
ATOM     87  C   UNL     1     -17.021   1.415   3.620  1.00  0.00     0.023 A 
ATOM     88  C   UNL     1     -16.895   1.391   2.217  1.00  0.00     0.012 A 
ATOM     89  C   UNL     1     -18.306   1.397   4.199  1.00  0.00     0.148 A 
ATOM     90  C   UNL     1     -18.027   1.375   1.404  1.00  0.00     0.002 A 
ATOM     91  C   UNL     1     -19.429   1.329   3.384  1.00  0.00     0.091 A 
ATOM     92  F   UNL     1     -18.404   1.435   5.536  1.00  0.00    -0.205 F 
ATOM     93  C   UNL     1     -19.292   1.331   1.986  1.00  0.00     0.022 A 
BRANCH  91  94
ATOM     94  S   UNL     1     -21.094   1.173   4.039  1.00  0.00     0.127 S 
ATOM     95  O   UNL     1     -21.684   2.457   3.662  1.00  0.00    -0.237 OA
ATOM     96  O   UNL     1     -21.610   0.023   3.297  1.00  0.00    -0.237 OA
ATOM     97  O   UNL     1     -20.946   0.956   5.472  1.00  0.00    -0.744 OA
ENDBRANCH  91  94
ENDBRANCH  64  87
ENDBRANCH  38  39
ENDBRANCH  30  33
ENDBRANCH  28  29
ENDBRANCH  27  28
ENDBRANCH  26  27
ENDBRANCH   1  26
TORSDOF 20
