REMARK SMILES COc1ccc([C@H]2CC(c3ccc(S(C)(=O)=O)cc3)=NN2c2ccc(C(=O)NCCCCCCNC(=O)c3ccc(-c4c5nc(c(-c6cccc(S(=O)(=O)[O-])c6F)c6ccc([nH]6)c(-c6cccc(S(=O)(=O)[O-])c6F)c6nc(c(-c7cccc(S(=O)(=O)[O-])c7F)c7ccc4[nH]7)C=C6)C=C5)cc3)cc2)cc1
REMARK SMILES IDX 31 1 30 2 29 3 28 4 26 5 27 6 25 8 22 9 23 10 102 11 24 12
REMARK SMILES IDX 101 13 21 14 7 15 8 16 9 17 20 18 6 19 3 20 4 21 104 22 5 23
REMARK SMILES IDX 103 24 2 25 1 26 10 27 11 28 19 29 12 30 18 31 13 32 14 33
REMARK SMILES IDX 15 34 16 35 17 36 32 37 33 38 34 39 35 40 36 41 37 43 38 44
REMARK SMILES IDX 39 45 100 46 40 47 99 48 41 49 42 50 43 51 93 52 44 53 98 54
REMARK SMILES IDX 92 55 94 56 45 57 97 58 91 59 90 60 46 62 78 63 58 64 77 65
REMARK SMILES IDX 59 66 62 67 76 68 95 69 60 70 61 71 75 73 96 74 63 75 47 76
REMARK SMILES IDX 48 77 56 78 49 79 51 80 57 81 50 82 52 83 53 84 54 85 55 86
REMARK SMILES IDX 79 87 80 88 88 89 81 90 83 91 89 92 82 93 84 94 85 95 86 96
REMARK SMILES IDX 87 97 64 98 65 99 73 100 66 101 68 102 74 103 67 104 69 105
REMARK SMILES IDX 70 106 71 107 72 108
REMARK H PARENT 28 7 35 42 94 61 62 72
REMARK Flexibility Score: inf
ROOT
ATOM      1  C   UNL     1       1.023   1.258  -9.791  1.00  0.00     0.002 C 
ENDROOT
BRANCH   1   2
ATOM      2  C   UNL     1       1.069   2.276  -8.643  1.00  0.00     0.021 C 
BRANCH   2   3
ATOM      3  C   UNL     1       1.318   1.626  -7.280  1.00  0.00     0.116 C 
BRANCH   3   4
ATOM      4  N   UNL     1       2.720   1.271  -7.162  1.00  0.00    -0.352 N 
ATOM      5  C   UNL     1       3.785   1.901  -6.577  1.00  0.00     0.251 C 
ATOM      6  O   UNL     1       4.891   1.369  -6.695  1.00  0.00    -0.269 OA
ATOM      7  H   UNL     1       2.949   0.412  -7.585  1.00  0.00     0.163 HD
BRANCH   5   8
ATOM      8  C   UNL     1       3.656   3.133  -5.749  1.00  0.00     0.039 A 
ATOM      9  C   UNL     1       3.443   5.256  -3.903  1.00  0.00     0.060 A 
ATOM     10  C   UNL     1       4.529   4.378  -3.857  1.00  0.00     0.029 A 
ATOM     11  C   UNL     1       2.525   5.124  -4.945  1.00  0.00     0.029 A 
ATOM     12  C   UNL     1       4.621   3.311  -4.750  1.00  0.00     0.016 A 
ATOM     13  C   UNL     1       2.658   4.099  -5.888  1.00  0.00     0.016 A 
BRANCH   9  14
ATOM     14  N   UNL     1       3.281   6.183  -2.891  1.00  0.00    -0.257 N 
ATOM     15  C   UNL     1       2.079   6.327  -2.063  1.00  0.00     0.144 C 
ATOM     16  C   UNL     1       2.564   7.332  -1.006  1.00  0.00     0.091 C 
ATOM     17  C   UNL     1       3.732   7.909  -1.764  1.00  0.00     0.071 C 
ATOM     18  N   UNL     1       4.150   7.211  -2.773  1.00  0.00    -0.176 NA
BRANCH  15  19
ATOM     19  C   UNL     1       1.591   4.988  -1.535  1.00  0.00    -0.023 A 
ATOM     20  C   UNL     1       0.759   2.353  -0.928  1.00  0.00     0.118 A 
ATOM     21  C   UNL     1      -0.122   3.260  -1.518  1.00  0.00     0.047 A 
ATOM     22  C   UNL     1       2.048   2.773  -0.606  1.00  0.00     0.047 A 
ATOM     23  C   UNL     1       0.282   4.566  -1.813  1.00  0.00     0.010 A 
ATOM     24  C   UNL     1       2.457   4.082  -0.898  1.00  0.00     0.010 A 
BRANCH  20  25
ATOM     25  O   UNL     1       0.259   1.091  -0.768  1.00  0.00    -0.497 OA
ATOM     26  C   UNL     1       0.967   0.224   0.106  1.00  0.00     0.278 C 
ENDBRANCH  20  25
ENDBRANCH  15  19
BRANCH  17  27
ATOM     27  C   UNL     1       4.370   9.179  -1.404  1.00  0.00    -0.002 A 
ATOM     28  C   UNL     1       4.546  10.128  -2.420  1.00  0.00     0.011 A 
ATOM     29  C   UNL     1       4.877   9.398  -0.123  1.00  0.00     0.011 A 
ATOM     30  C   UNL     1       5.237  11.309  -2.159  1.00  0.00     0.021 A 
ATOM     31  C   UNL     1       5.596  10.570   0.134  1.00  0.00     0.021 A 
ATOM     32  C   UNL     1       5.780  11.512  -0.887  1.00  0.00     0.067 A 
BRANCH  32  33
ATOM     33  S   UNL     1       6.729  12.985  -0.584  1.00  0.00     0.175 S 
ATOM     34  C   UNL     1       8.063  12.898  -1.751  1.00  0.00     0.163 C 
ATOM     35  O   UNL     1       5.886  14.110  -0.934  1.00  0.00    -0.224 OA
ATOM     36  O   UNL     1       7.309  12.869   0.742  1.00  0.00    -0.224 OA
ENDBRANCH  32  33
ENDBRANCH  17  27
ENDBRANCH   9  14
ENDBRANCH   5   8
ENDBRANCH   3   4
ENDBRANCH   2   3
ENDBRANCH   1   2
BRANCH   1  37
ATOM     37  C   UNL     1      -0.132   0.253  -9.705  1.00  0.00     0.002 C 
BRANCH  37  38
ATOM     38  C   UNL     1      -1.525   0.883  -9.611  1.00  0.00     0.021 C 
BRANCH  38  39
ATOM     39  C   UNL     1      -1.900   1.754 -10.806  1.00  0.00     0.116 C 
BRANCH  39  40
ATOM     40  N   UNL     1      -1.989   0.970 -12.030  1.00  0.00    -0.352 N 
ATOM     41  C   UNL     1      -3.043   0.841 -12.899  1.00  0.00     0.251 C 
ATOM     42  H   UNL     1      -1.180   0.462 -12.267  1.00  0.00     0.163 HD
ATOM     43  O   UNL     1      -3.034  -0.045 -13.748  1.00  0.00    -0.269 OA
BRANCH  41  44
ATOM     44  C   UNL     1      -4.190   1.768 -12.802  1.00  0.00     0.039 A 
ATOM     45  C   UNL     1      -5.487   1.255 -12.880  1.00  0.00     0.014 A 
ATOM     46  C   UNL     1      -3.984   3.143 -12.653  1.00  0.00     0.014 A 
ATOM     47  C   UNL     1      -6.580   2.117 -12.759  1.00  0.00     0.010 A 
ATOM     48  C   UNL     1      -5.072   3.990 -12.467  1.00  0.00     0.010 A 
ATOM     49  C   UNL     1      -6.381   3.488 -12.527  1.00  0.00    -0.014 A 
BRANCH  49  50
ATOM     50  C   UNL     1      -7.529   4.412 -12.336  1.00  0.00     0.031 A 
ATOM     51  C   UNL     1      -7.771   5.531 -13.313  1.00  0.00     0.074 A 
ATOM     52  C   UNL     1      -8.296   4.299 -11.233  1.00  0.00     0.049 A 
ATOM     53  N   UNL     1      -8.680   6.471 -13.279  1.00  0.00    -0.248 NA
ATOM     54  C   UNL     1      -6.859   5.625 -14.467  1.00  0.00     0.031 C 
ATOM     55  C   UNL     1      -8.109   3.309 -10.169  1.00  0.00     0.029 A 
ATOM     56  N   UNL     1      -9.366   5.044 -10.805  1.00  0.00    -0.354 N 
ATOM     57  C   UNL     1      -8.424   7.289 -14.373  1.00  0.00     0.074 A 
ATOM     58  C   UNL     1      -7.263   6.749 -15.043  1.00  0.00     0.031 C 
ATOM     59  C   UNL     1      -9.028   3.512  -9.211  1.00  0.00     0.029 A 
ATOM     60  C   UNL     1      -9.852   4.659  -9.577  1.00  0.00     0.049 A 
ATOM     61  H   UNL     1      -9.750   5.785 -11.328  1.00  0.00     0.167 HD
ATOM     62  C   UNL     1      -9.111   8.377 -14.795  1.00  0.00     0.034 A 
ATOM     63  C   UNL     1     -10.843   5.178  -8.825  1.00  0.00     0.034 A 
ATOM     64  C   UNL     1     -10.302   8.874 -14.162  1.00  0.00     0.049 A 
ATOM     65  C   UNL     1     -11.626   6.350  -9.356  1.00  0.00     0.074 A 
ATOM     66  C   UNL     1     -11.132   9.899 -14.581  1.00  0.00     0.029 A 
ATOM     67  N   UNL     1     -10.830   8.389 -12.977  1.00  0.00    -0.354 N 
ATOM     68  N   UNL     1     -11.480   6.995 -10.488  1.00  0.00    -0.248 NA
ATOM     69  C   UNL     1     -12.735   6.841  -8.525  1.00  0.00     0.031 C 
ATOM     70  C   UNL     1     -12.151  10.050 -13.635  1.00  0.00     0.029 A 
ATOM     71  C   UNL     1     -11.968   9.101 -12.642  1.00  0.00     0.049 A 
ATOM     72  H   UNL     1     -10.452   7.647 -12.452  1.00  0.00     0.167 HD
ATOM     73  C   UNL     1     -12.501   7.938 -10.523  1.00  0.00     0.074 A 
ATOM     74  C   UNL     1     -13.271   7.766  -9.310  1.00  0.00     0.031 C 
ATOM     75  C   UNL     1     -12.765   8.875 -11.465  1.00  0.00     0.034 A 
BRANCH  62  76
ATOM     76  C   UNL     1      -8.634   9.082 -16.038  1.00  0.00     0.023 A 
ATOM     77  C   UNL     1      -8.841   8.485 -17.298  1.00  0.00     0.012 A 
ATOM     78  C   UNL     1      -8.081  10.376 -15.966  1.00  0.00     0.148 A 
ATOM     79  C   UNL     1      -8.488   9.157 -18.467  1.00  0.00     0.002 A 
ATOM     80  C   UNL     1      -7.771  11.056 -17.137  1.00  0.00     0.091 A 
ATOM     81  F   UNL     1      -7.877  10.916 -14.756  1.00  0.00    -0.205 F 
ATOM     82  C   UNL     1      -7.966  10.446 -18.387  1.00  0.00     0.022 A 
BRANCH  80  83
ATOM     83  S   UNL     1      -7.170  12.749 -17.148  1.00  0.00     0.127 S 
ATOM     84  O   UNL     1      -5.809  12.575 -17.656  1.00  0.00    -0.237 OA
ATOM     85  O   UNL     1      -8.091  13.395 -18.083  1.00  0.00    -0.237 OA
ATOM     86  O   UNL     1      -7.263  13.220 -15.774  1.00  0.00    -0.744 OA
ENDBRANCH  80  83
ENDBRANCH  62  76
BRANCH  63  87
ATOM     87  C   UNL     1     -11.195   4.563  -7.513  1.00  0.00     0.023 A 
ATOM     88  C   UNL     1     -12.425   3.892  -7.371  1.00  0.00     0.012 A 
ATOM     89  C   UNL     1     -10.324   4.638  -6.410  1.00  0.00     0.148 A 
ATOM     90  C   UNL     1     -12.802   3.348  -6.142  1.00  0.00     0.002 A 
ATOM     91  C   UNL     1     -10.680   4.044  -5.204  1.00  0.00     0.091 A 
ATOM     92  F   UNL     1      -9.163   5.293  -6.557  1.00  0.00    -0.205 F 
ATOM     93  C   UNL     1     -11.926   3.416  -5.062  1.00  0.00     0.022 A 
BRANCH  91  94
ATOM     94  S   UNL     1      -9.550   3.973  -3.809  1.00  0.00     0.127 S 
ATOM     95  O   UNL     1     -10.074   5.027  -2.945  1.00  0.00    -0.237 OA
ATOM     96  O   UNL     1      -9.756   2.611  -3.315  1.00  0.00    -0.237 OA
ATOM     97  O   UNL     1      -8.227   4.207  -4.373  1.00  0.00    -0.744 OA
ENDBRANCH  91  94
ENDBRANCH  63  87
BRANCH  75  98
ATOM     98  C   UNL     1     -13.963   9.763 -11.255  1.00  0.00     0.023 A 
ATOM     99  C   UNL     1     -13.922  10.773 -10.274  1.00  0.00     0.012 A 
ATOM    100  C   UNL     1     -15.096   9.647 -12.084  1.00  0.00     0.148 A 
ATOM    101  C   UNL     1     -15.005  11.634 -10.099  1.00  0.00     0.002 A 
ATOM    102  C   UNL     1     -16.150  10.540 -11.937  1.00  0.00     0.091 A 
ATOM    103  F   UNL     1     -15.122   8.668 -12.999  1.00  0.00    -0.205 F 
ATOM    104  C   UNL     1     -16.112  11.526 -10.938  1.00  0.00     0.022 A 
BRANCH 102 105
ATOM    105  S   UNL     1     -17.571  10.538 -13.037  1.00  0.00     0.127 S 
ATOM    106  O   UNL     1     -18.611   9.974 -12.178  1.00  0.00    -0.237 OA
ATOM    107  O   UNL     1     -17.733  11.961 -13.338  1.00  0.00    -0.237 OA
ATOM    108  O   UNL     1     -17.191   9.719 -14.180  1.00  0.00    -0.744 OA
ENDBRANCH 102 105
ENDBRANCH  75  98
ENDBRANCH  49  50
ENDBRANCH  41  44
ENDBRANCH  39  40
ENDBRANCH  38  39
ENDBRANCH  37  38
ENDBRANCH   1  37
TORSDOF 21
