REMARK SMILES C[C@@]1(C(=O)NCCCCCCNC(=O)c2ccc(-c3c4nc(c(-c5cccc(S(=O)(=O)[O-])c5F)c5ccc([nH]5)c(-c5cccc(S(=O)(=O)[O-])c5F)c5nc(c(-c6cccc(S(=O)(=O)[O-])c6F)c6ccc3[nH]6)C=C5)C=C4)cc2)COC[C@H]1NC(=O)C[C@@H]1C[NH2+]CCO1
REMARK SMILES IDX 8 1 7 2 6 3 5 4 3 5 4 6 2 8 1 9 78 10 81 11 79 12 80 13
REMARK SMILES IDX 82 14 83 15 84 17 85 18 86 19 87 20 91 21 88 22 90 23 89 24
REMARK SMILES IDX 9 27 10 28 11 29 12 30 13 31 14 33 15 34 16 35 77 36 17 37
REMARK SMILES IDX 76 38 18 39 19 40 20 41 70 42 21 43 75 44 69 45 71 46 22 47
REMARK SMILES IDX 74 48 68 49 67 50 23 52 55 53 35 54 54 55 36 56 39 57 53 58
REMARK SMILES IDX 72 59 37 60 38 61 52 63 73 64 40 65 24 66 25 67 33 68 26 69
REMARK SMILES IDX 28 70 34 71 27 72 29 73 30 74 31 75 32 76 56 77 57 78 65 79
REMARK SMILES IDX 58 80 60 81 66 82 59 83 61 84 62 85 63 86 64 87 41 88 42 89
REMARK SMILES IDX 50 90 43 91 45 92 51 93 44 94 46 95 47 96 48 97 49 98
REMARK H PARENT 5 7 82 16 88 25 88 26 12 32 71 51 39 62
REMARK Flexibility Score: inf
ROOT
ATOM      1  C   UNL     1       0.306   0.043  -6.378  1.00  0.00     0.002 C 
ENDROOT
BRANCH   1   2
ATOM      2  C   UNL     1      -0.497  -0.410  -5.155  1.00  0.00     0.021 C 
BRANCH   2   3
ATOM      3  C   UNL     1       0.233  -1.393  -4.245  1.00  0.00     0.116 C 
BRANCH   3   4
ATOM      4  N   UNL     1       1.236  -0.748  -3.425  1.00  0.00    -0.355 N 
ATOM      5  C   UNL     1       1.434  -0.721  -2.081  1.00  0.00     0.230 C 
ATOM      6  O   UNL     1       2.526  -0.261  -1.730  1.00  0.00    -0.274 OA
ATOM      7  H   UNL     1       1.900  -0.232  -3.938  1.00  0.00     0.163 HD
BRANCH   5   8
ATOM      8  C   UNL     1       0.395  -1.206  -1.036  1.00  0.00     0.092 C 
ATOM      9  C   UNL     1       0.960  -0.921   0.377  1.00  0.00     0.026 C 
ATOM     10  C   UNL     1       0.230  -2.718  -1.163  1.00  0.00     0.179 C 
ATOM     11  C   UNL     1      -1.020  -0.619  -1.273  1.00  0.00     0.125 C 
ATOM     12  O   UNL     1      -1.061  -2.990  -1.705  1.00  0.00    -0.378 OA
ATOM     13  C   UNL     1      -1.901  -1.851  -1.518  1.00  0.00     0.186 C 
BRANCH  11  14
ATOM     14  N   UNL     1      -1.584   0.184  -0.172  1.00  0.00    -0.350 N 
ATOM     15  C   UNL     1      -2.068   1.461  -0.123  1.00  0.00     0.223 C 
ATOM     16  H   UNL     1      -1.618  -0.289   0.691  1.00  0.00     0.163 HD
ATOM     17  O   UNL     1      -2.592   1.829   0.929  1.00  0.00    -0.275 OA
BRANCH  15  18
ATOM     18  C   UNL     1      -1.952   2.400  -1.312  1.00  0.00     0.138 C 
BRANCH  18  19
ATOM     19  C   UNL     1      -0.592   3.103  -1.483  1.00  0.00     0.182 C 
ATOM     20  C   UNL     1       0.565   2.413  -0.750  1.00  0.00     0.293 C 
ATOM     21  O   UNL     1      -0.670   4.478  -1.052  1.00  0.00    -0.366 OA
ATOM     22  N   UNL     1       1.872   3.054  -0.932  1.00  0.00    -0.342 N 
ATOM     23  C   UNL     1       0.584   5.151  -1.273  1.00  0.00     0.222 C 
ATOM     24  C   UNL     1       1.746   4.459  -0.545  1.00  0.00     0.289 C 
ATOM     25  H   UNL     1       2.156   2.988  -1.909  1.00  0.00     0.346 HD
ATOM     26  H   UNL     1       2.575   2.591  -0.357  1.00  0.00     0.346 HD
ENDBRANCH  18  19
ENDBRANCH  15  18
ENDBRANCH  11  14
ENDBRANCH   5   8
ENDBRANCH   3   4
ENDBRANCH   2   3
ENDBRANCH   1   2
BRANCH   1  27
ATOM     27  C   UNL     1       0.884  -1.088  -7.237  1.00  0.00     0.002 C 
BRANCH  27  28
ATOM     28  C   UNL     1      -0.113  -2.176  -7.649  1.00  0.00     0.021 C 
BRANCH  28  29
ATOM     29  C   UNL     1      -1.306  -1.674  -8.454  1.00  0.00     0.116 C 
BRANCH  29  30
ATOM     30  N   UNL     1      -0.895  -1.090  -9.720  1.00  0.00    -0.352 N 
ATOM     31  C   UNL     1      -1.278  -1.430 -10.992  1.00  0.00     0.251 C 
ATOM     32  H   UNL     1      -0.253  -0.347  -9.656  1.00  0.00     0.163 HD
ATOM     33  O   UNL     1      -0.659  -0.982 -11.959  1.00  0.00    -0.269 OA
BRANCH  31  34
ATOM     34  C   UNL     1      -2.424  -2.339 -11.199  1.00  0.00     0.039 A 
ATOM     35  C   UNL     1      -2.317  -3.363 -12.143  1.00  0.00     0.014 A 
ATOM     36  C   UNL     1      -3.604  -2.176 -10.467  1.00  0.00     0.014 A 
ATOM     37  C   UNL     1      -3.378  -4.255 -12.316  1.00  0.00     0.010 A 
ATOM     38  C   UNL     1      -4.627  -3.112 -10.585  1.00  0.00     0.010 A 
ATOM     39  C   UNL     1      -4.530  -4.155 -11.519  1.00  0.00    -0.014 A 
BRANCH  39  40
ATOM     40  C   UNL     1      -5.643  -5.131 -11.646  1.00  0.00     0.031 A 
ATOM     41  C   UNL     1      -7.010  -4.670 -12.075  1.00  0.00     0.074 A 
ATOM     42  C   UNL     1      -5.440  -6.419 -11.304  1.00  0.00     0.049 A 
ATOM     43  N   UNL     1      -8.114  -5.361 -12.192  1.00  0.00    -0.248 NA
ATOM     44  C   UNL     1      -7.164  -3.239 -12.391  1.00  0.00     0.031 C 
ATOM     45  C   UNL     1      -4.179  -6.975 -10.808  1.00  0.00     0.029 A 
ATOM     46  N   UNL     1      -6.298  -7.490 -11.300  1.00  0.00    -0.354 N 
ATOM     47  C   UNL     1      -9.095  -4.451 -12.566  1.00  0.00     0.074 A 
ATOM     48  C   UNL     1      -8.467  -3.149 -12.616  1.00  0.00     0.031 C 
ATOM     49  C   UNL     1      -4.342  -8.284 -10.558  1.00  0.00     0.029 A 
ATOM     50  C   UNL     1      -5.726  -8.654 -10.839  1.00  0.00     0.049 A 
ATOM     51  H   UNL     1      -7.234  -7.432 -11.598  1.00  0.00     0.167 HD
ATOM     52  C   UNL     1     -10.395  -4.680 -12.873  1.00  0.00     0.034 A 
ATOM     53  C   UNL     1      -6.258  -9.878 -10.655  1.00  0.00     0.034 A 
ATOM     54  C   UNL     1     -11.008  -5.980 -12.852  1.00  0.00     0.049 A 
ATOM     55  C   UNL     1      -7.702 -10.106 -11.013  1.00  0.00     0.074 A 
ATOM     56  C   UNL     1     -12.299  -6.328 -13.209  1.00  0.00     0.029 A 
ATOM     57  N   UNL     1     -10.379  -7.146 -12.444  1.00  0.00    -0.354 N 
ATOM     58  N   UNL     1      -8.576  -9.260 -11.501  1.00  0.00    -0.248 NA
ATOM     59  C   UNL     1      -8.224 -11.467 -10.827  1.00  0.00     0.031 C 
ATOM     60  C   UNL     1     -12.459  -7.700 -12.990  1.00  0.00     0.029 A 
ATOM     61  C   UNL     1     -11.256  -8.213 -12.532  1.00  0.00     0.049 A 
ATOM     62  H   UNL     1      -9.445  -7.206 -12.138  1.00  0.00     0.167 HD
ATOM     63  C   UNL     1      -9.736  -9.994 -11.721  1.00  0.00     0.074 A 
ATOM     64  C   UNL     1      -9.446 -11.358 -11.331  1.00  0.00     0.031 C 
ATOM     65  C   UNL     1     -10.937  -9.576 -12.192  1.00  0.00     0.034 A 
BRANCH  52  66
ATOM     66  C   UNL     1     -11.230  -3.502 -13.308  1.00  0.00     0.023 A 
ATOM     67  C   UNL     1     -10.985  -2.901 -14.560  1.00  0.00     0.012 A 
ATOM     68  C   UNL     1     -12.291  -3.029 -12.512  1.00  0.00     0.148 A 
ATOM     69  C   UNL     1     -11.756  -1.825 -14.996  1.00  0.00     0.002 A 
ATOM     70  C   UNL     1     -13.086  -1.987 -12.975  1.00  0.00     0.091 A 
ATOM     71  F   UNL     1     -12.498  -3.600 -11.317  1.00  0.00    -0.205 F 
ATOM     72  C   UNL     1     -12.812  -1.375 -14.209  1.00  0.00     0.022 A 
BRANCH  70  73
ATOM     73  S   UNL     1     -14.520  -1.385 -12.075  1.00  0.00     0.127 S 
ATOM     74  O   UNL     1     -14.076  -0.051 -11.672  1.00  0.00    -0.237 OA
ATOM     75  O   UNL     1     -15.556  -1.397 -13.108  1.00  0.00    -0.237 OA
ATOM     76  O   UNL     1     -14.735  -2.325 -10.985  1.00  0.00    -0.744 OA
ENDBRANCH  70  73
ENDBRANCH  52  66
BRANCH  53  77
ATOM     77  C   UNL     1      -5.410 -10.999 -10.159  1.00  0.00     0.023 A 
ATOM     78  C   UNL     1      -5.104 -12.070 -11.023  1.00  0.00     0.012 A 
ATOM     79  C   UNL     1      -4.904 -11.012  -8.846  1.00  0.00     0.148 A 
ATOM     80  C   UNL     1      -4.345 -13.151 -10.575  1.00  0.00     0.002 A 
ATOM     81  C   UNL     1      -4.100 -12.064  -8.424  1.00  0.00     0.091 A 
ATOM     82  F   UNL     1      -5.213  -9.989  -8.036  1.00  0.00    -0.205 F 
ATOM     83  C   UNL     1      -3.836 -13.145  -9.279  1.00  0.00     0.022 A 
BRANCH  81  84
ATOM     84  S   UNL     1      -3.297 -12.078  -6.817  1.00  0.00     0.127 S 
ATOM     85  O   UNL     1      -4.028 -13.137  -6.126  1.00  0.00    -0.237 OA
ATOM     86  O   UNL     1      -1.917 -12.411  -7.173  1.00  0.00    -0.237 OA
ATOM     87  O   UNL     1      -3.470 -10.735  -6.280  1.00  0.00    -0.744 OA
ENDBRANCH  81  84
ENDBRANCH  53  77
BRANCH  65  88
ATOM     88  C   UNL     1     -12.019 -10.610 -12.363  1.00  0.00     0.023 A 
ATOM     89  C   UNL     1     -12.644 -11.174 -11.233  1.00  0.00     0.012 A 
ATOM     90  C   UNL     1     -12.464 -10.971 -13.651  1.00  0.00     0.148 A 
ATOM     91  C   UNL     1     -13.668 -12.107 -11.382  1.00  0.00     0.002 A 
ATOM     92  C   UNL     1     -13.521 -11.861 -13.791  1.00  0.00     0.091 A 
ATOM     93  F   UNL     1     -11.846 -10.436 -14.714  1.00  0.00    -0.205 F 
ATOM     94  C   UNL     1     -14.115 -12.441 -12.659  1.00  0.00     0.022 A 
BRANCH  92  95
ATOM     95  S   UNL     1     -14.230 -12.273 -15.389  1.00  0.00     0.127 S 
ATOM     96  O   UNL     1     -13.805 -13.662 -15.554  1.00  0.00    -0.237 OA
ATOM     97  O   UNL     1     -15.662 -12.098 -15.146  1.00  0.00    -0.237 OA
ATOM     98  O   UNL     1     -13.658 -11.329 -16.340  1.00  0.00    -0.744 OA
ENDBRANCH  92  95
ENDBRANCH  65  88
ENDBRANCH  39  40
ENDBRANCH  31  34
ENDBRANCH  29  30
ENDBRANCH  28  29
ENDBRANCH  27  28
ENDBRANCH   1  27
TORSDOF 19
