REMARK SMILES Cc1ccc(NC(=O)C[C@@H](C(=O)NCCCCCCNC(=O)c2ccc(-c3c4nc(c(-c5cccc(S(=O)(=O)[O-])c5F)c5ccc([nH]5)c(-c5cccc(S(=O)(=O)[O-])c5F)c5nc(c(-c6cccc(S(=O)(=O)[O-])c6F)c6ccc3[nH]6)C=C5)C=C4)cc2)[NH+]2CCOCC2)cc1
REMARK SMILES IDX 16 1 15 2 14 3 13 4 11 5 12 6 10 8 9 9 7 10 6 11 8 13 5 14
REMARK SMILES IDX 1 15 2 16 3 17 93 18 4 19 92 20 86 21 87 22 91 23 88 25
REMARK SMILES IDX 90 26 89 27 17 28 18 29 19 30 20 31 21 32 22 34 23 35 24 36
REMARK SMILES IDX 85 37 25 38 84 39 26 40 27 41 28 42 78 43 29 44 83 45 77 46
REMARK SMILES IDX 79 47 30 48 82 49 76 50 75 51 31 53 63 54 43 55 62 56 44 57
REMARK SMILES IDX 47 58 61 59 80 60 45 61 46 62 60 64 81 65 48 66 32 67 33 68
REMARK SMILES IDX 41 69 34 70 36 71 42 72 35 73 37 74 38 75 39 76 40 77 64 78
REMARK SMILES IDX 65 79 73 80 66 81 68 82 74 83 67 84 69 85 70 86 71 87 72 88
REMARK SMILES IDX 49 89 50 90 58 91 51 92 53 93 59 94 52 95 54 96 55 97 56 98
REMARK SMILES IDX 57 99
REMARK H PARENT 13 7 6 12 86 24 20 33 79 52 47 63
REMARK Flexibility Score: inf
ROOT
ATOM      1  C   UNL     1      -2.929   2.520  -0.982  1.00  0.00     0.002 C 
ENDROOT
BRANCH   1   2
ATOM      2  C   UNL     1      -3.866   1.310  -0.814  1.00  0.00     0.021 C 
BRANCH   2   3
ATOM      3  C   UNL     1      -3.666   0.167  -1.816  1.00  0.00     0.116 C 
BRANCH   3   4
ATOM      4  N   UNL     1      -2.272  -0.206  -1.904  1.00  0.00    -0.351 N 
ATOM      5  C   UNL     1      -1.589  -1.355  -1.701  1.00  0.00     0.278 C 
ATOM      6  O   UNL     1      -0.367  -1.245  -1.873  1.00  0.00    -0.268 OA
ATOM      7  H   UNL     1      -1.692   0.543  -2.172  1.00  0.00     0.163 HD
BRANCH   5   8
ATOM      8  C   UNL     1      -2.279  -2.737  -1.434  1.00  0.00     0.283 C 
BRANCH   8   9
ATOM      9  C   UNL     1      -2.846  -2.961  -0.016  1.00  0.00     0.175 C 
BRANCH   9  10
ATOM     10  C   UNL     1      -3.367  -1.812   0.807  1.00  0.00     0.230 C 
ATOM     11  N   UNL     1      -2.556  -0.956   1.494  1.00  0.00    -0.326 N 
ATOM     12  H   UNL     1      -3.020  -0.378   2.141  1.00  0.00     0.169 HD
ATOM     13  O   UNL     1      -4.587  -1.621   0.861  1.00  0.00    -0.274 OA
BRANCH  11  14
ATOM     14  C   UNL     1      -1.167  -0.766   1.427  1.00  0.00     0.041 A 
ATOM     15  C   UNL     1       2.837   0.130   0.175  1.00  0.00     0.044 C 
ATOM     16  C   UNL     1       1.484  -0.163   0.747  1.00  0.00    -0.051 A 
ATOM     17  C   UNL     1       1.079  -1.489   0.914  1.00  0.00     0.005 A 
ATOM     18  C   UNL     1       0.586   0.863   1.051  1.00  0.00     0.005 A 
ATOM     19  C   UNL     1      -0.238  -1.788   1.262  1.00  0.00     0.026 A 
ATOM     20  C   UNL     1      -0.726   0.560   1.421  1.00  0.00     0.026 A 
ENDBRANCH  11  14
ENDBRANCH   9  10
ENDBRANCH   8   9
BRANCH   8  21
ATOM     21  N   UNL     1      -1.295  -3.803  -1.813  1.00  0.00    -0.320 N 
ATOM     22  C   UNL     1      -0.873  -3.793  -3.227  1.00  0.00     0.291 C 
ATOM     23  C   UNL     1      -1.419  -5.176  -1.318  1.00  0.00     0.291 C 
ATOM     24  H   UNL     1      -0.551  -3.445  -1.214  1.00  0.00     0.348 HD
ATOM     25  C   UNL     1      -1.632  -4.791  -4.109  1.00  0.00     0.221 C 
ATOM     26  C   UNL     1      -2.120  -6.154  -2.269  1.00  0.00     0.221 C 
ATOM     27  O   UNL     1      -1.550  -6.118  -3.581  1.00  0.00    -0.370 OA
ENDBRANCH   8  21
ENDBRANCH   5   8
ENDBRANCH   3   4
ENDBRANCH   2   3
ENDBRANCH   1   2
BRANCH   1  28
ATOM     28  C   UNL     1      -3.039   3.280  -2.309  1.00  0.00     0.002 C 
BRANCH  28  29
ATOM     29  C   UNL     1      -4.460   3.628  -2.753  1.00  0.00     0.021 C 
BRANCH  29  30
ATOM     30  C   UNL     1      -5.257   4.379  -1.702  1.00  0.00     0.116 C 
BRANCH  30  31
ATOM     31  N   UNL     1      -5.014   5.801  -1.694  1.00  0.00    -0.352 N 
ATOM     32  C   UNL     1      -5.659   6.795  -0.992  1.00  0.00     0.251 C 
ATOM     33  H   UNL     1      -4.279   6.105  -2.274  1.00  0.00     0.163 HD
ATOM     34  O   UNL     1      -5.494   7.951  -1.394  1.00  0.00    -0.269 OA
BRANCH  32  35
ATOM     35  C   UNL     1      -6.376   6.529   0.289  1.00  0.00     0.039 A 
ATOM     36  C   UNL     1      -6.521   7.606   1.179  1.00  0.00     0.014 A 
ATOM     37  C   UNL     1      -6.679   5.246   0.737  1.00  0.00     0.014 A 
ATOM     38  C   UNL     1      -6.699   7.373   2.540  1.00  0.00     0.010 A 
ATOM     39  C   UNL     1      -6.761   5.001   2.086  1.00  0.00     0.010 A 
ATOM     40  C   UNL     1      -6.690   6.062   2.985  1.00  0.00    -0.014 A 
BRANCH  40  41
ATOM     41  C   UNL     1      -6.616   5.640   4.366  1.00  0.00     0.031 A 
ATOM     42  C   UNL     1      -7.859   5.359   5.097  1.00  0.00     0.074 A 
ATOM     43  C   UNL     1      -5.412   5.228   4.814  1.00  0.00     0.049 A 
ATOM     44  N   UNL     1      -7.893   5.017   6.335  1.00  0.00    -0.248 NA
ATOM     45  C   UNL     1      -9.182   5.463   4.483  1.00  0.00     0.031 C 
ATOM     46  C   UNL     1      -5.110   4.281   5.880  1.00  0.00     0.029 A 
ATOM     47  N   UNL     1      -4.164   5.708   4.465  1.00  0.00    -0.354 N 
ATOM     48  C   UNL     1      -9.154   4.526   6.570  1.00  0.00     0.074 A 
ATOM     49  C   UNL     1      -9.953   4.975   5.460  1.00  0.00     0.031 C 
ATOM     50  C   UNL     1      -3.824   4.431   6.249  1.00  0.00     0.029 A 
ATOM     51  C   UNL     1      -3.332   5.625   5.580  1.00  0.00     0.049 A 
ATOM     52  H   UNL     1      -3.907   6.052   3.579  1.00  0.00     0.167 HD
ATOM     53  C   UNL     1      -9.314   3.638   7.585  1.00  0.00     0.034 A 
ATOM     54  C   UNL     1      -2.951   6.768   6.238  1.00  0.00     0.034 A 
ATOM     55  C   UNL     1      -8.135   3.633   8.461  1.00  0.00     0.049 A 
ATOM     56  C   UNL     1      -3.485   6.856   7.662  1.00  0.00     0.074 A 
ATOM     57  C   UNL     1      -7.086   2.751   8.641  1.00  0.00     0.029 A 
ATOM     58  N   UNL     1      -7.763   4.819   9.096  1.00  0.00    -0.354 N 
ATOM     59  N   UNL     1      -4.434   6.097   8.141  1.00  0.00    -0.248 NA
ATOM     60  C   UNL     1      -2.972   7.784   8.666  1.00  0.00     0.031 C 
ATOM     61  C   UNL     1      -6.017   3.471   9.252  1.00  0.00     0.029 A 
ATOM     62  C   UNL     1      -6.439   4.768   9.500  1.00  0.00     0.049 A 
ATOM     63  H   UNL     1      -8.361   5.588   9.237  1.00  0.00     0.167 HD
ATOM     64  C   UNL     1      -4.738   6.468   9.422  1.00  0.00     0.074 A 
ATOM     65  C   UNL     1      -3.744   7.485   9.727  1.00  0.00     0.031 C 
ATOM     66  C   UNL     1      -5.806   5.941  10.102  1.00  0.00     0.034 A 
BRANCH  53  67
ATOM     67  C   UNL     1     -10.442   2.630   7.689  1.00  0.00     0.023 A 
ATOM     68  C   UNL     1     -10.505   1.856   8.868  1.00  0.00     0.012 A 
ATOM     69  C   UNL     1     -11.375   2.294   6.672  1.00  0.00     0.148 A 
ATOM     70  C   UNL     1     -11.433   0.820   9.033  1.00  0.00     0.002 A 
ATOM     71  C   UNL     1     -12.352   1.314   6.870  1.00  0.00     0.091 A 
ATOM     72  F   UNL     1     -11.270   2.832   5.454  1.00  0.00    -0.205 F 
ATOM     73  C   UNL     1     -12.372   0.561   8.044  1.00  0.00     0.022 A 
BRANCH  71  74
ATOM     74  S   UNL     1     -13.640   0.982   5.651  1.00  0.00     0.127 S 
ATOM     75  O   UNL     1     -13.214  -0.299   5.090  1.00  0.00    -0.237 OA
ATOM     76  O   UNL     1     -14.846   0.913   6.477  1.00  0.00    -0.237 OA
ATOM     77  O   UNL     1     -13.617   2.108   4.724  1.00  0.00    -0.744 OA
ENDBRANCH  71  74
ENDBRANCH  53  67
BRANCH  54  78
ATOM     78  C   UNL     1      -2.762   7.925   5.299  1.00  0.00     0.023 A 
ATOM     79  C   UNL     1      -1.796   7.747   4.275  1.00  0.00     0.012 A 
ATOM     80  C   UNL     1      -3.745   8.919   5.131  1.00  0.00     0.148 A 
ATOM     81  C   UNL     1      -1.928   8.392   3.044  1.00  0.00     0.002 A 
ATOM     82  C   UNL     1      -3.847   9.586   3.907  1.00  0.00     0.091 A 
ATOM     83  F   UNL     1      -4.596   9.161   6.136  1.00  0.00    -0.205 F 
ATOM     84  C   UNL     1      -2.980   9.278   2.846  1.00  0.00     0.022 A 
BRANCH  82  85
ATOM     85  S   UNL     1      -5.145  10.794   3.596  1.00  0.00     0.127 S 
ATOM     86  O   UNL     1      -4.481  12.040   3.968  1.00  0.00    -0.237 OA
ATOM     87  O   UNL     1      -5.395  10.643   2.162  1.00  0.00    -0.237 OA
ATOM     88  O   UNL     1      -6.257  10.379   4.438  1.00  0.00    -0.744 OA
ENDBRANCH  82  85
ENDBRANCH  54  78
BRANCH  66  89
ATOM     89  C   UNL     1      -6.361   6.495  11.403  1.00  0.00     0.023 A 
ATOM     90  C   UNL     1      -6.135   7.825  11.810  1.00  0.00     0.012 A 
ATOM     91  C   UNL     1      -7.263   5.736  12.194  1.00  0.00     0.148 A 
ATOM     92  C   UNL     1      -6.703   8.354  12.974  1.00  0.00     0.002 A 
ATOM     93  C   UNL     1      -7.915   6.303  13.287  1.00  0.00     0.091 A 
ATOM     94  F   UNL     1      -7.485   4.446  11.903  1.00  0.00    -0.205 F 
ATOM     95  C   UNL     1      -7.611   7.600  13.703  1.00  0.00     0.022 A 
BRANCH  93  96
ATOM     96  S   UNL     1      -9.276   5.452  14.101  1.00  0.00     0.127 S 
ATOM     97  O   UNL     1      -8.600   4.794  15.216  1.00  0.00    -0.237 OA
ATOM     98  O   UNL     1     -10.153   6.559  14.490  1.00  0.00    -0.237 OA
ATOM     99  O   UNL     1      -9.842   4.576  13.084  1.00  0.00    -0.744 OA
ENDBRANCH  93  96
ENDBRANCH  66  89
ENDBRANCH  40  41
ENDBRANCH  32  35
ENDBRANCH  30  31
ENDBRANCH  29  30
ENDBRANCH  28  29
ENDBRANCH   1  28
TORSDOF 20
