REMARK SMILES Cc1oc2c(C)c3oc(=O)c(CCC(=O)N[C@H](Cc4ccc(Cl)cc4)C(=O)NCCCCCCNC(=O)c4ccc(-c5c6nc(c(-c7cccc(S(=O)(=O)[O-])c7F)c7ccc([nH]7)c(-c7cccc(S(=O)(=O)[O-])c7F)c7nc(c(-c8cccc(S(=O)(=O)[O-])c8F)c8ccc5[nH]8)C=C7)C=C6)cc4)c(C)c3cc2c1C
REMARK SMILES IDX 31 1 30 2 29 3 28 4 26 5 27 6 17 8 16 9 14 10 15 11 13 13
REMARK SMILES IDX 12 14 11 15 1 16 2 17 3 18 106 19 4 20 105 21 107 22 5 23
REMARK SMILES IDX 104 24 6 25 7 26 103 27 8 28 101 29 9 30 102 31 10 32 18 33
REMARK SMILES IDX 19 34 20 35 25 36 21 37 24 38 22 39 23 40 32 41 33 42 34 43
REMARK SMILES IDX 35 44 36 45 37 47 38 48 39 49 100 50 40 51 99 52 41 53 42 54
REMARK SMILES IDX 43 55 93 56 44 57 98 58 92 59 94 60 45 61 97 62 91 63 90 64
REMARK SMILES IDX 46 66 78 67 58 68 77 69 59 70 62 71 76 72 95 73 60 74 61 75
REMARK SMILES IDX 75 77 96 78 63 79 47 80 48 81 56 82 49 83 51 84 57 85 50 86
REMARK SMILES IDX 52 87 53 88 54 89 55 90 79 91 80 92 88 93 81 94 83 95 89 96
REMARK SMILES IDX 82 97 84 98 85 99 86 100 87 101 64 102 65 103 73 104 66 105
REMARK SMILES IDX 68 106 74 107 67 108 69 109 70 110 71 111 72 112
REMARK H PARENT 28 7 16 12 35 46 94 65 62 76
REMARK Flexibility Score: inf
ROOT
ATOM      1  C   UNL     1      -3.895   3.117  -1.774  1.00  0.00     0.002 C 
ENDROOT
BRANCH   1   2
ATOM      2  C   UNL     1      -2.812   3.733  -2.670  1.00  0.00     0.021 C 
BRANCH   2   3
ATOM      3  C   UNL     1      -1.744   2.748  -3.157  1.00  0.00     0.116 C 
BRANCH   3   4
ATOM      4  N   UNL     1      -2.344   1.682  -3.929  1.00  0.00    -0.354 N 
ATOM      5  C   UNL     1      -2.877   1.890  -5.168  1.00  0.00     0.242 C 
ATOM      6  O   UNL     1      -4.092   1.739  -5.281  1.00  0.00    -0.273 OA
ATOM      7  H   UNL     1      -2.368   0.774  -3.548  1.00  0.00     0.163 HD
BRANCH   5   8
ATOM      8  C   UNL     1      -2.004   2.400  -6.329  1.00  0.00     0.175 C 
BRANCH   8   9
ATOM      9  N   UNL     1      -0.600   2.016  -6.160  1.00  0.00    -0.344 N 
ATOM     10  C   UNL     1       0.186   1.317  -7.030  1.00  0.00     0.220 C 
ATOM     11  O   UNL     1       1.215   0.788  -6.607  1.00  0.00    -0.275 OA
ATOM     12  H   UNL     1      -0.173   2.295  -5.318  1.00  0.00     0.164 HD
BRANCH  10  13
ATOM     13  C   UNL     1      -0.212   1.204  -8.491  1.00  0.00     0.105 C 
BRANCH  13  14
ATOM     14  C   UNL     1      -0.795  -0.163  -8.886  1.00  0.00     0.053 C 
BRANCH  14  15
ATOM     15  C   UNL     1      -2.119  -0.502  -8.221  1.00  0.00     0.042 A 
ATOM     16  C   UNL     1      -7.459  -0.529  -1.776  1.00  0.00     0.088 C 
ATOM     17  C   UNL     1      -6.513  -0.792  -2.882  1.00  0.00     0.105 A 
ATOM     18  O   UNL     1      -6.969  -0.524  -4.140  1.00  0.00    -0.461 OA
ATOM     19  C   UNL     1      -5.202  -1.227  -2.924  1.00  0.00    -0.002 A 
ATOM     20  C   UNL     1      -5.936  -0.745  -5.006  1.00  0.00     0.141 A 
ATOM     21  C   UNL     1      -4.846  -1.241  -4.306  1.00  0.00     0.025 A 
ATOM     22  C   UNL     1      -4.295  -1.520  -1.787  1.00  0.00     0.049 C 
ATOM     23  C   UNL     1      -5.932  -0.447  -6.377  1.00  0.00     0.036 A 
ATOM     24  C   UNL     1      -3.660  -1.521  -5.006  1.00  0.00     0.024 A 
ATOM     25  C   UNL     1      -7.092   0.233  -7.031  1.00  0.00     0.052 C 
ATOM     26  C   UNL     1      -4.681  -0.656  -7.011  1.00  0.00     0.145 A 
ATOM     27  C   UNL     1      -3.551  -1.173  -6.363  1.00  0.00     0.022 A 
ATOM     28  O   UNL     1      -4.560  -0.210  -8.348  1.00  0.00    -0.422 OA
ATOM     29  C   UNL     1      -2.231  -1.137  -7.035  1.00  0.00    -0.030 A 
ATOM     30  C   UNL     1      -3.330  -0.030  -8.957  1.00  0.00     0.339 A 
ATOM     31  C   UNL     1      -1.052  -1.669  -6.254  1.00  0.00     0.046 C 
ATOM     32  O   UNL     1      -3.240   0.505 -10.058  1.00  0.00    -0.246 OA
ENDBRANCH  14  15
ENDBRANCH  13  14
ENDBRANCH  10  13
ENDBRANCH   8   9
BRANCH   8  33
ATOM     33  C   UNL     1      -2.245   3.887  -6.630  1.00  0.00     0.070 C 
BRANCH  33  34
ATOM     34  C   UNL     1      -3.647   4.069  -7.192  1.00  0.00    -0.045 A 
ATOM     35  C   UNL     1      -3.955   3.606  -8.481  1.00  0.00     0.005 A 
ATOM     36  C   UNL     1      -4.689   4.517  -6.368  1.00  0.00     0.005 A 
ATOM     37  C   UNL     1      -5.282   3.525  -8.907  1.00  0.00     0.021 A 
ATOM     38  C   UNL     1      -6.017   4.434  -6.794  1.00  0.00     0.021 A 
ATOM     39  C   UNL     1      -6.309   3.925  -8.056  1.00  0.00     0.041 A 
ATOM     40  Cl  UNL     1      -7.947   3.761  -8.559  1.00  0.00    -0.084 Cl
ENDBRANCH  33  34
ENDBRANCH   8  33
ENDBRANCH   5   8
ENDBRANCH   3   4
ENDBRANCH   2   3
ENDBRANCH   1   2
BRANCH   1  41
ATOM     41  C   UNL     1      -3.365   2.420  -0.521  1.00  0.00     0.002 C 
BRANCH  41  42
ATOM     42  C   UNL     1      -2.400   3.264   0.324  1.00  0.00     0.021 C 
BRANCH  42  43
ATOM     43  C   UNL     1      -2.995   4.578   0.841  1.00  0.00     0.116 C 
BRANCH  43  44
ATOM     44  N   UNL     1      -4.066   4.288   1.772  1.00  0.00    -0.352 N 
ATOM     45  C   UNL     1      -4.141   4.607   3.098  1.00  0.00     0.251 C 
ATOM     46  H   UNL     1      -4.836   3.799   1.403  1.00  0.00     0.163 HD
ATOM     47  O   UNL     1      -4.752   3.852   3.854  1.00  0.00    -0.269 OA
BRANCH  45  48
ATOM     48  C   UNL     1      -3.538   5.854   3.619  1.00  0.00     0.039 A 
ATOM     49  C   UNL     1      -3.119   5.856   4.953  1.00  0.00     0.014 A 
ATOM     50  C   UNL     1      -3.531   7.044   2.879  1.00  0.00     0.014 A 
ATOM     51  C   UNL     1      -2.703   7.042   5.545  1.00  0.00     0.010 A 
ATOM     52  C   UNL     1      -3.102   8.234   3.472  1.00  0.00     0.010 A 
ATOM     53  C   UNL     1      -2.694   8.236   4.809  1.00  0.00    -0.014 A 
BRANCH  53  54
ATOM     54  C   UNL     1      -2.212   9.440   5.507  1.00  0.00     0.031 A 
ATOM     55  C   UNL     1      -1.156  10.229   4.790  1.00  0.00     0.074 A 
ATOM     56  C   UNL     1      -3.039  10.052   6.383  1.00  0.00     0.049 A 
ATOM     57  N   UNL     1      -1.391  11.107   3.859  1.00  0.00    -0.248 NA
ATOM     58  C   UNL     1       0.262   9.887   4.921  1.00  0.00     0.031 C 
ATOM     59  C   UNL     1      -4.461  10.314   6.122  1.00  0.00     0.029 A 
ATOM     60  N   UNL     1      -2.771  10.741   7.545  1.00  0.00    -0.354 N 
ATOM     61  C   UNL     1      -0.173  11.441   3.278  1.00  0.00     0.074 A 
ATOM     62  C   UNL     1       0.821  10.643   3.962  1.00  0.00     0.031 C 
ATOM     63  C   UNL     1      -4.899  11.239   7.000  1.00  0.00     0.029 A 
ATOM     64  C   UNL     1      -3.832  11.554   7.950  1.00  0.00     0.049 A 
ATOM     65  H   UNL     1      -1.922  10.669   8.037  1.00  0.00     0.167 HD
ATOM     66  C   UNL     1      -0.040  12.382   2.300  1.00  0.00     0.034 A 
ATOM     67  C   UNL     1      -3.664  12.752   8.581  1.00  0.00     0.034 A 
ATOM     68  C   UNL     1      -1.258  13.055   1.947  1.00  0.00     0.049 A 
ATOM     69  C   UNL     1      -3.273  13.616   7.400  1.00  0.00     0.074 A 
ATOM     70  C   UNL     1      -2.206  13.005   0.950  1.00  0.00     0.029 A 
ATOM     71  N   UNL     1      -1.721  14.020   2.809  1.00  0.00    -0.354 N 
ATOM     72  N   UNL     1      -4.085  14.068   6.477  1.00  0.00    -0.248 NA
ATOM     73  C   UNL     1      -1.860  13.610   7.017  1.00  0.00     0.031 C 
ATOM     74  C   UNL     1      -3.385  13.590   1.517  1.00  0.00     0.029 A 
ATOM     75  C   UNL     1      -3.088  13.936   2.835  1.00  0.00     0.049 A 
ATOM     76  H   UNL     1      -1.169  14.658   3.317  1.00  0.00     0.167 HD
ATOM     77  C   UNL     1      -3.329  14.093   5.300  1.00  0.00     0.074 A 
ATOM     78  C   UNL     1      -1.966  13.810   5.711  1.00  0.00     0.031 C 
ATOM     79  C   UNL     1      -3.858  14.168   4.041  1.00  0.00     0.034 A 
BRANCH  66  80
ATOM     80  C   UNL     1       1.251  12.932   1.800  1.00  0.00     0.023 A 
ATOM     81  C   UNL     1       1.651  14.164   2.359  1.00  0.00     0.012 A 
ATOM     82  C   UNL     1       1.947  12.430   0.685  1.00  0.00     0.148 A 
ATOM     83  C   UNL     1       2.672  14.920   1.792  1.00  0.00     0.002 A 
ATOM     84  C   UNL     1       2.985  13.185   0.131  1.00  0.00     0.091 A 
ATOM     85  F   UNL     1       1.558  11.261   0.155  1.00  0.00    -0.205 F 
ATOM     86  C   UNL     1       3.333  14.435   0.673  1.00  0.00     0.022 A 
BRANCH  84  87
ATOM     87  S   UNL     1       3.933  12.664  -1.307  1.00  0.00     0.127 S 
ATOM     88  O   UNL     1       3.540  13.659  -2.308  1.00  0.00    -0.237 OA
ATOM     89  O   UNL     1       5.311  12.804  -0.825  1.00  0.00    -0.237 OA
ATOM     90  O   UNL     1       3.525  11.301  -1.585  1.00  0.00    -0.744 OA
ENDBRANCH  84  87
ENDBRANCH  66  80
BRANCH  67  91
ATOM     91  C   UNL     1      -2.895  12.682   9.873  1.00  0.00     0.023 A 
ATOM     92  C   UNL     1      -3.314  11.701  10.807  1.00  0.00     0.012 A 
ATOM     93  C   UNL     1      -1.783  13.468  10.223  1.00  0.00     0.148 A 
ATOM     94  C   UNL     1      -2.584  11.419  11.963  1.00  0.00     0.002 A 
ATOM     95  C   UNL     1      -1.017  13.143  11.343  1.00  0.00     0.091 A 
ATOM     96  F   UNL     1      -1.467  14.524   9.463  1.00  0.00    -0.205 F 
ATOM     97  C   UNL     1      -1.410  12.115  12.210  1.00  0.00     0.022 A 
BRANCH  95  98
ATOM     98  S   UNL     1       0.567  13.921  11.693  1.00  0.00     0.127 S 
ATOM     99  O   UNL     1       0.400  14.339  13.084  1.00  0.00    -0.237 OA
ATOM    100  O   UNL     1       1.486  12.802  11.490  1.00  0.00    -0.237 OA
ATOM    101  O   UNL     1       0.694  15.007  10.732  1.00  0.00    -0.744 OA
ENDBRANCH  95  98
ENDBRANCH  67  91
BRANCH  79 102
ATOM    102  C   UNL     1      -5.345  14.347   3.937  1.00  0.00     0.023 A 
ATOM    103  C   UNL     1      -5.918  15.537   4.420  1.00  0.00     0.012 A 
ATOM    104  C   UNL     1      -6.171  13.405   3.285  1.00  0.00     0.148 A 
ATOM    105  C   UNL     1      -7.274  15.803   4.236  1.00  0.00     0.002 A 
ATOM    106  C   UNL     1      -7.511  13.698   3.059  1.00  0.00     0.091 A 
ATOM    107  F   UNL     1      -5.635  12.245   2.877  1.00  0.00    -0.205 F 
ATOM    108  C   UNL     1      -8.065  14.895   3.539  1.00  0.00     0.022 A 
BRANCH 106 109
ATOM    109  S   UNL     1      -8.597  12.639   2.095  1.00  0.00     0.127 S 
ATOM    110  O   UNL     1      -9.685  12.376   3.037  1.00  0.00    -0.237 OA
ATOM    111  O   UNL     1      -8.959  13.514   0.979  1.00  0.00    -0.237 OA
ATOM    112  O   UNL     1      -7.811  11.470   1.725  1.00  0.00    -0.744 OA
ENDBRANCH 106 109
ENDBRANCH  79 102
ENDBRANCH  53  54
ENDBRANCH  45  48
ENDBRANCH  43  44
ENDBRANCH  42  43
ENDBRANCH  41  42
ENDBRANCH   1  41
TORSDOF 22
