REMARK SMILES Cc1cc2nc(SCC(=O)NCCCCCCNC(=O)c3ccc(-c4c5nc(c(-c6cccc(S(=O)(=O)[O-])c6F)c6ccc([nH]6)c(-c6cccc(S(=O)(=O)[O-])c6F)c6nc(c(-c7cccc(S(=O)(=O)[O-])c7F)c7ccc4[nH]7)C=C6)C=C5)cc3)n(CC(C)C)c(=O)c2[nH]1
REMARK SMILES IDX 14 1 13 2 12 3 11 4 9 5 10 6 8 8 7 9 6 10 1 11 2 12 3 13
REMARK SMILES IDX 92 14 4 15 91 16 5 18 89 19 84 20 90 21 85 22 86 23 87 24
REMARK SMILES IDX 88 25 15 26 16 27 17 28 18 29 19 30 20 32 21 33 22 34 83 35
REMARK SMILES IDX 23 36 82 37 24 38 25 39 26 40 76 41 27 42 81 43 75 44 77 45
REMARK SMILES IDX 28 46 80 47 74 48 73 49 29 51 61 52 41 53 60 54 42 55 45 56
REMARK SMILES IDX 59 57 78 58 43 59 44 60 58 62 79 63 46 64 30 65 31 66 39 67
REMARK SMILES IDX 32 68 34 69 40 70 33 71 35 72 36 73 37 74 38 75 62 76 63 77
REMARK SMILES IDX 71 78 64 79 66 80 72 81 65 82 67 83 68 84 69 85 70 86 47 87
REMARK SMILES IDX 48 88 56 89 49 90 51 91 57 92 50 93 52 94 53 95 54 96 55 97
REMARK H PARENT 11 7 92 17 18 31 77 50 45 61
REMARK Flexibility Score: inf
ROOT
ATOM      1  C   UNL     1       5.789   4.431  -6.291  1.00  0.00     0.002 C 
ENDROOT
BRANCH   1   2
ATOM      2  C   UNL     1       4.403   5.066  -6.111  1.00  0.00     0.021 C 
BRANCH   2   3
ATOM      3  C   UNL     1       3.657   5.382  -7.403  1.00  0.00     0.116 C 
BRANCH   3   4
ATOM      4  N   UNL     1       3.428   4.207  -8.217  1.00  0.00    -0.355 N 
ATOM      5  C   UNL     1       2.271   3.760  -8.764  1.00  0.00     0.230 C 
ATOM      6  O   UNL     1       2.370   3.020  -9.747  1.00  0.00    -0.274 OA
ATOM      7  H   UNL     1       4.223   3.656  -8.399  1.00  0.00     0.163 HD
BRANCH   5   8
ATOM      8  C   UNL     1       0.908   4.213  -8.306  1.00  0.00     0.178 C 
BRANCH   8   9
ATOM      9  S   UNL     1       0.580   4.237  -6.575  1.00  0.00    -0.078 SA
BRANCH   9  10
ATOM     10  C   UNL     1       0.653   2.752  -5.659  1.00  0.00     0.172 A 
ATOM     11  C   UNL     1       0.821   0.234  -0.288  1.00  0.00     0.064 C 
ATOM     12  C   UNL     1       0.649   0.782  -1.658  1.00  0.00     0.014 A 
ATOM     13  C   UNL     1       0.710   2.096  -2.099  1.00  0.00     0.052 A 
ATOM     14  N   UNL     1       0.422  -0.020  -2.759  1.00  0.00    -0.353 N 
ATOM     15  C   UNL     1       0.599   2.043  -3.492  1.00  0.00     0.097 A 
ATOM     16  C   UNL     1       0.411   0.761  -3.882  1.00  0.00     0.131 A 
ATOM     17  H   UNL     1       0.289  -0.995  -2.738  1.00  0.00     0.166 HD
ATOM     18  N   UNL     1       0.650   3.082  -4.398  1.00  0.00    -0.222 NA
ATOM     19  C   UNL     1       0.285   0.386  -5.246  1.00  0.00     0.278 A 
ATOM     20  N   UNL     1       0.601   1.435  -6.144  1.00  0.00    -0.286 N 
ATOM     21  O   UNL     1      -0.050  -0.739  -5.584  1.00  0.00    -0.267 OA
BRANCH  20  22
ATOM     22  C   UNL     1       0.817   0.964  -7.516  1.00  0.00     0.131 C 
BRANCH  22  23
ATOM     23  C   UNL     1       2.238   0.377  -7.773  1.00  0.00     0.003 C 
ATOM     24  C   UNL     1       2.592  -0.843  -6.912  1.00  0.00     0.009 C 
ATOM     25  C   UNL     1       2.377  -0.063  -9.238  1.00  0.00     0.009 C 
ENDBRANCH  22  23
ENDBRANCH  20  22
ENDBRANCH   9  10
ENDBRANCH   8   9
ENDBRANCH   5   8
ENDBRANCH   3   4
ENDBRANCH   2   3
ENDBRANCH   1   2
BRANCH   1  26
ATOM     26  C   UNL     1       6.737   5.128  -7.278  1.00  0.00     0.002 C 
BRANCH  26  27
ATOM     27  C   UNL     1       6.928   6.639  -7.090  1.00  0.00     0.021 C 
BRANCH  27  28
ATOM     28  C   UNL     1       7.546   7.020  -5.754  1.00  0.00     0.116 C 
BRANCH  28  29
ATOM     29  N   UNL     1       8.939   6.603  -5.669  1.00  0.00    -0.352 N 
ATOM     30  C   UNL     1       9.843   6.877  -4.670  1.00  0.00     0.251 C 
ATOM     31  H   UNL     1       9.274   6.059  -6.418  1.00  0.00     0.163 HD
ATOM     32  O   UNL     1      11.047   6.789  -4.888  1.00  0.00    -0.269 OA
BRANCH  30  33
ATOM     33  C   UNL     1       9.354   7.274  -3.339  1.00  0.00     0.039 A 
ATOM     34  C   UNL     1      10.031   8.263  -2.616  1.00  0.00     0.014 A 
ATOM     35  C   UNL     1       8.243   6.625  -2.794  1.00  0.00     0.014 A 
ATOM     36  C   UNL     1       9.556   8.627  -1.362  1.00  0.00     0.010 A 
ATOM     37  C   UNL     1       7.723   7.043  -1.590  1.00  0.00     0.010 A 
ATOM     38  C   UNL     1       8.399   8.016  -0.860  1.00  0.00    -0.014 A 
BRANCH  38  39
ATOM     39  C   UNL     1       7.820   8.480   0.391  1.00  0.00     0.031 A 
ATOM     40  C   UNL     1       7.336   9.886   0.361  1.00  0.00     0.074 A 
ATOM     41  C   UNL     1       7.541   7.651   1.418  1.00  0.00     0.049 A 
ATOM     42  N   UNL     1       7.830  10.906   0.983  1.00  0.00    -0.248 NA
ATOM     43  C   UNL     1       6.255  10.223  -0.580  1.00  0.00     0.031 C 
ATOM     44  C   UNL     1       7.661   6.189   1.449  1.00  0.00     0.029 A 
ATOM     45  N   UNL     1       6.950   7.933   2.611  1.00  0.00    -0.354 N 
ATOM     46  C   UNL     1       6.962  11.959   0.708  1.00  0.00     0.074 A 
ATOM     47  C   UNL     1       6.146  11.541  -0.403  1.00  0.00     0.031 C 
ATOM     48  C   UNL     1       6.941   5.704   2.485  1.00  0.00     0.029 A 
ATOM     49  C   UNL     1       6.446   6.816   3.273  1.00  0.00     0.049 A 
ATOM     50  H   UNL     1       6.884   8.846   2.974  1.00  0.00     0.167 HD
ATOM     51  C   UNL     1       6.780  12.983   1.585  1.00  0.00     0.034 A 
ATOM     52  C   UNL     1       5.631   6.829   4.356  1.00  0.00     0.034 A 
ATOM     53  C   UNL     1       7.784  13.007   2.612  1.00  0.00     0.049 A 
ATOM     54  C   UNL     1       5.816   8.151   5.000  1.00  0.00     0.074 A 
ATOM     55  C   UNL     1       9.160  13.104   2.641  1.00  0.00     0.029 A 
ATOM     56  N   UNL     1       7.406  12.515   3.837  1.00  0.00    -0.354 N 
ATOM     57  N   UNL     1       6.931   8.544   5.548  1.00  0.00    -0.248 NA
ATOM     58  C   UNL     1       4.855   9.202   4.707  1.00  0.00     0.031 C 
ATOM     59  C   UNL     1       9.565  12.241   3.702  1.00  0.00     0.029 A 
ATOM     60  C   UNL     1       8.414  11.710   4.291  1.00  0.00     0.049 A 
ATOM     61  H   UNL     1       6.561  12.708   4.304  1.00  0.00     0.167 HD
ATOM     62  C   UNL     1       6.997   9.899   5.258  1.00  0.00     0.074 A 
ATOM     63  C   UNL     1       5.641  10.269   4.865  1.00  0.00     0.031 C 
ATOM     64  C   UNL     1       8.200  10.519   5.083  1.00  0.00     0.034 A 
BRANCH  51  65
ATOM     65  C   UNL     1       5.476  13.720   1.754  1.00  0.00     0.023 A 
ATOM     66  C   UNL     1       5.490  14.955   2.434  1.00  0.00     0.012 A 
ATOM     67  C   UNL     1       4.217  13.126   1.514  1.00  0.00     0.148 A 
ATOM     68  C   UNL     1       4.304  15.568   2.855  1.00  0.00     0.002 A 
ATOM     69  C   UNL     1       3.040  13.781   1.853  1.00  0.00     0.091 A 
ATOM     70  F   UNL     1       4.150  11.860   1.089  1.00  0.00    -0.205 F 
ATOM     71  C   UNL     1       3.076  14.991   2.546  1.00  0.00     0.022 A 
BRANCH  69  72
ATOM     72  S   UNL     1       1.438  13.096   1.420  1.00  0.00     0.127 S 
ATOM     73  O   UNL     1       0.987  12.574   2.706  1.00  0.00    -0.237 OA
ATOM     74  O   UNL     1       0.724  14.281   0.943  1.00  0.00    -0.237 OA
ATOM     75  O   UNL     1       1.714  12.111   0.382  1.00  0.00    -0.744 OA
ENDBRANCH  69  72
ENDBRANCH  51  65
BRANCH  52  76
ATOM     76  C   UNL     1       4.535   5.914   4.766  1.00  0.00     0.023 A 
ATOM     77  C   UNL     1       3.988   6.052   6.061  1.00  0.00     0.012 A 
ATOM     78  C   UNL     1       3.818   5.136   3.829  1.00  0.00     0.148 A 
ATOM     79  C   UNL     1       2.740   5.510   6.387  1.00  0.00     0.002 A 
ATOM     80  C   UNL     1       2.582   4.584   4.163  1.00  0.00     0.091 A 
ATOM     81  F   UNL     1       4.293   5.016   2.583  1.00  0.00    -0.205 F 
ATOM     82  C   UNL     1       2.029   4.790   5.433  1.00  0.00     0.022 A 
BRANCH  80  83
ATOM     83  S   UNL     1       1.607   3.638   2.983  1.00  0.00     0.127 S 
ATOM     84  O   UNL     1       1.125   2.524   3.802  1.00  0.00    -0.237 OA
ATOM     85  O   UNL     1       0.581   4.600   2.595  1.00  0.00    -0.237 OA
ATOM     86  O   UNL     1       2.538   3.240   1.933  1.00  0.00    -0.744 OA
ENDBRANCH  80  83
ENDBRANCH  52  76
BRANCH  64  87
ATOM     87  C   UNL     1       9.443   9.791   5.521  1.00  0.00     0.023 A 
ATOM     88  C   UNL     1       9.931   8.655   4.843  1.00  0.00     0.012 A 
ATOM     89  C   UNL     1      10.238  10.395   6.508  1.00  0.00     0.148 A 
ATOM     90  C   UNL     1      11.191   8.132   5.148  1.00  0.00     0.002 A 
ATOM     91  C   UNL     1      11.505   9.898   6.779  1.00  0.00     0.091 A 
ATOM     92  F   UNL     1       9.754  11.481   7.129  1.00  0.00    -0.205 F 
ATOM     93  C   UNL     1      11.985   8.763   6.105  1.00  0.00     0.022 A 
BRANCH  91  94
ATOM     94  S   UNL     1      12.622  10.726   7.913  1.00  0.00     0.127 S 
ATOM     95  O   UNL     1      12.737   9.751   8.996  1.00  0.00    -0.237 OA
ATOM     96  O   UNL     1      13.829  10.881   7.099  1.00  0.00    -0.237 OA
ATOM     97  O   UNL     1      11.978  11.982   8.275  1.00  0.00    -0.744 OA
ENDBRANCH  91  94
ENDBRANCH  64  87
ENDBRANCH  38  39
ENDBRANCH  30  33
ENDBRANCH  28  29
ENDBRANCH  27  28
ENDBRANCH  26  27
ENDBRANCH   1  26
TORSDOF 20
