REMARK SMILES NS(=O)(=O)c1ccc(C(=O)N2CC[C@H](c3ccccc3C(=O)NCCCCCCNC(=O)c3ccc(-c4c5nc(c(-c6cccc(S(=O)(=O)[O-])c6F)c6ccc([nH]6)c(-c6cccc(S(=O)(=O)[O-])c6F)c6nc(c(-c7cccc(S(=O)(=O)[O-])c7F)c7ccc4[nH]7)C=C6)C=C5)cc3)C2)cc1
REMARK SMILES IDX 25 1 24 2 23 3 21 4 22 5 20 7 15 8 16 9 17 10 19 11 18 12
REMARK SMILES IDX 14 13 11 14 12 15 96 16 13 17 9 18 10 19 8 20 5 21 6 22
REMARK SMILES IDX 98 23 7 24 97 25 2 26 3 27 4 28 1 29 26 32 27 33 28 34 29 35
REMARK SMILES IDX 30 36 31 37 32 39 33 40 34 41 95 42 35 43 94 44 36 45 37 46
REMARK SMILES IDX 38 47 88 48 39 49 93 50 87 51 89 52 40 53 92 54 86 55 85 56
REMARK SMILES IDX 41 58 73 59 53 60 72 61 54 62 57 63 71 64 90 65 55 66 56 67
REMARK SMILES IDX 70 69 91 70 58 71 42 72 43 73 51 74 44 75 46 76 52 77 45 78
REMARK SMILES IDX 47 79 48 80 49 81 50 82 74 83 75 84 83 85 76 86 78 87 84 88
REMARK SMILES IDX 77 89 79 90 80 91 81 92 82 93 59 94 60 95 68 96 61 97 63 98
REMARK SMILES IDX 69 99 62 100 64 101 65 102 66 103 67 104
REMARK H PARENT 23 6 1 30 1 31 30 38 89 57 57 68
REMARK Flexibility Score: inf
ROOT
ATOM      1  C   UNL     1       3.044   6.954  -7.942  1.00  0.00     0.021 C 
ENDROOT
BRANCH   1   2
ATOM      2  C   UNL     1       1.798   7.211  -7.095  1.00  0.00     0.116 C 
BRANCH   2   3
ATOM      3  N   UNL     1       0.600   7.239  -7.921  1.00  0.00    -0.352 N 
ATOM      4  C   UNL     1      -0.648   7.074  -7.362  1.00  0.00     0.251 C 
ATOM      5  O   UNL     1      -1.060   7.790  -6.457  1.00  0.00    -0.269 OA
ATOM      6  H   UNL     1       0.683   7.376  -8.893  1.00  0.00     0.163 HD
BRANCH   4   7
ATOM      7  C   UNL     1      -1.529   6.042  -7.994  1.00  0.00     0.043 A 
ATOM      8  C   UNL     1      -1.159   4.683  -8.176  1.00  0.00    -0.030 A 
ATOM      9  C   UNL     1      -2.102   3.820  -8.763  1.00  0.00     0.005 A 
ATOM     10  C   UNL     1      -3.377   4.269  -9.116  1.00  0.00     0.000 A 
ATOM     11  C   UNL     1      -2.820   6.476  -8.337  1.00  0.00     0.014 A 
ATOM     12  C   UNL     1      -3.740   5.592  -8.895  1.00  0.00     0.001 A 
BRANCH   8  13
ATOM     13  C   UNL     1       0.159   4.152  -7.659  1.00  0.00     0.041 C 
ATOM     14  N   UNL     1       1.367   2.315  -6.742  1.00  0.00    -0.338 N 
ATOM     15  C   UNL     1       1.486   3.445  -5.846  1.00  0.00     0.120 C 
ATOM     16  C   UNL     1       0.631   2.701  -7.945  1.00  0.00     0.128 C 
ATOM     17  C   UNL     1       0.195   4.184  -6.116  1.00  0.00     0.032 C 
BRANCH  14  18
ATOM     18  C   UNL     1       1.566   0.965  -6.486  1.00  0.00     0.253 C 
ATOM     19  O   UNL     1       1.748   0.173  -7.408  1.00  0.00    -0.269 OA
BRANCH  18  20
ATOM     20  C   UNL     1       1.386   0.446  -5.093  1.00  0.00     0.040 A 
ATOM     21  C   UNL     1       0.798  -0.668  -2.581  1.00  0.00     0.082 A 
ATOM     22  C   UNL     1       1.609  -1.359  -3.480  1.00  0.00     0.022 A 
ATOM     23  C   UNL     1       0.269   0.569  -2.928  1.00  0.00     0.022 A 
ATOM     24  C   UNL     1       1.917  -0.797  -4.731  1.00  0.00     0.015 A 
ATOM     25  C   UNL     1       0.527   1.090  -4.189  1.00  0.00     0.015 A 
BRANCH  21  26
ATOM     26  S   UNL     1       0.298  -1.365  -1.040  1.00  0.00     0.238 S 
ATOM     27  O   UNL     1       0.534  -2.784  -0.988  1.00  0.00    -0.207 OA
ATOM     28  O   UNL     1      -0.989  -0.804  -0.683  1.00  0.00    -0.207 OA
BRANCH  26  29
ATOM     29  N   UNL     1       1.386  -0.651   0.026  1.00  0.00    -0.225 NA
ATOM     30  H   UNL     1       1.199  -0.979   0.974  1.00  0.00     0.137 HD
ATOM     31  H   UNL     1       1.281   0.363  -0.009  1.00  0.00     0.137 HD
ENDBRANCH  26  29
ENDBRANCH  21  26
ENDBRANCH  18  20
ENDBRANCH  14  18
ENDBRANCH   8  13
ENDBRANCH   4   7
ENDBRANCH   2   3
ENDBRANCH   1   2
BRANCH   1  32
ATOM     32  C   UNL     1       4.346   7.234  -7.190  1.00  0.00     0.002 C 
BRANCH  32  33
ATOM     33  C   UNL     1       4.638   6.315  -6.000  1.00  0.00     0.002 C 
BRANCH  33  34
ATOM     34  C   UNL     1       5.039   4.880  -6.347  1.00  0.00     0.021 C 
BRANCH  34  35
ATOM     35  C   UNL     1       6.216   4.713  -7.298  1.00  0.00     0.116 C 
BRANCH  35  36
ATOM     36  N   UNL     1       7.416   5.394  -6.845  1.00  0.00    -0.352 N 
ATOM     37  C   UNL     1       8.671   4.896  -6.592  1.00  0.00     0.251 C 
ATOM     38  H   UNL     1       7.315   6.362  -6.697  1.00  0.00     0.163 HD
ATOM     39  O   UNL     1       9.515   5.622  -6.074  1.00  0.00    -0.269 OA
BRANCH  37  40
ATOM     40  C   UNL     1       9.002   3.489  -6.914  1.00  0.00     0.039 A 
ATOM     41  C   UNL     1       9.743   2.746  -5.991  1.00  0.00     0.014 A 
ATOM     42  C   UNL     1       8.600   2.901  -8.117  1.00  0.00     0.014 A 
ATOM     43  C   UNL     1      10.023   1.401  -6.244  1.00  0.00     0.010 A 
ATOM     44  C   UNL     1       8.807   1.540  -8.330  1.00  0.00     0.010 A 
ATOM     45  C   UNL     1       9.527   0.776  -7.400  1.00  0.00    -0.014 A 
BRANCH  45  46
ATOM     46  C   UNL     1       9.741  -0.675  -7.645  1.00  0.00     0.031 A 
ATOM     47  C   UNL     1      10.518  -1.140  -8.848  1.00  0.00     0.074 A 
ATOM     48  C   UNL     1       9.166  -1.580  -6.828  1.00  0.00     0.049 A 
ATOM     49  N   UNL     1      10.758  -2.361  -9.252  1.00  0.00    -0.248 NA
ATOM     50  C   UNL     1      11.078  -0.099  -9.726  1.00  0.00     0.031 C 
ATOM     51  C   UNL     1       8.320  -1.264  -5.674  1.00  0.00     0.029 A 
ATOM     52  N   UNL     1       9.185  -2.952  -6.858  1.00  0.00    -0.354 N 
ATOM     53  C   UNL     1      11.460  -2.237 -10.445  1.00  0.00     0.074 A 
ATOM     54  C   UNL     1      11.583  -0.822 -10.716  1.00  0.00     0.031 C 
ATOM     55  C   UNL     1       7.909  -2.408  -5.104  1.00  0.00     0.029 A 
ATOM     56  C   UNL     1       8.432  -3.537  -5.868  1.00  0.00     0.049 A 
ATOM     57  H   UNL     1       9.691  -3.469  -7.527  1.00  0.00     0.167 HD
ATOM     58  C   UNL     1      11.984  -3.210 -11.229  1.00  0.00     0.034 A 
ATOM     59  C   UNL     1       8.180  -4.835  -5.611  1.00  0.00     0.034 A 
ATOM     60  C   UNL     1      11.908  -4.615 -10.933  1.00  0.00     0.049 A 
ATOM     61  C   UNL     1       8.792  -5.893  -6.485  1.00  0.00     0.074 A 
ATOM     62  C   UNL     1      12.498  -5.669 -11.610  1.00  0.00     0.029 A 
ATOM     63  N   UNL     1      11.193  -5.166  -9.882  1.00  0.00    -0.354 N 
ATOM     64  N   UNL     1       9.594  -5.753  -7.511  1.00  0.00    -0.248 NA
ATOM     65  C   UNL     1       8.486  -7.291  -6.147  1.00  0.00     0.031 C 
ATOM     66  C   UNL     1      12.121  -6.859 -10.980  1.00  0.00     0.029 A 
ATOM     67  C   UNL     1      11.315  -6.545  -9.898  1.00  0.00     0.049 A 
ATOM     68  H   UNL     1      10.675  -4.653  -9.221  1.00  0.00     0.167 HD
ATOM     69  C   UNL     1       9.915  -7.042  -7.920  1.00  0.00     0.074 A 
ATOM     70  C   UNL     1       9.241  -7.949  -7.015  1.00  0.00     0.031 C 
ATOM     71  C   UNL     1      10.684  -7.438  -8.962  1.00  0.00     0.034 A 
BRANCH  58  72
ATOM     72  C   UNL     1      12.746  -2.788 -12.457  1.00  0.00     0.023 A 
ATOM     73  C   UNL     1      14.020  -2.201 -12.312  1.00  0.00     0.012 A 
ATOM     74  C   UNL     1      12.242  -3.037 -13.748  1.00  0.00     0.148 A 
ATOM     75  C   UNL     1      14.768  -1.841 -13.432  1.00  0.00     0.002 A 
ATOM     76  C   UNL     1      13.012  -2.715 -14.860  1.00  0.00     0.091 A 
ATOM     77  F   UNL     1      11.021  -3.578 -13.865  1.00  0.00    -0.205 F 
ATOM     78  C   UNL     1      14.270  -2.109 -14.704  1.00  0.00     0.022 A 
BRANCH  76  79
ATOM     79  S   UNL     1      12.496  -3.089 -16.540  1.00  0.00     0.127 S 
ATOM     80  O   UNL     1      12.218  -1.754 -17.067  1.00  0.00    -0.237 OA
ATOM     81  O   UNL     1      13.691  -3.726 -17.094  1.00  0.00    -0.237 OA
ATOM     82  O   UNL     1      11.340  -3.966 -16.419  1.00  0.00    -0.744 OA
ENDBRANCH  76  79
ENDBRANCH  58  72
BRANCH  59  83
ATOM     83  C   UNL     1       7.335  -5.219  -4.448  1.00  0.00     0.023 A 
ATOM     84  C   UNL     1       7.930  -5.857  -3.341  1.00  0.00     0.012 A 
ATOM     85  C   UNL     1       5.954  -4.960  -4.434  1.00  0.00     0.148 A 
ATOM     86  C   UNL     1       7.155  -6.266  -2.255  1.00  0.00     0.002 A 
ATOM     87  C   UNL     1       5.200  -5.324  -3.328  1.00  0.00     0.091 A 
ATOM     88  F   UNL     1       5.414  -4.333  -5.489  1.00  0.00    -0.205 F 
ATOM     89  C   UNL     1       5.791  -5.997  -2.248  1.00  0.00     0.022 A 
BRANCH  87  90
ATOM     90  S   UNL     1       3.472  -4.896  -3.158  1.00  0.00     0.127 S 
ATOM     91  O   UNL     1       2.870  -6.181  -2.813  1.00  0.00    -0.237 OA
ATOM     92  O   UNL     1       3.536  -3.920  -2.070  1.00  0.00    -0.237 OA
ATOM     93  O   UNL     1       3.069  -4.351  -4.447  1.00  0.00    -0.744 OA
ENDBRANCH  87  90
ENDBRANCH  59  83
BRANCH  71  94
ATOM     94  C   UNL     1      10.872  -8.917  -9.165  1.00  0.00     0.023 A 
ATOM     95  C   UNL     1       9.809  -9.695  -9.665  1.00  0.00     0.012 A 
ATOM     96  C   UNL     1      12.118  -9.525  -8.918  1.00  0.00     0.148 A 
ATOM     97  C   UNL     1       9.974 -11.061  -9.886  1.00  0.00     0.002 A 
ATOM     98  C   UNL     1      12.289 -10.878  -9.185  1.00  0.00     0.091 A 
ATOM     99  F   UNL     1      13.110  -8.772  -8.421  1.00  0.00    -0.205 F 
ATOM    100  C   UNL     1      11.215 -11.650  -9.658  1.00  0.00     0.022 A 
BRANCH  98 101
ATOM    101  S   UNL     1      13.877 -11.699  -9.009  1.00  0.00     0.127 S 
ATOM    102  O   UNL     1      13.665 -12.503  -7.807  1.00  0.00    -0.237 OA
ATOM    103  O   UNL     1      13.969 -12.469 -10.250  1.00  0.00    -0.237 OA
ATOM    104  O   UNL     1      14.866 -10.636  -8.884  1.00  0.00    -0.744 OA
ENDBRANCH  98 101
ENDBRANCH  71  94
ENDBRANCH  45  46
ENDBRANCH  37  40
ENDBRANCH  35  36
ENDBRANCH  34  35
ENDBRANCH  33  34
ENDBRANCH  32  33
ENDBRANCH   1  32
TORSDOF 21
