REMARK SMILES Cc1cc(C)c(C(N)=O)c(N[C@H]2C=C[C@H](C(=O)NCCCCCCNC(=O)c3ccc(-c4c5nc(c(-c6cccc(S(=O)(=O)[O-])c6F)c6ccc([nH]6)c(-c6cccc(S(=O)(=O)[O-])c6F)c6nc(c(-c7cccc(S(=O)(=O)[O-])c7F)c7ccc4[nH]7)C=C6)C=C5)cc3)C2)n1
REMARK SMILES IDX 21 1 20 2 19 3 18 4 16 5 17 6 15 8 12 9 13 10 91 11 14 12
REMARK SMILES IDX 11 13 10 15 1 16 2 17 3 18 92 19 4 20 5 21 6 22 7 23 8 24
REMARK SMILES IDX 9 25 22 28 23 29 24 30 25 31 26 32 27 34 28 35 29 36 90 37
REMARK SMILES IDX 30 38 89 39 31 40 32 41 33 42 83 43 34 44 88 45 82 46 84 47
REMARK SMILES IDX 35 48 87 49 81 50 80 51 36 53 68 54 48 55 67 56 49 57 52 58
REMARK SMILES IDX 66 59 85 60 50 61 51 62 65 64 86 65 53 66 37 67 38 68 46 69
REMARK SMILES IDX 39 70 41 71 47 72 40 73 42 74 43 75 44 76 45 77 69 78 70 79
REMARK SMILES IDX 78 80 71 81 73 82 79 83 72 84 74 85 75 86 76 87 77 88 54 89
REMARK SMILES IDX 55 90 63 91 56 92 58 93 64 94 57 95 59 96 60 97 61 98 62 99
REMARK H PARENT 18 7 11 14 8 26 8 27 25 33 84 52 52 63
REMARK Flexibility Score: inf
ROOT
ATOM      1  C   UNL     1      -8.918  -3.544  -1.319  1.00  0.00     0.002 C 
ENDROOT
BRANCH   1   2
ATOM      2  C   UNL     1      -7.841  -2.475  -1.110  1.00  0.00     0.021 C 
BRANCH   2   3
ATOM      3  C   UNL     1      -6.614  -2.951  -0.340  1.00  0.00     0.116 C 
BRANCH   3   4
ATOM      4  N   UNL     1      -5.959  -4.061  -1.004  1.00  0.00    -0.356 N 
ATOM      5  C   UNL     1      -4.628  -4.249  -1.238  1.00  0.00     0.227 C 
ATOM      6  O   UNL     1      -4.271  -5.311  -1.752  1.00  0.00    -0.274 OA
ATOM      7  H   UNL     1      -6.554  -4.774  -1.330  1.00  0.00     0.163 HD
BRANCH   5   8
ATOM      8  C   UNL     1      -3.656  -3.138  -0.852  1.00  0.00     0.103 C 
ATOM      9  C   UNL     1      -1.378  -3.784  -0.230  1.00  0.00     0.104 C 
ATOM     10  C   UNL     1      -2.204  -3.497   0.975  1.00  0.00    -0.006 C 
ATOM     11  C   UNL     1      -2.249  -3.376  -1.422  1.00  0.00     0.046 C 
ATOM     12  C   UNL     1      -3.448  -3.141   0.638  1.00  0.00    -0.016 C 
BRANCH   9  13
ATOM     13  N   UNL     1      -0.094  -3.105  -0.205  1.00  0.00    -0.363 N 
ATOM     14  H   UNL     1       0.721  -3.654  -0.270  1.00  0.00     0.162 HD
BRANCH  13  15
ATOM     15  C   UNL     1       0.054  -1.722  -0.093  1.00  0.00     0.139 A 
ATOM     16  C   UNL     1      -2.280   1.129   0.073  1.00  0.00     0.067 C 
ATOM     17  C   UNL     1      -0.990   0.366   0.054  1.00  0.00     0.040 A 
ATOM     18  C   UNL     1       0.225   1.026   0.088  1.00  0.00     0.028 A 
ATOM     19  N   UNL     1      -1.071  -0.975  -0.027  1.00  0.00    -0.236 NA
ATOM     20  C   UNL     1       1.415   0.284   0.056  1.00  0.00    -0.033 A 
ATOM     21  C   UNL     1       2.699   1.065   0.092  1.00  0.00     0.045 C 
ATOM     22  C   UNL     1       1.330  -1.122  -0.041  1.00  0.00     0.084 A 
BRANCH  22  23
ATOM     23  C   UNL     1       2.564  -1.959  -0.143  1.00  0.00     0.252 C 
ATOM     24  N   UNL     1       2.536  -3.193   0.452  1.00  0.00    -0.365 N 
ATOM     25  O   UNL     1       3.566  -1.593  -0.742  1.00  0.00    -0.269 OA
ATOM     26  H   UNL     1       1.730  -3.488   0.934  1.00  0.00     0.159 HD
ATOM     27  H   UNL     1       3.321  -3.784   0.397  1.00  0.00     0.159 HD
ENDBRANCH  22  23
ENDBRANCH  13  15
ENDBRANCH   9  13
ENDBRANCH   5   8
ENDBRANCH   3   4
ENDBRANCH   2   3
ENDBRANCH   1   2
BRANCH   1  28
ATOM     28  C   UNL     1      -9.408  -4.236  -0.044  1.00  0.00     0.002 C 
BRANCH  28  29
ATOM     29  C   UNL     1      -9.929  -3.298   1.047  1.00  0.00     0.021 C 
BRANCH  29  30
ATOM     30  C   UNL     1     -11.030  -2.345   0.599  1.00  0.00     0.116 C 
BRANCH  30  31
ATOM     31  N   UNL     1     -12.210  -3.047   0.121  1.00  0.00    -0.352 N 
ATOM     32  C   UNL     1     -13.524  -2.872   0.475  1.00  0.00     0.251 C 
ATOM     33  H   UNL     1     -12.042  -3.747  -0.551  1.00  0.00     0.163 HD
ATOM     34  O   UNL     1     -14.374  -3.673   0.098  1.00  0.00    -0.269 OA
BRANCH  32  35
ATOM     35  C   UNL     1     -13.907  -1.728   1.330  1.00  0.00     0.039 A 
ATOM     36  C   UNL     1     -14.774  -1.947   2.402  1.00  0.00     0.014 A 
ATOM     37  C   UNL     1     -13.408  -0.446   1.079  1.00  0.00     0.014 A 
ATOM     38  C   UNL     1     -15.098  -0.891   3.256  1.00  0.00     0.010 A 
ATOM     39  C   UNL     1     -13.668   0.586   1.976  1.00  0.00     0.010 A 
ATOM     40  C   UNL     1     -14.522   0.377   3.070  1.00  0.00    -0.014 A 
BRANCH  40  41
ATOM     41  C   UNL     1     -14.794   1.491   4.015  1.00  0.00     0.031 A 
ATOM     42  C   UNL     1     -15.474   2.746   3.537  1.00  0.00     0.074 A 
ATOM     43  C   UNL     1     -14.359   1.404   5.288  1.00  0.00     0.049 A 
ATOM     44  N   UNL     1     -15.754   3.836   4.203  1.00  0.00    -0.248 NA
ATOM     45  C   UNL     1     -15.868   2.795   2.119  1.00  0.00     0.031 C 
ATOM     46  C   UNL     1     -13.619   0.274   5.853  1.00  0.00     0.029 A 
ATOM     47  N   UNL     1     -14.453   2.292   6.330  1.00  0.00    -0.354 N 
ATOM     48  C   UNL     1     -16.323   4.709   3.284  1.00  0.00     0.074 A 
ATOM     49  C   UNL     1     -16.317   4.036   2.004  1.00  0.00     0.031 C 
ATOM     50  C   UNL     1     -13.333   0.534   7.139  1.00  0.00     0.029 A 
ATOM     51  C   UNL     1     -13.837   1.860   7.481  1.00  0.00     0.049 A 
ATOM     52  H   UNL     1     -14.918   3.157   6.261  1.00  0.00     0.167 HD
ATOM     53  C   UNL     1     -16.831   5.948   3.490  1.00  0.00     0.034 A 
ATOM     54  C   UNL     1     -13.684   2.466   8.675  1.00  0.00     0.034 A 
ATOM     55  C   UNL     1     -16.869   6.599   4.772  1.00  0.00     0.049 A 
ATOM     56  C   UNL     1     -14.284   3.829   8.886  1.00  0.00     0.074 A 
ATOM     57  C   UNL     1     -17.440   7.816   5.101  1.00  0.00     0.029 A 
ATOM     58  N   UNL     1     -16.303   6.097   5.933  1.00  0.00    -0.354 N 
ATOM     59  N   UNL     1     -14.959   4.573   8.043  1.00  0.00    -0.248 NA
ATOM     60  C   UNL     1     -14.135   4.423  10.223  1.00  0.00     0.031 C 
ATOM     61  C   UNL     1     -17.190   8.065   6.454  1.00  0.00     0.029 A 
ATOM     62  C   UNL     1     -16.498   6.985   6.977  1.00  0.00     0.049 A 
ATOM     63  H   UNL     1     -15.832   5.236   6.005  1.00  0.00     0.167 HD
ATOM     64  C   UNL     1     -15.346   5.702   8.756  1.00  0.00     0.074 A 
ATOM     65  C   UNL     1     -14.849   5.534  10.106  1.00  0.00     0.031 C 
ATOM     66  C   UNL     1     -16.041   6.785   8.329  1.00  0.00     0.034 A 
BRANCH  53  67
ATOM     67  C   UNL     1     -17.430   6.667   2.308  1.00  0.00     0.023 A 
ATOM     68  C   UNL     1     -18.645   6.211   1.756  1.00  0.00     0.012 A 
ATOM     69  C   UNL     1     -16.826   7.827   1.785  1.00  0.00     0.148 A 
ATOM     70  C   UNL     1     -19.230   6.876   0.679  1.00  0.00     0.002 A 
ATOM     71  C   UNL     1     -17.440   8.512   0.743  1.00  0.00     0.091 A 
ATOM     72  F   UNL     1     -15.662   8.234   2.310  1.00  0.00    -0.205 F 
ATOM     73  C   UNL     1     -18.634   8.031   0.181  1.00  0.00     0.022 A 
BRANCH  71  74
ATOM     74  S   UNL     1     -16.798  10.055   0.085  1.00  0.00     0.127 S 
ATOM     75  O   UNL     1     -16.353   9.644  -1.246  1.00  0.00    -0.237 OA
ATOM     76  O   UNL     1     -17.985  10.910   0.093  1.00  0.00    -0.237 OA
ATOM     77  O   UNL     1     -15.740  10.472   0.994  1.00  0.00    -0.744 OA
ENDBRANCH  71  74
ENDBRANCH  53  67
BRANCH  54  78
ATOM     78  C   UNL     1     -12.976   1.764   9.784  1.00  0.00     0.023 A 
ATOM     79  C   UNL     1     -13.705   1.328  10.907  1.00  0.00     0.012 A 
ATOM     80  C   UNL     1     -11.592   1.510   9.722  1.00  0.00     0.148 A 
ATOM     81  C   UNL     1     -13.063   0.685  11.966  1.00  0.00     0.002 A 
ATOM     82  C   UNL     1     -10.969   0.818  10.753  1.00  0.00     0.091 A 
ATOM     83  F   UNL     1     -10.915   1.941   8.648  1.00  0.00    -0.205 F 
ATOM     84  C   UNL     1     -11.698   0.422  11.885  1.00  0.00     0.022 A 
BRANCH  82  85
ATOM     85  S   UNL     1      -9.245   0.320  10.675  1.00  0.00     0.127 S 
ATOM     86  O   UNL     1      -8.641   1.172  11.696  1.00  0.00    -0.237 OA
ATOM     87  O   UNL     1      -9.326  -1.099  11.023  1.00  0.00    -0.237 OA
ATOM     88  O   UNL     1      -8.822   0.578   9.305  1.00  0.00    -0.744 OA
ENDBRANCH  82  85
ENDBRANCH  54  78
BRANCH  66  89
ATOM     89  C   UNL     1     -16.349   7.862   9.337  1.00  0.00     0.023 A 
ATOM     90  C   UNL     1     -15.319   8.695   9.818  1.00  0.00     0.012 A 
ATOM     91  C   UNL     1     -17.675   8.091   9.754  1.00  0.00     0.148 A 
ATOM     92  C   UNL     1     -15.600   9.716  10.726  1.00  0.00     0.002 A 
ATOM     93  C   UNL     1     -17.955   9.144  10.617  1.00  0.00     0.091 A 
ATOM     94  F   UNL     1     -18.639   7.277   9.299  1.00  0.00    -0.205 F 
ATOM     95  C   UNL     1     -16.917   9.948  11.115  1.00  0.00     0.022 A 
BRANCH  93  96
ATOM     96  S   UNL     1     -19.630   9.581  11.094  1.00  0.00     0.127 S 
ATOM     97  O   UNL     1     -19.655   9.177  12.498  1.00  0.00    -0.237 OA
ATOM     98  O   UNL     1     -19.647  11.028  10.874  1.00  0.00    -0.237 OA
ATOM     99  O   UNL     1     -20.510   8.826  10.212  1.00  0.00    -0.744 OA
ENDBRANCH  93  96
ENDBRANCH  66  89
ENDBRANCH  40  41
ENDBRANCH  32  35
ENDBRANCH  30  31
ENDBRANCH  29  30
ENDBRANCH  28  29
ENDBRANCH   1  28
TORSDOF 19
