REMARK SMILES C[C@H]1[C@@H](C(=O)NCCCCCCNC(=O)c2ccc(-c3c4nc(c(-c5cccc(S(=O)(=O)[O-])c5F)c5ccc([nH]5)c(-c5cccc(S(=O)(=O)[O-])c5F)c5nc(c(-c6cccc(S(=O)(=O)[O-])c6F)c6ccc3[nH]6)C=C5)C=C4)cc2)CCN1C(=O)N[C@@H]1CC[N@H+]2CCCC[C@H]12
REMARK SMILES IDX 10 1 9 2 8 3 7 4 6 5 4 6 5 7 3 9 1 10 2 11 81 12 79 13 80 14
REMARK SMILES IDX 82 15 83 16 84 17 85 19 86 20 93 21 87 22 88 23 92 24 89 25
REMARK SMILES IDX 91 27 90 28 11 29 12 30 13 31 14 32 15 34 16 35 17 36 78 37
REMARK SMILES IDX 18 38 77 39 19 40 20 41 21 42 71 43 22 44 76 45 70 46 72 47
REMARK SMILES IDX 23 48 75 49 69 50 68 51 24 53 56 54 36 55 55 56 37 57 40 58
REMARK SMILES IDX 54 59 73 60 38 61 39 62 53 64 74 65 41 66 25 67 26 68 34 69
REMARK SMILES IDX 27 70 29 71 35 72 28 73 30 74 31 75 32 76 33 77 57 78 58 79
REMARK SMILES IDX 66 80 59 81 61 82 67 83 60 84 62 85 63 86 64 87 65 88 42 89
REMARK SMILES IDX 43 90 51 91 44 92 46 93 52 94 45 95 47 96 48 97 49 98 50 99
REMARK H PARENT 6 8 84 18 88 26 13 33 72 52 40 63
REMARK Flexibility Score: inf
ROOT
ATOM      1  C   UNL     1      -4.780  -6.262  -2.983  1.00  0.00     0.002 C 
ENDROOT
BRANCH   1   2
ATOM      2  C   UNL     1      -4.510  -4.981  -2.187  1.00  0.00     0.002 C 
BRANCH   2   3
ATOM      3  C   UNL     1      -3.759  -5.178  -0.863  1.00  0.00     0.021 C 
BRANCH   3   4
ATOM      4  C   UNL     1      -2.495  -6.029  -0.973  1.00  0.00     0.116 C 
BRANCH   4   5
ATOM      5  N   UNL     1      -1.580  -5.501  -1.968  1.00  0.00    -0.356 N 
ATOM      6  C   UNL     1      -0.305  -5.048  -1.845  1.00  0.00     0.225 C 
ATOM      7  O   UNL     1       0.313  -4.818  -2.883  1.00  0.00    -0.275 OA
ATOM      8  H   UNL     1      -1.943  -5.466  -2.882  1.00  0.00     0.163 HD
BRANCH   6   9
ATOM      9  C   UNL     1       0.307  -4.939  -0.460  1.00  0.00     0.102 C 
ATOM     10  C   UNL     1       1.262  -2.643  -1.228  1.00  0.00     0.032 C 
ATOM     11  C   UNL     1       1.214  -3.726  -0.158  1.00  0.00     0.096 C 
ATOM     12  N   UNL     1       2.537  -4.272   0.134  1.00  0.00    -0.321 N 
ATOM     13  C   UNL     1       1.186  -6.166  -0.203  1.00  0.00     0.037 C 
ATOM     14  C   UNL     1       2.603  -5.641  -0.351  1.00  0.00     0.122 C 
BRANCH  12  15
ATOM     15  C   UNL     1       3.647  -3.706   0.682  1.00  0.00     0.318 C 
ATOM     16  O   UNL     1       4.733  -4.296   0.679  1.00  0.00    -0.249 OA
ATOM     17  N   UNL     1       3.654  -2.490   1.263  1.00  0.00    -0.329 N 
ATOM     18  H   UNL     1       4.567  -2.209   1.500  1.00  0.00     0.165 HD
BRANCH  17  19
ATOM     19  C   UNL     1       2.670  -1.477   1.636  1.00  0.00     0.147 C 
ATOM     20  C   UNL     1       2.736  -0.251   0.704  1.00  0.00     0.092 C 
ATOM     21  C   UNL     1       2.870  -0.859   3.037  1.00  0.00     0.207 C 
ATOM     22  C   UNL     1       2.837   0.966   1.611  1.00  0.00     0.264 C 
ATOM     23  N   UNL     1       3.533   0.429   2.771  1.00  0.00    -0.331 N 
ATOM     24  C   UNL     1       3.662  -1.633   4.084  1.00  0.00     0.067 C 
ATOM     25  C   UNL     1       3.481   1.296   3.944  1.00  0.00     0.262 C 
ATOM     26  H   UNL     1       4.530   0.337   2.577  1.00  0.00     0.348 HD
ATOM     27  C   UNL     1       3.715  -0.806   5.375  1.00  0.00     0.012 C 
ATOM     28  C   UNL     1       4.209   0.622   5.113  1.00  0.00     0.062 C 
ENDBRANCH  17  19
ENDBRANCH  12  15
ENDBRANCH   6   9
ENDBRANCH   4   5
ENDBRANCH   3   4
ENDBRANCH   2   3
ENDBRANCH   1   2
BRANCH   1  29
ATOM     29  C   UNL     1      -5.521  -7.357  -2.216  1.00  0.00     0.021 C 
BRANCH  29  30
ATOM     30  C   UNL     1      -6.877  -6.934  -1.669  1.00  0.00     0.116 C 
BRANCH  30  31
ATOM     31  N   UNL     1      -7.803  -6.574  -2.732  1.00  0.00    -0.352 N 
ATOM     32  C   UNL     1      -9.064  -7.056  -2.973  1.00  0.00     0.251 C 
ATOM     33  H   UNL     1      -7.481  -5.891  -3.363  1.00  0.00     0.163 HD
ATOM     34  O   UNL     1      -9.633  -6.793  -4.030  1.00  0.00    -0.269 OA
BRANCH  32  35
ATOM     35  C   UNL     1      -9.723  -7.908  -1.962  1.00  0.00     0.039 A 
ATOM     36  C   UNL     1     -10.367  -9.076  -2.374  1.00  0.00     0.014 A 
ATOM     37  C   UNL     1      -9.690  -7.561  -0.608  1.00  0.00     0.014 A 
ATOM     38  C   UNL     1     -10.932  -9.925  -1.421  1.00  0.00     0.010 A 
ATOM     39  C   UNL     1     -10.179  -8.448   0.345  1.00  0.00     0.010 A 
ATOM     40  C   UNL     1     -10.814  -9.634  -0.051  1.00  0.00    -0.014 A 
BRANCH  40  41
ATOM     41  C   UNL     1     -11.343 -10.564   0.980  1.00  0.00     0.031 A 
ATOM     42  C   UNL     1     -12.429 -10.117   1.921  1.00  0.00     0.074 A 
ATOM     43  C   UNL     1     -10.791 -11.786   1.119  1.00  0.00     0.049 A 
ATOM     44  N   UNL     1     -12.986 -10.771   2.906  1.00  0.00    -0.248 NA
ATOM     45  C   UNL     1     -12.938  -8.746   1.750  1.00  0.00     0.031 C 
ATOM     46  C   UNL     1      -9.680 -12.308   0.319  1.00  0.00     0.029 A 
ATOM     47  N   UNL     1     -11.073 -12.801   1.998  1.00  0.00    -0.354 N 
ATOM     48  C   UNL     1     -13.883  -9.887   3.491  1.00  0.00     0.074 A 
ATOM     49  C   UNL     1     -13.769  -8.635   2.776  1.00  0.00     0.031 C 
ATOM     50  C   UNL     1      -9.383 -13.548   0.737  1.00  0.00     0.029 A 
ATOM     51  C   UNL     1     -10.253 -13.897   1.855  1.00  0.00     0.049 A 
ATOM     52  H   UNL     1     -11.793 -12.751   2.667  1.00  0.00     0.167 HD
ATOM     53  C   UNL     1     -14.746 -10.104   4.513  1.00  0.00     0.034 A 
ATOM     54  C   UNL     1     -10.202 -15.049   2.552  1.00  0.00     0.034 A 
ATOM     55  C   UNL     1     -14.879 -11.360   5.200  1.00  0.00     0.049 A 
ATOM     56  C   UNL     1     -11.185 -15.273   3.669  1.00  0.00     0.074 A 
ATOM     57  C   UNL     1     -15.782 -11.706   6.189  1.00  0.00     0.029 A 
ATOM     58  N   UNL     1     -14.079 -12.470   4.983  1.00  0.00    -0.354 N 
ATOM     59  N   UNL     1     -12.135 -14.480   4.103  1.00  0.00    -0.248 NA
ATOM     60  C   UNL     1     -11.113 -16.563   4.369  1.00  0.00     0.031 C 
ATOM     61  C   UNL     1     -15.503 -13.015   6.596  1.00  0.00     0.029 A 
ATOM     62  C   UNL     1     -14.454 -13.498   5.832  1.00  0.00     0.049 A 
ATOM     63  H   UNL     1     -13.351 -12.521   4.322  1.00  0.00     0.167 HD
ATOM     64  C   UNL     1     -12.795 -15.188   5.101  1.00  0.00     0.074 A 
ATOM     65  C   UNL     1     -12.150 -16.482   5.191  1.00  0.00     0.031 C 
ATOM     66  C   UNL     1     -13.833 -14.797   5.882  1.00  0.00     0.034 A 
BRANCH  53  67
ATOM     67  C   UNL     1     -15.645  -8.965   4.923  1.00  0.00     0.023 A 
ATOM     68  C   UNL     1     -16.682  -8.548   4.062  1.00  0.00     0.012 A 
ATOM     69  C   UNL     1     -15.500  -8.344   6.178  1.00  0.00     0.148 A 
ATOM     70  C   UNL     1     -17.533  -7.505   4.426  1.00  0.00     0.002 A 
ATOM     71  C   UNL     1     -16.382  -7.339   6.555  1.00  0.00     0.091 A 
ATOM     72  F   UNL     1     -14.497  -8.740   6.975  1.00  0.00    -0.205 F 
ATOM     73  C   UNL     1     -17.390  -6.909   5.676  1.00  0.00     0.022 A 
BRANCH  71  74
ATOM     74  S   UNL     1     -16.334  -6.562   8.174  1.00  0.00     0.127 S 
ATOM     75  O   UNL     1     -15.872  -5.215   7.840  1.00  0.00    -0.237 OA
ATOM     76  O   UNL     1     -17.733  -6.640   8.594  1.00  0.00    -0.237 OA
ATOM     77  O   UNL     1     -15.413  -7.356   8.974  1.00  0.00    -0.744 OA
ENDBRANCH  71  74
ENDBRANCH  53  67
BRANCH  54  78
ATOM     78  C   UNL     1      -9.215 -16.102   2.180  1.00  0.00     0.023 A 
ATOM     79  C   UNL     1      -9.668 -17.307   1.607  1.00  0.00     0.012 A 
ATOM     80  C   UNL     1      -7.833 -15.908   2.368  1.00  0.00     0.148 A 
ATOM     81  C   UNL     1      -8.766 -18.313   1.262  1.00  0.00     0.002 A 
ATOM     82  C   UNL     1      -6.936 -16.891   1.968  1.00  0.00     0.091 A 
ATOM     83  F   UNL     1      -7.424 -14.758   2.921  1.00  0.00    -0.205 F 
ATOM     84  C   UNL     1      -7.400 -18.102   1.433  1.00  0.00     0.022 A 
BRANCH  82  85
ATOM     85  S   UNL     1      -5.157 -16.653   2.029  1.00  0.00     0.127 S 
ATOM     86  O   UNL     1      -4.763 -17.601   3.069  1.00  0.00    -0.237 OA
ATOM     87  O   UNL     1      -4.758 -17.025   0.671  1.00  0.00    -0.237 OA
ATOM     88  O   UNL     1      -4.957 -15.246   2.349  1.00  0.00    -0.744 OA
ENDBRANCH  82  85
ENDBRANCH  54  78
BRANCH  66  89
ATOM     89  C   UNL     1     -14.369 -15.790   6.881  1.00  0.00     0.023 A 
ATOM     90  C   UNL     1     -13.612 -16.120   8.022  1.00  0.00     0.012 A 
ATOM     91  C   UNL     1     -15.656 -16.342   6.722  1.00  0.00     0.148 A 
ATOM     92  C   UNL     1     -14.112 -17.012   8.971  1.00  0.00     0.002 A 
ATOM     93  C   UNL     1     -16.169 -17.187   7.698  1.00  0.00     0.091 A 
ATOM     94  F   UNL     1     -16.354 -16.028   5.621  1.00  0.00    -0.205 F 
ATOM     95  C   UNL     1     -15.394 -17.534   8.815  1.00  0.00     0.022 A 
BRANCH  93  96
ATOM     96  S   UNL     1     -17.846 -17.829   7.633  1.00  0.00     0.127 S 
ATOM     97  O   UNL     1     -17.611 -19.247   7.367  1.00  0.00    -0.237 OA
ATOM     98  O   UNL     1     -18.340 -17.535   8.979  1.00  0.00    -0.237 OA
ATOM     99  O   UNL     1     -18.517 -17.097   6.568  1.00  0.00    -0.744 OA
ENDBRANCH  93  96
ENDBRANCH  66  89
ENDBRANCH  40  41
ENDBRANCH  32  35
ENDBRANCH  30  31
ENDBRANCH  29  30
ENDBRANCH   1  29
TORSDOF 18
