REMARK SMILES COc1ccc(/C=C2/C(=O)N(c3ccccc3)C(=O)[NH+]=C2NCCCCCCNC(=O)c2ccc(-c3c4nc(c(-c5cccc(S(=O)(=O)[O-])c5F)c5ccc([nH]5)c(-c5cccc(S(=O)(=O)[O-])c5F)c5nc(c(-c6cccc(S(=O)(=O)[O-])c6F)c6ccc3[nH]6)C=C5)C=C4)cc2)cc1C(=O)[O-]
REMARK SMILES IDX 26 1 25 2 24 3 23 4 22 5 7 6 8 7 9 8 21 9 10 10 11 11 20 12
REMARK SMILES IDX 18 13 19 16 6 17 3 18 4 19 96 20 5 21 95 22 2 23 1 24 97 25
REMARK SMILES IDX 98 26 99 27 12 28 13 29 17 30 14 31 16 32 15 33 27 34 28 35
REMARK SMILES IDX 29 36 30 37 31 39 32 40 33 41 94 42 34 43 93 44 35 45 36 46
REMARK SMILES IDX 37 47 87 48 38 49 92 50 86 51 88 52 39 53 91 54 85 55 84 56
REMARK SMILES IDX 40 58 72 59 52 60 71 61 53 62 56 63 70 64 89 65 54 66 55 67
REMARK SMILES IDX 69 69 90 70 57 71 41 72 42 73 50 74 43 75 45 76 51 77 44 78
REMARK SMILES IDX 46 79 47 80 48 81 49 82 73 83 74 84 82 85 75 86 77 87 83 88
REMARK SMILES IDX 76 89 78 90 79 91 80 92 81 93 58 94 59 95 67 96 60 97 62 98
REMARK SMILES IDX 68 99 61 100 63 101 64 102 65 103 66 104
REMARK H PARENT 20 14 22 15 29 38 88 57 56 68
REMARK Flexibility Score: inf
ROOT
ATOM      1  C   UNL     1      -2.203  -1.174  -1.617  1.00  0.00     0.002 C 
ENDROOT
BRANCH   1   2
ATOM      2  C   UNL     1      -1.131  -0.426  -2.475  1.00  0.00     0.003 C 
BRANCH   2   3
ATOM      3  C   UNL     1       0.481  -0.887  -3.097  1.00  0.00     0.037 C 
BRANCH   3   4
ATOM      4  C   UNL     1       1.435  -2.728  -3.800  1.00  0.00     0.194 C 
BRANCH   4   5
ATOM      5  N   UNL     1       0.855  -3.893  -4.812  1.00  0.00    -0.305 N 
ATOM      6  C   UNL     1       0.897  -1.437  -6.586  1.00  0.00     0.030 C 
ATOM      7  C   UNL     1       1.004  -2.691  -7.034  1.00  0.00     0.129 C 
ATOM      8  C   UNL     1       1.357  -2.991  -8.428  1.00  0.00     0.328 C 
ATOM      9  C   UNL     1       0.643  -3.846  -6.180  1.00  0.00     0.236 C 
ATOM     10  O   UNL     1       2.127  -2.272  -9.058  1.00  0.00    -0.249 OA
ATOM     11  N   UNL     1       0.698  -4.111  -8.897  1.00  0.00    -0.155 N 
ATOM     12  N   UNL     1       0.028  -4.846  -6.752  1.00  0.00    -0.209 N 
ATOM     13  C   UNL     1      -0.256  -4.746  -8.104  1.00  0.00     0.448 C 
ATOM     14  H   UNL     1      -0.227  -5.646  -6.238  1.00  0.00     0.270 HD
ATOM     15  H   UNL     1       0.626  -4.747  -4.381  1.00  0.00     0.256 HD
ATOM     16  O   UNL     1      -1.317  -5.167  -8.561  1.00  0.00    -0.212 OA
BRANCH   6  17
ATOM     17  C   UNL     1       0.717  -1.300  -5.151  1.00  0.00    -0.024 A 
ATOM     18  C   UNL     1       1.353  -2.194  -1.716  1.00  0.00     0.127 A 
ATOM     19  C   UNL     1      -0.172  -2.748  -2.518  1.00  0.00     0.048 A 
ATOM     20  C   UNL     1       2.578  -1.290  -2.657  1.00  0.00     0.040 A 
ATOM     21  C   UNL     1      -0.548  -2.222  -4.225  1.00  0.00     0.012 A 
ATOM     22  C   UNL     1       2.241  -0.802  -4.337  1.00  0.00     0.022 A 
BRANCH  18  23
ATOM     23  O   UNL     1       1.439  -2.317  -0.354  1.00  0.00    -0.496 OA
ATOM     24  C   UNL     1       1.685  -1.036   0.250  1.00  0.00     0.278 C 
ENDBRANCH  18  23
BRANCH  20  25
ATOM     25  C   UNL     1       3.936  -1.006  -2.174  1.00  0.00     0.075 C 
ATOM     26  O   UNL     1       4.685  -0.189  -2.671  1.00  0.00    -0.545 OA
ATOM     27  O   UNL     1       4.281  -1.826  -1.177  1.00  0.00    -0.545 OA
ENDBRANCH  20  25
ENDBRANCH   6  17
BRANCH  11  28
ATOM     28  C   UNL     1       0.766  -4.375 -10.283  1.00  0.00     0.111 A 
ATOM     29  C   UNL     1      -0.039  -3.681 -11.192  1.00  0.00     0.044 A 
ATOM     30  C   UNL     1       1.760  -5.244 -10.745  1.00  0.00     0.044 A 
ATOM     31  C   UNL     1       0.160  -3.852 -12.563  1.00  0.00     0.004 A 
ATOM     32  C   UNL     1       1.954  -5.413 -12.115  1.00  0.00     0.004 A 
ATOM     33  C   UNL     1       1.158  -4.713 -13.023  1.00  0.00     0.000 A 
ENDBRANCH  11  28
ENDBRANCH   4   5
ENDBRANCH   3   4
ENDBRANCH   2   3
ENDBRANCH   1   2
BRANCH   1  34
ATOM     34  C   UNL     1      -1.915  -1.679  -0.190  1.00  0.00     0.021 C 
BRANCH  34  35
ATOM     35  C   UNL     1      -1.522  -0.615   0.823  1.00  0.00     0.116 C 
BRANCH  35  36
ATOM     36  N   UNL     1      -2.599  -0.202   1.696  1.00  0.00    -0.352 N 
ATOM     37  C   UNL     1      -2.472   0.306   2.970  1.00  0.00     0.251 C 
ATOM     38  H   UNL     1      -3.514  -0.292   1.344  1.00  0.00     0.163 HD
ATOM     39  O   UNL     1      -3.468   0.453   3.674  1.00  0.00    -0.269 OA
BRANCH  37  40
ATOM     40  C   UNL     1      -1.127   0.648   3.507  1.00  0.00     0.039 A 
ATOM     41  C   UNL     1      -0.793   0.235   4.800  1.00  0.00     0.014 A 
ATOM     42  C   UNL     1      -0.214   1.410   2.769  1.00  0.00     0.014 A 
ATOM     43  C   UNL     1       0.446   0.585   5.350  1.00  0.00     0.010 A 
ATOM     44  C   UNL     1       1.046   1.706   3.297  1.00  0.00     0.010 A 
ATOM     45  C   UNL     1       1.379   1.328   4.607  1.00  0.00    -0.014 A 
BRANCH  45  46
ATOM     46  C   UNL     1       2.665   1.759   5.225  1.00  0.00     0.031 A 
ATOM     47  C   UNL     1       2.942   3.222   5.473  1.00  0.00     0.074 A 
ATOM     48  C   UNL     1       3.598   0.846   5.561  1.00  0.00     0.049 A 
ATOM     49  N   UNL     1       3.973   3.778   6.058  1.00  0.00    -0.248 NA
ATOM     50  C   UNL     1       1.944   4.187   4.985  1.00  0.00     0.031 C 
ATOM     51  C   UNL     1       3.499  -0.593   5.314  1.00  0.00     0.029 A 
ATOM     52  N   UNL     1       4.818   0.994   6.176  1.00  0.00    -0.354 N 
ATOM     53  C   UNL     1       3.761   5.151   5.985  1.00  0.00     0.074 A 
ATOM     54  C   UNL     1       2.522   5.346   5.265  1.00  0.00     0.031 C 
ATOM     55  C   UNL     1       4.604  -1.196   5.784  1.00  0.00     0.029 A 
ATOM     56  C   UNL     1       5.497  -0.189   6.353  1.00  0.00     0.049 A 
ATOM     57  H   UNL     1       5.173   1.866   6.462  1.00  0.00     0.167 HD
ATOM     58  C   UNL     1       4.506   6.160   6.499  1.00  0.00     0.034 A 
ATOM     59  C   UNL     1       6.697  -0.439   6.915  1.00  0.00     0.034 A 
ATOM     60  C   UNL     1       5.712   5.972   7.259  1.00  0.00     0.049 A 
ATOM     61  C   UNL     1       7.483   0.693   7.522  1.00  0.00     0.074 A 
ATOM     62  C   UNL     1       6.484   6.929   7.896  1.00  0.00     0.029 A 
ATOM     63  N   UNL     1       6.329   4.752   7.479  1.00  0.00    -0.354 N 
ATOM     64  N   UNL     1       7.176   1.966   7.593  1.00  0.00    -0.248 NA
ATOM     65  C   UNL     1       8.760   0.349   8.166  1.00  0.00     0.031 C 
ATOM     66  C   UNL     1       7.582   6.288   8.481  1.00  0.00     0.029 A 
ATOM     67  C   UNL     1       7.477   4.930   8.232  1.00  0.00     0.049 A 
ATOM     68  H   UNL     1       5.999   3.885   7.148  1.00  0.00     0.167 HD
ATOM     69  C   UNL     1       8.201   2.566   8.318  1.00  0.00     0.074 A 
ATOM     70  C   UNL     1       9.126   1.514   8.684  1.00  0.00     0.031 C 
ATOM     71  C   UNL     1       8.366   3.873   8.640  1.00  0.00     0.034 A 
BRANCH  58  72
ATOM     72  C   UNL     1       4.006   7.569   6.305  1.00  0.00     0.023 A 
ATOM     73  C   UNL     1       2.873   8.010   7.019  1.00  0.00     0.012 A 
ATOM     74  C   UNL     1       4.692   8.474   5.472  1.00  0.00     0.148 A 
ATOM     75  C   UNL     1       2.408   9.317   6.879  1.00  0.00     0.002 A 
ATOM     76  C   UNL     1       4.250   9.789   5.373  1.00  0.00     0.091 A 
ATOM     77  F   UNL     1       5.756   8.033   4.786  1.00  0.00    -0.205 F 
ATOM     78  C   UNL     1       3.102  10.208   6.066  1.00  0.00     0.022 A 
BRANCH  76  79
ATOM     79  S   UNL     1       5.121  11.034   4.415  1.00  0.00     0.127 S 
ATOM     80  O   UNL     1       4.211  11.228   3.287  1.00  0.00    -0.237 OA
ATOM     81  O   UNL     1       5.179  12.158   5.351  1.00  0.00    -0.237 OA
ATOM     82  O   UNL     1       6.414  10.453   4.083  1.00  0.00    -0.744 OA
ENDBRANCH  76  79
ENDBRANCH  58  72
BRANCH  59  83
ATOM     83  C   UNL     1       7.202  -1.840   6.993  1.00  0.00     0.023 A 
ATOM     84  C   UNL     1       7.275  -2.487   8.242  1.00  0.00     0.012 A 
ATOM     85  C   UNL     1       7.592  -2.537   5.834  1.00  0.00     0.148 A 
ATOM     86  C   UNL     1       7.756  -3.793   8.338  1.00  0.00     0.002 A 
ATOM     87  C   UNL     1       8.017  -3.857   5.930  1.00  0.00     0.091 A 
ATOM     88  F   UNL     1       7.530  -1.898   4.657  1.00  0.00    -0.205 F 
ATOM     89  C   UNL     1       8.117  -4.482   7.183  1.00  0.00     0.022 A 
BRANCH  87  90
ATOM     90  S   UNL     1       8.372  -4.858   4.482  1.00  0.00     0.127 S 
ATOM     91  O   UNL     1       9.825  -4.988   4.557  1.00  0.00    -0.237 OA
ATOM     92  O   UNL     1       7.626  -6.083   4.771  1.00  0.00    -0.237 OA
ATOM     93  O   UNL     1       7.862  -4.100   3.347  1.00  0.00    -0.744 OA
ENDBRANCH  87  90
ENDBRANCH  59  83
BRANCH  71  94
ATOM     94  C   UNL     1       9.573   4.250   9.461  1.00  0.00     0.023 A 
ATOM     95  C   UNL     1      10.854   4.231   8.876  1.00  0.00     0.012 A 
ATOM     96  C   UNL     1       9.427   4.698  10.789  1.00  0.00     0.148 A 
ATOM     97  C   UNL     1      11.975   4.620   9.609  1.00  0.00     0.002 A 
ATOM     98  C   UNL     1      10.542   5.131  11.498  1.00  0.00     0.091 A 
ATOM     99  F   UNL     1       8.203   4.692  11.336  1.00  0.00    -0.205 F 
ATOM    100  C   UNL     1      11.818   5.081  10.914  1.00  0.00     0.022 A 
BRANCH  98 101
ATOM    101  S   UNL     1      10.420   5.831  13.148  1.00  0.00     0.127 S 
ATOM    102  O   UNL     1      10.961   4.750  13.971  1.00  0.00    -0.237 OA
ATOM    103  O   UNL     1      11.280   7.011  13.050  1.00  0.00    -0.237 OA
ATOM    104  O   UNL     1       9.009   6.129  13.354  1.00  0.00    -0.744 OA
ENDBRANCH  98 101
ENDBRANCH  71  94
ENDBRANCH  45  46
ENDBRANCH  37  40
ENDBRANCH  35  36
ENDBRANCH  34  35
ENDBRANCH   1  34
TORSDOF 19
