REMARK SMILES COc1cc(C[N@@H+]2CCO[C@@H](CC(=O)NCCCCCCNC(=O)c3ccc(-c4c5nc(c(-c6cccc(S(=O)(=O)[O-])c6F)c6ccc([nH]6)c(-c6cccc(S(=O)(=O)[O-])c6F)c6nc(c(-c7cccc(S(=O)(=O)[O-])c7F)c7ccc4[nH]7)C=C6)C=C5)cc3)C2)ccc1O
REMARK SMILES IDX 18 1 17 2 16 3 15 4 13 5 14 6 12 8 11 9 7 10 8 11 88 12 9 14
REMARK SMILES IDX 10 15 6 16 5 17 3 18 4 19 91 20 90 21 89 22 2 23 1 24 92 25
REMARK SMILES IDX 19 27 20 28 21 29 22 30 23 31 24 33 25 34 26 35 87 36 27 37
REMARK SMILES IDX 86 38 28 39 29 40 30 41 80 42 31 43 85 44 79 45 81 46 32 47
REMARK SMILES IDX 84 48 78 49 77 50 33 52 65 53 45 54 64 55 46 56 49 57 63 58
REMARK SMILES IDX 82 59 47 60 48 61 62 63 83 64 50 65 34 66 35 67 43 68 36 69
REMARK SMILES IDX 38 70 44 71 37 72 39 73 40 74 41 75 42 76 66 77 67 78 75 79
REMARK SMILES IDX 68 80 70 81 76 82 69 83 71 84 72 85 73 86 74 87 51 88 52 89
REMARK SMILES IDX 60 90 53 91 55 92 61 93 54 94 56 95 57 96 58 97 59 98
REMARK H PARENT 15 7 7 13 92 26 22 32 81 51 49 62
REMARK Flexibility Score: inf
ROOT
ATOM      1  C   UNL     1      -6.341   4.016  -6.824  1.00  0.00     0.002 C 
ENDROOT
BRANCH   1   2
ATOM      2  C   UNL     1      -5.413   3.890  -5.619  1.00  0.00     0.021 C 
BRANCH   2   3
ATOM      3  C   UNL     1      -6.100   3.368  -4.353  1.00  0.00     0.116 C 
BRANCH   3   4
ATOM      4  N   UNL     1      -5.985   1.919  -4.275  1.00  0.00    -0.356 N 
ATOM      5  C   UNL     1      -5.251   1.154  -3.416  1.00  0.00     0.222 C 
ATOM      6  O   UNL     1      -5.168  -0.057  -3.624  1.00  0.00    -0.275 OA
ATOM      7  H   UNL     1      -6.514   1.419  -4.938  1.00  0.00     0.163 HD
BRANCH   5   8
ATOM      8  C   UNL     1      -4.558   1.797  -2.237  1.00  0.00     0.138 C 
BRANCH   8   9
ATOM      9  C   UNL     1      -3.085   2.141  -2.478  1.00  0.00     0.182 C 
ATOM     10  N   UNL     1      -1.481   3.392  -4.042  1.00  0.00    -0.327 N 
ATOM     11  C   UNL     1      -0.970   4.047  -2.833  1.00  0.00     0.291 C 
ATOM     12  C   UNL     1      -2.828   2.860  -3.821  1.00  0.00     0.295 C 
ATOM     13  H   UNL     1      -1.567   4.138  -4.733  1.00  0.00     0.348 HD
ATOM     14  C   UNL     1      -1.300   3.349  -1.499  1.00  0.00     0.222 C 
ATOM     15  O   UNL     1      -2.684   2.996  -1.389  1.00  0.00    -0.366 OA
BRANCH  10  16
ATOM     16  C   UNL     1      -0.559   2.530  -4.785  1.00  0.00     0.299 C 
BRANCH  16  17
ATOM     17  C   UNL     1      -0.262   1.204  -4.133  1.00  0.00     0.010 A 
ATOM     18  C   UNL     1       0.778   0.026  -2.272  1.00  0.00     0.160 A 
ATOM     19  C   UNL     1       0.701   1.133  -3.119  1.00  0.00     0.060 A 
ATOM     20  C   UNL     1      -0.066  -1.058  -2.519  1.00  0.00     0.157 A 
ATOM     21  C   UNL     1      -0.928  -1.062  -3.617  1.00  0.00     0.051 A 
ATOM     22  C   UNL     1      -1.029   0.069  -4.424  1.00  0.00     0.013 A 
BRANCH  18  23
ATOM     23  O   UNL     1       1.694   0.181  -1.271  1.00  0.00    -0.493 OA
ATOM     24  C   UNL     1       1.476  -0.532  -0.066  1.00  0.00     0.278 C 
ENDBRANCH  18  23
BRANCH  20  25
ATOM     25  O   UNL     1      -0.138  -2.142  -1.694  1.00  0.00    -0.504 OA
ATOM     26  H   UNL     1       0.416  -2.196  -0.941  1.00  0.00     0.293 HD
ENDBRANCH  20  25
ENDBRANCH  16  17
ENDBRANCH  10  16
ENDBRANCH   8   9
ENDBRANCH   5   8
ENDBRANCH   3   4
ENDBRANCH   2   3
ENDBRANCH   1   2
BRANCH   1  27
ATOM     27  C   UNL     1      -7.404   5.108  -6.689  1.00  0.00     0.002 C 
BRANCH  27  28
ATOM     28  C   UNL     1      -6.870   6.504  -6.350  1.00  0.00     0.021 C 
BRANCH  28  29
ATOM     29  C   UNL     1      -5.793   7.026  -7.297  1.00  0.00     0.116 C 
BRANCH  29  30
ATOM     30  N   UNL     1      -6.282   7.121  -8.663  1.00  0.00    -0.352 N 
ATOM     31  C   UNL     1      -6.403   8.227  -9.465  1.00  0.00     0.251 C 
ATOM     32  H   UNL     1      -6.567   6.271  -9.070  1.00  0.00     0.163 HD
ATOM     33  O   UNL     1      -7.064   8.168 -10.496  1.00  0.00    -0.269 OA
BRANCH  31  34
ATOM     34  C   UNL     1      -5.732   9.488  -9.082  1.00  0.00     0.039 A 
ATOM     35  C   UNL     1      -6.429  10.692  -9.201  1.00  0.00     0.014 A 
ATOM     36  C   UNL     1      -4.405   9.481  -8.641  1.00  0.00     0.014 A 
ATOM     37  C   UNL     1      -5.804  11.890  -8.847  1.00  0.00     0.010 A 
ATOM     38  C   UNL     1      -3.809  10.667  -8.223  1.00  0.00     0.010 A 
ATOM     39  C   UNL     1      -4.493  11.885  -8.343  1.00  0.00    -0.014 A 
BRANCH  39  40
ATOM     40  C   UNL     1      -3.806  13.146  -7.968  1.00  0.00     0.031 A 
ATOM     41  C   UNL     1      -2.582  13.587  -8.727  1.00  0.00     0.074 A 
ATOM     42  C   UNL     1      -4.231  13.851  -6.901  1.00  0.00     0.049 A 
ATOM     43  N   UNL     1      -1.806  14.618  -8.516  1.00  0.00    -0.248 NA
ATOM     44  C   UNL     1      -2.156  12.739  -9.855  1.00  0.00     0.031 C 
ATOM     45  C   UNL     1      -5.357  13.486  -6.041  1.00  0.00     0.029 A 
ATOM     46  N   UNL     1      -3.746  15.006  -6.342  1.00  0.00    -0.354 N 
ATOM     47  C   UNL     1      -0.783  14.522  -9.452  1.00  0.00     0.074 A 
ATOM     48  C   UNL     1      -1.016  13.314 -10.211  1.00  0.00     0.031 C 
ATOM     49  C   UNL     1      -5.477  14.399  -5.063  1.00  0.00     0.029 A 
ATOM     50  C   UNL     1      -4.425  15.399  -5.212  1.00  0.00     0.049 A 
ATOM     51  H   UNL     1      -2.984  15.507  -6.714  1.00  0.00     0.167 HD
ATOM     52  C   UNL     1       0.241  15.378  -9.682  1.00  0.00     0.034 A 
ATOM     53  C   UNL     1      -4.219  16.446  -4.389  1.00  0.00     0.034 A 
ATOM     54  C   UNL     1       0.436  16.607  -8.962  1.00  0.00     0.049 A 
ATOM     55  C   UNL     1      -3.110  17.415  -4.703  1.00  0.00     0.074 A 
ATOM     56  C   UNL     1       1.389  17.587  -9.175  1.00  0.00     0.029 A 
ATOM     57  N   UNL     1      -0.336  17.025  -7.890  1.00  0.00    -0.354 N 
ATOM     58  N   UNL     1      -2.247  17.389  -5.690  1.00  0.00    -0.248 NA
ATOM     59  C   UNL     1      -2.971  18.578  -3.815  1.00  0.00     0.031 C 
ATOM     60  C   UNL     1       1.200  18.593  -8.221  1.00  0.00     0.029 A 
ATOM     61  C   UNL     1       0.117  18.248  -7.429  1.00  0.00     0.049 A 
ATOM     62  H   UNL     1      -1.096  16.525  -7.512  1.00  0.00     0.167 HD
ATOM     63  C   UNL     1      -1.492  18.550  -5.567  1.00  0.00     0.074 A 
ATOM     64  C   UNL     1      -2.011  19.265  -4.420  1.00  0.00     0.031 C 
ATOM     65  C   UNL     1      -0.453  18.978  -6.325  1.00  0.00     0.034 A 
BRANCH  52  66
ATOM     66  C   UNL     1       1.195  15.046 -10.800  1.00  0.00     0.023 A 
ATOM     67  C   UNL     1       0.761  15.155 -12.137  1.00  0.00     0.012 A 
ATOM     68  C   UNL     1       2.529  14.681 -10.534  1.00  0.00     0.148 A 
ATOM     69  C   UNL     1       1.628  14.872 -13.192  1.00  0.00     0.002 A 
ATOM     70  C   UNL     1       3.401  14.445 -11.592  1.00  0.00     0.091 A 
ATOM     71  F   UNL     1       2.919  14.562  -9.257  1.00  0.00    -0.205 F 
ATOM     72  C   UNL     1       2.949  14.528 -12.920  1.00  0.00     0.022 A 
BRANCH  70  73
ATOM     73  S   UNL     1       5.141  14.073 -11.349  1.00  0.00     0.127 S 
ATOM     74  O   UNL     1       5.195  12.659 -11.719  1.00  0.00    -0.237 OA
ATOM     75  O   UNL     1       5.786  14.977 -12.303  1.00  0.00    -0.237 OA
ATOM     76  O   UNL     1       5.423  14.365  -9.951  1.00  0.00    -0.744 OA
ENDBRANCH  70  73
ENDBRANCH  52  66
BRANCH  53  77
ATOM     77  C   UNL     1      -5.132  16.677  -3.234  1.00  0.00     0.023 A 
ATOM     78  C   UNL     1      -6.027  17.764  -3.270  1.00  0.00     0.012 A 
ATOM     79  C   UNL     1      -5.140  15.819  -2.118  1.00  0.00     0.148 A 
ATOM     80  C   UNL     1      -6.889  18.013  -2.202  1.00  0.00     0.002 A 
ATOM     81  C   UNL     1      -6.039  16.040  -1.081  1.00  0.00     0.091 A 
ATOM     82  F   UNL     1      -4.273  14.796  -2.096  1.00  0.00    -0.205 F 
ATOM     83  C   UNL     1      -6.902  17.146  -1.112  1.00  0.00     0.022 A 
BRANCH  81  84
ATOM     84  S   UNL     1      -6.215  14.903   0.299  1.00  0.00     0.127 S 
ATOM     85  O   UNL     1      -5.600  15.655   1.388  1.00  0.00    -0.237 OA
ATOM     86  O   UNL     1      -7.668  14.759   0.391  1.00  0.00    -0.237 OA
ATOM     87  O   UNL     1      -5.520  13.688  -0.106  1.00  0.00    -0.744 OA
ENDBRANCH  81  84
ENDBRANCH  53  77
BRANCH  65  88
ATOM     88  C   UNL     1       0.171  20.303  -5.975  1.00  0.00     0.023 A 
ATOM     89  C   UNL     1       0.983  20.415  -4.830  1.00  0.00     0.012 A 
ATOM     90  C   UNL     1       0.018  21.415  -6.827  1.00  0.00     0.148 A 
ATOM     91  C   UNL     1       1.610  21.622  -4.522  1.00  0.00     0.002 A 
ATOM     92  C   UNL     1       0.684  22.600  -6.540  1.00  0.00     0.091 A 
ATOM     93  F   UNL     1      -0.775  21.293  -7.902  1.00  0.00    -0.205 F 
ATOM     94  C   UNL     1       1.470  22.709  -5.382  1.00  0.00     0.022 A 
BRANCH  92  95
ATOM     95  S   UNL     1       0.640  24.017  -7.643  1.00  0.00     0.127 S 
ATOM     96  O   UNL     1      -0.248  24.928  -6.923  1.00  0.00    -0.237 OA
ATOM     97  O   UNL     1       2.043  24.431  -7.674  1.00  0.00    -0.237 OA
ATOM     98  O   UNL     1       0.132  23.518  -8.914  1.00  0.00    -0.744 OA
ENDBRANCH  92  95
ENDBRANCH  65  88
ENDBRANCH  39  40
ENDBRANCH  31  34
ENDBRANCH  29  30
ENDBRANCH  28  29
ENDBRANCH  27  28
ENDBRANCH   1  27
TORSDOF 21
