REMARK SMILES Cc1cccc(-n2c(C)cc(/C=N\c3ccc(O)c(C(=O)NCCCCCCNC(=O)c4ccc(-c5c6nc(c(-c7cccc(S(=O)(=O)[O-])c7F)c7ccc([nH]7)c(-c7cccc(S(=O)(=O)[O-])c7F)c7nc(c(-c8cccc(S(=O)(=O)[O-])c8F)c8ccc5[nH]8)C=C7)C=C6)cc4)c3)c2C)c1
REMARK SMILES IDX 25 1 24 2 23 3 22 4 20 5 21 6 19 8 14 9 15 10 95 11 16 12
REMARK SMILES IDX 17 13 13 14 12 15 11 16 7 17 8 18 96 19 9 20 10 21 97 22
REMARK SMILES IDX 6 23 1 24 2 25 3 26 98 27 4 28 5 29 18 30 26 32 27 33 28 34
REMARK SMILES IDX 29 35 30 36 31 38 32 39 33 40 94 41 34 42 93 43 35 44 36 45
REMARK SMILES IDX 37 46 87 47 38 48 92 49 86 50 88 51 39 52 91 53 85 54 84 55
REMARK SMILES IDX 40 57 72 58 52 59 71 60 53 61 56 62 70 63 89 64 54 65 55 66
REMARK SMILES IDX 69 68 90 69 57 70 41 71 42 72 50 73 43 74 45 75 51 76 44 77
REMARK SMILES IDX 46 78 47 79 48 80 49 81 73 82 74 83 82 84 75 85 77 86 83 87
REMARK SMILES IDX 76 88 78 89 79 90 80 91 81 92 58 93 59 94 67 95 60 96 62 97
REMARK SMILES IDX 68 98 61 99 63 100 64 101 65 102 66 103
REMARK H PARENT 22 7 18 31 29 37 88 56 56 67
REMARK Flexibility Score: inf
ROOT
ATOM      1  C   UNL     1      -5.255  -3.557   7.292  1.00  0.00     0.002 C 
ENDROOT
BRANCH   1   2
ATOM      2  C   UNL     1      -4.444  -2.266   7.438  1.00  0.00     0.021 C 
BRANCH   2   3
ATOM      3  C   UNL     1      -4.227  -1.381   6.223  1.00  0.00     0.116 C 
BRANCH   3   4
ATOM      4  N   UNL     1      -5.409  -0.930   5.521  1.00  0.00    -0.352 N 
ATOM      5  C   UNL     1      -5.601   0.147   4.682  1.00  0.00     0.255 C 
ATOM      6  O   UNL     1      -6.705   0.237   4.138  1.00  0.00    -0.269 OA
ATOM      7  H   UNL     1      -6.209  -1.485   5.667  1.00  0.00     0.163 HD
BRANCH   5   8
ATOM      8  C   UNL     1      -4.575   1.210   4.405  1.00  0.00     0.083 A 
ATOM      9  C   UNL     1      -4.159   3.405   3.395  1.00  0.00     0.064 A 
ATOM     10  C   UNL     1      -2.827   3.353   3.795  1.00  0.00     0.032 A 
ATOM     11  C   UNL     1      -5.047   2.408   3.833  1.00  0.00     0.046 A 
ATOM     12  C   UNL     1      -2.334   2.184   4.359  1.00  0.00     0.049 A 
ATOM     13  C   UNL     1      -3.186   1.089   4.519  1.00  0.00     0.128 A 
BRANCH   9  14
ATOM     14  N   UNL     1      -4.620   4.407   2.541  1.00  0.00    -0.256 NA
ATOM     15  C   UNL     1      -4.198   4.559   1.316  1.00  0.00     0.121 C 
BRANCH  15  16
ATOM     16  C   UNL     1      -3.232   3.819   0.489  1.00  0.00     0.014 A 
ATOM     17  N   UNL     1      -1.839   2.314  -0.489  1.00  0.00    -0.318 N 
ATOM     18  C   UNL     1      -1.644   3.521  -1.138  1.00  0.00     0.021 A 
ATOM     19  C   UNL     1      -2.916   2.462   0.393  1.00  0.00     0.029 A 
ATOM     20  C   UNL     1      -0.750   3.686  -2.318  1.00  0.00     0.065 C 
ATOM     21  C   UNL     1      -2.465   4.453  -0.537  1.00  0.00     0.033 A 
ATOM     22  C   UNL     1      -3.476   1.292   1.116  1.00  0.00     0.065 C 
BRANCH  17  23
ATOM     23  C   UNL     1      -1.029   1.147  -0.632  1.00  0.00     0.046 A 
ATOM     24  C   UNL     1       2.592   0.128  -0.002  1.00  0.00     0.044 C 
ATOM     25  C   UNL     1       1.126   0.071  -0.322  1.00  0.00    -0.049 A 
ATOM     26  C   UNL     1       0.513  -1.177  -0.502  1.00  0.00     0.003 A 
ATOM     27  C   UNL     1       0.349   1.238  -0.392  1.00  0.00     0.030 A 
ATOM     28  C   UNL     1      -0.846  -1.260  -0.797  1.00  0.00     0.002 A 
ATOM     29  C   UNL     1      -1.612  -0.099  -0.883  1.00  0.00     0.026 A 
ENDBRANCH  17  23
ENDBRANCH  15  16
ENDBRANCH   9  14
BRANCH  13  30
ATOM     30  O   UNL     1      -2.526  -0.109   4.527  1.00  0.00    -0.507 OA
ATOM     31  H   UNL     1      -1.592  -0.129   4.606  1.00  0.00     0.293 HD
ENDBRANCH  13  30
ENDBRANCH   5   8
ENDBRANCH   3   4
ENDBRANCH   2   3
ENDBRANCH   1   2
BRANCH   1  32
ATOM     32  C   UNL     1      -5.165  -4.417   6.022  1.00  0.00     0.002 C 
BRANCH  32  33
ATOM     33  C   UNL     1      -3.795  -4.838   5.481  1.00  0.00     0.021 C 
BRANCH  33  34
ATOM     34  C   UNL     1      -2.793  -5.290   6.529  1.00  0.00     0.116 C 
BRANCH  34  35
ATOM     35  N   UNL     1      -2.975  -6.641   7.009  1.00  0.00    -0.352 N 
ATOM     36  C   UNL     1      -2.322  -7.328   8.014  1.00  0.00     0.251 C 
ATOM     37  H   UNL     1      -3.676  -7.154   6.546  1.00  0.00     0.163 HD
ATOM     38  O   UNL     1      -2.493  -8.549   8.043  1.00  0.00    -0.269 OA
BRANCH  36  39
ATOM     39  C   UNL     1      -1.530  -6.654   9.090  1.00  0.00     0.039 A 
ATOM     40  C   UNL     1      -1.320  -7.354  10.295  1.00  0.00     0.014 A 
ATOM     41  C   UNL     1      -1.110  -5.329   9.018  1.00  0.00     0.014 A 
ATOM     42  C   UNL     1      -0.919  -6.683  11.457  1.00  0.00     0.010 A 
ATOM     43  C   UNL     1      -0.773  -4.648  10.168  1.00  0.00     0.010 A 
ATOM     44  C   UNL     1      -0.758  -5.307  11.399  1.00  0.00    -0.014 A 
BRANCH  44  45
ATOM     45  C   UNL     1      -0.734  -4.402  12.539  1.00  0.00     0.031 A 
ATOM     46  C   UNL     1       0.520  -3.920  13.137  1.00  0.00     0.074 A 
ATOM     47  C   UNL     1      -1.886  -3.718  12.727  1.00  0.00     0.049 A 
ATOM     48  N   UNL     1       0.560  -3.147  14.170  1.00  0.00    -0.248 NA
ATOM     49  C   UNL     1       1.842  -4.273  12.627  1.00  0.00     0.031 C 
ATOM     50  C   UNL     1      -2.064  -2.384  13.281  1.00  0.00     0.029 A 
ATOM     51  N   UNL     1      -3.192  -4.192  12.559  1.00  0.00    -0.354 N 
ATOM     52  C   UNL     1       1.821  -2.604  14.197  1.00  0.00     0.074 A 
ATOM     53  C   UNL     1       2.619  -3.464  13.358  1.00  0.00     0.031 C 
ATOM     54  C   UNL     1      -3.347  -2.243  13.653  1.00  0.00     0.029 A 
ATOM     55  C   UNL     1      -3.958  -3.556  13.547  1.00  0.00     0.049 A 
ATOM     56  H   UNL     1      -3.507  -4.838  11.886  1.00  0.00     0.167 HD
ATOM     57  C   UNL     1       1.998  -1.379  14.763  1.00  0.00     0.034 A 
ATOM     58  C   UNL     1      -4.554  -4.237  14.572  1.00  0.00     0.034 A 
ATOM     59  C   UNL     1       0.812  -0.954  15.521  1.00  0.00     0.049 A 
ATOM     60  C   UNL     1      -4.077  -3.782  15.942  1.00  0.00     0.074 A 
ATOM     61  C   UNL     1      -0.140   0.033  15.339  1.00  0.00     0.029 A 
ATOM     62  N   UNL     1       0.342  -1.760  16.555  1.00  0.00    -0.354 N 
ATOM     63  N   UNL     1      -3.136  -2.898  16.137  1.00  0.00    -0.248 NA
ATOM     64  C   UNL     1      -4.600  -4.303  17.202  1.00  0.00     0.031 C 
ATOM     65  C   UNL     1      -1.255  -0.280  16.173  1.00  0.00     0.029 A 
ATOM     66  C   UNL     1      -0.954  -1.417  16.906  1.00  0.00     0.049 A 
ATOM     67  H   UNL     1       0.862  -2.480  16.981  1.00  0.00     0.167 HD
ATOM     68  C   UNL     1      -2.801  -2.851  17.463  1.00  0.00     0.074 A 
ATOM     69  C   UNL     1      -3.821  -3.671  18.099  1.00  0.00     0.031 C 
ATOM     70  C   UNL     1      -1.673  -2.210  17.904  1.00  0.00     0.034 A 
BRANCH  57  71
ATOM     71  C   UNL     1       3.181  -0.463  14.504  1.00  0.00     0.023 A 
ATOM     72  C   UNL     1       3.321   0.672  15.332  1.00  0.00     0.012 A 
ATOM     73  C   UNL     1       4.117  -0.579  13.444  1.00  0.00     0.148 A 
ATOM     74  C   UNL     1       4.335   1.621  15.137  1.00  0.00     0.002 A 
ATOM     75  C   UNL     1       5.182   0.317  13.307  1.00  0.00     0.091 A 
ATOM     76  F   UNL     1       3.932  -1.486  12.479  1.00  0.00    -0.205 F 
ATOM     77  C   UNL     1       5.285   1.429  14.143  1.00  0.00     0.022 A 
BRANCH  75  78
ATOM     78  S   UNL     1       6.492   0.055  12.097  1.00  0.00     0.127 S 
ATOM     79  O   UNL     1       6.143   1.008  11.046  1.00  0.00    -0.237 OA
ATOM     80  O   UNL     1       7.699   0.399  12.852  1.00  0.00    -0.237 OA
ATOM     81  O   UNL     1       6.409  -1.353  11.723  1.00  0.00    -0.744 OA
ENDBRANCH  75  78
ENDBRANCH  57  71
BRANCH  58  82
ATOM     82  C   UNL     1      -4.955  -5.628  14.194  1.00  0.00     0.023 A 
ATOM     83  C   UNL     1      -5.952  -5.742  13.194  1.00  0.00     0.012 A 
ATOM     84  C   UNL     1      -4.112  -6.728  14.436  1.00  0.00     0.148 A 
ATOM     85  C   UNL     1      -6.008  -6.859  12.358  1.00  0.00     0.002 A 
ATOM     86  C   UNL     1      -4.176  -7.843  13.597  1.00  0.00     0.091 A 
ATOM     87  F   UNL     1      -3.199  -6.633  15.411  1.00  0.00    -0.205 F 
ATOM     88  C   UNL     1      -5.094  -7.892  12.535  1.00  0.00     0.022 A 
BRANCH  86  89
ATOM     89  S   UNL     1      -2.998  -9.197  13.739  1.00  0.00     0.127 S 
ATOM     90  O   UNL     1      -3.731 -10.135  14.585  1.00  0.00    -0.237 OA
ATOM     91  O   UNL     1      -2.830  -9.624  12.351  1.00  0.00    -0.237 OA
ATOM     92  O   UNL     1      -1.808  -8.595  14.322  1.00  0.00    -0.744 OA
ENDBRANCH  86  89
ENDBRANCH  58  82
BRANCH  70  93
ATOM     93  C   UNL     1      -1.106  -2.311  19.311  1.00  0.00     0.023 A 
ATOM     94  C   UNL     1      -1.397  -3.391  20.168  1.00  0.00     0.012 A 
ATOM     95  C   UNL     1      -0.132  -1.385  19.770  1.00  0.00     0.148 A 
ATOM     96  C   UNL     1      -0.814  -3.514  21.435  1.00  0.00     0.002 A 
ATOM     97  C   UNL     1       0.528  -1.573  20.984  1.00  0.00     0.091 A 
ATOM     98  F   UNL     1       0.154  -0.298  19.038  1.00  0.00    -0.205 F 
ATOM     99  C   UNL     1       0.166  -2.618  21.835  1.00  0.00     0.022 A 
BRANCH  97 100
ATOM    100  S   UNL     1       1.965  -0.579  21.413  1.00  0.00     0.127 S 
ATOM    101  O   UNL     1       1.362   0.537  22.136  1.00  0.00    -0.237 OA
ATOM    102  O   UNL     1       2.748  -1.492  22.249  1.00  0.00    -0.237 OA
ATOM    103  O   UNL     1       2.592  -0.261  20.137  1.00  0.00    -0.744 OA
ENDBRANCH  97 100
ENDBRANCH  70  93
ENDBRANCH  44  45
ENDBRANCH  36  39
ENDBRANCH  34  35
ENDBRANCH  33  34
ENDBRANCH  32  33
ENDBRANCH   1  32
TORSDOF 20
