REMARK SMILES O=C(NCCCCCCNC(=O)c1cc(-c2cccc(C(F)(F)F)c2)nc2c(F)cccc12)c1ccc(-c2c3nc(c(-c4cccc(S(=O)(=O)[O-])c4F)c4ccc([nH]4)c(-c4cccc(S(=O)(=O)[O-])c4F)c4nc(c(-c5cccc(S(=O)(=O)[O-])c5F)c5ccc2[nH]5)C=C4)C=C3)cc1
REMARK SMILES IDX 6 1 5 2 4 3 3 4 1 5 2 6 34 8 35 9 96 10 36 11 95 12 37 13
REMARK SMILES IDX 38 14 39 15 89 16 40 17 94 18 88 19 90 20 41 21 93 22 87 23
REMARK SMILES IDX 86 24 42 26 74 27 54 28 73 29 55 30 58 31 72 32 91 33 56 34
REMARK SMILES IDX 57 35 71 37 92 38 59 39 43 40 44 41 52 42 45 43 47 44 53 45
REMARK SMILES IDX 46 46 48 47 49 48 50 49 51 50 75 51 76 52 84 53 77 54 79 55
REMARK SMILES IDX 85 56 78 57 80 58 81 59 82 60 83 61 60 62 61 63 69 64 62 65
REMARK SMILES IDX 64 66 70 67 63 68 65 69 66 70 67 71 68 72 7 73 8 74 9 75
REMARK SMILES IDX 10 76 11 77 12 79 13 80 14 81 33 82 15 83 27 84 32 85 26 86
REMARK SMILES IDX 28 87 31 88 29 89 30 90 16 91 17 92 25 93 18 94 20 95 19 96
REMARK SMILES IDX 21 97 22 98 23 99 24 100
REMARK H PARENT 3 7 90 25 58 36 10 78
REMARK Flexibility Score: inf
ROOT
ATOM      1  C   UNL     1       4.219  -3.150  -2.364  1.00  0.00     0.002 C 
ENDROOT
BRANCH   1   2
ATOM      2  C   UNL     1       4.700  -2.567  -1.036  1.00  0.00     0.021 C 
BRANCH   2   3
ATOM      3  C   UNL     1       4.468  -1.073  -0.844  1.00  0.00     0.116 C 
BRANCH   3   4
ATOM      4  N   UNL     1       3.063  -0.706  -0.840  1.00  0.00    -0.352 N 
ATOM      5  O   UNL     1       1.153   0.185  -0.043  1.00  0.00    -0.269 OA
ATOM      6  C   UNL     1       2.373   0.077   0.056  1.00  0.00     0.251 C 
ATOM      7  H   UNL     1       2.529  -1.070  -1.583  1.00  0.00     0.163 HD
BRANCH   6   8
ATOM      8  C   UNL     1       3.096   0.752   1.159  1.00  0.00     0.039 A 
ATOM      9  C   UNL     1       4.302   1.418   0.927  1.00  0.00     0.014 A 
ATOM     10  C   UNL     1       2.565   0.703   2.451  1.00  0.00     0.014 A 
ATOM     11  C   UNL     1       5.052   1.885   2.003  1.00  0.00     0.010 A 
ATOM     12  C   UNL     1       3.280   1.251   3.521  1.00  0.00     0.010 A 
ATOM     13  C   UNL     1       4.552   1.806   3.313  1.00  0.00    -0.014 A 
BRANCH  13  14
ATOM     14  C   UNL     1       5.364   2.346   4.436  1.00  0.00     0.031 A 
ATOM     15  C   UNL     1       5.886   1.451   5.529  1.00  0.00     0.074 A 
ATOM     16  C   UNL     1       5.649   3.664   4.455  1.00  0.00     0.049 A 
ATOM     17  N   UNL     1       6.672   1.753   6.532  1.00  0.00    -0.248 NA
ATOM     18  C   UNL     1       5.471   0.040   5.503  1.00  0.00     0.031 C 
ATOM     19  C   UNL     1       5.157   4.643   3.483  1.00  0.00     0.029 A 
ATOM     20  N   UNL     1       6.425   4.405   5.310  1.00  0.00    -0.354 N 
ATOM     21  C   UNL     1       6.808   0.589   7.279  1.00  0.00     0.074 A 
ATOM     22  C   UNL     1       6.020  -0.428   6.617  1.00  0.00     0.031 C 
ATOM     23  C   UNL     1       5.676   5.846   3.770  1.00  0.00     0.029 A 
ATOM     24  C   UNL     1       6.502   5.735   4.967  1.00  0.00     0.049 A 
ATOM     25  H   UNL     1       6.882   4.022   6.093  1.00  0.00     0.167 HD
ATOM     26  C   UNL     1       7.537   0.381   8.402  1.00  0.00     0.034 A 
ATOM     27  C   UNL     1       7.166   6.753   5.547  1.00  0.00     0.034 A 
ATOM     28  C   UNL     1       8.364   1.379   9.029  1.00  0.00     0.049 A 
ATOM     29  C   UNL     1       8.010   6.478   6.758  1.00  0.00     0.074 A 
ATOM     30  C   UNL     1       9.203   1.239  10.120  1.00  0.00     0.029 A 
ATOM     31  N   UNL     1       8.455   2.701   8.623  1.00  0.00    -0.354 N 
ATOM     32  N   UNL     1       8.242   5.337   7.359  1.00  0.00    -0.248 NA
ATOM     33  C   UNL     1       8.707   7.627   7.355  1.00  0.00     0.031 C 
ATOM     34  C   UNL     1       9.793   2.481  10.382  1.00  0.00     0.029 A 
ATOM     35  C   UNL     1       9.329   3.391   9.446  1.00  0.00     0.049 A 
ATOM     36  H   UNL     1       7.969   3.093   7.862  1.00  0.00     0.167 HD
ATOM     37  C   UNL     1       9.131   5.623   8.388  1.00  0.00     0.074 A 
ATOM     38  C   UNL     1       9.416   7.042   8.311  1.00  0.00     0.031 C 
ATOM     39  C   UNL     1       9.647   4.791   9.325  1.00  0.00     0.034 A 
BRANCH  26  40
ATOM     40  C   UNL     1       7.516  -0.998   9.009  1.00  0.00     0.023 A 
ATOM     41  C   UNL     1       8.246  -2.037   8.396  1.00  0.00     0.012 A 
ATOM     42  C   UNL     1       6.841  -1.250  10.219  1.00  0.00     0.148 A 
ATOM     43  C   UNL     1       8.283  -3.311   8.963  1.00  0.00     0.002 A 
ATOM     44  C   UNL     1       6.912  -2.514  10.798  1.00  0.00     0.091 A 
ATOM     45  F   UNL     1       6.132  -0.258  10.777  1.00  0.00    -0.205 F 
ATOM     46  C   UNL     1       7.625  -3.546  10.168  1.00  0.00     0.022 A 
BRANCH  44  47
ATOM     47  S   UNL     1       6.155  -2.887  12.385  1.00  0.00     0.127 S 
ATOM     48  O   UNL     1       4.955  -3.613  11.976  1.00  0.00    -0.237 OA
ATOM     49  O   UNL     1       7.176  -3.714  13.031  1.00  0.00    -0.237 OA
ATOM     50  O   UNL     1       5.928  -1.600  13.027  1.00  0.00    -0.744 OA
ENDBRANCH  44  47
ENDBRANCH  26  40
BRANCH  27  51
ATOM     51  C   UNL     1       7.119   8.108   4.930  1.00  0.00     0.023 A 
ATOM     52  C   UNL     1       8.271   8.619   4.302  1.00  0.00     0.012 A 
ATOM     53  C   UNL     1       5.933   8.866   4.910  1.00  0.00     0.148 A 
ATOM     54  C   UNL     1       8.248   9.868   3.681  1.00  0.00     0.002 A 
ATOM     55  C   UNL     1       5.900  10.083   4.240  1.00  0.00     0.091 A 
ATOM     56  F   UNL     1       4.852   8.373   5.532  1.00  0.00    -0.205 F 
ATOM     57  C   UNL     1       7.060  10.593   3.637  1.00  0.00     0.022 A 
BRANCH  55  58
ATOM     58  S   UNL     1       4.374  11.003   4.013  1.00  0.00     0.127 S 
ATOM     59  O   UNL     1       4.515  12.066   5.003  1.00  0.00    -0.237 OA
ATOM     60  O   UNL     1       4.482  11.439   2.620  1.00  0.00    -0.237 OA
ATOM     61  O   UNL     1       3.306  10.041   4.253  1.00  0.00    -0.744 OA
ENDBRANCH  55  58
ENDBRANCH  27  51
BRANCH  39  62
ATOM     62  C   UNL     1      10.591   5.386  10.334  1.00  0.00     0.023 A 
ATOM     63  C   UNL     1      10.082   6.197  11.368  1.00  0.00     0.012 A 
ATOM     64  C   UNL     1      11.969   5.097  10.296  1.00  0.00     0.148 A 
ATOM     65  C   UNL     1      10.935   6.738  12.329  1.00  0.00     0.002 A 
ATOM     66  C   UNL     1      12.806   5.604  11.283  1.00  0.00     0.091 A 
ATOM     67  F   UNL     1      12.439   4.343   9.291  1.00  0.00    -0.205 F 
ATOM     68  C   UNL     1      12.293   6.432  12.294  1.00  0.00     0.022 A 
BRANCH  66  69
ATOM     69  S   UNL     1      14.551   5.182  11.355  1.00  0.00     0.127 S 
ATOM     70  O   UNL     1      15.169   6.354  10.739  1.00  0.00    -0.237 OA
ATOM     71  O   UNL     1      14.788   5.053  12.794  1.00  0.00    -0.237 OA
ATOM     72  O   UNL     1      14.682   3.934  10.614  1.00  0.00    -0.744 OA
ENDBRANCH  66  69
ENDBRANCH  39  62
ENDBRANCH  13  14
ENDBRANCH   6   8
ENDBRANCH   3   4
ENDBRANCH   2   3
ENDBRANCH   1   2
BRANCH   1  73
ATOM     73  C   UNL     1       4.712  -2.446  -3.631  1.00  0.00     0.002 C 
BRANCH  73  74
ATOM     74  C   UNL     1       6.225  -2.243  -3.755  1.00  0.00     0.021 C 
BRANCH  74  75
ATOM     75  C   UNL     1       7.082  -3.487  -3.549  1.00  0.00     0.116 C 
BRANCH  75  76
ATOM     76  N   UNL     1       6.777  -4.550  -4.492  1.00  0.00    -0.352 N 
ATOM     77  C   UNL     1       7.645  -5.382  -5.152  1.00  0.00     0.252 C 
ATOM     78  H   UNL     1       5.822  -4.691  -4.682  1.00  0.00     0.163 HD
ATOM     79  O   UNL     1       7.233  -6.226  -5.940  1.00  0.00    -0.269 OA
BRANCH  77  80
ATOM     80  C   UNL     1       9.098  -5.216  -4.962  1.00  0.00     0.051 A 
ATOM     81  C   UNL     1       9.809  -4.804  -6.087  1.00  0.00     0.043 A 
ATOM     82  C   UNL     1       9.741  -5.445  -3.727  1.00  0.00     0.016 A 
ATOM     83  C   UNL     1      11.166  -4.593  -5.955  1.00  0.00     0.072 A 
ATOM     84  C   UNL     1      11.116  -5.150  -3.678  1.00  0.00     0.107 A 
ATOM     85  C   UNL     1       9.090  -5.936  -2.564  1.00  0.00     0.011 A 
ATOM     86  N   UNL     1      11.804  -4.751  -4.773  1.00  0.00    -0.245 NA
ATOM     87  C   UNL     1      11.760  -5.280  -2.445  1.00  0.00     0.149 A 
ATOM     88  C   UNL     1       9.766  -6.058  -1.353  1.00  0.00     0.004 A 
ATOM     89  F   UNL     1      13.065  -4.974  -2.342  1.00  0.00    -0.205 F 
ATOM     90  C   UNL     1      11.106  -5.711  -1.291  1.00  0.00     0.041 A 
BRANCH  83  91
ATOM     91  C   UNL     1      12.009  -4.221  -7.097  1.00  0.00     0.001 A 
ATOM     92  C   UNL     1      11.726  -3.094  -7.884  1.00  0.00     0.010 A 
ATOM     93  C   UNL     1      13.115  -5.016  -7.448  1.00  0.00     0.023 A 
ATOM     94  C   UNL     1      12.513  -2.775  -8.992  1.00  0.00     0.001 A 
ATOM     95  C   UNL     1      13.905  -4.719  -8.571  1.00  0.00     0.056 A 
ATOM     96  C   UNL     1      13.592  -3.587  -9.338  1.00  0.00     0.013 A 
BRANCH  95  97
ATOM     97  C   UNL     1      15.058  -5.605  -8.968  1.00  0.00     0.416 C 
ATOM     98  F   UNL     1      14.883  -6.153 -10.205  1.00  0.00    -0.166 F 
ATOM     99  F   UNL     1      16.242  -4.934  -9.028  1.00  0.00    -0.166 F 
ATOM    100  F   UNL     1      15.265  -6.656  -8.127  1.00  0.00    -0.166 F 
ENDBRANCH  95  97
ENDBRANCH  83  91
ENDBRANCH  77  80
ENDBRANCH  75  76
ENDBRANCH  74  75
ENDBRANCH  73  74
ENDBRANCH   1  73
TORSDOF 18
