REMARK SMILES Cc1cc(F)cc(NC(=O)N[C@@H]2COC[C@H]2C(=O)NCCCCCCNC(=O)c2ccc(-c3c4nc(c(-c5cccc(S(=O)(=O)[O-])c5F)c5ccc([nH]5)c(-c5cccc(S(=O)(=O)[O-])c5F)c5nc(c(-c6cccc(S(=O)(=O)[O-])c6F)c6ccc3[nH]6)C=C5)C=C4)cc2)c1
REMARK SMILES IDX 23 1 22 2 21 3 20 4 19 5 17 6 18 7 16 9 12 10 13 11 14 12
REMARK SMILES IDX 15 13 11 14 8 15 9 16 10 18 7 20 1 21 2 22 3 23 92 24 4 25
REMARK SMILES IDX 5 26 6 27 24 28 25 29 26 30 27 31 28 33 29 34 30 35 91 36
REMARK SMILES IDX 31 37 90 38 32 39 33 40 34 41 84 42 35 43 89 44 83 45 85 46
REMARK SMILES IDX 36 47 88 48 82 49 81 50 37 52 69 53 49 54 68 55 50 56 53 57
REMARK SMILES IDX 67 58 86 59 51 60 52 61 66 63 87 64 54 65 38 66 39 67 47 68
REMARK SMILES IDX 40 69 42 70 48 71 41 72 43 73 44 74 45 75 46 76 70 77 71 78
REMARK SMILES IDX 79 79 72 80 74 81 80 82 73 83 75 84 76 85 77 86 78 87 55 88
REMARK SMILES IDX 56 89 64 90 57 91 59 92 65 93 58 94 60 95 61 96 62 97 63 98
REMARK H PARENT 19 8 8 17 11 19 26 32 85 51 53 62
REMARK Flexibility Score: inf
ROOT
ATOM      1  C   UNL     1      -8.513  -1.689   2.111  1.00  0.00     0.002 C 
ENDROOT
BRANCH   1   2
ATOM      2  C   UNL     1      -7.626  -2.907   1.832  1.00  0.00     0.002 C 
BRANCH   2   3
ATOM      3  C   UNL     1      -6.467  -2.632   0.876  1.00  0.00     0.021 C 
BRANCH   3   4
ATOM      4  C   UNL     1      -5.620  -1.446   1.305  1.00  0.00     0.116 C 
BRANCH   4   5
ATOM      5  N   UNL     1      -4.810  -1.778   2.461  1.00  0.00    -0.356 N 
ATOM      6  C   UNL     1      -3.459  -1.818   2.609  1.00  0.00     0.227 C 
ATOM      7  O   UNL     1      -3.016  -2.205   3.693  1.00  0.00    -0.275 OA
ATOM      8  H   UNL     1      -5.321  -2.012   3.269  1.00  0.00     0.163 HD
BRANCH   6   9
ATOM      9  C   UNL     1      -2.517  -1.402   1.491  1.00  0.00     0.129 C 
ATOM     10  C   UNL     1      -2.585  -2.306   0.275  1.00  0.00     0.124 C 
ATOM     11  C   UNL     1      -2.921  -1.417  -0.916  1.00  0.00     0.186 C 
ATOM     12  O   UNL     1      -3.119  -0.081  -0.426  1.00  0.00    -0.378 OA
ATOM     13  C   UNL     1      -2.864  -0.011   0.988  1.00  0.00     0.176 C 
BRANCH  10  14
ATOM     14  N   UNL     1      -1.493  -3.278   0.090  1.00  0.00    -0.332 N 
ATOM     15  N   UNL     1       0.830  -2.593  -0.009  1.00  0.00    -0.308 N 
ATOM     16  C   UNL     1      -0.185  -3.454  -0.001  1.00  0.00     0.319 C 
ATOM     17  H   UNL     1       1.679  -3.087   0.060  1.00  0.00     0.171 HD
ATOM     18  O   UNL     1       0.152  -4.649  -0.062  1.00  0.00    -0.248 OA
ATOM     19  H   UNL     1      -1.910  -4.164  -0.007  1.00  0.00     0.165 HD
BRANCH  15  20
ATOM     20  C   UNL     1       1.095  -1.221  -0.082  1.00  0.00     0.046 A 
ATOM     21  C   UNL     1       4.176   1.061  -0.049  1.00  0.00     0.044 C 
ATOM     22  C   UNL     1       2.759   0.583  -0.097  1.00  0.00    -0.046 A 
ATOM     23  C   UNL     1       1.742   1.530  -0.214  1.00  0.00     0.042 A 
ATOM     24  C   UNL     1       2.429  -0.787  -0.016  1.00  0.00     0.029 A 
ATOM     25  C   UNL     1       0.438   1.098  -0.304  1.00  0.00     0.125 A 
ATOM     26  F   UNL     1      -0.551   1.990  -0.429  1.00  0.00    -0.207 F 
ATOM     27  C   UNL     1       0.138  -0.256  -0.266  1.00  0.00     0.065 A 
ENDBRANCH  15  20
ENDBRANCH  10  14
ENDBRANCH   6   9
ENDBRANCH   4   5
ENDBRANCH   3   4
ENDBRANCH   2   3
ENDBRANCH   1   2
BRANCH   1  28
ATOM     28  C   UNL     1      -9.014  -0.960   0.861  1.00  0.00     0.021 C 
BRANCH  28  29
ATOM     29  C   UNL     1      -9.706  -1.865  -0.150  1.00  0.00     0.116 C 
BRANCH  29  30
ATOM     30  N   UNL     1     -10.819  -2.581   0.455  1.00  0.00    -0.352 N 
ATOM     31  C   UNL     1     -12.134  -2.581   0.073  1.00  0.00     0.251 C 
ATOM     32  H   UNL     1     -10.599  -3.135   1.238  1.00  0.00     0.163 HD
ATOM     33  O   UNL     1     -13.002  -3.034   0.813  1.00  0.00    -0.269 OA
BRANCH  31  34
ATOM     34  C   UNL     1     -12.481  -2.014  -1.241  1.00  0.00     0.039 A 
ATOM     35  C   UNL     1     -13.487  -1.050  -1.323  1.00  0.00     0.014 A 
ATOM     36  C   UNL     1     -11.763  -2.402  -2.376  1.00  0.00     0.014 A 
ATOM     37  C   UNL     1     -13.740  -0.433  -2.547  1.00  0.00     0.010 A 
ATOM     38  C   UNL     1     -11.968  -1.734  -3.576  1.00  0.00     0.010 A 
ATOM     39  C   UNL     1     -12.962  -0.748  -3.673  1.00  0.00    -0.014 A 
BRANCH  39  40
ATOM     40  C   UNL     1     -13.153  -0.046  -4.965  1.00  0.00     0.031 A 
ATOM     41  C   UNL     1     -13.580  -0.819  -6.181  1.00  0.00     0.074 A 
ATOM     42  C   UNL     1     -12.832   1.260  -5.062  1.00  0.00     0.049 A 
ATOM     43  N   UNL     1     -13.707  -0.406  -7.414  1.00  0.00    -0.248 NA
ATOM     44  C   UNL     1     -13.876  -2.250  -5.995  1.00  0.00     0.031 C 
ATOM     45  C   UNL     1     -12.329   2.092  -3.967  1.00  0.00     0.029 A 
ATOM     46  N   UNL     1     -12.842   2.106  -6.143  1.00  0.00    -0.354 N 
ATOM     47  C   UNL     1     -14.048  -1.529  -8.157  1.00  0.00     0.074 A 
ATOM     48  C   UNL     1     -14.094  -2.647  -7.241  1.00  0.00     0.031 C 
ATOM     49  C   UNL     1     -12.066   3.323  -4.434  1.00  0.00     0.029 A 
ATOM     50  C   UNL     1     -12.345   3.358  -5.866  1.00  0.00     0.049 A 
ATOM     51  H   UNL     1     -13.173   1.841  -7.032  1.00  0.00     0.167 HD
ATOM     52  C   UNL     1     -14.314  -1.615  -9.480  1.00  0.00     0.034 A 
ATOM     53  C   UNL     1     -12.115   4.408  -6.679  1.00  0.00     0.034 A 
ATOM     54  C   UNL     1     -14.316  -0.490 -10.374  1.00  0.00     0.049 A 
ATOM     55  C   UNL     1     -12.460   4.288  -8.139  1.00  0.00     0.074 A 
ATOM     56  C   UNL     1     -14.696  -0.453 -11.704  1.00  0.00     0.029 A 
ATOM     57  N   UNL     1     -13.900   0.788 -10.039  1.00  0.00    -0.354 N 
ATOM     58  N   UNL     1     -12.967   3.267  -8.786  1.00  0.00    -0.248 NA
ATOM     59  C   UNL     1     -12.232   5.475  -8.977  1.00  0.00     0.031 C 
ATOM     60  C   UNL     1     -14.470   0.839 -12.185  1.00  0.00     0.029 A 
ATOM     61  C   UNL     1     -13.985   1.615 -11.145  1.00  0.00     0.049 A 
ATOM     62  H   UNL     1     -13.589   1.065  -9.148  1.00  0.00     0.167 HD
ATOM     63  C   UNL     1     -13.147   3.696 -10.095  1.00  0.00     0.074 A 
ATOM     64  C   UNL     1     -12.721   5.079 -10.144  1.00  0.00     0.031 C 
ATOM     65  C   UNL     1     -13.607   3.004 -11.166  1.00  0.00     0.034 A 
BRANCH  52  66
ATOM     66  C   UNL     1     -14.663  -2.964 -10.049  1.00  0.00     0.023 A 
ATOM     67  C   UNL     1     -15.917  -3.542  -9.769  1.00  0.00     0.012 A 
ATOM     68  C   UNL     1     -13.784  -3.611 -10.941  1.00  0.00     0.148 A 
ATOM     69  C   UNL     1     -16.284  -4.755 -10.351  1.00  0.00     0.002 A 
ATOM     70  C   UNL     1     -14.176  -4.796 -11.552  1.00  0.00     0.091 A 
ATOM     71  F   UNL     1     -12.588  -3.054 -11.175  1.00  0.00    -0.205 F 
ATOM     72  C   UNL     1     -15.420  -5.373 -11.251  1.00  0.00     0.022 A 
BRANCH  70  73
ATOM     73  S   UNL     1     -13.172  -5.627 -12.788  1.00  0.00     0.127 S 
ATOM     74  O   UNL     1     -12.806  -6.859 -12.091  1.00  0.00    -0.237 OA
ATOM     75  O   UNL     1     -14.125  -5.806 -13.884  1.00  0.00    -0.237 OA
ATOM     76  O   UNL     1     -12.066  -4.727 -13.082  1.00  0.00    -0.744 OA
ENDBRANCH  70  73
ENDBRANCH  52  66
BRANCH  53  77
ATOM     77  C   UNL     1     -11.549   5.673  -6.132  1.00  0.00     0.023 A 
ATOM     78  C   UNL     1     -12.345   6.835  -6.097  1.00  0.00     0.012 A 
ATOM     79  C   UNL     1     -10.228   5.733  -5.647  1.00  0.00     0.148 A 
ATOM     80  C   UNL     1     -11.822   8.042  -5.632  1.00  0.00     0.002 A 
ATOM     81  C   UNL     1      -9.733   6.924  -5.129  1.00  0.00     0.091 A 
ATOM     82  F   UNL     1      -9.480   4.622  -5.700  1.00  0.00    -0.205 F 
ATOM     83  C   UNL     1     -10.521   8.085  -5.140  1.00  0.00     0.022 A 
BRANCH  81  84
ATOM     84  S   UNL     1      -8.118   7.031  -4.351  1.00  0.00     0.127 S 
ATOM     85  O   UNL     1      -7.347   7.752  -5.359  1.00  0.00    -0.237 OA
ATOM     86  O   UNL     1      -8.415   7.794  -3.138  1.00  0.00    -0.237 OA
ATOM     87  O   UNL     1      -7.714   5.653  -4.104  1.00  0.00    -0.744 OA
ENDBRANCH  81  84
ENDBRANCH  53  77
BRANCH  65  88
ATOM     88  C   UNL     1     -13.709   3.732 -12.480  1.00  0.00     0.023 A 
ATOM     89  C   UNL     1     -12.540   4.061 -13.193  1.00  0.00     0.012 A 
ATOM     90  C   UNL     1     -14.968   4.015 -13.046  1.00  0.00     0.148 A 
ATOM     91  C   UNL     1     -12.621   4.688 -14.435  1.00  0.00     0.002 A 
ATOM     92  C   UNL     1     -15.042   4.591 -14.307  1.00  0.00     0.091 A 
ATOM     93  F   UNL     1     -16.068   3.707 -12.344  1.00  0.00    -0.205 F 
ATOM     94  C   UNL     1     -13.870   4.941 -14.998  1.00  0.00     0.022 A 
BRANCH  92  95
ATOM     95  S   UNL     1     -16.602   4.862 -15.155  1.00  0.00     0.127 S 
ATOM     96  O   UNL     1     -16.699   6.321 -15.141  1.00  0.00    -0.237 OA
ATOM     97  O   UNL     1     -16.344   4.280 -16.471  1.00  0.00    -0.237 OA
ATOM     98  O   UNL     1     -17.614   4.165 -14.371  1.00  0.00    -0.744 OA
ENDBRANCH  92  95
ENDBRANCH  65  88
ENDBRANCH  39  40
ENDBRANCH  31  34
ENDBRANCH  29  30
ENDBRANCH  28  29
ENDBRANCH   1  28
TORSDOF 18
