REMARK SMILES Cc1oc2cc3oc(=O)c(CCC(=O)N[C@@H](C)C(=O)NCCCCCCNC(=O)c4ccc(-c5c6nc(c(-c7cccc(S(=O)(=O)[O-])c7F)c7ccc([nH]7)c(-c7cccc(S(=O)(=O)[O-])c7F)c7nc(c(-c8cccc(S(=O)(=O)[O-])c8F)c8ccc5[nH]8)C=C7)C=C6)cc4)c(C)c3cc2c1C
REMARK SMILES IDX 23 1 22 2 21 3 20 4 18 5 19 6 16 8 17 9 15 10 13 11 14 12
REMARK SMILES IDX 12 14 11 15 10 16 1 17 2 18 3 19 98 20 4 21 97 22 99 23 5 24
REMARK SMILES IDX 96 25 6 26 95 27 7 28 93 29 8 30 94 31 9 32 24 33 25 34
REMARK SMILES IDX 26 35 27 36 28 37 29 39 30 40 31 41 92 42 32 43 91 44 33 45
REMARK SMILES IDX 34 46 35 47 85 48 36 49 90 50 84 51 86 52 37 53 89 54 83 55
REMARK SMILES IDX 82 56 38 58 70 59 50 60 69 61 51 62 54 63 68 64 87 65 52 66
REMARK SMILES IDX 53 67 67 69 88 70 55 71 39 72 40 73 48 74 41 75 43 76 49 77
REMARK SMILES IDX 42 78 44 79 45 80 46 81 47 82 71 83 72 84 80 85 73 86 75 87
REMARK SMILES IDX 81 88 74 89 76 90 77 91 78 92 79 93 56 94 57 95 65 96 58 97
REMARK SMILES IDX 60 98 66 99 59 100 61 101 62 102 63 103 64 104
REMARK H PARENT 20 7 15 13 27 38 86 57 54 68
REMARK Flexibility Score: inf
ROOT
ATOM      1  C   UNL     1       5.456  -4.651   0.757  1.00  0.00     0.002 C 
ENDROOT
BRANCH   1   2
ATOM      2  C   UNL     1       4.586  -5.861   0.379  1.00  0.00     0.021 C 
BRANCH   2   3
ATOM      3  C   UNL     1       3.577  -5.566  -0.723  1.00  0.00     0.116 C 
BRANCH   3   4
ATOM      4  N   UNL     1       4.283  -5.332  -1.969  1.00  0.00    -0.354 N 
ATOM      5  C   UNL     1       4.010  -5.728  -3.240  1.00  0.00     0.242 C 
ATOM      6  O   UNL     1       4.797  -5.398  -4.130  1.00  0.00    -0.273 OA
ATOM      7  H   UNL     1       5.102  -4.793  -1.878  1.00  0.00     0.163 HD
BRANCH   5   8
ATOM      8  C   UNL     1       2.699  -6.449  -3.574  1.00  0.00     0.168 C 
ATOM      9  C   UNL     1       1.563  -5.526  -3.169  1.00  0.00     0.041 C 
BRANCH   8  10
ATOM     10  N   UNL     1       2.536  -7.775  -2.974  1.00  0.00    -0.345 N 
ATOM     11  C   UNL     1       1.622  -8.746  -3.269  1.00  0.00     0.220 C 
ATOM     12  O   UNL     1       1.526  -9.710  -2.507  1.00  0.00    -0.275 OA
ATOM     13  H   UNL     1       3.175  -7.998  -2.259  1.00  0.00     0.164 HD
BRANCH  11  14
ATOM     14  C   UNL     1       0.787  -8.666  -4.537  1.00  0.00     0.105 C 
BRANCH  14  15
ATOM     15  C   UNL     1      -0.732  -8.675  -4.281  1.00  0.00     0.053 C 
BRANCH  15  16
ATOM     16  C   UNL     1      -1.268  -7.297  -3.934  1.00  0.00     0.042 A 
ATOM     17  C   UNL     1       0.574  -0.156  -0.370  1.00  0.00     0.088 C 
ATOM     18  C   UNL     1      -0.063  -1.419  -0.809  1.00  0.00     0.105 A 
ATOM     19  O   UNL     1      -0.504  -1.461  -2.098  1.00  0.00    -0.461 OA
ATOM     20  C   UNL     1      -0.280  -2.633  -0.178  1.00  0.00    -0.002 A 
ATOM     21  C   UNL     1      -0.990  -2.711  -2.313  1.00  0.00     0.138 A 
ATOM     22  C   UNL     1      -0.886  -3.478  -1.160  1.00  0.00     0.024 A 
ATOM     23  C   UNL     1       0.102  -2.971   1.216  1.00  0.00     0.049 C 
ATOM     24  C   UNL     1      -1.458  -3.188  -3.531  1.00  0.00     0.095 A 
ATOM     25  C   UNL     1      -1.282  -4.834  -1.217  1.00  0.00     0.024 A 
ATOM     26  C   UNL     1      -1.704  -4.566  -3.578  1.00  0.00     0.142 A 
ATOM     27  C   UNL     1      -1.615  -5.406  -2.465  1.00  0.00     0.022 A 
ATOM     28  O   UNL     1      -1.870  -5.103  -4.866  1.00  0.00    -0.422 OA
ATOM     29  C   UNL     1      -1.562  -6.871  -2.686  1.00  0.00    -0.030 A 
ATOM     30  C   UNL     1      -1.405  -6.381  -5.109  1.00  0.00     0.339 A 
ATOM     31  C   UNL     1      -1.596  -7.771  -1.481  1.00  0.00     0.046 C 
ATOM     32  O   UNL     1      -1.144  -6.756  -6.249  1.00  0.00    -0.246 OA
ENDBRANCH  15  16
ENDBRANCH  14  15
ENDBRANCH  11  14
ENDBRANCH   8  10
ENDBRANCH   5   8
ENDBRANCH   3   4
ENDBRANCH   2   3
ENDBRANCH   1   2
BRANCH   1  33
ATOM     33  C   UNL     1       4.699  -3.475   1.384  1.00  0.00     0.002 C 
BRANCH  33  34
ATOM     34  C   UNL     1       3.779  -3.859   2.540  1.00  0.00     0.021 C 
BRANCH  34  35
ATOM     35  C   UNL     1       4.437  -4.767   3.571  1.00  0.00     0.116 C 
BRANCH  35  36
ATOM     36  N   UNL     1       5.382  -4.060   4.414  1.00  0.00    -0.352 N 
ATOM     37  C   UNL     1       5.165  -3.550   5.670  1.00  0.00     0.251 C 
ATOM     38  H   UNL     1       6.284  -3.931   4.042  1.00  0.00     0.163 HD
ATOM     39  O   UNL     1       6.022  -2.880   6.234  1.00  0.00    -0.269 OA
BRANCH  37  40
ATOM     40  C   UNL     1       3.869  -3.831   6.306  1.00  0.00     0.039 A 
ATOM     41  C   UNL     1       3.480  -5.163   6.506  1.00  0.00     0.014 A 
ATOM     42  C   UNL     1       3.015  -2.773   6.613  1.00  0.00     0.014 A 
ATOM     43  C   UNL     1       2.192  -5.445   6.929  1.00  0.00     0.010 A 
ATOM     44  C   UNL     1       1.738  -3.058   7.086  1.00  0.00     0.010 A 
ATOM     45  C   UNL     1       1.327  -4.394   7.237  1.00  0.00    -0.014 A 
BRANCH  45  46
ATOM     46  C   UNL     1       0.081  -4.768   7.921  1.00  0.00     0.031 A 
ATOM     47  C   UNL     1       0.089  -4.339   9.346  1.00  0.00     0.074 A 
ATOM     48  C   UNL     1      -1.118  -4.816   7.307  1.00  0.00     0.049 A 
ATOM     49  N   UNL     1      -0.202  -3.110   9.637  1.00  0.00    -0.248 NA
ATOM     50  C   UNL     1       0.711  -5.068  10.445  1.00  0.00     0.031 C 
ATOM     51  C   UNL     1      -1.468  -4.061   6.096  1.00  0.00     0.029 A 
ATOM     52  N   UNL     1      -2.313  -5.340   7.744  1.00  0.00    -0.354 N 
ATOM     53  C   UNL     1       0.279  -2.850  10.904  1.00  0.00     0.074 A 
ATOM     54  C   UNL     1       0.805  -4.109  11.384  1.00  0.00     0.031 C 
ATOM     55  C   UNL     1      -2.812  -4.021   5.991  1.00  0.00     0.029 A 
ATOM     56  C   UNL     1      -3.398  -4.875   7.016  1.00  0.00     0.049 A 
ATOM     57  H   UNL     1      -2.389  -5.975   8.493  1.00  0.00     0.167 HD
ATOM     58  C   UNL     1       0.185  -1.603  11.443  1.00  0.00     0.034 A 
ATOM     59  C   UNL     1      -4.682  -4.839   7.457  1.00  0.00     0.034 A 
ATOM     60  C   UNL     1      -0.496  -0.594  10.647  1.00  0.00     0.049 A 
ATOM     61  C   UNL     1      -4.679  -3.585   8.289  1.00  0.00     0.074 A 
ATOM     62  C   UNL     1      -0.413   0.759  10.388  1.00  0.00     0.029 A 
ATOM     63  N   UNL     1      -1.534  -1.036   9.873  1.00  0.00    -0.354 N 
ATOM     64  N   UNL     1      -4.723  -2.366   7.806  1.00  0.00    -0.248 NA
ATOM     65  C   UNL     1      -4.306  -3.654   9.711  1.00  0.00     0.031 C 
ATOM     66  C   UNL     1      -1.505   1.100   9.513  1.00  0.00     0.029 A 
ATOM     67  C   UNL     1      -2.260  -0.041   9.289  1.00  0.00     0.049 A 
ATOM     68  H   UNL     1      -1.739  -1.990   9.748  1.00  0.00     0.167 HD
ATOM     69  C   UNL     1      -4.079  -1.585   8.760  1.00  0.00     0.074 A 
ATOM     70  C   UNL     1      -4.014  -2.383   9.966  1.00  0.00     0.031 C 
ATOM     71  C   UNL     1      -3.382  -0.445   8.472  1.00  0.00     0.034 A 
BRANCH  58  72
ATOM     72  C   UNL     1       0.464  -1.327  12.877  1.00  0.00     0.023 A 
ATOM     73  C   UNL     1      -0.680  -1.173  13.689  1.00  0.00     0.012 A 
ATOM     74  C   UNL     1       1.734  -1.096  13.429  1.00  0.00     0.148 A 
ATOM     75  C   UNL     1      -0.577  -0.776  15.018  1.00  0.00     0.002 A 
ATOM     76  C   UNL     1       1.832  -0.695  14.764  1.00  0.00     0.091 A 
ATOM     77  F   UNL     1       2.812  -1.236  12.646  1.00  0.00    -0.205 F 
ATOM     78  C   UNL     1       0.679  -0.531  15.553  1.00  0.00     0.022 A 
BRANCH  76  79
ATOM     79  S   UNL     1       3.393  -0.332  15.580  1.00  0.00     0.127 S 
ATOM     80  O   UNL     1       3.277   1.103  15.836  1.00  0.00    -0.237 OA
ATOM     81  O   UNL     1       3.313  -1.172  16.776  1.00  0.00    -0.237 OA
ATOM     82  O   UNL     1       4.436  -0.717  14.639  1.00  0.00    -0.744 OA
ENDBRANCH  76  79
ENDBRANCH  58  72
BRANCH  59  83
ATOM     83  C   UNL     1      -5.228  -6.178   7.849  1.00  0.00     0.023 A 
ATOM     84  C   UNL     1      -5.142  -7.195   6.860  1.00  0.00     0.012 A 
ATOM     85  C   UNL     1      -5.781  -6.536   9.086  1.00  0.00     0.148 A 
ATOM     86  C   UNL     1      -5.475  -8.525   7.129  1.00  0.00     0.002 A 
ATOM     87  C   UNL     1      -6.037  -7.876   9.379  1.00  0.00     0.091 A 
ATOM     88  F   UNL     1      -6.073  -5.580   9.973  1.00  0.00    -0.205 F 
ATOM     89  C   UNL     1      -5.887  -8.872   8.405  1.00  0.00     0.022 A 
BRANCH  87  90
ATOM     90  S   UNL     1      -6.456  -8.431  11.037  1.00  0.00     0.127 S 
ATOM     91  O   UNL     1      -7.655  -9.231  10.797  1.00  0.00    -0.237 OA
ATOM     92  O   UNL     1      -5.261  -9.197  11.390  1.00  0.00    -0.237 OA
ATOM     93  O   UNL     1      -6.665  -7.219  11.817  1.00  0.00    -0.744 OA
ENDBRANCH  87  90
ENDBRANCH  59  83
BRANCH  71  94
ATOM     94  C   UNL     1      -3.735   0.267   7.211  1.00  0.00     0.023 A 
ATOM     95  C   UNL     1      -5.075   0.669   7.039  1.00  0.00     0.012 A 
ATOM     96  C   UNL     1      -2.784   0.605   6.231  1.00  0.00     0.148 A 
ATOM     97  C   UNL     1      -5.470   1.390   5.917  1.00  0.00     0.002 A 
ATOM     98  C   UNL     1      -3.179   1.347   5.122  1.00  0.00     0.091 A 
ATOM     99  F   UNL     1      -1.516   0.195   6.387  1.00  0.00    -0.205 F 
ATOM    100  C   UNL     1      -4.520   1.738   4.964  1.00  0.00     0.022 A 
BRANCH  98 101
ATOM    101  S   UNL     1      -2.035   1.886   3.846  1.00  0.00     0.127 S 
ATOM    102  O   UNL     1      -2.634   1.318   2.638  1.00  0.00    -0.237 OA
ATOM    103  O   UNL     1      -2.134   3.342   3.949  1.00  0.00    -0.237 OA
ATOM    104  O   UNL     1      -0.735   1.329   4.194  1.00  0.00    -0.744 OA
ENDBRANCH  98 101
ENDBRANCH  71  94
ENDBRANCH  45  46
ENDBRANCH  37  40
ENDBRANCH  35  36
ENDBRANCH  34  35
ENDBRANCH  33  34
ENDBRANCH   1  33
TORSDOF 20
