REMARK SMILES COC[C@@H](C)CC(=O)N1CC(CC(=O)NCCCCCCNC(=O)c2ccc(-c3c4nc(c(-c5cccc(S(=O)(=O)[O-])c5F)c5ccc([nH]5)c(-c5cccc(S(=O)(=O)[O-])c5F)c5nc(c(-c6cccc(S(=O)(=O)[O-])c6F)c6ccc3[nH]6)C=C5)C=C4)cc2)C1
REMARK SMILES IDX 17 1 16 2 15 3 13 4 14 5 12 7 11 8 7 9 8 10 9 11 10 12 88 13
REMARK SMILES IDX 6 14 4 15 5 16 3 17 2 18 1 19 18 20 19 21 20 22 21 23 22 24
REMARK SMILES IDX 23 25 24 27 25 28 26 29 87 30 27 31 86 32 28 33 29 34 30 35
REMARK SMILES IDX 80 36 31 37 85 38 79 39 81 40 32 41 84 42 78 43 77 44 33 46
REMARK SMILES IDX 65 47 45 48 64 49 46 50 49 51 63 52 82 53 47 54 48 55 62 57
REMARK SMILES IDX 83 58 50 59 34 60 35 61 43 62 36 63 38 64 44 65 37 66 39 67
REMARK SMILES IDX 40 68 41 69 42 70 66 71 67 72 75 73 68 74 70 75 76 76 69 77
REMARK SMILES IDX 71 78 72 79 73 80 74 81 51 82 52 83 60 84 53 85 55 86 61 87
REMARK SMILES IDX 54 88 56 89 57 90 58 91 59 92
REMARK H PARENT 15 6 22 26 81 45 49 56
REMARK Flexibility Score: inf
ROOT
ATOM      1  C   UNL     1       0.880  -0.597  -3.574  1.00  0.00     0.021 C 
ENDROOT
BRANCH   1   2
ATOM      2  C   UNL     1       1.595  -0.423  -4.919  1.00  0.00     0.116 C 
BRANCH   2   3
ATOM      3  N   UNL     1       0.647  -0.169  -5.991  1.00  0.00    -0.356 N 
ATOM      4  C   UNL     1       0.356   0.972  -6.678  1.00  0.00     0.220 C 
ATOM      5  O   UNL     1      -0.569   0.938  -7.492  1.00  0.00    -0.275 OA
ATOM      6  H   UNL     1       0.126  -0.956  -6.270  1.00  0.00     0.163 HD
BRANCH   4   7
ATOM      7  C   UNL     1       1.122   2.262  -6.437  1.00  0.00     0.107 C 
BRANCH   7   8
ATOM      8  C   UNL     1       0.440   3.172  -5.421  1.00  0.00     0.037 C 
ATOM      9  C   UNL     1       0.602   4.816  -2.554  1.00  0.00     0.222 C 
ATOM     10  O   UNL     1      -0.136   5.796  -2.632  1.00  0.00    -0.275 OA
ATOM     11  N   UNL     1       1.032   4.118  -3.659  1.00  0.00    -0.342 N 
ATOM     12  C   UNL     1       1.052   4.535  -5.059  1.00  0.00     0.125 C 
ATOM     13  C   UNL     1       0.673   2.751  -3.977  1.00  0.00     0.125 C 
BRANCH   9  14
ATOM     14  C   UNL     1       1.244   4.388  -1.232  1.00  0.00     0.106 C 
BRANCH  14  15
ATOM     15  C   UNL     1       0.490   3.371  -0.357  1.00  0.00     0.021 C 
ATOM     16  C   UNL     1       0.900   3.559   1.112  1.00  0.00     0.010 C 
BRANCH  15  17
ATOM     17  C   UNL     1       0.794   1.925  -0.768  1.00  0.00     0.163 C 
BRANCH  17  18
ATOM     18  O   UNL     1      -0.024   0.980  -0.091  1.00  0.00    -0.384 OA
ATOM     19  C   UNL     1       0.659   0.277   0.931  1.00  0.00     0.194 C 
ENDBRANCH  17  18
ENDBRANCH  15  17
ENDBRANCH  14  15
ENDBRANCH   9  14
ENDBRANCH   7   8
ENDBRANCH   4   7
ENDBRANCH   2   3
ENDBRANCH   1   2
BRANCH   1  20
ATOM     20  C   UNL     1       0.333  -2.002  -3.301  1.00  0.00     0.002 C 
BRANCH  20  21
ATOM     21  C   UNL     1       1.389  -3.096  -3.098  1.00  0.00     0.002 C 
BRANCH  21  22
ATOM     22  C   UNL     1       2.407  -2.851  -1.977  1.00  0.00     0.021 C 
BRANCH  22  23
ATOM     23  C   UNL     1       1.820  -2.743  -0.571  1.00  0.00     0.116 C 
BRANCH  23  24
ATOM     24  N   UNL     1       1.300  -4.001  -0.064  1.00  0.00    -0.352 N 
ATOM     25  C   UNL     1       1.492  -4.612   1.155  1.00  0.00     0.251 C 
ATOM     26  H   UNL     1       0.721  -4.493  -0.689  1.00  0.00     0.163 HD
ATOM     27  O   UNL     1       1.021  -5.728   1.350  1.00  0.00    -0.269 OA
BRANCH  25  28
ATOM     28  C   UNL     1       2.279  -3.953   2.226  1.00  0.00     0.039 A 
ATOM     29  C   UNL     1       3.227  -4.700   2.926  1.00  0.00     0.014 A 
ATOM     30  C   UNL     1       2.061  -2.622   2.582  1.00  0.00     0.014 A 
ATOM     31  C   UNL     1       3.983  -4.096   3.938  1.00  0.00     0.010 A 
ATOM     32  C   UNL     1       2.870  -1.996   3.533  1.00  0.00     0.010 A 
ATOM     33  C   UNL     1       3.836  -2.729   4.235  1.00  0.00    -0.014 A 
BRANCH  33  34
ATOM     34  C   UNL     1       4.692  -2.082   5.271  1.00  0.00     0.031 A 
ATOM     35  C   UNL     1       4.092  -1.468   6.511  1.00  0.00     0.074 A 
ATOM     36  C   UNL     1       6.027  -2.019   5.085  1.00  0.00     0.049 A 
ATOM     37  N   UNL     1       4.697  -0.920   7.535  1.00  0.00    -0.248 NA
ATOM     38  C   UNL     1       2.623  -1.443   6.607  1.00  0.00     0.031 C 
ATOM     39  C   UNL     1       6.737  -2.492   3.895  1.00  0.00     0.029 A 
ATOM     40  N   UNL     1       7.026  -1.528   5.891  1.00  0.00    -0.354 N 
ATOM     41  C   UNL     1       3.691  -0.469   8.382  1.00  0.00     0.074 A 
ATOM     42  C   UNL     1       2.434  -0.765   7.730  1.00  0.00     0.031 C 
ATOM     43  C   UNL     1       8.055  -2.294   4.059  1.00  0.00     0.029 A 
ATOM     44  C   UNL     1       8.286  -1.654   5.350  1.00  0.00     0.049 A 
ATOM     45  H   UNL     1       6.857  -1.123   6.772  1.00  0.00     0.167 HD
ATOM     46  C   UNL     1       3.796   0.109   9.604  1.00  0.00     0.034 A 
ATOM     47  C   UNL     1       9.492  -1.301   5.837  1.00  0.00     0.034 A 
ATOM     48  C   UNL     1       5.043   0.377  10.269  1.00  0.00     0.049 A 
ATOM     49  C   UNL     1       9.585  -0.697   7.212  1.00  0.00     0.074 A 
ATOM     50  C   UNL     1       5.248   0.884  11.541  1.00  0.00     0.029 A 
ATOM     51  N   UNL     1       6.298   0.175   9.715  1.00  0.00    -0.354 N 
ATOM     52  N   UNL     1       8.625  -0.430   8.063  1.00  0.00    -0.248 NA
ATOM     53  C   UNL     1      10.932  -0.385   7.711  1.00  0.00     0.031 C 
ATOM     54  C   UNL     1       6.626   1.021  11.743  1.00  0.00     0.029 A 
ATOM     55  C   UNL     1       7.281   0.557  10.613  1.00  0.00     0.049 A 
ATOM     56  H   UNL     1       6.465  -0.187   8.815  1.00  0.00     0.167 HD
ATOM     57  C   UNL     1       9.253   0.041   9.211  1.00  0.00     0.074 A 
ATOM     58  C   UNL     1      10.677   0.004   8.953  1.00  0.00     0.031 C 
ATOM     59  C   UNL     1       8.698   0.473  10.370  1.00  0.00     0.034 A 
BRANCH  46  60
ATOM     60  C   UNL     1       2.518   0.454  10.329  1.00  0.00     0.023 A 
ATOM     61  C   UNL     1       1.696  -0.580  10.825  1.00  0.00     0.012 A 
ATOM     62  C   UNL     1       2.160   1.794  10.572  1.00  0.00     0.148 A 
ATOM     63  C   UNL     1       0.519  -0.286  11.514  1.00  0.00     0.002 A 
ATOM     64  C   UNL     1       1.011   2.079  11.303  1.00  0.00     0.091 A 
ATOM     65  F   UNL     1       2.943   2.765  10.080  1.00  0.00    -0.205 F 
ATOM     66  C   UNL     1       0.183   1.042  11.761  1.00  0.00     0.022 A 
BRANCH  64  67
ATOM     67  S   UNL     1       0.535   3.753  11.748  1.00  0.00     0.127 S 
ATOM     68  O   UNL     1      -0.650   3.954  10.915  1.00  0.00    -0.237 OA
ATOM     69  O   UNL     1       0.260   3.624  13.179  1.00  0.00    -0.237 OA
ATOM     70  O   UNL     1       1.677   4.596  11.422  1.00  0.00    -0.744 OA
ENDBRANCH  64  67
ENDBRANCH  46  60
BRANCH  47  71
ATOM     71  C   UNL     1      10.724  -1.573   5.041  1.00  0.00     0.023 A 
ATOM     72  C   UNL     1      11.636  -2.553   5.479  1.00  0.00     0.012 A 
ATOM     73  C   UNL     1      10.986  -0.877   3.846  1.00  0.00     0.148 A 
ATOM     74  C   UNL     1      12.805  -2.809   4.761  1.00  0.00     0.002 A 
ATOM     75  C   UNL     1      12.121  -1.178   3.104  1.00  0.00     0.091 A 
ATOM     76  F   UNL     1      10.110   0.058   3.451  1.00  0.00    -0.205 F 
ATOM     77  C   UNL     1      13.043  -2.130   3.569  1.00  0.00     0.022 A 
BRANCH  75  78
ATOM     78  S   UNL     1      12.439  -0.451   1.493  1.00  0.00     0.127 S 
ATOM     79  O   UNL     1      13.603   0.388   1.768  1.00  0.00    -0.237 OA
ATOM     80  O   UNL     1      12.710  -1.635   0.677  1.00  0.00    -0.237 OA
ATOM     81  O   UNL     1      11.220   0.260   1.133  1.00  0.00    -0.744 OA
ENDBRANCH  75  78
ENDBRANCH  47  71
BRANCH  59  82
ATOM     82  C   UNL     1       9.630   0.896  11.478  1.00  0.00     0.023 A 
ATOM     83  C   UNL     1      10.380   2.083  11.360  1.00  0.00     0.012 A 
ATOM     84  C   UNL     1       9.716   0.141  12.665  1.00  0.00     0.148 A 
ATOM     85  C   UNL     1      11.234   2.487  12.387  1.00  0.00     0.002 A 
ATOM     86  C   UNL     1      10.527   0.578  13.705  1.00  0.00     0.091 A 
ATOM     87  F   UNL     1       9.010  -0.996  12.753  1.00  0.00    -0.205 F 
ATOM     88  C   UNL     1      11.299   1.742  13.562  1.00  0.00     0.022 A 
BRANCH  86  89
ATOM     89  S   UNL     1      10.596  -0.264  15.290  1.00  0.00     0.127 S 
ATOM     90  O   UNL     1      11.917  -0.889  15.238  1.00  0.00    -0.237 OA
ATOM     91  O   UNL     1      10.484   0.848  16.236  1.00  0.00    -0.237 OA
ATOM     92  O   UNL     1       9.468  -1.185  15.305  1.00  0.00    -0.744 OA
ENDBRANCH  86  89
ENDBRANCH  59  82
ENDBRANCH  33  34
ENDBRANCH  25  28
ENDBRANCH  23  24
ENDBRANCH  22  23
ENDBRANCH  21  22
ENDBRANCH  20  21
ENDBRANCH   1  20
TORSDOF 21
