REMARK SMILES Cc1cc(NC(=O)CC2(CC(=O)NCCCCCCNC(=O)c3ccc(-c4c5nc(c(-c6cccc(S(=O)(=O)[O-])c6F)c6ccc([nH]6)c(-c6cccc(S(=O)(=O)[O-])c6F)c6nc(c(-c7cccc(S(=O)(=O)[O-])c7F)c7ccc4[nH]7)C=C6)C=C5)cc3)CCCC2)ccn1
REMARK SMILES IDX 16 1 15 2 14 3 13 4 11 5 12 6 10 8 9 9 86 10 89 11 87 12
REMARK SMILES IDX 88 13 8 14 6 15 5 16 7 18 4 19 1 20 2 21 3 22 92 23 91 24
REMARK SMILES IDX 90 25 17 26 18 27 19 28 20 29 21 30 22 32 23 33 24 34 85 35
REMARK SMILES IDX 25 36 84 37 26 38 27 39 28 40 78 41 29 42 83 43 77 44 79 45
REMARK SMILES IDX 30 46 82 47 76 48 75 49 31 51 63 52 43 53 62 54 44 55 47 56
REMARK SMILES IDX 61 57 80 58 45 59 46 60 60 62 81 63 48 64 32 65 33 66 41 67
REMARK SMILES IDX 34 68 36 69 42 70 35 71 37 72 38 73 39 74 40 75 64 76 65 77
REMARK SMILES IDX 73 78 66 79 68 80 74 81 67 82 69 83 70 84 71 85 72 86 49 87
REMARK SMILES IDX 50 88 58 89 51 90 53 91 59 92 52 93 54 94 55 95 56 96 57 97
REMARK H PARENT 13 7 5 17 20 31 79 50 47 61
REMARK Flexibility Score: inf
ROOT
ATOM      1  C   UNL     1      -8.477   2.610   1.132  1.00  0.00     0.002 C 
ENDROOT
BRANCH   1   2
ATOM      2  C   UNL     1      -7.010   2.214   1.290  1.00  0.00     0.021 C 
BRANCH   2   3
ATOM      3  C   UNL     1      -6.733   1.382   2.542  1.00  0.00     0.116 C 
BRANCH   3   4
ATOM      4  N   UNL     1      -6.944  -0.019   2.261  1.00  0.00    -0.356 N 
ATOM      5  C   UNL     1      -6.047  -1.036   2.204  1.00  0.00     0.220 C 
ATOM      6  O   UNL     1      -6.463  -2.152   1.885  1.00  0.00    -0.275 OA
ATOM      7  H   UNL     1      -7.878  -0.275   2.084  1.00  0.00     0.163 HD
BRANCH   5   8
ATOM      8  C   UNL     1      -4.589  -0.814   2.577  1.00  0.00     0.107 C 
BRANCH   8   9
ATOM      9  C   UNL     1      -3.571  -0.369   1.477  1.00  0.00    -0.012 C 
ATOM     10  C   UNL     1      -2.169  -0.433   2.135  1.00  0.00     0.008 C 
ATOM     11  C   UNL     1      -3.605   1.139   1.146  1.00  0.00     0.008 C 
ATOM     12  C   UNL     1      -2.052   0.832   2.987  1.00  0.00     0.001 C 
ATOM     13  C   UNL     1      -2.916   1.874   2.290  1.00  0.00     0.001 C 
BRANCH   9  14
ATOM     14  C   UNL     1      -3.761  -1.174   0.156  1.00  0.00     0.108 C 
BRANCH  14  15
ATOM     15  C   UNL     1      -2.873  -2.377  -0.092  1.00  0.00     0.224 C 
ATOM     16  N   UNL     1      -1.585  -2.277  -0.530  1.00  0.00    -0.326 N 
ATOM     17  H   UNL     1      -1.143  -3.147  -0.659  1.00  0.00     0.169 HD
ATOM     18  O   UNL     1      -3.292  -3.515   0.148  1.00  0.00    -0.275 OA
BRANCH  16  19
ATOM     19  C   UNL     1      -0.762  -1.178  -0.832  1.00  0.00     0.044 A 
ATOM     20  C   UNL     1       2.810  -0.248  -0.016  1.00  0.00     0.067 C 
ATOM     21  C   UNL     1       1.411  -0.194  -0.549  1.00  0.00     0.039 A 
ATOM     22  C   UNL     1       0.584  -1.309  -0.484  1.00  0.00     0.049 A 
ATOM     23  N   UNL     1       0.974   1.006  -0.988  1.00  0.00    -0.261 NA
ATOM     24  C   UNL     1      -0.308   1.090  -1.393  1.00  0.00     0.113 A 
ATOM     25  C   UNL     1      -1.200   0.031  -1.352  1.00  0.00     0.046 A 
ENDBRANCH  16  19
ENDBRANCH  14  15
ENDBRANCH   9  14
ENDBRANCH   8   9
ENDBRANCH   5   8
ENDBRANCH   3   4
ENDBRANCH   2   3
ENDBRANCH   1   2
BRANCH   1  26
ATOM     26  C   UNL     1      -9.010   3.513   2.248  1.00  0.00     0.002 C 
BRANCH  26  27
ATOM     27  C   UNL     1      -8.174   4.768   2.518  1.00  0.00     0.021 C 
BRANCH  27  28
ATOM     28  C   UNL     1      -7.946   5.651   1.294  1.00  0.00     0.116 C 
BRANCH  28  29
ATOM     29  N   UNL     1      -9.205   6.080   0.705  1.00  0.00    -0.352 N 
ATOM     30  C   UNL     1      -9.716   7.346   0.581  1.00  0.00     0.251 C 
ATOM     31  H   UNL     1      -9.769   5.359   0.344  1.00  0.00     0.163 HD
ATOM     32  O   UNL     1     -10.900   7.507   0.303  1.00  0.00    -0.269 OA
BRANCH  30  33
ATOM     33  C   UNL     1      -8.832   8.511   0.784  1.00  0.00     0.039 A 
ATOM     34  C   UNL     1      -9.288   9.585   1.551  1.00  0.00     0.014 A 
ATOM     35  C   UNL     1      -7.563   8.547   0.199  1.00  0.00     0.014 A 
ATOM     36  C   UNL     1      -8.451  10.682   1.765  1.00  0.00     0.010 A 
ATOM     37  C   UNL     1      -6.705   9.607   0.473  1.00  0.00     0.010 A 
ATOM     38  C   UNL     1      -7.146  10.692   1.246  1.00  0.00    -0.014 A 
BRANCH  38  39
ATOM     39  C   UNL     1      -6.227  11.830   1.493  1.00  0.00     0.031 A 
ATOM     40  C   UNL     1      -5.732  12.664   0.342  1.00  0.00     0.074 A 
ATOM     41  C   UNL     1      -5.773  12.060   2.741  1.00  0.00     0.049 A 
ATOM     42  N   UNL     1      -4.880  13.656   0.350  1.00  0.00    -0.248 NA
ATOM     43  C   UNL     1      -6.237  12.319  -0.998  1.00  0.00     0.031 C 
ATOM     44  C   UNL     1      -6.119  11.270   3.925  1.00  0.00     0.029 A 
ATOM     45  N   UNL     1      -4.901  13.006   3.216  1.00  0.00    -0.354 N 
ATOM     46  C   UNL     1      -4.722  14.031  -0.979  1.00  0.00     0.074 A 
ATOM     47  C   UNL     1      -5.537  13.136  -1.771  1.00  0.00     0.031 C 
ATOM     48  C   UNL     1      -5.465  11.763   4.988  1.00  0.00     0.029 A 
ATOM     49  C   UNL     1      -4.635  12.884   4.560  1.00  0.00     0.049 A 
ATOM     50  H   UNL     1      -4.503  13.705   2.649  1.00  0.00     0.167 HD
ATOM     51  C   UNL     1      -3.990  15.048  -1.492  1.00  0.00     0.034 A 
ATOM     52  C   UNL     1      -3.808  13.592   5.355  1.00  0.00     0.034 A 
ATOM     53  C   UNL     1      -3.217  15.962  -0.696  1.00  0.00     0.049 A 
ATOM     54  C   UNL     1      -3.041  14.745   4.768  1.00  0.00     0.074 A 
ATOM     55  C   UNL     1      -2.508  17.076  -1.110  1.00  0.00     0.029 A 
ATOM     56  N   UNL     1      -3.047  15.867   0.676  1.00  0.00    -0.354 N 
ATOM     57  N   UNL     1      -3.027  15.182   3.531  1.00  0.00    -0.248 NA
ATOM     58  C   UNL     1      -2.207  15.528   5.690  1.00  0.00     0.031 C 
ATOM     59  C   UNL     1      -1.893  17.643   0.011  1.00  0.00     0.029 A 
ATOM     60  C   UNL     1      -2.240  16.898   1.127  1.00  0.00     0.049 A 
ATOM     61  H   UNL     1      -3.442  15.169   1.247  1.00  0.00     0.167 HD
ATOM     62  C   UNL     1      -2.214  16.310   3.534  1.00  0.00     0.074 A 
ATOM     63  C   UNL     1      -1.772  16.501   4.901  1.00  0.00     0.031 C 
ATOM     64  C   UNL     1      -1.854  17.107   2.498  1.00  0.00     0.034 A 
BRANCH  51  65
ATOM     65  C   UNL     1      -4.037  15.262  -2.983  1.00  0.00     0.023 A 
ATOM     66  C   UNL     1      -5.216  15.761  -3.575  1.00  0.00     0.012 A 
ATOM     67  C   UNL     1      -2.905  15.029  -3.788  1.00  0.00     0.148 A 
ATOM     68  C   UNL     1      -5.280  15.991  -4.949  1.00  0.00     0.002 A 
ATOM     69  C   UNL     1      -2.963  15.303  -5.151  1.00  0.00     0.091 A 
ATOM     70  F   UNL     1      -1.800  14.536  -3.212  1.00  0.00    -0.205 F 
ATOM     71  C   UNL     1      -4.152  15.772  -5.734  1.00  0.00     0.022 A 
BRANCH  69  72
ATOM     72  S   UNL     1      -1.542  15.130  -6.236  1.00  0.00     0.127 S 
ATOM     73  O   UNL     1      -1.923  13.970  -7.039  1.00  0.00    -0.237 OA
ATOM     74  O   UNL     1      -1.550  16.402  -6.959  1.00  0.00    -0.237 OA
ATOM     75  O   UNL     1      -0.392  14.935  -5.364  1.00  0.00    -0.744 OA
ENDBRANCH  69  72
ENDBRANCH  51  65
BRANCH  52  76
ATOM     76  C   UNL     1      -3.716  13.268   6.807  1.00  0.00     0.023 A 
ATOM     77  C   UNL     1      -4.258  14.163   7.751  1.00  0.00     0.012 A 
ATOM     78  C   UNL     1      -3.126  12.071   7.255  1.00  0.00     0.148 A 
ATOM     79  C   UNL     1      -4.183  13.887   9.116  1.00  0.00     0.002 A 
ATOM     80  C   UNL     1      -3.105  11.776   8.613  1.00  0.00     0.091 A 
ATOM     81  F   UNL     1      -2.607  11.238   6.342  1.00  0.00    -0.205 F 
ATOM     82  C   UNL     1      -3.616  12.691   9.547  1.00  0.00     0.022 A 
BRANCH  80  83
ATOM     83  S   UNL     1      -2.517  10.201   9.246  1.00  0.00     0.127 S 
ATOM     84  O   UNL     1      -1.261  10.584   9.883  1.00  0.00    -0.237 OA
ATOM     85  O   UNL     1      -3.589   9.827  10.169  1.00  0.00    -0.237 OA
ATOM     86  O   UNL     1      -2.400   9.331   8.083  1.00  0.00    -0.744 OA
ENDBRANCH  80  83
ENDBRANCH  52  76
BRANCH  64  87
ATOM     87  C   UNL     1      -0.966  18.285   2.799  1.00  0.00     0.023 A 
ATOM     88  C   UNL     1       0.394  18.079   3.106  1.00  0.00     0.012 A 
ATOM     89  C   UNL     1      -1.462  19.600   2.699  1.00  0.00     0.148 A 
ATOM     90  C   UNL     1       1.238  19.164   3.341  1.00  0.00     0.002 A 
ATOM     91  C   UNL     1      -0.603  20.676   2.886  1.00  0.00     0.091 A 
ATOM     92  F   UNL     1      -2.763  19.774   2.424  1.00  0.00    -0.205 F 
ATOM     93  C   UNL     1       0.744  20.460   3.219  1.00  0.00     0.022 A 
BRANCH  91  94
ATOM     94  S   UNL     1      -1.129  22.378   2.653  1.00  0.00     0.127 S 
ATOM     95  O   UNL     1      -1.171  22.868   4.030  1.00  0.00    -0.237 OA
ATOM     96  O   UNL     1      -0.042  22.930   1.843  1.00  0.00    -0.237 OA
ATOM     97  O   UNL     1      -2.415  22.312   1.972  1.00  0.00    -0.744 OA
ENDBRANCH  91  94
ENDBRANCH  64  87
ENDBRANCH  38  39
ENDBRANCH  30  33
ENDBRANCH  28  29
ENDBRANCH  27  28
ENDBRANCH  26  27
ENDBRANCH   1  26
TORSDOF 20
