REMARK SMILES CC(C)C[C@H](NC(=O)[C@@H](NC(=O)[C@H](C)NC(=O)CNC(=O)OCc1ccccc1)C(C)C)C(=O)NCCCCCCNC(=O)c1ccc(-c2c3nc(c(-c4cccc(S(=O)(=O)[O-])c4F)c4ccc([nH]4)c(-c4cccc(S(=O)(=O)[O-])c4F)c4nc(c(-c5cccc(S(=O)(=O)[O-])c5F)c5ccc2[nH]5)C=C4)C=C3)cc1
REMARK SMILES IDX 33 1 34 2 35 3 5 5 4 6 2 7 1 8 3 9 6 10 7 11 8 13 9 14 10 15
REMARK SMILES IDX 11 16 12 18 13 19 14 20 15 21 16 22 17 24 18 25 19 26 20 27
REMARK SMILES IDX 21 29 22 30 23 31 24 32 25 33 29 34 26 35 28 36 27 37 30 38
REMARK SMILES IDX 31 39 32 40 36 41 37 42 38 43 39 44 40 45 41 46 42 47 43 48
REMARK SMILES IDX 44 50 45 51 46 52 107 53 47 54 106 55 48 56 49 57 50 58
REMARK SMILES IDX 100 59 51 60 105 61 99 62 101 63 52 64 104 65 98 66 97 67
REMARK SMILES IDX 53 69 85 70 65 71 84 72 66 73 69 74 83 75 102 76 67 77 68 78
REMARK SMILES IDX 82 80 103 81 70 82 54 83 55 84 63 85 56 86 58 87 64 88 57 89
REMARK SMILES IDX 59 90 60 91 61 92 62 93 86 94 87 95 95 96 88 97 90 98 96 99
REMARK SMILES IDX 89 100 91 101 92 102 93 103 94 104 71 105 72 106 80 107
REMARK SMILES IDX 73 108 75 109 81 110 74 111 76 112 77 113 78 114 79 115
REMARK H PARENT 35 4 6 12 10 17 15 23 19 28 42 49 101 68 69 79
REMARK Flexibility Score: inf
ROOT
ATOM      1  C   UNL     1      -4.302   0.407   1.995  1.00  0.00     0.242 C 
ATOM      2  O   UNL     1      -5.094   1.250   1.561  1.00  0.00    -0.273 OA
ATOM      3  N   UNL     1      -3.017   0.534   1.570  1.00  0.00    -0.354 N 
ATOM      4  H   UNL     1      -2.900   0.864   0.650  1.00  0.00     0.163 HD
ENDROOT
BRANCH   1   5
ATOM      5  C   UNL     1      -4.759  -0.645   3.031  1.00  0.00     0.171 C 
BRANCH   5   6
ATOM      6  C   UNL     1      -5.082   0.037   4.392  1.00  0.00     0.038 C 
BRANCH   6   7
ATOM      7  C   UNL     1      -3.915   0.740   5.138  1.00  0.00    -0.015 C 
ATOM      8  C   UNL     1      -3.652   2.175   4.662  1.00  0.00     0.007 C 
ATOM      9  C   UNL     1      -4.205   0.811   6.645  1.00  0.00     0.007 C 
ENDBRANCH   6   7
ENDBRANCH   5   6
BRANCH   5  10
ATOM     10  N   UNL     1      -3.871  -1.794   3.199  1.00  0.00    -0.343 N 
ATOM     11  C   UNL     1      -3.630  -2.906   2.461  1.00  0.00     0.243 C 
ATOM     12  H   UNL     1      -3.334  -1.752   4.023  1.00  0.00     0.164 HD
ATOM     13  O   UNL     1      -2.573  -3.496   2.727  1.00  0.00    -0.273 OA
BRANCH  11  14
ATOM     14  C   UNL     1      -4.533  -3.469   1.330  1.00  0.00     0.174 C 
BRANCH  14  15
ATOM     15  N   UNL     1      -5.881  -3.782   1.845  1.00  0.00    -0.342 N 
ATOM     16  C   UNL     1      -7.192  -3.572   1.606  1.00  0.00     0.242 C 
ATOM     17  H   UNL     1      -5.791  -4.344   2.648  1.00  0.00     0.164 HD
ATOM     18  O   UNL     1      -7.928  -4.190   2.394  1.00  0.00    -0.273 OA
BRANCH  16  19
ATOM     19  C   UNL     1      -7.826  -2.506   0.667  1.00  0.00     0.168 C 
ATOM     20  C   UNL     1      -9.333  -2.780   0.533  1.00  0.00     0.041 C 
BRANCH  19  21
ATOM     21  N   UNL     1      -7.332  -2.300  -0.691  1.00  0.00    -0.343 N 
ATOM     22  C   UNL     1      -7.007  -1.128  -1.322  1.00  0.00     0.240 C 
ATOM     23  H   UNL     1      -7.216  -3.117  -1.229  1.00  0.00     0.164 HD
ATOM     24  O   UNL     1      -6.833  -1.135  -2.542  1.00  0.00    -0.273 OA
BRANCH  22  25
ATOM     25  C   UNL     1      -6.924   0.155  -0.510  1.00  0.00     0.219 C 
BRANCH  25  26
ATOM     26  N   UNL     1      -8.254   0.706  -0.395  1.00  0.00    -0.312 N 
ATOM     27  C   UNL     1      -8.969   0.818   0.758  1.00  0.00     0.407 C 
ATOM     28  H   UNL     1      -8.681   1.027  -1.222  1.00  0.00     0.167 HD
ATOM     29  O   UNL     1     -10.172   1.029   0.741  1.00  0.00    -0.225 OA
BRANCH  27  30
ATOM     30  O   UNL     1      -8.204   0.683   1.868  1.00  0.00    -0.445 OA
BRANCH  30  31
ATOM     31  C   UNL     1      -8.880   0.823   3.125  1.00  0.00     0.270 C 
BRANCH  31  32
ATOM     32  C   UNL     1      -9.121   2.255   3.548  1.00  0.00    -0.011 A 
ATOM     33  C   UNL     1      -8.898   3.345   2.694  1.00  0.00     0.007 A 
ATOM     34  C   UNL     1      -9.646   2.504   4.825  1.00  0.00     0.007 A 
ATOM     35  C   UNL     1      -9.247   4.639   3.078  1.00  0.00     0.000 A 
ATOM     36  C   UNL     1      -9.978   3.802   5.217  1.00  0.00     0.000 A 
ATOM     37  C   UNL     1      -9.794   4.867   4.337  1.00  0.00     0.000 A 
ENDBRANCH  31  32
ENDBRANCH  30  31
ENDBRANCH  27  30
ENDBRANCH  25  26
ENDBRANCH  22  25
ENDBRANCH  19  21
ENDBRANCH  16  19
ENDBRANCH  14  15
BRANCH  14  38
ATOM     38  C   UNL     1      -4.403  -2.868  -0.071  1.00  0.00     0.015 C 
ATOM     39  C   UNL     1      -2.985  -2.452  -0.472  1.00  0.00     0.010 C 
ATOM     40  C   UNL     1      -4.876  -3.892  -1.124  1.00  0.00     0.010 C 
ENDBRANCH  14  38
ENDBRANCH  11  14
ENDBRANCH   5  10
ENDBRANCH   1   5
BRANCH   3  41
ATOM     41  C   UNL     1      -1.799   0.247   2.298  1.00  0.00     0.116 C 
BRANCH  41  42
ATOM     42  C   UNL     1      -0.558   0.289   1.422  1.00  0.00     0.021 C 
BRANCH  42  43
ATOM     43  C   UNL     1      -0.290   1.625   0.725  1.00  0.00     0.002 C 
BRANCH  43  44
ATOM     44  C   UNL     1      -0.364   2.880   1.599  1.00  0.00     0.002 C 
BRANCH  44  45
ATOM     45  C   UNL     1       0.464   2.864   2.885  1.00  0.00     0.021 C 
BRANCH  45  46
ATOM     46  C   UNL     1       1.916   2.436   2.729  1.00  0.00     0.116 C 
BRANCH  46  47
ATOM     47  N   UNL     1       2.648   3.253   1.779  1.00  0.00    -0.352 N 
ATOM     48  C   UNL     1       3.912   3.776   1.893  1.00  0.00     0.251 C 
ATOM     49  H   UNL     1       2.175   3.459   0.940  1.00  0.00     0.163 HD
ATOM     50  O   UNL     1       4.336   4.552   1.042  1.00  0.00    -0.269 OA
BRANCH  48  51
ATOM     51  C   UNL     1       4.743   3.423   3.064  1.00  0.00     0.039 A 
ATOM     52  C   UNL     1       5.396   4.446   3.756  1.00  0.00     0.014 A 
ATOM     53  C   UNL     1       4.859   2.097   3.491  1.00  0.00     0.014 A 
ATOM     54  C   UNL     1       6.122   4.145   4.910  1.00  0.00     0.010 A 
ATOM     55  C   UNL     1       5.518   1.811   4.684  1.00  0.00     0.010 A 
ATOM     56  C   UNL     1       6.164   2.829   5.401  1.00  0.00    -0.014 A 
BRANCH  56  57
ATOM     57  C   UNL     1       6.875   2.500   6.663  1.00  0.00     0.031 A 
ATOM     58  C   UNL     1       8.047   1.555   6.644  1.00  0.00     0.074 A 
ATOM     59  C   UNL     1       6.413   2.984   7.834  1.00  0.00     0.049 A 
ATOM     60  N   UNL     1       8.754   1.102   7.645  1.00  0.00    -0.248 NA
ATOM     61  C   UNL     1       8.463   1.027   5.332  1.00  0.00     0.031 C 
ATOM     62  C   UNL     1       5.244   3.852   7.990  1.00  0.00     0.029 A 
ATOM     63  N   UNL     1       6.854   2.791   9.120  1.00  0.00    -0.354 N 
ATOM     64  C   UNL     1       9.662   0.205   7.096  1.00  0.00     0.074 A 
ATOM     65  C   UNL     1       9.406   0.161   5.673  1.00  0.00     0.031 C 
ATOM     66  C   UNL     1       5.063   4.119   9.294  1.00  0.00     0.029 A 
ATOM     67  C   UNL     1       6.077   3.413  10.070  1.00  0.00     0.049 A 
ATOM     68  H   UNL     1       7.652   2.258   9.342  1.00  0.00     0.167 HD
ATOM     69  C   UNL     1      10.633  -0.504   7.717  1.00  0.00     0.034 A 
ATOM     70  C   UNL     1       6.162   3.402  11.415  1.00  0.00     0.034 A 
ATOM     71  C   UNL     1      10.918  -0.417   9.123  1.00  0.00     0.049 A 
ATOM     72  C   UNL     1       7.277   2.631  12.070  1.00  0.00     0.074 A 
ATOM     73  C   UNL     1      11.954  -1.007   9.825  1.00  0.00     0.029 A 
ATOM     74  N   UNL     1      10.159   0.287  10.043  1.00  0.00    -0.354 N 
ATOM     75  N   UNL     1       8.234   1.930  11.513  1.00  0.00    -0.248 NA
ATOM     76  C   UNL     1       7.344   2.675  13.539  1.00  0.00     0.031 C 
ATOM     77  C   UNL     1      11.796  -0.695  11.178  1.00  0.00     0.029 A 
ATOM     78  C   UNL     1      10.689   0.127  11.311  1.00  0.00     0.049 A 
ATOM     79  H   UNL     1       9.362   0.822   9.826  1.00  0.00     0.167 HD
ATOM     80  C   UNL     1       9.041   1.491  12.557  1.00  0.00     0.074 A 
ATOM     81  C   UNL     1       8.471   2.019  13.778  1.00  0.00     0.031 C 
ATOM     82  C   UNL     1      10.148   0.710  12.510  1.00  0.00     0.034 A 
BRANCH  69  83
ATOM     83  C   UNL     1      11.490  -1.421   6.884  1.00  0.00     0.023 A 
ATOM     84  C   UNL     1      12.450  -0.881   6.004  1.00  0.00     0.012 A 
ATOM     85  C   UNL     1      11.411  -2.818   7.050  1.00  0.00     0.148 A 
ATOM     86  C   UNL     1      13.301  -1.719   5.284  1.00  0.00     0.002 A 
ATOM     87  C   UNL     1      12.294  -3.643   6.367  1.00  0.00     0.091 A 
ATOM     88  F   UNL     1      10.478  -3.310   7.878  1.00  0.00    -0.205 F 
ATOM     89  C   UNL     1      13.233  -3.097   5.476  1.00  0.00     0.022 A 
BRANCH  87  90
ATOM     90  S   UNL     1      12.345  -5.422   6.609  1.00  0.00     0.127 S 
ATOM     91  O   UNL     1      11.899  -5.910   5.305  1.00  0.00    -0.237 OA
ATOM     92  O   UNL     1      13.762  -5.651   6.894  1.00  0.00    -0.237 OA
ATOM     93  O   UNL     1      11.445  -5.705   7.718  1.00  0.00    -0.744 OA
ENDBRANCH  87  90
ENDBRANCH  69  83
BRANCH  70  94
ATOM     94  C   UNL     1       5.192   4.178  12.243  1.00  0.00     0.023 A 
ATOM     95  C   UNL     1       5.644   5.287  12.984  1.00  0.00     0.012 A 
ATOM     96  C   UNL     1       3.833   3.815  12.313  1.00  0.00     0.148 A 
ATOM     97  C   UNL     1       4.774   5.989  13.819  1.00  0.00     0.002 A 
ATOM     98  C   UNL     1       2.959   4.555  13.101  1.00  0.00     0.091 A 
ATOM     99  F   UNL     1       3.421   2.750  11.611  1.00  0.00    -0.205 F 
ATOM    100  C   UNL     1       3.431   5.628  13.872  1.00  0.00     0.022 A 
BRANCH  98 101
ATOM    101  S   UNL     1       1.191   4.239  13.127  1.00  0.00     0.127 S 
ATOM    102  O   UNL     1       1.013   3.637  14.446  1.00  0.00    -0.237 OA
ATOM    103  O   UNL     1       0.640   5.588  12.986  1.00  0.00    -0.237 OA
ATOM    104  O   UNL     1       0.932   3.367  11.990  1.00  0.00    -0.744 OA
ENDBRANCH  98 101
ENDBRANCH  70  94
BRANCH  82 105
ATOM    105  C   UNL     1      10.861   0.421  13.805  1.00  0.00     0.023 A 
ATOM    106  C   UNL     1      10.284  -0.446  14.753  1.00  0.00     0.012 A 
ATOM    107  C   UNL     1      12.146   0.950  14.042  1.00  0.00     0.148 A 
ATOM    108  C   UNL     1      10.961  -0.756  15.932  1.00  0.00     0.002 A 
ATOM    109  C   UNL     1      12.837   0.593  15.192  1.00  0.00     0.091 A 
ATOM    110  F   UNL     1      12.669   1.787  13.134  1.00  0.00    -0.205 F 
ATOM    111  C   UNL     1      12.241  -0.248  16.145  1.00  0.00     0.022 A 
BRANCH 109 112
ATOM    112  S   UNL     1      14.528   1.113  15.500  1.00  0.00     0.127 S 
ATOM    113  O   UNL     1      14.354   2.050  16.609  1.00  0.00    -0.237 OA
ATOM    114  O   UNL     1      15.178  -0.147  15.862  1.00  0.00    -0.237 OA
ATOM    115  O   UNL     1      15.002   1.703  14.255  1.00  0.00    -0.744 OA
ENDBRANCH 109 112
ENDBRANCH  82 105
ENDBRANCH  56  57
ENDBRANCH  48  51
ENDBRANCH  46  47
ENDBRANCH  45  46
ENDBRANCH  44  45
ENDBRANCH  43  44
ENDBRANCH  42  43
ENDBRANCH  41  42
ENDBRANCH   3  41
TORSDOF 29
