REMARK SMILES COc1ccc(-c2c(C(=O)NCCCCCCNC(=O)c3ccc(-c4c5nc(c(-c6cccc(S(=O)(=O)[O-])c6F)c6ccc([nH]6)c(-c6cccc(S(=O)(=O)[O-])c6F)c6nc(c(-c7cccc(S(=O)(=O)[O-])c7F)c7ccc4[nH]7)C=C6)C=C5)cc3)sc3c2N=C(O)C[C@H]3c2ccc(OC)c(OC)c2)cc1
REMARK SMILES IDX 15 1 14 2 13 3 12 4 11 5 9 6 10 7 8 9 7 10 86 11 84 12 85 13
REMARK SMILES IDX 87 14 91 15 88 16 90 17 6 18 3 19 4 20 103 21 5 22 102 23
REMARK SMILES IDX 2 24 1 25 92 26 93 27 101 28 94 29 98 30 95 31 99 32 100 33
REMARK SMILES IDX 96 34 97 35 89 36 16 38 17 39 18 40 19 41 20 43 21 44 22 45
REMARK SMILES IDX 83 46 23 47 82 48 24 49 25 50 26 51 76 52 27 53 81 54 75 55
REMARK SMILES IDX 77 56 28 57 80 58 74 59 73 60 29 62 61 63 41 64 60 65 42 66
REMARK SMILES IDX 45 67 59 68 78 69 43 70 44 71 58 73 79 74 46 75 30 76 31 77
REMARK SMILES IDX 39 78 32 79 34 80 40 81 33 82 35 83 36 84 37 85 38 86 62 87
REMARK SMILES IDX 63 88 71 89 64 90 66 91 72 92 65 93 67 94 68 95 69 96 70 97
REMARK SMILES IDX 47 98 48 99 56 100 49 101 51 102 57 103 50 104 52 105 53 106
REMARK SMILES IDX 54 107 55 108
REMARK H PARENT 11 8 89 37 18 42 77 61 45 72
REMARK Flexibility Score: inf
ROOT
ATOM      1  C   UNL     1      -1.895  -0.694   3.088  1.00  0.00     0.002 C 
ENDROOT
BRANCH   1   2
ATOM      2  C   UNL     1      -0.879  -1.405   3.996  1.00  0.00     0.002 C 
BRANCH   2   3
ATOM      3  C   UNL     1       0.495  -0.776   4.231  1.00  0.00     0.021 C 
BRANCH   3   4
ATOM      4  C   UNL     1       0.563   0.691   4.623  1.00  0.00     0.116 C 
BRANCH   4   5
ATOM      5  N   UNL     1       0.086   1.081   5.919  1.00  0.00    -0.351 N 
ATOM      6  C   UNL     1       0.428   2.192   6.671  1.00  0.00     0.262 C 
ATOM      7  O   UNL     1      -0.231   2.303   7.714  1.00  0.00    -0.268 OA
ATOM      8  H   UNL     1      -0.574   0.477   6.329  1.00  0.00     0.163 HD
BRANCH   6   9
ATOM      9  C   UNL     1       1.499   3.147   6.320  1.00  0.00     0.102 A 
ATOM     10  C   UNL     1       2.068   3.681   5.157  1.00  0.00     0.031 A 
ATOM     11  C   UNL     1       3.123   4.602   5.451  1.00  0.00     0.090 A 
ATOM     12  S   UNL     1       2.304   3.846   7.720  1.00  0.00    -0.131 S 
ATOM     13  C   UNL     1       3.378   4.755   6.777  1.00  0.00     0.040 A 
ATOM     14  N   UNL     1       3.851   5.246   4.443  1.00  0.00    -0.216 NA
ATOM     15  C   UNL     1       4.471   5.608   7.324  1.00  0.00     0.071 C 
ATOM     16  C   UNL     1       4.932   5.833   4.825  1.00  0.00     0.186 C 
ATOM     17  C   UNL     1       5.485   5.965   6.220  1.00  0.00     0.111 C 
BRANCH  10  18
ATOM     18  C   UNL     1       1.776   3.309   3.782  1.00  0.00    -0.014 A 
ATOM     19  C   UNL     1       1.324   2.430   1.164  1.00  0.00     0.118 A 
ATOM     20  C   UNL     1       0.370   3.215   1.830  1.00  0.00     0.047 A 
ATOM     21  C   UNL     1       2.542   2.161   1.780  1.00  0.00     0.047 A 
ATOM     22  C   UNL     1       0.591   3.659   3.140  1.00  0.00     0.012 A 
ATOM     23  C   UNL     1       2.768   2.605   3.077  1.00  0.00     0.012 A 
BRANCH  19  24
ATOM     24  O   UNL     1       0.951   1.957  -0.067  1.00  0.00    -0.497 OA
ATOM     25  C   UNL     1       1.778   0.924  -0.603  1.00  0.00     0.278 C 
ENDBRANCH  19  24
ENDBRANCH  10  18
BRANCH  15  26
ATOM     26  C   UNL     1       3.949   6.853   8.026  1.00  0.00    -0.035 A 
ATOM     27  C   UNL     1       3.139   7.790   7.381  1.00  0.00     0.008 A 
ATOM     28  C   UNL     1       4.296   7.072   9.370  1.00  0.00     0.054 A 
ATOM     29  C   UNL     1       2.690   8.915   8.073  1.00  0.00     0.051 A 
ATOM     30  C   UNL     1       3.860   8.204  10.075  1.00  0.00     0.161 A 
ATOM     31  C   UNL     1       3.038   9.134   9.415  1.00  0.00     0.160 A 
BRANCH  30  32
ATOM     32  O   UNL     1       4.220   8.443  11.376  1.00  0.00    -0.493 OA
ATOM     33  C   UNL     1       5.067   7.497  12.018  1.00  0.00     0.278 C 
ENDBRANCH  30  32
BRANCH  31  34
ATOM     34  O   UNL     1       2.503  10.300   9.902  1.00  0.00    -0.493 OA
ATOM     35  C   UNL     1       2.586  10.551  11.295  1.00  0.00     0.278 C 
ENDBRANCH  31  34
ENDBRANCH  15  26
BRANCH  16  36
ATOM     36  O   UNL     1       5.716   6.381   3.874  1.00  0.00    -0.496 OA
ATOM     37  H   UNL     1       5.454   6.348   2.975  1.00  0.00     0.294 HD
ENDBRANCH  16  36
ENDBRANCH   6   9
ENDBRANCH   4   5
ENDBRANCH   3   4
ENDBRANCH   2   3
ENDBRANCH   1   2
BRANCH   1  38
ATOM     38  C   UNL     1      -1.457  -0.218   1.699  1.00  0.00     0.021 C 
BRANCH  38  39
ATOM     39  C   UNL     1      -0.790  -1.246   0.803  1.00  0.00     0.116 C 
BRANCH  39  40
ATOM     40  N   UNL     1      -1.669  -2.303   0.318  1.00  0.00    -0.352 N 
ATOM     41  C   UNL     1      -1.351  -3.297  -0.598  1.00  0.00     0.251 C 
ATOM     42  H   UNL     1      -2.585  -2.313   0.677  1.00  0.00     0.163 HD
ATOM     43  O   UNL     1      -2.229  -3.863  -1.230  1.00  0.00    -0.269 OA
BRANCH  41  44
ATOM     44  C   UNL     1       0.071  -3.665  -0.799  1.00  0.00     0.039 A 
ATOM     45  C   UNL     1       0.554  -4.048  -2.055  1.00  0.00     0.014 A 
ATOM     46  C   UNL     1       0.927  -3.642   0.300  1.00  0.00     0.014 A 
ATOM     47  C   UNL     1       1.910  -4.348  -2.198  1.00  0.00     0.010 A 
ATOM     48  C   UNL     1       2.282  -3.778   0.129  1.00  0.00     0.010 A 
ATOM     49  C   UNL     1       2.772  -4.199  -1.100  1.00  0.00    -0.014 A 
BRANCH  49  50
ATOM     50  C   UNL     1       4.217  -4.364  -1.243  1.00  0.00     0.031 A 
ATOM     51  C   UNL     1       4.813  -3.471  -2.270  1.00  0.00     0.074 A 
ATOM     52  C   UNL     1       4.964  -5.091  -0.379  1.00  0.00     0.049 A 
ATOM     53  N   UNL     1       5.278  -3.808  -3.427  1.00  0.00    -0.248 NA
ATOM     54  C   UNL     1       4.713  -2.016  -2.073  1.00  0.00     0.031 C 
ATOM     55  C   UNL     1       4.501  -5.748   0.853  1.00  0.00     0.029 A 
ATOM     56  N   UNL     1       6.315  -5.279  -0.325  1.00  0.00    -0.354 N 
ATOM     57  C   UNL     1       5.795  -2.632  -3.969  1.00  0.00     0.074 A 
ATOM     58  C   UNL     1       5.193  -1.557  -3.232  1.00  0.00     0.031 C 
ATOM     59  C   UNL     1       5.558  -6.020   1.648  1.00  0.00     0.029 A 
ATOM     60  C   UNL     1       6.774  -5.727   0.915  1.00  0.00     0.049 A 
ATOM     61  H   UNL     1       6.911  -5.115  -1.090  1.00  0.00     0.167 HD
ATOM     62  C   UNL     1       6.923  -2.666  -4.734  1.00  0.00     0.034 A 
ATOM     63  C   UNL     1       8.060  -5.826   1.330  1.00  0.00     0.034 A 
ATOM     64  C   UNL     1       7.245  -4.026  -5.090  1.00  0.00     0.049 A 
ATOM     65  C   UNL     1       8.903  -5.881   0.121  1.00  0.00     0.074 A 
ATOM     66  C   UNL     1       6.690  -5.023  -5.860  1.00  0.00     0.029 A 
ATOM     67  N   UNL     1       8.140  -4.616  -4.234  1.00  0.00    -0.354 N 
ATOM     68  N   UNL     1       8.885  -6.879  -0.716  1.00  0.00    -0.248 NA
ATOM     69  C   UNL     1       9.524  -4.660  -0.370  1.00  0.00     0.031 C 
ATOM     70  C   UNL     1       7.091  -6.247  -5.249  1.00  0.00     0.029 A 
ATOM     71  C   UNL     1       7.925  -5.961  -4.166  1.00  0.00     0.049 A 
ATOM     72  H   UNL     1       8.840  -4.135  -3.736  1.00  0.00     0.167 HD
ATOM     73  C   UNL     1       9.031  -6.274  -1.951  1.00  0.00     0.074 A 
ATOM     74  C   UNL     1       9.610  -4.966  -1.667  1.00  0.00     0.031 C 
ATOM     75  C   UNL     1       8.362  -6.756  -3.038  1.00  0.00     0.034 A 
BRANCH  62  76
ATOM     76  C   UNL     1       8.023  -1.612  -4.753  1.00  0.00     0.023 A 
ATOM     77  C   UNL     1       9.108  -1.847  -5.634  1.00  0.00     0.012 A 
ATOM     78  C   UNL     1       8.216  -0.613  -3.772  1.00  0.00     0.148 A 
ATOM     79  C   UNL     1      10.334  -1.186  -5.497  1.00  0.00     0.002 A 
ATOM     80  C   UNL     1       9.414   0.090  -3.680  1.00  0.00     0.091 A 
ATOM     81  F   UNL     1       7.298  -0.409  -2.828  1.00  0.00    -0.205 F 
ATOM     82  C   UNL     1      10.488  -0.215  -4.518  1.00  0.00     0.022 A 
BRANCH  80  83
ATOM     83  S   UNL     1       9.664   1.377  -2.447  1.00  0.00     0.127 S 
ATOM     84  O   UNL     1      10.641   0.748  -1.563  1.00  0.00    -0.237 OA
ATOM     85  O   UNL     1      10.180   2.474  -3.265  1.00  0.00    -0.237 OA
ATOM     86  O   UNL     1       8.351   1.628  -1.865  1.00  0.00    -0.744 OA
ENDBRANCH  80  83
ENDBRANCH  62  76
BRANCH  63  87
ATOM     87  C   UNL     1       8.652  -5.715   2.682  1.00  0.00     0.023 A 
ATOM     88  C   UNL     1       9.901  -6.307   2.959  1.00  0.00     0.012 A 
ATOM     89  C   UNL     1       8.134  -4.784   3.609  1.00  0.00     0.148 A 
ATOM     90  C   UNL     1      10.631  -5.953   4.101  1.00  0.00     0.002 A 
ATOM     91  C   UNL     1       8.863  -4.434   4.742  1.00  0.00     0.091 A 
ATOM     92  F   UNL     1       6.972  -4.181   3.328  1.00  0.00    -0.205 F 
ATOM     93  C   UNL     1      10.119  -5.007   4.985  1.00  0.00     0.022 A 
BRANCH  91  94
ATOM     94  S   UNL     1       8.289  -3.192   5.909  1.00  0.00     0.127 S 
ATOM     95  O   UNL     1       8.361  -3.916   7.178  1.00  0.00    -0.237 OA
ATOM     96  O   UNL     1       9.289  -2.139   5.748  1.00  0.00    -0.237 OA
ATOM     97  O   UNL     1       6.938  -2.841   5.489  1.00  0.00    -0.744 OA
ENDBRANCH  91  94
ENDBRANCH  63  87
BRANCH  75  98
ATOM     98  C   UNL     1       7.885  -8.178  -2.985  1.00  0.00     0.023 A 
ATOM     99  C   UNL     1       6.872  -8.626  -2.114  1.00  0.00     0.012 A 
ATOM    100  C   UNL     1       8.398  -9.059  -3.950  1.00  0.00     0.148 A 
ATOM    101  C   UNL     1       6.394  -9.937  -2.199  1.00  0.00     0.002 A 
ATOM    102  C   UNL     1       7.884 -10.341  -4.067  1.00  0.00     0.091 A 
ATOM    103  F   UNL     1       9.370  -8.612  -4.760  1.00  0.00    -0.205 F 
ATOM    104  C   UNL     1       6.888 -10.789  -3.186  1.00  0.00     0.022 A 
BRANCH 102 105
ATOM    105  S   UNL     1       8.394 -11.426  -5.399  1.00  0.00     0.127 S 
ATOM    106  O   UNL     1       9.263 -12.373  -4.705  1.00  0.00    -0.237 OA
ATOM    107  O   UNL     1       7.119 -11.982  -5.856  1.00  0.00    -0.237 OA
ATOM    108  O   UNL     1       9.053 -10.572  -6.381  1.00  0.00    -0.744 OA
ENDBRANCH 102 105
ENDBRANCH  75  98
ENDBRANCH  49  50
ENDBRANCH  41  44
ENDBRANCH  39  40
ENDBRANCH  38  39
ENDBRANCH   1  38
TORSDOF 22
