REMARK SMILES O=C(NCCCCCCNC(=O)[C@H]1C=C[C@@H](NS(=O)(=O)c2ccc(Br)cc2)C1)c1ccc(-c2c3nc(c(-c4cccc(S(=O)(=O)[O-])c4F)c4ccc([nH]4)c(-c4cccc(S(=O)(=O)[O-])c4F)c4nc(c(-c5cccc(S(=O)(=O)[O-])c5F)c5ccc2[nH]5)C=C4)C=C3)cc1
REMARK SMILES IDX 6 1 5 2 4 3 3 4 1 5 2 6 29 8 30 9 91 10 31 11 90 12 32 13
REMARK SMILES IDX 33 14 34 15 84 16 35 17 89 18 83 19 85 20 36 21 88 22 82 23
REMARK SMILES IDX 81 24 37 26 69 27 49 28 68 29 50 30 53 31 67 32 86 33 51 34
REMARK SMILES IDX 52 35 66 37 87 38 54 39 38 40 39 41 47 42 40 43 42 44 48 45
REMARK SMILES IDX 41 46 43 47 44 48 45 49 46 50 70 51 71 52 79 53 72 54 74 55
REMARK SMILES IDX 80 56 73 57 75 58 76 59 77 60 78 61 55 62 56 63 64 64 57 65
REMARK SMILES IDX 59 66 65 67 58 68 60 69 61 70 62 71 63 72 7 73 8 74 9 75
REMARK SMILES IDX 10 76 11 77 12 79 13 80 14 81 28 82 15 83 16 84 17 85 18 87
REMARK SMILES IDX 19 88 20 89 21 90 22 91 27 92 23 93 26 94 24 95 25 96
REMARK H PARENT 3 7 85 25 53 36 10 78 17 86
REMARK Flexibility Score: inf
ROOT
ATOM      1  C   UNL     1       4.036  -1.223  -3.620  1.00  0.00     0.002 C 
ENDROOT
BRANCH   1   2
ATOM      2  C   UNL     1       4.545  -1.436  -2.194  1.00  0.00     0.021 C 
BRANCH   2   3
ATOM      3  C   UNL     1       4.317  -0.252  -1.266  1.00  0.00     0.116 C 
BRANCH   3   4
ATOM      4  N   UNL     1       2.902   0.024  -1.073  1.00  0.00    -0.352 N 
ATOM      5  O   UNL     1       0.955   0.083   0.061  1.00  0.00    -0.269 OA
ATOM      6  C   UNL     1       2.181   0.047   0.096  1.00  0.00     0.251 C 
ATOM      7  H   UNL     1       2.392   0.220  -1.892  1.00  0.00     0.163 HD
BRANCH   6   8
ATOM      8  C   UNL     1       2.901   0.007   1.386  1.00  0.00     0.039 A 
ATOM      9  C   UNL     1       4.039   0.794   1.577  1.00  0.00     0.014 A 
ATOM     10  C   UNL     1       2.445  -0.833   2.404  1.00  0.00     0.014 A 
ATOM     11  C   UNL     1       4.804   0.632   2.723  1.00  0.00     0.010 A 
ATOM     12  C   UNL     1       3.161  -0.916   3.601  1.00  0.00     0.010 A 
ATOM     13  C   UNL     1       4.361  -0.204   3.760  1.00  0.00    -0.014 A 
BRANCH  13  14
ATOM     14  C   UNL     1       5.122  -0.237   5.034  1.00  0.00     0.031 A 
ATOM     15  C   UNL     1       5.755  -1.501   5.541  1.00  0.00     0.074 A 
ATOM     16  C   UNL     1       5.231   0.908   5.739  1.00  0.00     0.049 A 
ATOM     17  N   UNL     1       6.454  -1.687   6.632  1.00  0.00    -0.248 NA
ATOM     18  C   UNL     1       5.577  -2.716   4.731  1.00  0.00     0.031 C 
ATOM     19  C   UNL     1       4.622   2.188   5.362  1.00  0.00     0.029 A 
ATOM     20  N   UNL     1       5.881   1.184   6.913  1.00  0.00    -0.354 N 
ATOM     21  C   UNL     1       6.766  -3.040   6.662  1.00  0.00     0.074 A 
ATOM     22  C   UNL     1       6.173  -3.633   5.482  1.00  0.00     0.031 C 
ATOM     23  C   UNL     1       4.948   3.116   6.271  1.00  0.00     0.029 A 
ATOM     24  C   UNL     1       5.728   2.486   7.328  1.00  0.00     0.049 A 
ATOM     25  H   UNL     1       6.406   0.517   7.410  1.00  0.00     0.167 HD
ATOM     26  C   UNL     1       7.490  -3.721   7.585  1.00  0.00     0.034 A 
ATOM     27  C   UNL     1       6.141   3.103   8.450  1.00  0.00     0.034 A 
ATOM     28  C   UNL     1       8.092  -3.115   8.745  1.00  0.00     0.049 A 
ATOM     29  C   UNL     1       6.939   2.322   9.452  1.00  0.00     0.074 A 
ATOM     30  C   UNL     1       8.895  -3.707   9.704  1.00  0.00     0.029 A 
ATOM     31  N   UNL     1       7.944  -1.787   9.116  1.00  0.00    -0.354 N 
ATOM     32  N   UNL     1       7.328   1.071   9.401  1.00  0.00    -0.248 NA
ATOM     33  C   UNL     1       7.380   3.043  10.653  1.00  0.00     0.031 C 
ATOM     34  C   UNL     1       9.198  -2.748  10.675  1.00  0.00     0.029 A 
ATOM     35  C   UNL     1       8.624  -1.545  10.298  1.00  0.00     0.049 A 
ATOM     36  H   UNL     1       7.431  -1.114   8.612  1.00  0.00     0.167 HD
ATOM     37  C   UNL     1       8.085   0.863  10.546  1.00  0.00     0.074 A 
ATOM     38  C   UNL     1       8.120   2.124  11.258  1.00  0.00     0.031 C 
ATOM     39  C   UNL     1       8.686  -0.274  10.975  1.00  0.00     0.034 A 
BRANCH  26  40
ATOM     40  C   UNL     1       7.691  -5.201   7.374  1.00  0.00     0.023 A 
ATOM     41  C   UNL     1       8.538  -5.656   6.343  1.00  0.00     0.012 A 
ATOM     42  C   UNL     1       7.098  -6.140   8.243  1.00  0.00     0.148 A 
ATOM     43  C   UNL     1       8.766  -7.020   6.159  1.00  0.00     0.002 A 
ATOM     44  C   UNL     1       7.367  -7.495   8.082  1.00  0.00     0.091 A 
ATOM     45  F   UNL     1       6.283  -5.692   9.208  1.00  0.00    -0.205 F 
ATOM     46  C   UNL     1       8.189  -7.937   7.033  1.00  0.00     0.022 A 
BRANCH  44  47
ATOM     47  S   UNL     1       6.739  -8.750   9.204  1.00  0.00     0.127 S 
ATOM     48  O   UNL     1       5.782  -9.454   8.352  1.00  0.00    -0.237 OA
ATOM     49  O   UNL     1       7.949  -9.511   9.519  1.00  0.00    -0.237 OA
ATOM     50  O   UNL     1       6.161  -8.031  10.331  1.00  0.00    -0.744 OA
ENDBRANCH  44  47
ENDBRANCH  26  40
BRANCH  27  51
ATOM     51  C   UNL     1       5.821   4.541   8.665  1.00  0.00     0.023 A 
ATOM     52  C   UNL     1       6.854   5.497   8.640  1.00  0.00     0.012 A 
ATOM     53  C   UNL     1       4.492   4.968   8.855  1.00  0.00     0.148 A 
ATOM     54  C   UNL     1       6.574   6.849   8.835  1.00  0.00     0.002 A 
ATOM     55  C   UNL     1       4.213   6.322   8.986  1.00  0.00     0.091 A 
ATOM     56  F   UNL     1       3.525   4.041   8.882  1.00  0.00    -0.205 F 
ATOM     57  C   UNL     1       5.254   7.263   8.996  1.00  0.00     0.022 A 
BRANCH  55  58
ATOM     58  S   UNL     1       2.534   6.956   9.060  1.00  0.00     0.127 S 
ATOM     59  O   UNL     1       2.456   7.431  10.439  1.00  0.00    -0.237 OA
ATOM     60  O   UNL     1       2.566   8.009   8.045  1.00  0.00    -0.237 OA
ATOM     61  O   UNL     1       1.672   5.829   8.730  1.00  0.00    -0.744 OA
ENDBRANCH  55  58
ENDBRANCH  27  51
BRANCH  39  62
ATOM     62  C   UNL     1       9.473  -0.199  12.258  1.00  0.00     0.023 A 
ATOM     63  C   UNL     1       8.805  -0.057  13.490  1.00  0.00     0.012 A 
ATOM     64  C   UNL     1      10.876  -0.326  12.242  1.00  0.00     0.148 A 
ATOM     65  C   UNL     1       9.524  -0.003  14.683  1.00  0.00     0.002 A 
ATOM     66  C   UNL     1      11.581  -0.327  13.438  1.00  0.00     0.091 A 
ATOM     67  F   UNL     1      11.495  -0.440  11.057  1.00  0.00    -0.205 F 
ATOM     68  C   UNL     1      10.909  -0.150  14.659  1.00  0.00     0.022 A 
BRANCH  66  69
ATOM     69  S   UNL     1      13.354  -0.608  13.512  1.00  0.00     0.127 S 
ATOM     70  O   UNL     1      13.848   0.711  13.905  1.00  0.00    -0.237 OA
ATOM     71  O   UNL     1      13.460  -1.633  14.550  1.00  0.00    -0.237 OA
ATOM     72  O   UNL     1      13.748  -1.050  12.182  1.00  0.00    -0.744 OA
ENDBRANCH  66  69
ENDBRANCH  39  62
ENDBRANCH  13  14
ENDBRANCH   6   8
ENDBRANCH   3   4
ENDBRANCH   2   3
ENDBRANCH   1   2
BRANCH   1  73
ATOM     73  C   UNL     1       4.612   0.004  -4.337  1.00  0.00     0.002 C 
BRANCH  73  74
ATOM     74  C   UNL     1       6.141   0.096  -4.338  1.00  0.00     0.021 C 
BRANCH  74  75
ATOM     75  C   UNL     1       6.839  -1.143  -4.886  1.00  0.00     0.116 C 
BRANCH  75  76
ATOM     76  N   UNL     1       6.627  -1.301  -6.311  1.00  0.00    -0.356 N 
ATOM     77  C   UNL     1       7.516  -1.315  -7.340  1.00  0.00     0.226 C 
ATOM     78  H   UNL     1       5.686  -1.417  -6.577  1.00  0.00     0.163 HD
ATOM     79  O   UNL     1       7.062  -1.419  -8.484  1.00  0.00    -0.274 OA
BRANCH  77  80
ATOM     80  C   UNL     1       9.029  -1.216  -7.122  1.00  0.00     0.103 C 
ATOM     81  C   UNL     1       9.456   0.058  -6.469  1.00  0.00    -0.016 C 
ATOM     82  C   UNL     1       9.626  -2.317  -6.235  1.00  0.00     0.042 C 
ATOM     83  C   UNL     1      10.276  -0.166  -5.438  1.00  0.00    -0.011 C 
ATOM     84  C   UNL     1      10.550  -1.615  -5.215  1.00  0.00     0.093 C 
BRANCH  84  85
ATOM     85  N   UNL     1      10.189  -2.019  -3.866  1.00  0.00    -0.204 NA
ATOM     86  H   UNL     1      10.210  -3.039  -3.863  1.00  0.00     0.142 HD
BRANCH  85  87
ATOM     87  S   UNL     1      11.040  -1.538  -2.509  1.00  0.00     0.241 S 
ATOM     88  O   UNL     1      10.921  -0.105  -2.387  1.00  0.00    -0.207 OA
ATOM     89  O   UNL     1      10.620  -2.432  -1.452  1.00  0.00    -0.207 OA
BRANCH  87  90
ATOM     90  C   UNL     1      12.724  -1.930  -2.913  1.00  0.00     0.082 A 
ATOM     91  C   UNL     1      13.639  -0.893  -3.129  1.00  0.00     0.023 A 
ATOM     92  C   UNL     1      13.123  -3.267  -3.010  1.00  0.00     0.023 A 
ATOM     93  C   UNL     1      14.956  -1.196  -3.473  1.00  0.00     0.017 A 
ATOM     94  C   UNL     1      14.443  -3.564  -3.359  1.00  0.00     0.017 A 
ATOM     95  C   UNL     1      15.350  -2.529  -3.594  1.00  0.00     0.018 A 
ATOM     96  Br  UNL     1      17.131  -2.934  -4.082  1.00  0.00    -0.051 Br
ENDBRANCH  87  90
ENDBRANCH  85  87
ENDBRANCH  84  85
ENDBRANCH  77  80
ENDBRANCH  75  76
ENDBRANCH  74  75
ENDBRANCH  73  74
ENDBRANCH   1  73
TORSDOF 19
