REMARK SMILES Cn1ccc(-c2n[nH]c(=O)n2-c2ccc(C(=O)NCCCCCCNC(=O)c3ccc(-c4c5nc(c(-c6cccc(S(=O)(=O)[O-])c6F)c6ccc([nH]6)c(-c6cccc(S(=O)(=O)[O-])c6F)c6nc(c(-c7cccc(S(=O)(=O)[O-])c7F)c7ccc4[nH]7)C=C6)C=C5)cc3)cc2)n1
REMARK SMILES IDX 22 1 21 2 20 3 19 4 18 5 16 6 17 7 15 9 12 10 13 11 92 12
REMARK SMILES IDX 14 13 91 14 11 15 6 16 7 17 8 18 9 19 10 21 5 22 1 23 2 24
REMARK SMILES IDX 3 25 93 26 4 27 23 28 24 29 25 30 26 31 27 33 28 34 29 35
REMARK SMILES IDX 90 36 30 37 89 38 31 39 32 40 33 41 83 42 34 43 88 44 82 45
REMARK SMILES IDX 84 46 35 47 87 48 81 49 80 50 36 52 68 53 48 54 67 55 49 56
REMARK SMILES IDX 52 57 66 58 85 59 50 60 51 61 65 63 86 64 53 65 37 66 38 67
REMARK SMILES IDX 46 68 39 69 41 70 47 71 40 72 42 73 43 74 44 75 45 76 69 77
REMARK SMILES IDX 70 78 78 79 71 80 73 81 79 82 72 83 74 84 75 85 76 86 77 87
REMARK SMILES IDX 54 88 55 89 63 90 56 91 58 92 64 93 57 94 59 95 60 96 61 97
REMARK SMILES IDX 62 98
REMARK H PARENT 18 8 8 20 25 32 84 51 52 62
REMARK Flexibility Score: inf
ROOT
ATOM      1  C   UNL     1      -0.910  -0.355   9.022  1.00  0.00     0.002 C 
ENDROOT
BRANCH   1   2
ATOM      2  C   UNL     1       0.295   0.594   8.893  1.00  0.00     0.002 C 
BRANCH   2   3
ATOM      3  C   UNL     1       0.914   0.660   7.490  1.00  0.00     0.021 C 
BRANCH   3   4
ATOM      4  C   UNL     1      -0.095   1.094   6.426  1.00  0.00     0.116 C 
BRANCH   4   5
ATOM      5  N   UNL     1      -0.256   2.535   6.456  1.00  0.00    -0.352 N 
ATOM      6  C   UNL     1       0.214   3.548   5.660  1.00  0.00     0.251 C 
ATOM      7  O   UNL     1      -0.101   4.697   5.975  1.00  0.00    -0.269 OA
ATOM      8  H   UNL     1      -0.818   2.850   7.200  1.00  0.00     0.163 HD
BRANCH   6   9
ATOM      9  C   UNL     1       0.983   3.319   4.404  1.00  0.00     0.039 A 
ATOM     10  C   UNL     1       2.122   2.942   1.859  1.00  0.00     0.052 A 
ATOM     11  C   UNL     1       1.563   4.174   2.192  1.00  0.00     0.028 A 
ATOM     12  C   UNL     1       2.207   1.942   2.831  1.00  0.00     0.028 A 
ATOM     13  C   UNL     1       0.962   4.345   3.444  1.00  0.00     0.016 A 
ATOM     14  C   UNL     1       1.705   2.162   4.114  1.00  0.00     0.016 A 
BRANCH  10  15
ATOM     15  N   UNL     1       2.685   2.717   0.598  1.00  0.00    -0.242 N 
ATOM     16  C   UNL     1       2.567   1.620  -0.199  1.00  0.00     0.189 A 
ATOM     17  N   UNL     1       3.482   1.511  -1.126  1.00  0.00    -0.150 NA
ATOM     18  N   UNL     1       4.252   2.630  -0.947  1.00  0.00    -0.226 N 
ATOM     19  C   UNL     1       3.772   3.411   0.110  1.00  0.00     0.348 A 
ATOM     20  H   UNL     1       5.040   2.855  -1.491  1.00  0.00     0.195 HD
ATOM     21  O   UNL     1       4.278   4.437   0.505  1.00  0.00    -0.246 OA
BRANCH  16  22
ATOM     22  C   UNL     1       1.466   0.675  -0.099  1.00  0.00     0.130 A 
ATOM     23  C   UNL     1      -1.972   0.009   0.002  1.00  0.00     0.173 C 
ATOM     24  N   UNL     1      -0.530  -0.055  -0.003  1.00  0.00    -0.275 N 
ATOM     25  C   UNL     1       0.236  -1.178  -0.072  1.00  0.00     0.109 A 
ATOM     26  N   UNL     1       0.186   1.084   0.017  1.00  0.00    -0.170 NA
ATOM     27  C   UNL     1       1.536  -0.740  -0.166  1.00  0.00     0.054 A 
ENDBRANCH  16  22
ENDBRANCH  10  15
ENDBRANCH   6   9
ENDBRANCH   4   5
ENDBRANCH   3   4
ENDBRANCH   2   3
ENDBRANCH   1   2
BRANCH   1  28
ATOM     28  C   UNL     1      -0.681  -1.783   8.505  1.00  0.00     0.021 C 
BRANCH  28  29
ATOM     29  C   UNL     1       0.328  -2.552   9.343  1.00  0.00     0.116 C 
BRANCH  29  30
ATOM     30  N   UNL     1      -0.201  -2.834  10.676  1.00  0.00    -0.352 N 
ATOM     31  C   UNL     1       0.345  -3.617  11.666  1.00  0.00     0.251 C 
ATOM     32  H   UNL     1      -1.060  -2.407  10.893  1.00  0.00     0.163 HD
ATOM     33  O   UNL     1      -0.366  -4.066  12.560  1.00  0.00    -0.269 OA
BRANCH  31  34
ATOM     34  C   UNL     1       1.793  -3.889  11.654  1.00  0.00     0.039 A 
ATOM     35  C   UNL     1       2.293  -5.120  12.091  1.00  0.00     0.014 A 
ATOM     36  C   UNL     1       2.658  -2.879  11.232  1.00  0.00     0.014 A 
ATOM     37  C   UNL     1       3.666  -5.341  12.047  1.00  0.00     0.010 A 
ATOM     38  C   UNL     1       3.995  -3.138  11.068  1.00  0.00     0.010 A 
ATOM     39  C   UNL     1       4.507  -4.346  11.524  1.00  0.00    -0.014 A 
BRANCH  39  40
ATOM     40  C   UNL     1       5.910  -4.619  11.245  1.00  0.00     0.031 A 
ATOM     41  C   UNL     1       6.083  -5.733  10.275  1.00  0.00     0.074 A 
ATOM     42  C   UNL     1       6.906  -3.797  11.649  1.00  0.00     0.049 A 
ATOM     43  N   UNL     1       6.557  -6.906  10.531  1.00  0.00    -0.248 NA
ATOM     44  C   UNL     1       5.464  -5.629   8.941  1.00  0.00     0.031 C 
ATOM     45  C   UNL     1       6.777  -2.533  12.385  1.00  0.00     0.029 A 
ATOM     46  N   UNL     1       8.239  -3.833  11.367  1.00  0.00    -0.354 N 
ATOM     47  C   UNL     1       6.574  -7.573   9.309  1.00  0.00     0.074 A 
ATOM     48  C   UNL     1       5.663  -6.859   8.460  1.00  0.00     0.031 C 
ATOM     49  C   UNL     1       7.917  -1.818  12.259  1.00  0.00     0.029 A 
ATOM     50  C   UNL     1       8.900  -2.614  11.547  1.00  0.00     0.049 A 
ATOM     51  H   UNL     1       8.698  -4.649  11.062  1.00  0.00     0.167 HD
ATOM     52  C   UNL     1       7.579  -8.447   9.023  1.00  0.00     0.034 A 
ATOM     53  C   UNL     1      10.137  -2.267  11.096  1.00  0.00     0.034 A 
ATOM     54  C   UNL     1       8.316  -8.776  10.223  1.00  0.00     0.049 A 
ATOM     55  C   UNL     1      10.864  -3.525  10.812  1.00  0.00     0.074 A 
ATOM     56  C   UNL     1       7.984  -9.300  11.457  1.00  0.00     0.029 A 
ATOM     57  N   UNL     1       9.526  -8.143  10.386  1.00  0.00    -0.354 N 
ATOM     58  N   UNL     1      11.226  -4.353  11.749  1.00  0.00    -0.248 NA
ATOM     59  C   UNL     1      10.745  -4.092   9.479  1.00  0.00     0.031 C 
ATOM     60  C   UNL     1       8.765  -8.558  12.390  1.00  0.00     0.029 A 
ATOM     61  C   UNL     1       9.612  -7.707  11.679  1.00  0.00     0.049 A 
ATOM     62  H   UNL     1      10.212  -8.024   9.691  1.00  0.00     0.167 HD
ATOM     63  C   UNL     1      10.858  -5.593  11.246  1.00  0.00     0.074 A 
ATOM     64  C   UNL     1      10.680  -5.386   9.807  1.00  0.00     0.031 C 
ATOM     65  C   UNL     1      10.410  -6.574  12.083  1.00  0.00     0.034 A 
BRANCH  52  66
ATOM     66  C   UNL     1       8.201  -8.666   7.655  1.00  0.00     0.023 A 
ATOM     67  C   UNL     1       9.229  -9.636   7.583  1.00  0.00     0.012 A 
ATOM     68  C   UNL     1       8.063  -7.805   6.543  1.00  0.00     0.148 A 
ATOM     69  C   UNL     1      10.133  -9.677   6.518  1.00  0.00     0.002 A 
ATOM     70  C   UNL     1       8.924  -7.892   5.453  1.00  0.00     0.091 A 
ATOM     71  F   UNL     1       7.173  -6.813   6.560  1.00  0.00    -0.205 F 
ATOM     72  C   UNL     1       9.984  -8.800   5.453  1.00  0.00     0.022 A 
BRANCH  70  73
ATOM     73  S   UNL     1       8.761  -6.808   4.026  1.00  0.00     0.127 S 
ATOM     74  O   UNL     1       9.970  -5.998   4.133  1.00  0.00    -0.237 OA
ATOM     75  O   UNL     1       8.753  -7.772   2.925  1.00  0.00    -0.237 OA
ATOM     76  O   UNL     1       7.503  -6.094   4.205  1.00  0.00    -0.744 OA
ENDBRANCH  70  73
ENDBRANCH  52  66
BRANCH  53  77
ATOM     77  C   UNL     1      10.682  -0.953  10.656  1.00  0.00     0.023 A 
ATOM     78  C   UNL     1      12.074  -0.786  10.473  1.00  0.00     0.012 A 
ATOM     79  C   UNL     1       9.829   0.034  10.120  1.00  0.00     0.148 A 
ATOM     80  C   UNL     1      12.589   0.298   9.746  1.00  0.00     0.002 A 
ATOM     81  C   UNL     1      10.344   1.105   9.394  1.00  0.00     0.091 A 
ATOM     82  F   UNL     1       8.506  -0.127  10.233  1.00  0.00    -0.205 F 
ATOM     83  C   UNL     1      11.723   1.236   9.194  1.00  0.00     0.022 A 
BRANCH  81  84
ATOM     84  S   UNL     1       9.270   2.309   8.599  1.00  0.00     0.127 S 
ATOM     85  O   UNL     1       9.887   3.575   8.995  1.00  0.00    -0.237 OA
ATOM     86  O   UNL     1       9.426   1.962   7.189  1.00  0.00    -0.237 OA
ATOM     87  O   UNL     1       7.942   2.088   9.158  1.00  0.00    -0.744 OA
ENDBRANCH  81  84
ENDBRANCH  53  77
BRANCH  65  88
ATOM     88  C   UNL     1      10.564  -6.367  13.569  1.00  0.00     0.023 A 
ATOM     89  C   UNL     1       9.913  -5.334  14.277  1.00  0.00     0.012 A 
ATOM     90  C   UNL     1      11.246  -7.358  14.290  1.00  0.00     0.148 A 
ATOM     91  C   UNL     1       9.961  -5.284  15.674  1.00  0.00     0.002 A 
ATOM     92  C   UNL     1      11.247  -7.335  15.677  1.00  0.00     0.091 A 
ATOM     93  F   UNL     1      11.857  -8.333  13.600  1.00  0.00    -0.205 F 
ATOM     94  C   UNL     1      10.616  -6.294  16.375  1.00  0.00     0.022 A 
BRANCH  92  95
ATOM     95  S   UNL     1      11.959  -8.680  16.623  1.00  0.00     0.127 S 
ATOM     96  O   UNL     1      13.206  -8.088  17.101  1.00  0.00    -0.237 OA
ATOM     97  O   UNL     1      10.949  -8.905  17.658  1.00  0.00    -0.237 OA
ATOM     98  O   UNL     1      12.108  -9.791  15.690  1.00  0.00    -0.744 OA
ENDBRANCH  92  95
ENDBRANCH  65  88
ENDBRANCH  39  40
ENDBRANCH  31  34
ENDBRANCH  29  30
ENDBRANCH  28  29
ENDBRANCH   1  28
TORSDOF 18
