REMARK SMILES CC(C)C[C@H](NC(N)=O)C(=O)N[C@@H](C(=O)NCCCCCCNC(=O)c1ccc(-c2c3nc(c(-c4cccc(S(=O)(=O)[O-])c4F)c4ccc([nH]4)c(-c4cccc(S(=O)(=O)[O-])c4F)c4nc(c(-c5cccc(S(=O)(=O)[O-])c5F)c5ccc2[nH]5)C=C4)C=C3)cc1)C(C)C
REMARK SMILES IDX 19 1 18 2 17 3 16 4 14 5 15 6 13 8 12 9 10 10 11 11 5 13
REMARK SMILES IDX 4 14 2 15 1 16 3 17 6 18 7 19 8 21 9 22 89 25 90 26 91 27
REMARK SMILES IDX 20 28 21 29 22 30 23 31 24 32 25 34 26 35 27 36 88 37 28 38
REMARK SMILES IDX 87 39 29 40 30 41 31 42 81 43 32 44 86 45 80 46 82 47 33 48
REMARK SMILES IDX 85 49 79 50 78 51 34 53 66 54 46 55 65 56 47 57 50 58 64 59
REMARK SMILES IDX 83 60 48 61 49 62 63 64 84 65 51 66 35 67 36 68 44 69 37 70
REMARK SMILES IDX 39 71 45 72 38 73 40 74 41 75 42 76 43 77 67 78 68 79 76 80
REMARK SMILES IDX 69 81 71 82 77 83 70 84 72 85 73 86 74 87 75 88 52 89 53 90
REMARK SMILES IDX 61 91 54 92 56 93 62 94 55 95 57 96 58 97 59 98 60 99
REMARK H PARENT 16 7 12 12 6 20 8 23 8 24 23 33 82 52 50 63
REMARK Flexibility Score: inf
ROOT
ATOM      1  C   UNL     1      -3.996  -4.277  -1.592  1.00  0.00     0.002 C 
ENDROOT
BRANCH   1   2
ATOM      2  C   UNL     1      -3.877  -2.800  -1.218  1.00  0.00     0.021 C 
BRANCH   2   3
ATOM      3  C   UNL     1      -2.949  -2.009  -2.130  1.00  0.00     0.116 C 
BRANCH   3   4
ATOM      4  N   UNL     1      -3.544  -1.758  -3.416  1.00  0.00    -0.354 N 
ATOM      5  C   UNL     1      -3.692  -0.601  -4.114  1.00  0.00     0.242 C 
ATOM      6  O   UNL     1      -4.228  -0.730  -5.221  1.00  0.00    -0.273 OA
ATOM      7  H   UNL     1      -3.904  -2.557  -3.864  1.00  0.00     0.163 HD
BRANCH   5   8
ATOM      8  C   UNL     1      -3.129   0.778  -3.607  1.00  0.00     0.173 C 
BRANCH   8   9
ATOM      9  N   UNL     1      -3.646   1.055  -2.259  1.00  0.00    -0.342 N 
ATOM     10  C   UNL     1      -3.026   1.251  -1.060  1.00  0.00     0.243 C 
ATOM     11  O   UNL     1      -3.755   1.205  -0.062  1.00  0.00    -0.273 OA
ATOM     12  H   UNL     1      -4.628   1.109  -2.213  1.00  0.00     0.164 HD
BRANCH  10  13
ATOM     13  C   UNL     1      -1.498   1.488  -0.890  1.00  0.00     0.173 C 
BRANCH  13  14
ATOM     14  C   UNL     1      -1.011   2.803  -1.506  1.00  0.00     0.038 C 
BRANCH  14  15
ATOM     15  C   UNL     1      -1.840   4.048  -1.126  1.00  0.00    -0.015 C 
ATOM     16  C   UNL     1      -1.903   4.298   0.381  1.00  0.00     0.007 C 
ATOM     17  C   UNL     1      -1.268   5.282  -1.829  1.00  0.00     0.007 C 
ENDBRANCH  14  15
ENDBRANCH  13  14
BRANCH  13  18
ATOM     18  N   UNL     1      -0.726   0.277  -1.197  1.00  0.00    -0.327 N 
ATOM     19  C   UNL     1       0.454   0.195  -1.866  1.00  0.00     0.312 C 
ATOM     20  H   UNL     1      -1.107  -0.574  -0.882  1.00  0.00     0.166 HD
ATOM     21  N   UNL     1       0.941  -1.070  -1.911  1.00  0.00    -0.352 N 
ATOM     22  O   UNL     1       1.046   1.108  -2.416  1.00  0.00    -0.249 OA
ATOM     23  H   UNL     1       0.455  -1.800  -1.464  1.00  0.00     0.161 HD
ATOM     24  H   UNL     1       1.780  -1.258  -2.390  1.00  0.00     0.161 HD
ENDBRANCH  13  18
ENDBRANCH  10  13
ENDBRANCH   8   9
BRANCH   8  25
ATOM     25  C   UNL     1      -3.575   1.869  -4.635  1.00  0.00     0.015 C 
ATOM     26  C   UNL     1      -3.590   3.302  -4.111  1.00  0.00     0.010 C 
ATOM     27  C   UNL     1      -2.691   1.825  -5.890  1.00  0.00     0.010 C 
ENDBRANCH   8  25
ENDBRANCH   5   8
ENDBRANCH   3   4
ENDBRANCH   2   3
ENDBRANCH   1   2
BRANCH   1  28
ATOM     28  C   UNL     1      -2.667  -5.040  -1.626  1.00  0.00     0.002 C 
BRANCH  28  29
ATOM     29  C   UNL     1      -1.828  -4.947  -0.348  1.00  0.00     0.021 C 
BRANCH  29  30
ATOM     30  C   UNL     1      -2.547  -5.383   0.926  1.00  0.00     0.116 C 
BRANCH  30  31
ATOM     31  N   UNL     1      -3.052  -6.742   0.828  1.00  0.00    -0.352 N 
ATOM     32  C   UNL     1      -2.905  -7.791   1.698  1.00  0.00     0.251 C 
ATOM     33  H   UNL     1      -3.578  -6.938   0.019  1.00  0.00     0.163 HD
ATOM     34  O   UNL     1      -3.245  -8.920   1.353  1.00  0.00    -0.269 OA
BRANCH  32  35
ATOM     35  C   UNL     1      -2.327  -7.566   3.039  1.00  0.00     0.039 A 
ATOM     36  C   UNL     1      -1.389  -8.478   3.529  1.00  0.00     0.014 A 
ATOM     37  C   UNL     1      -2.727  -6.478   3.822  1.00  0.00     0.014 A 
ATOM     38  C   UNL     1      -0.821  -8.277   4.789  1.00  0.00     0.010 A 
ATOM     39  C   UNL     1      -2.111  -6.242   5.047  1.00  0.00     0.010 A 
ATOM     40  C   UNL     1      -1.163  -7.146   5.549  1.00  0.00    -0.014 A 
BRANCH  40  41
ATOM     41  C   UNL     1      -0.541  -6.899   6.874  1.00  0.00     0.031 A 
ATOM     42  C   UNL     1      -1.384  -6.904   8.120  1.00  0.00     0.074 A 
ATOM     43  C   UNL     1       0.769  -6.591   6.945  1.00  0.00     0.049 A 
ATOM     44  N   UNL     1      -1.026  -6.675   9.357  1.00  0.00    -0.248 NA
ATOM     45  C   UNL     1      -2.821  -7.176   7.954  1.00  0.00     0.031 C 
ATOM     46  C   UNL     1       1.672  -6.472   5.798  1.00  0.00     0.029 A 
ATOM     47  N   UNL     1       1.563  -6.299   8.024  1.00  0.00    -0.354 N 
ATOM     48  C   UNL     1      -2.193  -6.739  10.109  1.00  0.00     0.074 A 
ATOM     49  C   UNL     1      -3.277  -6.994   9.185  1.00  0.00     0.031 C 
ATOM     50  C   UNL     1       2.896  -6.135   6.236  1.00  0.00     0.029 A 
ATOM     51  C   UNL     1       2.861  -5.993   7.688  1.00  0.00     0.049 A 
ATOM     52  H   UNL     1       1.235  -6.308   8.953  1.00  0.00     0.167 HD
ATOM     53  C   UNL     1      -2.346  -6.628  11.450  1.00  0.00     0.034 A 
ATOM     54  C   UNL     1       3.905  -5.639   8.463  1.00  0.00     0.034 A 
ATOM     55  C   UNL     1      -1.259  -6.426  12.369  1.00  0.00     0.049 A 
ATOM     56  C   UNL     1       3.720  -5.582   9.955  1.00  0.00     0.074 A 
ATOM     57  C   UNL     1      -1.296  -6.395  13.752  1.00  0.00     0.029 A 
ATOM     58  N   UNL     1       0.060  -6.219  11.999  1.00  0.00    -0.354 N 
ATOM     59  N   UNL     1       2.640  -5.813  10.662  1.00  0.00    -0.248 NA
ATOM     60  C   UNL     1       4.906  -5.255  10.760  1.00  0.00     0.031 C 
ATOM     61  C   UNL     1       0.001  -6.154  14.218  1.00  0.00     0.029 A 
ATOM     62  C   UNL     1       0.848  -6.054  13.126  1.00  0.00     0.049 A 
ATOM     63  H   UNL     1       0.390  -6.193  11.072  1.00  0.00     0.167 HD
ATOM     64  C   UNL     1       3.023  -5.696  11.993  1.00  0.00     0.074 A 
ATOM     65  C   UNL     1       4.440  -5.395  11.994  1.00  0.00     0.031 C 
ATOM     66  C   UNL     1       2.268  -5.811  13.113  1.00  0.00     0.034 A 
BRANCH  53  67
ATOM     67  C   UNL     1      -3.736  -6.786  12.010  1.00  0.00     0.023 A 
ATOM     68  C   UNL     1      -4.338  -8.061  12.020  1.00  0.00     0.012 A 
ATOM     69  C   UNL     1      -4.423  -5.694  12.576  1.00  0.00     0.148 A 
ATOM     70  C   UNL     1      -5.614  -8.242  12.550  1.00  0.00     0.002 A 
ATOM     71  C   UNL     1      -5.678  -5.891  13.142  1.00  0.00     0.091 A 
ATOM     72  F   UNL     1      -3.846  -4.485  12.538  1.00  0.00    -0.205 F 
ATOM     73  C   UNL     1      -6.279  -7.160  13.120  1.00  0.00     0.022 A 
BRANCH  71  74
ATOM     74  S   UNL     1      -6.583  -4.577  13.969  1.00  0.00     0.127 S 
ATOM     75  O   UNL     1      -7.646  -4.299  13.005  1.00  0.00    -0.237 OA
ATOM     76  O   UNL     1      -7.031  -5.236  15.197  1.00  0.00    -0.237 OA
ATOM     77  O   UNL     1      -5.625  -3.500  14.175  1.00  0.00    -0.744 OA
ENDBRANCH  71  74
ENDBRANCH  53  67
BRANCH  54  78
ATOM     78  C   UNL     1       5.238  -5.394   7.844  1.00  0.00     0.023 A 
ATOM     79  C   UNL     1       6.275  -6.324   8.049  1.00  0.00     0.012 A 
ATOM     80  C   UNL     1       5.473  -4.272   7.027  1.00  0.00     0.148 A 
ATOM     81  C   UNL     1       7.532  -6.126   7.477  1.00  0.00     0.002 A 
ATOM     82  C   UNL     1       6.711  -4.109   6.415  1.00  0.00     0.091 A 
ATOM     83  F   UNL     1       4.477  -3.391   6.853  1.00  0.00    -0.205 F 
ATOM     84  C   UNL     1       7.747  -5.025   6.653  1.00  0.00     0.022 A 
BRANCH  82  85
ATOM     85  S   UNL     1       7.030  -2.798   5.229  1.00  0.00     0.127 S 
ATOM     86  O   UNL     1       7.889  -1.901   5.998  1.00  0.00    -0.237 OA
ATOM     87  O   UNL     1       7.702  -3.521   4.149  1.00  0.00    -0.237 OA
ATOM     88  O   UNL     1       5.720  -2.271   4.869  1.00  0.00    -0.744 OA
ENDBRANCH  82  85
ENDBRANCH  54  78
BRANCH  66  89
ATOM     89  C   UNL     1       2.958  -5.644  14.440  1.00  0.00     0.023 A 
ATOM     90  C   UNL     1       3.363  -4.362  14.860  1.00  0.00     0.012 A 
ATOM     91  C   UNL     1       3.136  -6.743  15.303  1.00  0.00     0.148 A 
ATOM     92  C   UNL     1       3.964  -4.181  16.105  1.00  0.00     0.002 A 
ATOM     93  C   UNL     1       3.693  -6.548  16.561  1.00  0.00     0.091 A 
ATOM     94  F   UNL     1       2.763  -7.959  14.877  1.00  0.00    -0.205 F 
ATOM     95  C   UNL     1       4.118  -5.270  16.959  1.00  0.00     0.022 A 
BRANCH  93  96
ATOM     96  S   UNL     1       3.840  -7.877  17.761  1.00  0.00     0.127 S 
ATOM     97  O   UNL     1       5.270  -8.175  17.703  1.00  0.00    -0.237 OA
ATOM     98  O   UNL     1       3.401  -7.231  18.999  1.00  0.00    -0.237 OA
ATOM     99  O   UNL     1       2.958  -8.937  17.291  1.00  0.00    -0.744 OA
ENDBRANCH  93  96
ENDBRANCH  66  89
ENDBRANCH  40  41
ENDBRANCH  32  35
ENDBRANCH  30  31
ENDBRANCH  29  30
ENDBRANCH  28  29
ENDBRANCH   1  28
TORSDOF 22
