REMARK SMILES CCCc1n[nH]c(C(=O)N[C@H](C)CC(=O)NCCCCCCNC(=O)c2ccc(-c3c4nc(c(-c5cccc(S(=O)(=O)[O-])c5F)c5ccc([nH]5)c(-c5cccc(S(=O)(=O)[O-])c5F)c5nc(c(-c6cccc(S(=O)(=O)[O-])c6F)c6ccc3[nH]6)C=C5)C=C4)cc2)n1
REMARK SMILES IDX 18 1 17 2 16 3 14 4 15 5 13 7 11 8 12 9 10 10 8 11 9 12 7 14
REMARK SMILES IDX 4 15 5 16 89 17 6 18 3 20 2 21 1 22 19 23 20 24 21 25 22 26
REMARK SMILES IDX 23 27 24 28 25 30 26 31 27 32 88 33 28 34 87 35 29 36 30 37
REMARK SMILES IDX 31 38 81 39 32 40 86 41 80 42 82 43 33 44 85 45 79 46 78 47
REMARK SMILES IDX 34 49 66 50 46 51 65 52 47 53 50 54 64 55 83 56 48 57 49 58
REMARK SMILES IDX 63 60 84 61 51 62 35 63 36 64 44 65 37 66 39 67 45 68 38 69
REMARK SMILES IDX 40 70 41 71 42 72 43 73 67 74 68 75 76 76 69 77 71 78 77 79
REMARK SMILES IDX 70 80 72 81 73 82 74 83 75 84 52 85 53 86 61 87 54 88 56 89
REMARK SMILES IDX 62 90 55 91 57 92 58 93 59 94 60 95
REMARK H PARENT 16 6 10 13 6 19 23 29 82 48 50 59
REMARK Flexibility Score: inf
ROOT
ATOM      1  C   UNL     1      -0.212   5.287  -2.889  1.00  0.00     0.021 C 
ENDROOT
BRANCH   1   2
ATOM      2  C   UNL     1      -0.562   4.184  -3.894  1.00  0.00     0.116 C 
BRANCH   2   3
ATOM      3  N   UNL     1      -0.006   2.910  -3.467  1.00  0.00    -0.356 N 
ATOM      4  C   UNL     1      -0.587   1.859  -2.825  1.00  0.00     0.222 C 
ATOM      5  O   UNL     1       0.142   0.927  -2.475  1.00  0.00    -0.275 OA
ATOM      6  H   UNL     1       0.948   2.787  -3.676  1.00  0.00     0.163 HD
BRANCH   4   7
ATOM      7  C   UNL     1      -2.084   1.801  -2.577  1.00  0.00     0.124 C 
BRANCH   7   8
ATOM      8  C   UNL     1      -2.522   2.484  -1.269  1.00  0.00     0.088 C 
ATOM      9  C   UNL     1      -2.983   3.924  -1.525  1.00  0.00     0.031 C 
BRANCH   8  10
ATOM     10  N   UNL     1      -3.614   1.747  -0.615  1.00  0.00    -0.346 N 
ATOM     11  C   UNL     1      -4.169   1.991   0.629  1.00  0.00     0.288 C 
ATOM     12  O   UNL     1      -5.175   1.359   0.944  1.00  0.00    -0.266 OA
ATOM     13  H   UNL     1      -3.994   0.992  -1.121  1.00  0.00     0.164 HD
BRANCH  11  14
ATOM     14  C   UNL     1      -3.607   3.018   1.482  1.00  0.00     0.214 A 
ATOM     15  C   UNL     1      -2.409   4.503   2.401  1.00  0.00     0.151 A 
ATOM     16  N   UNL     1      -3.585   4.645   3.023  1.00  0.00    -0.158 NA
ATOM     17  N   UNL     1      -2.377   3.500   1.467  1.00  0.00    -0.207 NA
ATOM     18  N   UNL     1      -4.323   3.690   2.430  1.00  0.00    -0.255 N 
ATOM     19  H   UNL     1      -5.263   3.499   2.653  1.00  0.00     0.192 HD
BRANCH  15  20
ATOM     20  C   UNL     1      -1.223   5.347   2.712  1.00  0.00     0.079 C 
BRANCH  20  21
ATOM     21  C   UNL     1      -0.381   5.708   1.486  1.00  0.00     0.005 C 
ATOM     22  C   UNL     1      -1.063   6.718   0.576  1.00  0.00     0.004 C 
ENDBRANCH  20  21
ENDBRANCH  15  20
ENDBRANCH  11  14
ENDBRANCH   8  10
ENDBRANCH   7   8
ENDBRANCH   4   7
ENDBRANCH   2   3
ENDBRANCH   1   2
BRANCH   1  23
ATOM     23  C   UNL     1       0.988   6.152  -3.276  1.00  0.00     0.002 C 
BRANCH  23  24
ATOM     24  C   UNL     1       0.712   7.177  -4.382  1.00  0.00     0.002 C 
BRANCH  24  25
ATOM     25  C   UNL     1      -0.415   8.183  -4.112  1.00  0.00     0.021 C 
BRANCH  25  26
ATOM     26  C   UNL     1      -0.296   8.997  -2.824  1.00  0.00     0.116 C 
BRANCH  26  27
ATOM     27  N   UNL     1       0.899   9.823  -2.786  1.00  0.00    -0.352 N 
ATOM     28  C   UNL     1       1.027  11.185  -2.662  1.00  0.00     0.251 C 
ATOM     29  H   UNL     1       1.748   9.330  -2.860  1.00  0.00     0.163 HD
ATOM     30  O   UNL     1       2.132  11.704  -2.801  1.00  0.00    -0.269 OA
BRANCH  28  31
ATOM     31  C   UNL     1      -0.153  12.035  -2.386  1.00  0.00     0.039 A 
ATOM     32  C   UNL     1      -0.328  13.202  -3.137  1.00  0.00     0.014 A 
ATOM     33  C   UNL     1      -1.068  11.710  -1.380  1.00  0.00     0.014 A 
ATOM     34  C   UNL     1      -1.449  14.009  -2.923  1.00  0.00     0.010 A 
ATOM     35  C   UNL     1      -2.216  12.485  -1.207  1.00  0.00     0.010 A 
ATOM     36  C   UNL     1      -2.420  13.642  -1.976  1.00  0.00    -0.014 A 
BRANCH  36  37
ATOM     37  C   UNL     1      -3.663  14.440  -1.806  1.00  0.00     0.031 A 
ATOM     38  C   UNL     1      -3.947  15.157  -0.515  1.00  0.00     0.074 A 
ATOM     39  C   UNL     1      -4.583  14.450  -2.791  1.00  0.00     0.049 A 
ATOM     40  N   UNL     1      -4.990  15.874  -0.183  1.00  0.00    -0.248 NA
ATOM     41  C   UNL     1      -2.941  15.034   0.551  1.00  0.00     0.031 C 
ATOM     42  C   UNL     1      -4.470  13.726  -4.058  1.00  0.00     0.029 A 
ATOM     43  N   UNL     1      -5.807  15.068  -2.870  1.00  0.00    -0.354 N 
ATOM     44  C   UNL     1      -4.785  16.259   1.137  1.00  0.00     0.074 A 
ATOM     45  C   UNL     1      -3.530  15.671   1.554  1.00  0.00     0.031 C 
ATOM     46  C   UNL     1      -5.578  13.938  -4.786  1.00  0.00     0.029 A 
ATOM     47  C   UNL     1      -6.489  14.795  -4.032  1.00  0.00     0.049 A 
ATOM     48  H   UNL     1      -6.162  15.652  -2.161  1.00  0.00     0.167 HD
ATOM     49  C   UNL     1      -5.554  17.052   1.921  1.00  0.00     0.034 A 
ATOM     50  C   UNL     1      -7.710  15.185  -4.448  1.00  0.00     0.034 A 
ATOM     51  C   UNL     1      -6.778  17.674   1.491  1.00  0.00     0.049 A 
ATOM     52  C   UNL     1      -8.520  16.112  -3.582  1.00  0.00     0.074 A 
ATOM     53  C   UNL     1      -7.572  18.577   2.176  1.00  0.00     0.029 A 
ATOM     54  N   UNL     1      -7.393  17.451   0.268  1.00  0.00    -0.354 N 
ATOM     55  N   UNL     1      -8.222  16.612  -2.408  1.00  0.00    -0.248 NA
ATOM     56  C   UNL     1      -9.815  16.559  -4.115  1.00  0.00     0.031 C 
ATOM     57  C   UNL     1      -8.675  18.888   1.373  1.00  0.00     0.029 A 
ATOM     58  C   UNL     1      -8.561  18.190   0.182  1.00  0.00     0.049 A 
ATOM     59  H   UNL     1      -7.049  16.854  -0.435  1.00  0.00     0.167 HD
ATOM     60  C   UNL     1      -9.276  17.455  -2.073  1.00  0.00     0.074 A 
ATOM     61  C   UNL     1     -10.210  17.415  -3.180  1.00  0.00     0.031 C 
ATOM     62  C   UNL     1      -9.460  18.183  -0.944  1.00  0.00     0.034 A 
BRANCH  49  63
ATOM     63  C   UNL     1      -5.059  17.342   3.314  1.00  0.00     0.023 A 
ATOM     64  C   UNL     1      -3.954  18.201   3.491  1.00  0.00     0.012 A 
ATOM     65  C   UNL     1      -5.707  16.811   4.446  1.00  0.00     0.148 A 
ATOM     66  C   UNL     1      -3.478  18.495   4.767  1.00  0.00     0.002 A 
ATOM     67  C   UNL     1      -5.252  17.142   5.718  1.00  0.00     0.091 A 
ATOM     68  F   UNL     1      -6.741  15.978   4.262  1.00  0.00    -0.205 F 
ATOM     69  C   UNL     1      -4.131  17.974   5.880  1.00  0.00     0.022 A 
BRANCH  67  70
ATOM     70  S   UNL     1      -6.078  16.579   7.211  1.00  0.00     0.127 S 
ATOM     71  O   UNL     1      -5.195  15.499   7.648  1.00  0.00    -0.237 OA
ATOM     72  O   UNL     1      -6.043  17.773   8.057  1.00  0.00    -0.237 OA
ATOM     73  O   UNL     1      -7.414  16.175   6.795  1.00  0.00    -0.744 OA
ENDBRANCH  67  70
ENDBRANCH  49  63
BRANCH  50  74
ATOM     74  C   UNL     1      -8.200  14.760  -5.789  1.00  0.00     0.023 A 
ATOM     75  C   UNL     1      -8.258  15.703  -6.832  1.00  0.00     0.012 A 
ATOM     76  C   UNL     1      -8.547  13.420  -6.052  1.00  0.00     0.148 A 
ATOM     77  C   UNL     1      -8.675  15.326  -8.109  1.00  0.00     0.002 A 
ATOM     78  C   UNL     1      -8.908  13.040  -7.339  1.00  0.00     0.091 A 
ATOM     79  F   UNL     1      -8.495  12.541  -5.042  1.00  0.00    -0.205 F 
ATOM     80  C   UNL     1      -8.987  13.994  -8.366  1.00  0.00     0.022 A 
BRANCH  78  81
ATOM     81  S   UNL     1      -9.193  11.325  -7.793  1.00  0.00     0.127 S 
ATOM     82  O   UNL     1     -10.636  11.309  -8.015  1.00  0.00    -0.237 OA
ATOM     83  O   UNL     1      -8.381  11.193  -9.003  1.00  0.00    -0.237 OA
ATOM     84  O   UNL     1      -8.717  10.535  -6.665  1.00  0.00    -0.744 OA
ENDBRANCH  78  81
ENDBRANCH  50  74
BRANCH  62  85
ATOM     85  C   UNL     1     -10.712  19.015  -0.844  1.00  0.00     0.023 A 
ATOM     86  C   UNL     1     -11.951  18.384  -0.615  1.00  0.00     0.012 A 
ATOM     87  C   UNL     1     -10.652  20.422  -0.899  1.00  0.00     0.148 A 
ATOM     88  C   UNL     1     -13.114  19.139  -0.468  1.00  0.00     0.002 A 
ATOM     89  C   UNL     1     -11.809  21.169  -0.708  1.00  0.00     0.091 A 
ATOM     90  F   UNL     1      -9.468  21.004  -1.140  1.00  0.00    -0.205 F 
ATOM     91  C   UNL     1     -13.042  20.529  -0.502  1.00  0.00     0.022 A 
BRANCH  89  92
ATOM     92  S   UNL     1     -11.792  22.965  -0.646  1.00  0.00     0.127 S 
ATOM     93  O   UNL     1     -12.352  23.314  -1.950  1.00  0.00    -0.237 OA
ATOM     94  O   UNL     1     -12.671  23.248   0.490  1.00  0.00    -0.237 OA
ATOM     95  O   UNL     1     -10.401  23.343  -0.438  1.00  0.00    -0.744 OA
ENDBRANCH  89  92
ENDBRANCH  62  85
ENDBRANCH  36  37
ENDBRANCH  28  31
ENDBRANCH  26  27
ENDBRANCH  25  26
ENDBRANCH  24  25
ENDBRANCH  23  24
ENDBRANCH   1  23
TORSDOF 21
