REMARK SMILES O=C(CSc1csc(C(=O)NCCCCCCNC(=O)c2ccc(-c3c4nc(c(-c5cccc(S(=O)(=O)[O-])c5F)c5ccc([nH]5)c(-c5cccc(S(=O)(=O)[O-])c5F)c5nc(c(-c6cccc(S(=O)(=O)[O-])c6F)c6ccc3[nH]6)C=C5)C=C4)cc2)c1)NC(=O)c1ccc[nH]1
REMARK SMILES IDX 14 1 13 2 12 3 11 4 9 5 10 6 8 8 5 9 6 10 84 11 7 12 4 13
REMARK SMILES IDX 3 14 2 15 1 16 85 17 86 18 87 20 88 21 89 22 92 23 90 24
REMARK SMILES IDX 91 25 15 27 16 28 17 29 18 30 19 31 20 33 21 34 22 35 83 36
REMARK SMILES IDX 23 37 82 38 24 39 25 40 26 41 76 42 27 43 81 44 75 45 77 46
REMARK SMILES IDX 28 47 80 48 74 49 73 50 29 52 61 53 41 54 60 55 42 56 45 57
REMARK SMILES IDX 59 58 78 59 43 60 44 61 58 63 79 64 46 65 30 66 31 67 39 68
REMARK SMILES IDX 32 69 34 70 40 71 33 72 35 73 36 74 37 75 38 76 62 77 63 78
REMARK SMILES IDX 71 79 64 80 66 81 72 82 65 83 67 84 68 85 69 86 70 87 47 88
REMARK SMILES IDX 48 89 56 90 49 91 51 92 57 93 50 94 52 95 53 96 54 97 55 98
REMARK H PARENT 11 7 85 19 92 26 18 32 77 51 45 62
REMARK Flexibility Score: inf
ROOT
ATOM      1  C   UNL     1       6.093  -6.973   2.367  1.00  0.00     0.002 C 
ENDROOT
BRANCH   1   2
ATOM      2  C   UNL     1       5.680  -5.497   2.265  1.00  0.00     0.021 C 
BRANCH   2   3
ATOM      3  C   UNL     1       4.234  -5.294   1.807  1.00  0.00     0.116 C 
BRANCH   3   4
ATOM      4  N   UNL     1       3.312  -5.541   2.900  1.00  0.00    -0.351 N 
ATOM      5  C   UNL     1       2.575  -4.689   3.690  1.00  0.00     0.261 C 
ATOM      6  O   UNL     1       1.829  -5.239   4.506  1.00  0.00    -0.268 OA
ATOM      7  H   UNL     1       3.192  -6.494   3.116  1.00  0.00     0.163 HD
BRANCH   5   8
ATOM      8  C   UNL     1       2.662  -3.244   3.529  1.00  0.00     0.093 A 
ATOM      9  C   UNL     1       3.264  -1.067   2.921  1.00  0.00     0.019 A 
ATOM     10  C   UNL     1       2.021  -0.845   3.459  1.00  0.00     0.080 A 
ATOM     11  C   UNL     1       3.675  -2.422   3.067  1.00  0.00     0.040 A 
ATOM     12  S   UNL     1       1.304  -2.296   4.013  1.00  0.00    -0.137 S 
BRANCH   9  13
ATOM     13  S   UNL     1       4.301   0.114   2.137  1.00  0.00    -0.115 SA
BRANCH  13  14
ATOM     14  C   UNL     1       3.156   1.070   1.104  1.00  0.00     0.175 C 
BRANCH  14  15
ATOM     15  C   UNL     1       2.179   0.192   0.345  1.00  0.00     0.237 C 
ATOM     16  O   UNL     1       0.995   0.162   0.672  1.00  0.00    -0.274 OA
ATOM     17  N   UNL     1       2.743  -0.504  -0.711  1.00  0.00    -0.290 N 
ATOM     18  C   UNL     1       2.173  -1.535  -1.432  1.00  0.00     0.274 C 
ATOM     19  H   UNL     1       3.651  -0.234  -0.978  1.00  0.00     0.173 HD
ATOM     20  O   UNL     1       2.869  -2.521  -1.680  1.00  0.00    -0.267 OA
BRANCH  18  21
ATOM     21  C   UNL     1       0.781  -1.471  -1.822  1.00  0.00     0.104 A 
ATOM     22  C   UNL     1      -0.112  -0.418  -1.942  1.00  0.00     0.033 A 
ATOM     23  N   UNL     1       0.097  -2.600  -2.226  1.00  0.00    -0.357 N 
ATOM     24  C   UNL     1      -1.369  -0.941  -2.332  1.00  0.00     0.020 A 
ATOM     25  C   UNL     1      -1.212  -2.297  -2.492  1.00  0.00     0.083 A 
ATOM     26  H   UNL     1       0.494  -3.497  -2.311  1.00  0.00     0.166 HD
ENDBRANCH  18  21
ENDBRANCH  14  15
ENDBRANCH  13  14
ENDBRANCH   9  13
ENDBRANCH   5   8
ENDBRANCH   3   4
ENDBRANCH   2   3
ENDBRANCH   1   2
BRANCH   1  27
ATOM     27  C   UNL     1       6.080  -7.751   1.044  1.00  0.00     0.002 C 
BRANCH  27  28
ATOM     28  C   UNL     1       6.884  -7.121  -0.098  1.00  0.00     0.021 C 
BRANCH  28  29
ATOM     29  C   UNL     1       8.377  -6.974   0.177  1.00  0.00     0.116 C 
BRANCH  29  30
ATOM     30  N   UNL     1       9.051  -8.263   0.232  1.00  0.00    -0.352 N 
ATOM     31  C   UNL     1      10.203  -8.657  -0.405  1.00  0.00     0.251 C 
ATOM     32  H   UNL     1       8.624  -8.944   0.800  1.00  0.00     0.163 HD
ATOM     33  O   UNL     1      10.538  -9.838  -0.403  1.00  0.00    -0.269 OA
BRANCH  31  34
ATOM     34  C   UNL     1      11.031  -7.653  -1.107  1.00  0.00     0.039 A 
ATOM     35  C   UNL     1      11.475  -7.920  -2.406  1.00  0.00     0.014 A 
ATOM     36  C   UNL     1      11.377  -6.454  -0.477  1.00  0.00     0.014 A 
ATOM     37  C   UNL     1      12.223  -6.962  -3.095  1.00  0.00     0.010 A 
ATOM     38  C   UNL     1      12.079  -5.481  -1.182  1.00  0.00     0.010 A 
ATOM     39  C   UNL     1      12.513  -5.727  -2.495  1.00  0.00    -0.014 A 
BRANCH  39  40
ATOM     40  C   UNL     1      13.282  -4.671  -3.200  1.00  0.00     0.031 A 
ATOM     41  C   UNL     1      14.635  -4.268  -2.684  1.00  0.00     0.074 A 
ATOM     42  C   UNL     1      12.716  -3.996  -4.219  1.00  0.00     0.049 A 
ATOM     43  N   UNL     1      15.394  -3.268  -3.048  1.00  0.00    -0.248 NA
ATOM     44  C   UNL     1      15.194  -5.080  -1.589  1.00  0.00     0.031 C 
ATOM     45  C   UNL     1      11.384  -4.252  -4.769  1.00  0.00     0.029 A 
ATOM     46  N   UNL     1      13.177  -2.926  -4.946  1.00  0.00    -0.354 N 
ATOM     47  C   UNL     1      16.491  -3.296  -2.196  1.00  0.00     0.074 A 
ATOM     48  C   UNL     1      16.295  -4.406  -1.288  1.00  0.00     0.031 C 
ATOM     49  C   UNL     1      11.128  -3.354  -5.735  1.00  0.00     0.029 A 
ATOM     50  C   UNL     1      12.264  -2.445  -5.856  1.00  0.00     0.049 A 
ATOM     51  H   UNL     1      14.075  -2.540  -4.827  1.00  0.00     0.167 HD
ATOM     52  C   UNL     1      17.576  -2.486  -2.186  1.00  0.00     0.034 A 
ATOM     53  C   UNL     1      12.332  -1.385  -6.686  1.00  0.00     0.034 A 
ATOM     54  C   UNL     1      17.802  -1.430  -3.133  1.00  0.00     0.049 A 
ATOM     55  C   UNL     1      13.584  -0.550  -6.708  1.00  0.00     0.074 A 
ATOM     56  C   UNL     1      18.905  -0.604  -3.255  1.00  0.00     0.029 A 
ATOM     57  N   UNL     1      16.913  -1.062  -4.131  1.00  0.00    -0.354 N 
ATOM     58  N   UNL     1      14.669  -0.674  -5.983  1.00  0.00    -0.248 NA
ATOM     59  C   UNL     1      13.638   0.548  -7.685  1.00  0.00     0.031 C 
ATOM     60  C   UNL     1      18.686   0.260  -4.334  1.00  0.00     0.029 A 
ATOM     61  C   UNL     1      17.446  -0.029  -4.881  1.00  0.00     0.049 A 
ATOM     62  H   UNL     1      16.032  -1.474  -4.283  1.00  0.00     0.167 HD
ATOM     63  C   UNL     1      15.547   0.302  -6.440  1.00  0.00     0.074 A 
ATOM     64  C   UNL     1      14.873   1.002  -7.513  1.00  0.00     0.031 C 
ATOM     65  C   UNL     1      16.792   0.604  -5.997  1.00  0.00     0.034 A 
BRANCH  52  66
ATOM     66  C   UNL     1      18.637  -2.757  -1.154  1.00  0.00     0.023 A 
ATOM     67  C   UNL     1      19.497  -3.860  -1.325  1.00  0.00     0.012 A 
ATOM     68  C   UNL     1      18.817  -1.903  -0.049  1.00  0.00     0.148 A 
ATOM     69  C   UNL     1      20.503  -4.126  -0.397  1.00  0.00     0.002 A 
ATOM     70  C   UNL     1      19.845  -2.154   0.853  1.00  0.00     0.091 A 
ATOM     71  F   UNL     1      17.971  -0.875   0.113  1.00  0.00    -0.205 F 
ATOM     72  C   UNL     1      20.683  -3.269   0.686  1.00  0.00     0.022 A 
BRANCH  70  73
ATOM     73  S   UNL     1      20.190  -1.061   2.236  1.00  0.00     0.127 S 
ATOM     74  O   UNL     1      19.559  -1.776   3.344  1.00  0.00    -0.237 OA
ATOM     75  O   UNL     1      21.654  -1.051   2.273  1.00  0.00    -0.237 OA
ATOM     76  O   UNL     1      19.590   0.219   1.885  1.00  0.00    -0.744 OA
ENDBRANCH  70  73
ENDBRANCH  52  66
BRANCH  53  77
ATOM     77  C   UNL     1      11.207  -1.107  -7.622  1.00  0.00     0.023 A 
ATOM     78  C   UNL     1      11.373  -1.388  -8.992  1.00  0.00     0.012 A 
ATOM     79  C   UNL     1       9.970  -0.614  -7.165  1.00  0.00     0.148 A 
ATOM     80  C   UNL     1      10.334  -1.162  -9.895  1.00  0.00     0.002 A 
ATOM     81  C   UNL     1       8.923  -0.435  -8.064  1.00  0.00     0.091 A 
ATOM     82  F   UNL     1       9.836  -0.337  -5.861  1.00  0.00    -0.205 F 
ATOM     83  C   UNL     1       9.107  -0.697  -9.430  1.00  0.00     0.022 A 
BRANCH  81  84
ATOM     84  S   UNL     1       7.276   0.042  -7.526  1.00  0.00     0.127 S 
ATOM     85  O   UNL     1       7.239   1.455  -7.889  1.00  0.00    -0.237 OA
ATOM     86  O   UNL     1       6.422  -0.826  -8.339  1.00  0.00    -0.237 OA
ATOM     87  O   UNL     1       7.234  -0.251  -6.099  1.00  0.00    -0.744 OA
ENDBRANCH  81  84
ENDBRANCH  53  77
BRANCH  65  88
ATOM     88  C   UNL     1      17.535   1.712  -6.690  1.00  0.00     0.023 A 
ATOM     89  C   UNL     1      17.211   3.051  -6.400  1.00  0.00     0.012 A 
ATOM     90  C   UNL     1      18.620   1.428  -7.543  1.00  0.00     0.148 A 
ATOM     91  C   UNL     1      17.947   4.093  -6.962  1.00  0.00     0.002 A 
ATOM     92  C   UNL     1      19.372   2.471  -8.069  1.00  0.00     0.091 A 
ATOM     93  F   UNL     1      18.896   0.145  -7.822  1.00  0.00    -0.205 F 
ATOM     94  C   UNL     1      19.034   3.804  -7.785  1.00  0.00     0.022 A 
BRANCH  92  95
ATOM     95  S   UNL     1      20.839   2.182  -9.066  1.00  0.00     0.127 S 
ATOM     96  O   UNL     1      20.337   2.434 -10.415  1.00  0.00    -0.237 OA
ATOM     97  O   UNL     1      21.768   3.194  -8.561  1.00  0.00    -0.237 OA
ATOM     98  O   UNL     1      21.240   0.808  -8.789  1.00  0.00    -0.744 OA
ENDBRANCH  92  95
ENDBRANCH  65  88
ENDBRANCH  39  40
ENDBRANCH  31  34
ENDBRANCH  29  30
ENDBRANCH  28  29
ENDBRANCH  27  28
ENDBRANCH   1  27
TORSDOF 20
