REMARK SMILES O=C(CC1CC1)NCc1ccc(C(=O)NCCCCCCNC(=O)c2ccc(-c3c4nc(c(-c5cccc(S(=O)(=O)[O-])c5F)c5ccc([nH]5)c(-c5cccc(S(=O)(=O)[O-])c5F)c5nc(c(-c6cccc(S(=O)(=O)[O-])c6F)c6ccc3[nH]6)C=C5)C=C4)cc2)o1
REMARK SMILES IDX 18 1 17 2 16 3 15 4 13 5 14 6 12 8 9 9 10 10 88 11 11 12
REMARK SMILES IDX 8 13 7 14 1 15 2 16 3 18 4 19 5 20 6 21 19 22 20 23 21 24
REMARK SMILES IDX 22 25 23 26 24 28 25 29 26 30 87 31 27 32 86 33 28 34 29 35
REMARK SMILES IDX 30 36 80 37 31 38 85 39 79 40 81 41 32 42 84 43 78 44 77 45
REMARK SMILES IDX 33 47 65 48 45 49 64 50 46 51 49 52 63 53 82 54 47 55 48 56
REMARK SMILES IDX 62 58 83 59 50 60 34 61 35 62 43 63 36 64 38 65 44 66 37 67
REMARK SMILES IDX 39 68 40 69 41 70 42 71 66 72 67 73 75 74 68 75 70 76 76 77
REMARK SMILES IDX 69 78 71 79 72 80 73 81 74 82 51 83 52 84 60 85 53 86 55 87
REMARK SMILES IDX 61 88 54 89 56 90 57 91 58 92 59 93
REMARK H PARENT 15 7 7 17 22 27 81 46 49 57
REMARK Flexibility Score: inf
ROOT
ATOM      1  C   UNL     1       4.373   4.906  -8.542  1.00  0.00     0.002 C 
ENDROOT
BRANCH   1   2
ATOM      2  C   UNL     1       3.971   4.465  -7.129  1.00  0.00     0.021 C 
BRANCH   2   3
ATOM      3  C   UNL     1       2.766   3.526  -7.124  1.00  0.00     0.116 C 
BRANCH   3   4
ATOM      4  N   UNL     1       3.183   2.168  -7.398  1.00  0.00    -0.349 N 
ATOM      5  C   UNL     1       3.261   1.065  -6.583  1.00  0.00     0.286 C 
ATOM      6  O   UNL     1       3.614   0.018  -7.131  1.00  0.00    -0.266 OA
ATOM      7  H   UNL     1       3.458   2.007  -8.329  1.00  0.00     0.163 HD
BRANCH   5   8
ATOM      8  C   UNL     1       2.918   1.142  -5.175  1.00  0.00     0.191 A 
ATOM      9  C   UNL     1       2.305   0.221  -3.261  1.00  0.00     0.124 A 
ATOM     10  C   UNL     1       2.352   1.578  -3.037  1.00  0.00     0.048 A 
ATOM     11  O   UNL     1       2.639  -0.051  -4.550  1.00  0.00    -0.454 OA
ATOM     12  C   UNL     1       2.816   2.157  -4.237  1.00  0.00     0.056 A 
BRANCH   9  13
ATOM     13  C   UNL     1       2.037  -0.938  -2.378  1.00  0.00     0.191 C 
BRANCH  13  14
ATOM     14  N   UNL     1       2.735  -0.673  -1.142  1.00  0.00    -0.349 N 
ATOM     15  O   UNL     1       0.876  -0.501   0.185  1.00  0.00    -0.275 OA
ATOM     16  C   UNL     1       2.091  -0.410   0.040  1.00  0.00     0.220 C 
ATOM     17  H   UNL     1       3.720  -0.682  -1.148  1.00  0.00     0.163 HD
BRANCH  16  18
ATOM     18  C   UNL     1       3.011   0.071   1.145  1.00  0.00     0.103 C 
BRANCH  18  19
ATOM     19  C   UNL     1       3.938  -0.942   1.758  1.00  0.00    -0.002 C 
ATOM     20  C   UNL     1       4.126  -2.349   1.240  1.00  0.00     0.004 C 
ATOM     21  C   UNL     1       5.220  -1.336   1.058  1.00  0.00     0.004 C 
ENDBRANCH  18  19
ENDBRANCH  16  18
ENDBRANCH  13  14
ENDBRANCH   9  13
ENDBRANCH   5   8
ENDBRANCH   3   4
ENDBRANCH   2   3
ENDBRANCH   1   2
BRANCH   1  22
ATOM     22  C   UNL     1       3.276   5.653  -9.312  1.00  0.00     0.002 C 
BRANCH  22  23
ATOM     23  C   UNL     1       2.688   6.864  -8.582  1.00  0.00     0.021 C 
BRANCH  23  24
ATOM     24  C   UNL     1       3.704   7.958  -8.267  1.00  0.00     0.116 C 
BRANCH  24  25
ATOM     25  N   UNL     1       4.308   8.485  -9.479  1.00  0.00    -0.352 N 
ATOM     26  C   UNL     1       4.380   9.775  -9.931  1.00  0.00     0.251 C 
ATOM     27  H   UNL     1       4.728   7.813 -10.063  1.00  0.00     0.163 HD
ATOM     28  O   UNL     1       4.701   9.988 -11.098  1.00  0.00    -0.269 OA
BRANCH  26  29
ATOM     29  C   UNL     1       4.078  10.905  -9.026  1.00  0.00     0.039 A 
ATOM     30  C   UNL     1       3.399  12.012  -9.542  1.00  0.00     0.014 A 
ATOM     31  C   UNL     1       4.504  10.904  -7.694  1.00  0.00     0.014 A 
ATOM     32  C   UNL     1       3.129  13.103  -8.717  1.00  0.00     0.010 A 
ATOM     33  C   UNL     1       4.161  11.959  -6.851  1.00  0.00     0.010 A 
ATOM     34  C   UNL     1       3.491  13.080  -7.359  1.00  0.00    -0.014 A 
BRANCH  34  35
ATOM     35  C   UNL     1       3.170  14.230  -6.476  1.00  0.00     0.031 A 
ATOM     36  C   UNL     1       4.267  15.036  -5.831  1.00  0.00     0.074 A 
ATOM     37  C   UNL     1       1.880  14.527  -6.226  1.00  0.00     0.049 A 
ATOM     38  N   UNL     1       4.169  16.099  -5.075  1.00  0.00    -0.248 NA
ATOM     39  C   UNL     1       5.651  14.578  -6.040  1.00  0.00     0.031 C 
ATOM     40  C   UNL     1       0.729  13.767  -6.718  1.00  0.00     0.029 A 
ATOM     41  N   UNL     1       1.319  15.541  -5.493  1.00  0.00    -0.354 N 
ATOM     42  C   UNL     1       5.468  16.422  -4.699  1.00  0.00     0.074 A 
ATOM     43  C   UNL     1       6.334  15.416  -5.274  1.00  0.00     0.031 C 
ATOM     44  C   UNL     1      -0.401  14.354  -6.292  1.00  0.00     0.029 A 
ATOM     45  C   UNL     1      -0.056  15.515  -5.479  1.00  0.00     0.049 A 
ATOM     46  H   UNL     1       1.850  16.223  -5.021  1.00  0.00     0.167 HD
ATOM     47  C   UNL     1       5.905  17.475  -3.967  1.00  0.00     0.034 A 
ATOM     48  C   UNL     1      -0.940  16.337  -4.882  1.00  0.00     0.034 A 
ATOM     49  C   UNL     1       5.042  18.490  -3.424  1.00  0.00     0.049 A 
ATOM     50  C   UNL     1      -0.428  17.530  -4.123  1.00  0.00     0.074 A 
ATOM     51  C   UNL     1       5.390  19.640  -2.738  1.00  0.00     0.029 A 
ATOM     52  N   UNL     1       3.657  18.473  -3.495  1.00  0.00    -0.354 N 
ATOM     53  N   UNL     1       0.810  17.907  -3.915  1.00  0.00    -0.248 NA
ATOM     54  C   UNL     1      -1.436  18.436  -3.556  1.00  0.00     0.031 C 
ATOM     55  C   UNL     1       4.214  20.302  -2.368  1.00  0.00     0.029 A 
ATOM     56  C   UNL     1       3.135  19.586  -2.859  1.00  0.00     0.049 A 
ATOM     57  H   UNL     1       3.123  17.771  -3.934  1.00  0.00     0.167 HD
ATOM     58  C   UNL     1       0.731  19.113  -3.229  1.00  0.00     0.074 A 
ATOM     59  C   UNL     1      -0.679  19.414  -3.080  1.00  0.00     0.031 C 
ATOM     60  C   UNL     1       1.732  19.896  -2.755  1.00  0.00     0.034 A 
BRANCH  47  61
ATOM     61  C   UNL     1       7.391  17.610  -3.750  1.00  0.00     0.023 A 
ATOM     62  C   UNL     1       8.229  17.945  -4.835  1.00  0.00     0.012 A 
ATOM     63  C   UNL     1       7.953  17.465  -2.466  1.00  0.00     0.148 A 
ATOM     64  C   UNL     1       9.603  18.096  -4.654  1.00  0.00     0.002 A 
ATOM     65  C   UNL     1       9.317  17.665  -2.285  1.00  0.00     0.091 A 
ATOM     66  F   UNL     1       7.147  17.127  -1.450  1.00  0.00    -0.205 F 
ATOM     67  C   UNL     1      10.145  17.967  -3.378  1.00  0.00     0.022 A 
BRANCH  65  68
ATOM     68  S   UNL     1      10.100  17.603  -0.669  1.00  0.00     0.127 S 
ATOM     69  O   UNL     1      10.897  16.381  -0.774  1.00  0.00    -0.237 OA
ATOM     70  O   UNL     1      10.880  18.841  -0.659  1.00  0.00    -0.237 OA
ATOM     71  O   UNL     1       9.017  17.559   0.302  1.00  0.00    -0.744 OA
ENDBRANCH  65  68
ENDBRANCH  47  61
BRANCH  48  72
ATOM     72  C   UNL     1      -2.402  16.100  -5.044  1.00  0.00     0.023 A 
ATOM     73  C   UNL     1      -3.172  16.993  -5.814  1.00  0.00     0.012 A 
ATOM     74  C   UNL     1      -3.027  14.982  -4.460  1.00  0.00     0.148 A 
ATOM     75  C   UNL     1      -4.545  16.798  -5.968  1.00  0.00     0.002 A 
ATOM     76  C   UNL     1      -4.383  14.761  -4.666  1.00  0.00     0.091 A 
ATOM     77  F   UNL     1      -2.278  14.149  -3.724  1.00  0.00    -0.205 F 
ATOM     78  C   UNL     1      -5.149  15.678  -5.403  1.00  0.00     0.022 A 
BRANCH  76  79
ATOM     79  S   UNL     1      -5.213  13.275  -4.092  1.00  0.00     0.127 S 
ATOM     80  O   UNL     1      -6.069  13.801  -3.032  1.00  0.00    -0.237 OA
ATOM     81  O   UNL     1      -5.919  12.840  -5.298  1.00  0.00    -0.237 OA
ATOM     82  O   UNL     1      -4.152  12.374  -3.661  1.00  0.00    -0.744 OA
ENDBRANCH  76  79
ENDBRANCH  48  72
BRANCH  60  83
ATOM     83  C   UNL     1       1.342  21.181  -2.070  1.00  0.00     0.023 A 
ATOM     84  C   UNL     1       0.710  21.148  -0.811  1.00  0.00     0.012 A 
ATOM     85  C   UNL     1       1.640  22.425  -2.661  1.00  0.00     0.148 A 
ATOM     86  C   UNL     1       0.335  22.332  -0.175  1.00  0.00     0.002 A 
ATOM     87  C   UNL     1       1.313  23.600  -1.996  1.00  0.00     0.091 A 
ATOM     88  F   UNL     1       2.224  22.438  -3.868  1.00  0.00    -0.205 F 
ATOM     89  C   UNL     1       0.645  23.556  -0.762  1.00  0.00     0.022 A 
BRANCH  87  90
ATOM     90  S   UNL     1       1.767  25.218  -2.631  1.00  0.00     0.127 S 
ATOM     91  O   UNL     1       0.484  25.714  -3.125  1.00  0.00    -0.237 OA
ATOM     92  O   UNL     1       2.263  25.895  -1.432  1.00  0.00    -0.237 OA
ATOM     93  O   UNL     1       2.781  24.977  -3.648  1.00  0.00    -0.744 OA
ENDBRANCH  87  90
ENDBRANCH  60  83
ENDBRANCH  34  35
ENDBRANCH  26  29
ENDBRANCH  24  25
ENDBRANCH  23  24
ENDBRANCH  22  23
ENDBRANCH   1  22
TORSDOF 20
