REMARK SMILES CS(=O)(=O)Nc1ccc(-c2cc(Cl)cc3c2O[C@H](C(F)(F)F)C(C(=O)NCCCCCCNC(=O)c2ccc(-c4c5nc(c(-c6cccc(S(=O)(=O)[O-])c6F)c6ccc([nH]6)c(-c6cccc(S(=O)(=O)[O-])c6F)c6nc(c(-c7cccc(S(=O)(=O)[O-])c7F)c7ccc4[nH]7)C=C6)C=C5)cc2)=C3)cc1
REMARK SMILES IDX 29 1 28 2 27 3 26 4 24 5 25 6 23 8 10 9 11 10 16 11 12 12
REMARK SMILES IDX 15 13 17 14 13 15 14 16 99 17 18 18 9 19 6 20 7 21 101 22
REMARK SMILES IDX 8 23 100 24 5 25 2 27 1 28 3 29 4 30 19 31 20 32 21 33 22 34
REMARK SMILES IDX 30 35 31 36 32 37 33 38 34 39 35 41 36 42 37 43 98 44 38 45
REMARK SMILES IDX 97 46 39 47 40 48 41 49 91 50 42 51 96 52 90 53 92 54 43 55
REMARK SMILES IDX 95 56 89 57 88 58 44 60 76 61 56 62 75 63 57 64 60 65 74 66
REMARK SMILES IDX 93 67 58 68 59 69 73 71 94 72 61 73 45 74 46 75 54 76 47 77
REMARK SMILES IDX 49 78 55 79 48 80 50 81 51 82 52 83 53 84 77 85 78 86 86 87
REMARK SMILES IDX 79 88 81 89 87 90 80 91 82 92 83 93 84 94 85 95 62 96 63 97
REMARK SMILES IDX 71 98 64 99 66 100 72 101 65 102 67 103 68 104 69 105 70 106
REMARK H PARENT 26 7 5 26 33 40 92 59 60 70
REMARK Flexibility Score: inf
ROOT
ATOM      1  C   UNL     1       9.562 -12.829  -0.663  1.00  0.00     0.002 C 
ENDROOT
BRANCH   1   2
ATOM      2  C   UNL     1      10.004 -11.620   0.179  1.00  0.00     0.021 C 
BRANCH   2   3
ATOM      3  C   UNL     1       9.809 -10.255  -0.499  1.00  0.00     0.116 C 
BRANCH   3   4
ATOM      4  N   UNL     1       8.406 -10.064  -0.815  1.00  0.00    -0.352 N 
ATOM      5  C   UNL     1       7.619  -9.076  -0.322  1.00  0.00     0.251 C 
ATOM      6  O   UNL     1       6.523  -9.343   0.156  1.00  0.00    -0.270 OA
ATOM      7  H   UNL     1       7.992 -10.704  -1.438  1.00  0.00     0.163 HD
BRANCH   5   8
ATOM      8  C   UNL     1       8.081  -7.677  -0.566  1.00  0.00     0.067 C 
ATOM      9  C   UNL     1       4.782  -5.688   0.724  1.00  0.00     0.026 A 
ATOM     10  C   UNL     1       3.672  -6.406   0.199  1.00  0.00     0.033 A 
ATOM     11  C   UNL     1       6.036  -6.010   0.178  1.00  0.00     0.135 A 
ATOM     12  C   UNL     1       3.766  -7.229  -0.921  1.00  0.00     0.042 A 
ATOM     13  C   UNL     1       6.090  -6.746  -1.035  1.00  0.00     0.019 A 
ATOM     14  O   UNL     1       7.244  -5.718   0.800  1.00  0.00    -0.475 OA
ATOM     15  Cl  UNL     1       2.379  -8.079  -1.473  1.00  0.00    -0.084 Cl
ATOM     16  C   UNL     1       4.962  -7.336  -1.598  1.00  0.00     0.032 A 
ATOM     17  C   UNL     1       7.423  -7.082  -1.580  1.00  0.00     0.025 C 
ATOM     18  C   UNL     1       8.255  -6.822   0.682  1.00  0.00     0.314 C 
BRANCH   9  19
ATOM     19  C   UNL     1       4.403  -4.537   1.597  1.00  0.00    -0.014 A 
ATOM     20  C   UNL     1       2.592  -2.440   2.273  1.00  0.00     0.048 A 
ATOM     21  C   UNL     1       2.514  -3.686   2.900  1.00  0.00     0.027 A 
ATOM     22  C   UNL     1       3.687  -2.188   1.450  1.00  0.00     0.027 A 
ATOM     23  C   UNL     1       3.426  -4.710   2.596  1.00  0.00     0.011 A 
ATOM     24  C   UNL     1       4.589  -3.225   1.121  1.00  0.00     0.011 A 
BRANCH  20  25
ATOM     25  N   UNL     1       1.429  -1.619   2.363  1.00  0.00    -0.284 N 
ATOM     26  H   UNL     1       0.676  -1.995   2.875  1.00  0.00     0.180 HD
BRANCH  25  27
ATOM     27  S   UNL     1       1.182  -0.112   1.714  1.00  0.00     0.229 S 
ATOM     28  C   UNL     1       1.153  -0.382  -0.051  1.00  0.00     0.183 C 
ATOM     29  O   UNL     1       2.297   0.750   2.043  1.00  0.00    -0.207 OA
ATOM     30  O   UNL     1      -0.166   0.242   2.106  1.00  0.00    -0.207 OA
ENDBRANCH  25  27
ENDBRANCH  20  25
ENDBRANCH   9  19
BRANCH  18  31
ATOM     31  C   UNL     1       9.707  -6.291   0.688  1.00  0.00     0.429 C 
ATOM     32  F   UNL     1       9.771  -4.958   0.474  1.00  0.00    -0.167 F 
ATOM     33  F   UNL     1      10.317  -6.551   1.868  1.00  0.00    -0.167 F 
ATOM     34  F   UNL     1      10.474  -6.873  -0.272  1.00  0.00    -0.167 F 
ENDBRANCH  18  31
ENDBRANCH   5   8
ENDBRANCH   3   4
ENDBRANCH   2   3
ENDBRANCH   1   2
BRANCH   1  35
ATOM     35  C   UNL     1      10.210 -12.922  -2.046  1.00  0.00     0.002 C 
BRANCH  35  36
ATOM     36  C   UNL     1      11.735 -13.008  -2.026  1.00  0.00     0.021 C 
BRANCH  36  37
ATOM     37  C   UNL     1      12.294 -14.153  -1.189  1.00  0.00     0.116 C 
BRANCH  37  38
ATOM     38  N   UNL     1      11.856 -15.456  -1.668  1.00  0.00    -0.352 N 
ATOM     39  C   UNL     1      12.606 -16.582  -1.903  1.00  0.00     0.251 C 
ATOM     40  H   UNL     1      10.892 -15.542  -1.847  1.00  0.00     0.163 HD
ATOM     41  O   UNL     1      12.107 -17.551  -2.466  1.00  0.00    -0.269 OA
BRANCH  39  42
ATOM     42  C   UNL     1      14.026 -16.605  -1.495  1.00  0.00     0.039 A 
ATOM     43  C   UNL     1      14.983 -17.067  -2.400  1.00  0.00     0.014 A 
ATOM     44  C   UNL     1      14.410 -16.150  -0.230  1.00  0.00     0.014 A 
ATOM     45  C   UNL     1      16.335 -17.020  -2.056  1.00  0.00     0.010 A 
ATOM     46  C   UNL     1      15.761 -16.027   0.078  1.00  0.00     0.010 A 
ATOM     47  C   UNL     1      16.737 -16.470  -0.827  1.00  0.00    -0.014 A 
BRANCH  47  48
ATOM     48  C   UNL     1      18.174 -16.343  -0.475  1.00  0.00     0.031 A 
ATOM     49  C   UNL     1      18.732 -17.065   0.720  1.00  0.00     0.074 A 
ATOM     50  C   UNL     1      18.960 -15.509  -1.183  1.00  0.00     0.049 A 
ATOM     51  N   UNL     1      19.944 -17.038   1.209  1.00  0.00    -0.248 NA
ATOM     52  C   UNL     1      17.795 -17.904   1.486  1.00  0.00     0.031 C 
ATOM     53  C   UNL     1      18.517 -14.682  -2.308  1.00  0.00     0.029 A 
ATOM     54  N   UNL     1      20.289 -15.194  -1.042  1.00  0.00    -0.354 N 
ATOM     55  C   UNL     1      19.911 -17.827   2.352  1.00  0.00     0.074 A 
ATOM     56  C   UNL     1      18.546 -18.280   2.510  1.00  0.00     0.031 C 
ATOM     57  C   UNL     1      19.553 -13.954  -2.753  1.00  0.00     0.029 A 
ATOM     58  C   UNL     1      20.724 -14.236  -1.927  1.00  0.00     0.049 A 
ATOM     59  H   UNL     1      20.874 -15.613  -0.370  1.00  0.00     0.167 HD
ATOM     60  C   UNL     1      20.928 -18.172   3.178  1.00  0.00     0.034 A 
ATOM     61  C   UNL     1      21.925 -13.639  -2.053  1.00  0.00     0.034 A 
ATOM     62  C   UNL     1      22.287 -17.737   3.003  1.00  0.00     0.049 A 
ATOM     63  C   UNL     1      23.050 -14.059  -1.149  1.00  0.00     0.074 A 
ATOM     64  C   UNL     1      23.406 -18.094   3.734  1.00  0.00     0.029 A 
ATOM     65  N   UNL     1      22.712 -16.834   2.040  1.00  0.00    -0.354 N 
ATOM     66  N   UNL     1      23.038 -14.932  -0.171  1.00  0.00    -0.248 NA
ATOM     67  C   UNL     1      24.362 -13.444  -1.389  1.00  0.00     0.031 C 
ATOM     68  C   UNL     1      24.501 -17.380   3.233  1.00  0.00     0.029 A 
ATOM     69  C   UNL     1      24.072 -16.609   2.165  1.00  0.00     0.049 A 
ATOM     70  H   UNL     1      22.130 -16.414   1.365  1.00  0.00     0.167 HD
ATOM     71  C   UNL     1      24.343 -14.993   0.303  1.00  0.00     0.074 A 
ATOM     72  C   UNL     1      25.124 -14.084  -0.511  1.00  0.00     0.031 C 
ATOM     73  C   UNL     1      24.847 -15.729   1.326  1.00  0.00     0.034 A 
BRANCH  60  74
ATOM     74  C   UNL     1      20.604 -19.099   4.324  1.00  0.00     0.023 A 
ATOM     75  C   UNL     1      20.243 -20.437   4.059  1.00  0.00     0.012 A 
ATOM     76  C   UNL     1      20.675 -18.658   5.659  1.00  0.00     0.148 A 
ATOM     77  C   UNL     1      19.905 -21.304   5.097  1.00  0.00     0.002 A 
ATOM     78  C   UNL     1      20.387 -19.543   6.692  1.00  0.00     0.091 A 
ATOM     79  F   UNL     1      21.000 -17.379   5.896  1.00  0.00    -0.205 F 
ATOM     80  C   UNL     1      19.986 -20.859   6.413  1.00  0.00     0.022 A 
BRANCH  78  81
ATOM     81  S   UNL     1      20.542 -19.090   8.424  1.00  0.00     0.127 S 
ATOM     82  O   UNL     1      19.141 -18.984   8.827  1.00  0.00    -0.237 OA
ATOM     83  O   UNL     1      21.251 -20.242   8.981  1.00  0.00    -0.237 OA
ATOM     84  O   UNL     1      21.298 -17.846   8.445  1.00  0.00    -0.744 OA
ENDBRANCH  78  81
ENDBRANCH  60  74
BRANCH  61  85
ATOM     85  C   UNL     1      22.125 -12.615  -3.116  1.00  0.00     0.023 A 
ATOM     86  C   UNL     1      22.910 -12.922  -4.243  1.00  0.00     0.012 A 
ATOM     87  C   UNL     1      21.487 -11.361  -3.041  1.00  0.00     0.148 A 
ATOM     88  C   UNL     1      23.075 -11.989  -5.268  1.00  0.00     0.002 A 
ATOM     89  C   UNL     1      21.608 -10.460  -4.091  1.00  0.00     0.091 A 
ATOM     90  F   UNL     1      20.749 -11.090  -1.955  1.00  0.00    -0.205 F 
ATOM     91  C   UNL     1      22.415 -10.765  -5.198  1.00  0.00     0.022 A 
BRANCH  89  92
ATOM     92  S   UNL     1      20.683  -8.921  -4.153  1.00  0.00     0.127 S 
ATOM     93  O   UNL     1      21.750  -7.928  -4.068  1.00  0.00    -0.237 OA
ATOM     94  O   UNL     1      20.032  -9.017  -5.460  1.00  0.00    -0.237 OA
ATOM     95  O   UNL     1      19.769  -8.962  -3.021  1.00  0.00    -0.744 OA
ENDBRANCH  89  92
ENDBRANCH  61  85
BRANCH  73  96
ATOM     96  C   UNL     1      26.322 -15.610   1.612  1.00  0.00     0.023 A 
ATOM     97  C   UNL     1      26.836 -14.432   2.189  1.00  0.00     0.012 A 
ATOM     98  C   UNL     1      27.187 -16.697   1.374  1.00  0.00     0.148 A 
ATOM     99  C   UNL     1      28.193 -14.325   2.493  1.00  0.00     0.002 A 
ATOM    100  C   UNL     1      28.527 -16.602   1.727  1.00  0.00     0.091 A 
ATOM    101  F   UNL     1      26.682 -17.803   0.807  1.00  0.00    -0.205 F 
ATOM    102  C   UNL     1      29.035 -15.413   2.274  1.00  0.00     0.022 A 
BRANCH 100 103
ATOM    103  S   UNL     1      29.665 -17.984   1.574  1.00  0.00     0.127 S 
ATOM    104  O   UNL     1      30.522 -17.543   0.474  1.00  0.00    -0.237 OA
ATOM    105  O   UNL     1      30.313 -17.998   2.885  1.00  0.00    -0.237 OA
ATOM    106  O   UNL     1      28.843 -19.153   1.293  1.00  0.00    -0.744 OA
ENDBRANCH 100 103
ENDBRANCH  73  96
ENDBRANCH  47  48
ENDBRANCH  39  42
ENDBRANCH  37  38
ENDBRANCH  36  37
ENDBRANCH  35  36
ENDBRANCH   1  35
TORSDOF 20
