REMARK SMILES C[C@@H](C(=O)NCCCCCCNC(=O)c1ccc(-c2c3nc(c(-c4cccc(S(=O)(=O)[O-])c4F)c4ccc([nH]4)c(-c4cccc(S(=O)(=O)[O-])c4F)c4nc(c(-c5cccc(S(=O)(=O)[O-])c5F)c5ccc2[nH]5)C=C4)C=C3)cc1)c1ccc(C[C@H]2CCC[C@H]2O)cc1-c1ccc(O)cc1
REMARK SMILES IDX 8 1 7 2 6 3 5 4 3 5 4 6 2 8 1 9 78 10 79 11 90 12 80 13
REMARK SMILES IDX 89 14 81 15 91 16 92 17 97 18 93 19 96 20 94 21 95 22 82 24
REMARK SMILES IDX 83 25 84 26 87 27 85 28 86 29 88 30 9 32 10 33 11 34 12 35
REMARK SMILES IDX 13 36 14 38 15 39 16 40 77 41 17 42 76 43 18 44 19 45 20 46
REMARK SMILES IDX 70 47 21 48 75 49 69 50 71 51 22 52 74 53 68 54 67 55 23 57
REMARK SMILES IDX 55 58 35 59 54 60 36 61 39 62 53 63 72 64 37 65 38 66 52 68
REMARK SMILES IDX 73 69 40 70 24 71 25 72 33 73 26 74 28 75 34 76 27 77 29 78
REMARK SMILES IDX 30 79 31 80 32 81 56 82 57 83 65 84 58 85 60 86 66 87 59 88
REMARK SMILES IDX 61 89 62 90 63 91 64 92 41 93 42 94 50 95 43 96 45 97 51 98
REMARK SMILES IDX 44 99 46 100 47 101 48 102 49 103
REMARK H PARENT 5 7 95 23 88 31 12 37 71 56 39 67
REMARK Flexibility Score: inf
ROOT
ATOM      1  C   UNL     1       4.976  -1.671   2.313  1.00  0.00     0.002 C 
ENDROOT
BRANCH   1   2
ATOM      2  C   UNL     1       4.248  -0.987   1.147  1.00  0.00     0.021 C 
BRANCH   2   3
ATOM      3  C   UNL     1       3.306  -1.927   0.391  1.00  0.00     0.116 C 
BRANCH   3   4
ATOM      4  N   UNL     1       2.162  -2.217   1.234  1.00  0.00    -0.356 N 
ATOM      5  C   UNL     1       0.915  -1.663   1.168  1.00  0.00     0.227 C 
ATOM      6  O   UNL     1       0.252  -1.623   2.207  1.00  0.00    -0.274 OA
ATOM      7  H   UNL     1       2.300  -2.893   1.937  1.00  0.00     0.163 HD
BRANCH   5   8
ATOM      8  C   UNL     1       0.408  -1.139  -0.182  1.00  0.00     0.106 C 
ATOM      9  C   UNL     1       0.893   0.322  -0.271  1.00  0.00     0.023 C 
BRANCH   8  10
ATOM     10  C   UNL     1      -1.113  -1.318  -0.324  1.00  0.00    -0.028 A 
ATOM     11  C   UNL     1      -1.909  -0.199  -0.633  1.00  0.00     0.005 A 
ATOM     12  C   UNL     1      -1.769  -2.566  -0.137  1.00  0.00    -0.014 A 
ATOM     13  C   UNL     1      -3.296  -0.254  -0.594  1.00  0.00     0.004 A 
ATOM     14  C   UNL     1      -3.177  -2.568  -0.000  1.00  0.00     0.012 A 
ATOM     15  C   UNL     1      -3.939  -1.403  -0.157  1.00  0.00    -0.047 A 
BRANCH  12  16
ATOM     16  C   UNL     1      -1.089  -3.878  -0.189  1.00  0.00    -0.018 A 
ATOM     17  C   UNL     1      -1.149  -4.629  -1.378  1.00  0.00     0.012 A 
ATOM     18  C   UNL     1      -0.432  -4.453   0.909  1.00  0.00     0.012 A 
ATOM     19  C   UNL     1      -0.534  -5.880  -1.481  1.00  0.00     0.047 A 
ATOM     20  C   UNL     1       0.226  -5.686   0.798  1.00  0.00     0.047 A 
ATOM     21  C   UNL     1       0.171  -6.387  -0.400  1.00  0.00     0.115 A 
BRANCH  21  22
ATOM     22  O   UNL     1       0.797  -7.588  -0.553  1.00  0.00    -0.508 OA
ATOM     23  H   UNL     1       0.746  -8.042  -1.371  1.00  0.00     0.293 HD
ENDBRANCH  21  22
ENDBRANCH  12  16
BRANCH  15  24
ATOM     24  C   UNL     1      -5.410  -1.362   0.154  1.00  0.00     0.041 C 
BRANCH  24  25
ATOM     25  C   UNL     1      -5.814  -0.796   1.531  1.00  0.00     0.022 C 
ATOM     26  C   UNL     1      -5.197  -1.503   2.749  1.00  0.00     0.007 C 
ATOM     27  C   UNL     1      -5.616   0.703   1.821  1.00  0.00     0.117 C 
ATOM     28  C   UNL     1      -5.161  -0.459   3.871  1.00  0.00     0.003 C 
ATOM     29  C   UNL     1      -5.864   0.780   3.323  1.00  0.00     0.032 C 
BRANCH  27  30
ATOM     30  O   UNL     1      -4.319   1.212   1.573  1.00  0.00    -0.393 OA
ATOM     31  H   UNL     1      -3.674   0.736   2.119  1.00  0.00     0.210 HD
ENDBRANCH  27  30
ENDBRANCH  24  25
ENDBRANCH  15  24
ENDBRANCH   8  10
ENDBRANCH   5   8
ENDBRANCH   3   4
ENDBRANCH   2   3
ENDBRANCH   1   2
BRANCH   1  32
ATOM     32  C   UNL     1       5.896  -2.822   1.895  1.00  0.00     0.002 C 
BRANCH  32  33
ATOM     33  C   UNL     1       6.946  -2.446   0.848  1.00  0.00     0.021 C 
BRANCH  33  34
ATOM     34  C   UNL     1       7.871  -1.313   1.275  1.00  0.00     0.116 C 
BRANCH  34  35
ATOM     35  N   UNL     1       8.700  -1.692   2.410  1.00  0.00    -0.352 N 
ATOM     36  C   UNL     1      10.063  -1.567   2.548  1.00  0.00     0.251 C 
ATOM     37  H   UNL     1       8.225  -2.087   3.177  1.00  0.00     0.163 HD
ATOM     38  O   UNL     1      10.652  -2.104   3.471  1.00  0.00    -0.269 OA
BRANCH  36  39
ATOM     39  C   UNL     1      10.800  -0.778   1.538  1.00  0.00     0.039 A 
ATOM     40  C   UNL     1      11.911  -1.342   0.907  1.00  0.00     0.014 A 
ATOM     41  C   UNL     1      10.352   0.499   1.193  1.00  0.00     0.014 A 
ATOM     42  C   UNL     1      12.546  -0.639  -0.119  1.00  0.00     0.010 A 
ATOM     43  C   UNL     1      10.943   1.165   0.128  1.00  0.00     0.010 A 
ATOM     44  C   UNL     1      12.049   0.607  -0.533  1.00  0.00    -0.014 A 
BRANCH  44  45
ATOM     45  C   UNL     1      12.660   1.368  -1.650  1.00  0.00     0.031 A 
ATOM     46  C   UNL     1      13.254   2.722  -1.383  1.00  0.00     0.074 A 
ATOM     47  C   UNL     1      12.549   0.913  -2.913  1.00  0.00     0.049 A 
ATOM     48  N   UNL     1      13.676   3.621  -2.231  1.00  0.00    -0.248 NA
ATOM     49  C   UNL     1      13.344   3.135   0.028  1.00  0.00     0.031 C 
ATOM     50  C   UNL     1      11.921  -0.350  -3.303  1.00  0.00     0.029 A 
ATOM     51  N   UNL     1      12.912   1.488  -4.105  1.00  0.00    -0.354 N 
ATOM     52  C   UNL     1      14.026   4.726  -1.466  1.00  0.00     0.074 A 
ATOM     53  C   UNL     1      13.744   4.393  -0.086  1.00  0.00     0.031 C 
ATOM     54  C   UNL     1      11.918  -0.442  -4.642  1.00  0.00     0.029 A 
ATOM     55  C   UNL     1      12.513   0.767  -5.205  1.00  0.00     0.049 A 
ATOM     56  H   UNL     1      13.411   2.335  -4.166  1.00  0.00     0.167 HD
ATOM     57  C   UNL     1      14.556   5.904  -1.871  1.00  0.00     0.034 A 
ATOM     58  C   UNL     1      12.591   1.057  -6.519  1.00  0.00     0.034 A 
ATOM     59  C   UNL     1      14.886   6.204  -3.237  1.00  0.00     0.049 A 
ATOM     60  C   UNL     1      13.244   2.342  -6.949  1.00  0.00     0.074 A 
ATOM     61  C   UNL     1      15.532   7.318  -3.740  1.00  0.00     0.029 A 
ATOM     62  N   UNL     1      14.588   5.389  -4.318  1.00  0.00    -0.354 N 
ATOM     63  N   UNL     1      13.723   3.308  -6.204  1.00  0.00    -0.248 NA
ATOM     64  C   UNL     1      13.402   2.563  -8.394  1.00  0.00     0.031 C 
ATOM     65  C   UNL     1      15.607   7.186  -5.130  1.00  0.00     0.029 A 
ATOM     66  C   UNL     1      15.028   5.978  -5.489  1.00  0.00     0.049 A 
ATOM     67  H   UNL     1      14.130   4.520  -4.261  1.00  0.00     0.167 HD
ATOM     68  C   UNL     1      14.272   4.234  -7.084  1.00  0.00     0.074 A 
ATOM     69  C   UNL     1      14.073   3.709  -8.419  1.00  0.00     0.031 C 
ATOM     70  C   UNL     1      14.878   5.415  -6.808  1.00  0.00     0.034 A 
BRANCH  57  71
ATOM     71  C   UNL     1      14.851   6.934  -0.813  1.00  0.00     0.023 A 
ATOM     72  C   UNL     1      15.902   6.714   0.102  1.00  0.00     0.012 A 
ATOM     73  C   UNL     1      14.109   8.128  -0.736  1.00  0.00     0.148 A 
ATOM     74  C   UNL     1      16.176   7.641   1.106  1.00  0.00     0.002 A 
ATOM     75  C   UNL     1      14.419   9.070   0.239  1.00  0.00     0.091 A 
ATOM     76  F   UNL     1      13.096   8.312  -1.596  1.00  0.00    -0.205 F 
ATOM     77  C   UNL     1      15.442   8.822   1.169  1.00  0.00     0.022 A 
BRANCH  75  78
ATOM     78  S   UNL     1      13.579  10.654   0.340  1.00  0.00     0.127 S 
ATOM     79  O   UNL     1      12.639  10.422   1.435  1.00  0.00    -0.237 OA
ATOM     80  O   UNL     1      14.675  11.570   0.661  1.00  0.00    -0.237 OA
ATOM     81  O   UNL     1      12.983  10.867  -0.972  1.00  0.00    -0.744 OA
ENDBRANCH  75  78
ENDBRANCH  57  71
BRANCH  58  82
ATOM     82  C   UNL     1      12.079   0.072  -7.513  1.00  0.00     0.023 A 
ATOM     83  C   UNL     1      12.994  -0.685  -8.269  1.00  0.00     0.012 A 
ATOM     84  C   UNL     1      10.699  -0.176  -7.651  1.00  0.00     0.148 A 
ATOM     85  C   UNL     1      12.543  -1.663  -9.157  1.00  0.00     0.002 A 
ATOM     86  C   UNL     1      10.260  -1.188  -8.496  1.00  0.00     0.091 A 
ATOM     87  F   UNL     1       9.848   0.561  -6.924  1.00  0.00    -0.205 F 
ATOM     88  C   UNL     1      11.179  -1.923  -9.261  1.00  0.00     0.022 A 
BRANCH  86  89
ATOM     89  S   UNL     1       8.537  -1.690  -8.590  1.00  0.00     0.127 S 
ATOM     90  O   UNL     1       8.187  -1.304  -9.955  1.00  0.00    -0.237 OA
ATOM     91  O   UNL     1       8.632  -3.132  -8.361  1.00  0.00    -0.237 OA
ATOM     92  O   UNL     1       7.852  -0.957  -7.533  1.00  0.00    -0.744 OA
ENDBRANCH  86  89
ENDBRANCH  58  82
BRANCH  70  93
ATOM     93  C   UNL     1      15.419   6.221  -7.958  1.00  0.00     0.023 A 
ATOM     94  C   UNL     1      14.539   6.952  -8.778  1.00  0.00     0.012 A 
ATOM     95  C   UNL     1      16.811   6.355  -8.139  1.00  0.00     0.148 A 
ATOM     96  C   UNL     1      15.035   7.798  -9.770  1.00  0.00     0.002 A 
ATOM     97  C   UNL     1      17.298   7.234  -9.098  1.00  0.00     0.091 A 
ATOM     98  F   UNL     1      17.628   5.636  -7.357  1.00  0.00    -0.205 F 
ATOM     99  C   UNL     1      16.412   7.950  -9.919  1.00  0.00     0.022 A 
BRANCH  97 100
ATOM    100  S   UNL     1      19.052   7.572  -9.296  1.00  0.00     0.127 S 
ATOM    101  O   UNL     1      19.326   6.968 -10.599  1.00  0.00    -0.237 OA
ATOM    102  O   UNL     1      19.088   9.035  -9.281  1.00  0.00    -0.237 OA
ATOM    103  O   UNL     1      19.716   6.938  -8.165  1.00  0.00    -0.744 OA
ENDBRANCH  97 100
ENDBRANCH  70  93
ENDBRANCH  44  45
ENDBRANCH  36  39
ENDBRANCH  34  35
ENDBRANCH  33  34
ENDBRANCH  32  33
ENDBRANCH   1  32
TORSDOF 22
