REMARK SMILES O=C(CSc1nc2cnccc2n1CCC(F)(F)F)NCCCCCCNC(=O)c1ccc(-c2c3nc(c(-c4cccc(S(=O)(=O)[O-])c4F)c4ccc([nH]4)c(-c4cccc(S(=O)(=O)[O-])c4F)c4nc(c(-c5cccc(S(=O)(=O)[O-])c5F)c5ccc2[nH]5)C=C4)C=C3)cc1
REMARK SMILES IDX 22 1 21 2 20 3 1 4 2 5 3 7 4 8 5 9 6 10 13 11 7 12 12 13
REMARK SMILES IDX 8 14 11 15 9 16 10 17 14 18 15 19 16 20 17 21 18 22 19 23
REMARK SMILES IDX 23 24 24 25 25 26 26 27 27 28 28 29 29 31 30 32 31 33 92 34
REMARK SMILES IDX 32 35 91 36 33 37 34 38 35 39 85 40 36 41 90 42 84 43 86 44
REMARK SMILES IDX 37 45 89 46 83 47 82 48 38 50 70 51 50 52 69 53 51 54 54 55
REMARK SMILES IDX 68 56 87 57 52 58 53 59 67 61 88 62 55 63 39 64 40 65 48 66
REMARK SMILES IDX 41 67 43 68 49 69 42 70 44 71 45 72 46 73 47 74 71 75 72 76
REMARK SMILES IDX 80 77 73 78 75 79 81 80 74 81 76 82 77 83 78 84 79 85 56 86
REMARK SMILES IDX 57 87 65 88 58 89 60 90 66 91 59 92 61 93 62 94 63 95 64 96
REMARK H PARENT 20 6 27 30 86 49 54 60
REMARK Flexibility Score: inf
ROOT
ATOM      1  C   UNL     1       2.432   3.568   0.953  1.00  0.00     0.021 C 
ENDROOT
BRANCH   1   2
ATOM      2  C   UNL     1       1.699   2.370   0.332  1.00  0.00     0.116 C 
BRANCH   2   3
ATOM      3  N   UNL     1       2.231   1.038   0.627  1.00  0.00    -0.355 N 
ATOM      4  O   UNL     1       0.461  -0.023  -0.371  1.00  0.00    -0.274 OA
ATOM      5  C   UNL     1       1.538  -0.102   0.219  1.00  0.00     0.230 C 
ATOM      6  H   UNL     1       3.081   0.947   1.116  1.00  0.00     0.163 HD
BRANCH   5   7
ATOM      7  C   UNL     1       2.177  -1.455   0.512  1.00  0.00     0.178 C 
BRANCH   7   8
ATOM      8  S   UNL     1       3.229  -2.101  -0.816  1.00  0.00    -0.078 SA
BRANCH   8   9
ATOM      9  C   UNL     1       2.239  -2.356  -2.211  1.00  0.00     0.169 A 
ATOM     10  N   UNL     1       1.869  -3.569  -2.572  1.00  0.00    -0.221 NA
ATOM     11  N   UNL     1       2.050  -1.451  -3.236  1.00  0.00    -0.318 N 
ATOM     12  C   UNL     1       1.350  -3.448  -3.839  1.00  0.00     0.108 A 
ATOM     13  C   UNL     1       1.305  -2.112  -4.216  1.00  0.00     0.072 A 
ATOM     14  C   UNL     1       0.925  -4.415  -4.758  1.00  0.00     0.141 A 
ATOM     15  C   UNL     1       0.738  -1.701  -5.427  1.00  0.00     0.049 A 
ATOM     16  N   UNL     1       0.404  -4.046  -5.962  1.00  0.00    -0.262 NA
ATOM     17  C   UNL     1       0.302  -2.729  -6.250  1.00  0.00     0.113 A 
BRANCH  11  18
ATOM     18  C   UNL     1       2.813  -0.269  -3.610  1.00  0.00     0.134 C 
BRANCH  18  19
ATOM     19  C   UNL     1       3.146   0.833  -2.625  1.00  0.00     0.137 C 
BRANCH  19  20
ATOM     20  C   UNL     1       4.526   0.749  -2.002  1.00  0.00     0.390 C 
ATOM     21  F   UNL     1       5.372  -0.013  -2.720  1.00  0.00    -0.171 F 
ATOM     22  F   UNL     1       5.080   1.977  -1.916  1.00  0.00    -0.171 F 
ATOM     23  F   UNL     1       4.503   0.284  -0.736  1.00  0.00    -0.171 F 
ENDBRANCH  19  20
ENDBRANCH  18  19
ENDBRANCH  11  18
ENDBRANCH   8   9
ENDBRANCH   7   8
ENDBRANCH   5   7
ENDBRANCH   2   3
ENDBRANCH   1   2
BRANCH   1  24
ATOM     24  C   UNL     1       3.858   3.856   0.467  1.00  0.00     0.002 C 
BRANCH  24  25
ATOM     25  C   UNL     1       4.025   4.357  -0.975  1.00  0.00     0.002 C 
BRANCH  25  26
ATOM     26  C   UNL     1       3.461   5.728  -1.369  1.00  0.00     0.021 C 
BRANCH  26  27
ATOM     27  C   UNL     1       3.798   6.899  -0.448  1.00  0.00     0.116 C 
BRANCH  27  28
ATOM     28  N   UNL     1       5.219   7.082  -0.235  1.00  0.00    -0.352 N 
ATOM     29  C   UNL     1       6.158   7.971  -0.684  1.00  0.00     0.251 C 
ATOM     30  H   UNL     1       5.598   6.410   0.376  1.00  0.00     0.163 HD
ATOM     31  O   UNL     1       7.226   7.968  -0.066  1.00  0.00    -0.269 OA
BRANCH  29  32
ATOM     32  C   UNL     1       6.016   8.866  -1.866  1.00  0.00     0.039 A 
ATOM     33  C   UNL     1       4.959   8.840  -2.774  1.00  0.00     0.014 A 
ATOM     34  C   UNL     1       7.115   9.708  -2.139  1.00  0.00     0.014 A 
ATOM     35  C   UNL     1       5.041   9.559  -3.965  1.00  0.00     0.010 A 
ATOM     36  C   UNL     1       7.198  10.431  -3.325  1.00  0.00     0.010 A 
ATOM     37  C   UNL     1       6.186  10.305  -4.269  1.00  0.00    -0.014 A 
BRANCH  37  38
ATOM     38  C   UNL     1       6.267  10.919  -5.593  1.00  0.00     0.031 A 
ATOM     39  C   UNL     1       5.156  11.845  -5.950  1.00  0.00     0.074 A 
ATOM     40  C   UNL     1       7.276  10.705  -6.463  1.00  0.00     0.049 A 
ATOM     41  N   UNL     1       4.209  11.654  -6.813  1.00  0.00    -0.248 NA
ATOM     42  C   UNL     1       5.027  13.087  -5.177  1.00  0.00     0.031 C 
ATOM     43  C   UNL     1       8.565  10.045  -6.234  1.00  0.00     0.029 A 
ATOM     44  N   UNL     1       7.383  11.141  -7.751  1.00  0.00    -0.354 N 
ATOM     45  C   UNL     1       3.476  12.838  -6.839  1.00  0.00     0.074 A 
ATOM     46  C   UNL     1       3.939  13.631  -5.726  1.00  0.00     0.031 C 
ATOM     47  C   UNL     1       9.404  10.337  -7.255  1.00  0.00     0.029 A 
ATOM     48  C   UNL     1       8.668  11.061  -8.274  1.00  0.00     0.049 A 
ATOM     49  H   UNL     1       6.616  11.482  -8.265  1.00  0.00     0.167 HD
ATOM     50  C   UNL     1       2.670  13.184  -7.880  1.00  0.00     0.034 A 
ATOM     51  C   UNL     1       9.090  11.615  -9.436  1.00  0.00     0.034 A 
ATOM     52  C   UNL     1       2.390  12.087  -8.761  1.00  0.00     0.049 A 
ATOM     53  C   UNL     1       7.891  11.786 -10.289  1.00  0.00     0.074 A 
ATOM     54  C   UNL     1       1.770  10.861  -8.638  1.00  0.00     0.029 A 
ATOM     55  N   UNL     1       3.098  12.030  -9.936  1.00  0.00    -0.354 N 
ATOM     56  N   UNL     1       7.191  10.794 -10.764  1.00  0.00    -0.248 NA
ATOM     57  C   UNL     1       7.235  13.082 -10.305  1.00  0.00     0.031 C 
ATOM     58  C   UNL     1       2.528   9.983  -9.468  1.00  0.00     0.029 A 
ATOM     59  C   UNL     1       3.537  10.740 -10.067  1.00  0.00     0.049 A 
ATOM     60  H   UNL     1       3.257  12.773 -10.562  1.00  0.00     0.167 HD
ATOM     61  C   UNL     1       5.880  11.247 -10.735  1.00  0.00     0.074 A 
ATOM     62  C   UNL     1       5.982  12.691 -10.547  1.00  0.00     0.031 C 
ATOM     63  C   UNL     1       4.836  10.380 -10.588  1.00  0.00     0.034 A 
BRANCH  50  64
ATOM     64  C   UNL     1       2.387  14.604  -8.283  1.00  0.00     0.023 A 
ATOM     65  C   UNL     1       1.262  14.872  -9.090  1.00  0.00     0.012 A 
ATOM     66  C   UNL     1       3.330  15.642  -8.114  1.00  0.00     0.148 A 
ATOM     67  C   UNL     1       1.085  16.119  -9.700  1.00  0.00     0.002 A 
ATOM     68  C   UNL     1       3.115  16.899  -8.665  1.00  0.00     0.091 A 
ATOM     69  F   UNL     1       4.503  15.375  -7.527  1.00  0.00    -0.205 F 
ATOM     70  C   UNL     1       2.004  17.138  -9.476  1.00  0.00     0.022 A 
BRANCH  68  71
ATOM     71  S   UNL     1       4.260  18.250  -8.370  1.00  0.00     0.127 S 
ATOM     72  O   UNL     1       4.982  18.299  -9.644  1.00  0.00    -0.237 OA
ATOM     73  O   UNL     1       3.344  19.373  -8.139  1.00  0.00    -0.237 OA
ATOM     74  O   UNL     1       5.025  17.856  -7.206  1.00  0.00    -0.744 OA
ENDBRANCH  68  71
ENDBRANCH  50  64
BRANCH  51  75
ATOM     75  C   UNL     1      10.372  12.297  -9.745  1.00  0.00     0.023 A 
ATOM     76  C   UNL     1      10.678  12.604 -11.088  1.00  0.00     0.012 A 
ATOM     77  C   UNL     1      11.135  12.921  -8.733  1.00  0.00     0.148 A 
ATOM     78  C   UNL     1      11.661  13.548 -11.410  1.00  0.00     0.002 A 
ATOM     79  C   UNL     1      12.119  13.851  -9.058  1.00  0.00     0.091 A 
ATOM     80  F   UNL     1      10.832  12.681  -7.451  1.00  0.00    -0.205 F 
ATOM     81  C   UNL     1      12.372  14.181 -10.395  1.00  0.00     0.022 A 
BRANCH  79  82
ATOM     82  S   UNL     1      13.070  14.713  -7.798  1.00  0.00     0.127 S 
ATOM     83  O   UNL     1      14.430  14.633  -8.335  1.00  0.00    -0.237 OA
ATOM     84  O   UNL     1      12.479  16.047  -7.830  1.00  0.00    -0.237 OA
ATOM     85  O   UNL     1      12.871  13.957  -6.567  1.00  0.00    -0.744 OA
ENDBRANCH  79  82
ENDBRANCH  51  75
BRANCH  63  86
ATOM     86  C   UNL     1       5.124   8.904 -10.685  1.00  0.00     0.023 A 
ATOM     87  C   UNL     1       5.874   8.231  -9.696  1.00  0.00     0.012 A 
ATOM     88  C   UNL     1       4.466   8.153 -11.672  1.00  0.00     0.148 A 
ATOM     89  C   UNL     1       5.973   6.837  -9.699  1.00  0.00     0.002 A 
ATOM     90  C   UNL     1       4.537   6.765 -11.650  1.00  0.00     0.091 A 
ATOM     91  F   UNL     1       3.741   8.812 -12.588  1.00  0.00    -0.205 F 
ATOM     92  C   UNL     1       5.295   6.104 -10.668  1.00  0.00     0.022 A 
BRANCH  90  93
ATOM     93  S   UNL     1       3.601   5.745 -12.791  1.00  0.00     0.127 S 
ATOM     94  O   UNL     1       4.660   5.099 -13.565  1.00  0.00    -0.237 OA
ATOM     95  O   UNL     1       2.877   4.853 -11.883  1.00  0.00    -0.237 OA
ATOM     96  O   UNL     1       2.748   6.654 -13.545  1.00  0.00    -0.744 OA
ENDBRANCH  90  93
ENDBRANCH  63  86
ENDBRANCH  37  38
ENDBRANCH  29  32
ENDBRANCH  27  28
ENDBRANCH  26  27
ENDBRANCH  25  26
ENDBRANCH  24  25
ENDBRANCH   1  24
TORSDOF 21
