REMARK SMILES Cc1ccc(-c2cc([C@@H](C)C(=O)NCCCCCCNC(=O)c3ccc(-c4c5nc(c(-c6cccc(S(=O)(=O)[O-])c6F)c6ccc([nH]6)c(-c6cccc(S(=O)(=O)[O-])c6F)c6nc(c(-c7cccc(S(=O)(=O)[O-])c7F)c7ccc4[nH]7)C=C6)C=C5)cc3)ccc2C[C@H]2CCCC2=O)cc1
REMARK SMILES IDX 16 1 15 2 14 3 13 4 11 5 12 6 9 8 10 9 8 10 6 11 7 12 88 13
REMARK SMILES IDX 87 14 86 15 5 16 1 17 2 18 3 19 97 20 4 21 96 22 89 23 90 24
REMARK SMILES IDX 91 25 94 26 92 27 93 28 95 29 17 30 18 31 19 32 20 33 21 34
REMARK SMILES IDX 22 36 23 37 24 38 85 39 25 40 84 41 26 42 27 43 28 44 78 45
REMARK SMILES IDX 29 46 83 47 77 48 79 49 30 50 82 51 76 52 75 53 31 55 63 56
REMARK SMILES IDX 43 57 62 58 44 59 47 60 61 61 80 62 45 63 46 64 60 66 81 67
REMARK SMILES IDX 48 68 32 69 33 70 41 71 34 72 36 73 42 74 35 75 37 76 38 77
REMARK SMILES IDX 39 78 40 79 64 80 65 81 73 82 66 83 68 84 74 85 67 86 69 87
REMARK SMILES IDX 70 88 71 89 72 90 49 91 50 92 58 93 51 94 53 95 59 96 52 97
REMARK SMILES IDX 54 98 55 99 56 100 57 101
REMARK H PARENT 13 7 20 35 79 54 47 65
REMARK Flexibility Score: inf
ROOT
ATOM      1  C   UNL     1      -9.436   2.053   1.606  1.00  0.00     0.002 C 
ENDROOT
BRANCH   1   2
ATOM      2  C   UNL     1      -8.466   1.180   0.801  1.00  0.00     0.021 C 
BRANCH   2   3
ATOM      3  C   UNL     1      -8.631   1.278  -0.717  1.00  0.00     0.116 C 
BRANCH   3   4
ATOM      4  N   UNL     1      -7.834   2.343  -1.285  1.00  0.00    -0.356 N 
ATOM      5  C   UNL     1      -6.661   2.322  -1.973  1.00  0.00     0.227 C 
ATOM      6  O   UNL     1      -6.185   3.423  -2.279  1.00  0.00    -0.274 OA
ATOM      7  H   UNL     1      -8.207   3.243  -1.149  1.00  0.00     0.163 HD
BRANCH   5   8
ATOM      8  C   UNL     1      -5.944   1.033  -2.407  1.00  0.00     0.105 C 
ATOM      9  C   UNL     1      -6.768   0.150  -3.345  1.00  0.00     0.023 C 
BRANCH   8  10
ATOM     10  C   UNL     1      -5.227   0.310  -1.278  1.00  0.00    -0.035 A 
ATOM     11  C   UNL     1      -3.151  -0.041   0.017  1.00  0.00    -0.015 A 
ATOM     12  C   UNL     1      -3.865   0.572  -1.038  1.00  0.00     0.013 A 
ATOM     13  C   UNL     1      -3.869  -0.832   0.940  1.00  0.00    -0.039 A 
ATOM     14  C   UNL     1      -5.198  -1.166   0.645  1.00  0.00     0.004 A 
ATOM     15  C   UNL     1      -5.851  -0.634  -0.464  1.00  0.00     0.005 A 
BRANCH  11  16
ATOM     16  C   UNL     1      -1.679   0.049   0.025  1.00  0.00    -0.018 A 
ATOM     17  C   UNL     1       2.651   0.132  -0.025  1.00  0.00     0.044 C 
ATOM     18  C   UNL     1       1.152   0.120  -0.032  1.00  0.00    -0.051 A 
ATOM     19  C   UNL     1       0.476  -1.097  -0.126  1.00  0.00     0.004 A 
ATOM     20  C   UNL     1       0.409   1.302   0.076  1.00  0.00     0.004 A 
ATOM     21  C   UNL     1      -0.918  -1.128  -0.111  1.00  0.00     0.009 A 
ATOM     22  C   UNL     1      -0.993   1.267   0.102  1.00  0.00     0.009 A 
ENDBRANCH  11  16
BRANCH  13  23
ATOM     23  C   UNL     1      -3.285  -1.339   2.248  1.00  0.00     0.047 C 
BRANCH  23  24
ATOM     24  C   UNL     1      -3.715  -0.587   3.519  1.00  0.00     0.060 C 
ATOM     25  C   UNL     1      -3.402   0.915   3.554  1.00  0.00     0.012 C 
ATOM     26  C   UNL     1      -5.209  -0.612   3.774  1.00  0.00     0.136 C 
ATOM     27  C   UNL     1      -4.723   1.630   3.292  1.00  0.00     0.009 C 
ATOM     28  C   UNL     1      -5.776   0.767   3.968  1.00  0.00     0.076 C 
ATOM     29  O   UNL     1      -5.884  -1.634   3.823  1.00  0.00    -0.299 OA
ENDBRANCH  23  24
ENDBRANCH  13  23
ENDBRANCH   8  10
ENDBRANCH   5   8
ENDBRANCH   3   4
ENDBRANCH   2   3
ENDBRANCH   1   2
BRANCH   1  30
ATOM     30  C   UNL     1     -10.932   1.864   1.303  1.00  0.00     0.002 C 
BRANCH  30  31
ATOM     31  C   UNL     1     -11.403   0.419   1.131  1.00  0.00     0.021 C 
BRANCH  31  32
ATOM     32  C   UNL     1     -11.394  -0.391   2.419  1.00  0.00     0.116 C 
BRANCH  32  33
ATOM     33  N   UNL     1     -12.715  -0.479   3.019  1.00  0.00    -0.352 N 
ATOM     34  C   UNL     1     -13.155  -1.274   4.057  1.00  0.00     0.251 C 
ATOM     35  H   UNL     1     -13.395   0.116   2.628  1.00  0.00     0.163 HD
ATOM     36  O   UNL     1     -14.363  -1.462   4.194  1.00  0.00    -0.269 OA
BRANCH  34  37
ATOM     37  C   UNL     1     -12.189  -1.730   5.082  1.00  0.00     0.039 A 
ATOM     38  C   UNL     1     -12.510  -1.444   6.416  1.00  0.00     0.014 A 
ATOM     39  C   UNL     1     -10.903  -2.137   4.739  1.00  0.00     0.014 A 
ATOM     40  C   UNL     1     -11.494  -1.304   7.355  1.00  0.00     0.010 A 
ATOM     41  C   UNL     1      -9.886  -1.924   5.641  1.00  0.00     0.010 A 
ATOM     42  C   UNL     1     -10.181  -1.435   6.920  1.00  0.00    -0.014 A 
BRANCH  42  43
ATOM     43  C   UNL     1      -9.017  -1.065   7.701  1.00  0.00     0.031 A 
ATOM     44  C   UNL     1      -8.302  -2.096   8.470  1.00  0.00     0.074 A 
ATOM     45  C   UNL     1      -8.484   0.159   7.497  1.00  0.00     0.049 A 
ATOM     46  N   UNL     1      -7.394  -1.853   9.350  1.00  0.00    -0.248 NA
ATOM     47  C   UNL     1      -8.614  -3.511   8.326  1.00  0.00     0.031 C 
ATOM     48  C   UNL     1      -7.110   0.568   7.747  1.00  0.00     0.029 A 
ATOM     49  N   UNL     1      -9.153   1.350   7.189  1.00  0.00    -0.354 N 
ATOM     50  C   UNL     1      -6.810  -3.060   9.681  1.00  0.00     0.074 A 
ATOM     51  C   UNL     1      -7.671  -4.059   9.095  1.00  0.00     0.031 C 
ATOM     52  C   UNL     1      -7.071   1.905   7.837  1.00  0.00     0.029 A 
ATOM     53  C   UNL     1      -8.447   2.374   7.843  1.00  0.00     0.049 A 
ATOM     54  H   UNL     1      -9.955   1.450   6.628  1.00  0.00     0.167 HD
ATOM     55  C   UNL     1      -5.587  -3.055  10.284  1.00  0.00     0.034 A 
ATOM     56  C   UNL     1      -8.992   3.195   8.788  1.00  0.00     0.034 A 
ATOM     57  C   UNL     1      -5.173  -1.676  10.596  1.00  0.00     0.049 A 
ATOM     58  C   UNL     1      -8.282   3.111  10.128  1.00  0.00     0.074 A 
ATOM     59  C   UNL     1      -4.365  -0.765   9.935  1.00  0.00     0.029 A 
ATOM     60  N   UNL     1      -5.851  -0.961  11.575  1.00  0.00    -0.354 N 
ATOM     61  N   UNL     1      -7.329   2.261  10.399  1.00  0.00    -0.248 NA
ATOM     62  C   UNL     1      -8.613   3.946  11.282  1.00  0.00     0.031 C 
ATOM     63  C   UNL     1      -4.648   0.528  10.455  1.00  0.00     0.029 A 
ATOM     64  C   UNL     1      -5.596   0.398  11.456  1.00  0.00     0.049 A 
ATOM     65  H   UNL     1      -6.433  -1.363  12.260  1.00  0.00     0.167 HD
ATOM     66  C   UNL     1      -7.040   2.299  11.736  1.00  0.00     0.074 A 
ATOM     67  C   UNL     1      -7.802   3.435  12.226  1.00  0.00     0.031 C 
ATOM     68  C   UNL     1      -6.264   1.348  12.341  1.00  0.00     0.034 A 
BRANCH  55  69
ATOM     69  C   UNL     1      -4.613  -4.229  10.324  1.00  0.00     0.023 A 
ATOM     70  C   UNL     1      -3.255  -3.928  10.582  1.00  0.00     0.012 A 
ATOM     71  C   UNL     1      -4.892  -5.589  10.052  1.00  0.00     0.148 A 
ATOM     72  C   UNL     1      -2.233  -4.879  10.469  1.00  0.00     0.002 A 
ATOM     73  C   UNL     1      -3.870  -6.529   9.879  1.00  0.00     0.091 A 
ATOM     74  F   UNL     1      -6.151  -6.024  10.041  1.00  0.00    -0.205 F 
ATOM     75  C   UNL     1      -2.536  -6.174  10.081  1.00  0.00     0.022 A 
BRANCH  73  76
ATOM     76  S   UNL     1      -4.188  -8.219   9.331  1.00  0.00     0.127 S 
ATOM     77  O   UNL     1      -3.316  -8.331   8.160  1.00  0.00    -0.237 OA
ATOM     78  O   UNL     1      -3.760  -9.008  10.484  1.00  0.00    -0.237 OA
ATOM     79  O   UNL     1      -5.612  -8.289   9.023  1.00  0.00    -0.744 OA
ENDBRANCH  73  76
ENDBRANCH  55  69
BRANCH  56  80
ATOM     80  C   UNL     1     -10.444   3.463   8.591  1.00  0.00     0.023 A 
ATOM     81  C   UNL     1     -10.802   4.238   7.463  1.00  0.00     0.012 A 
ATOM     82  C   UNL     1     -11.426   2.671   9.212  1.00  0.00     0.148 A 
ATOM     83  C   UNL     1     -12.072   4.135   6.894  1.00  0.00     0.002 A 
ATOM     84  C   UNL     1     -12.686   2.558   8.627  1.00  0.00     0.091 A 
ATOM     85  F   UNL     1     -11.086   1.972  10.302  1.00  0.00    -0.205 F 
ATOM     86  C   UNL     1     -13.001   3.266   7.455  1.00  0.00     0.022 A 
BRANCH  84  87
ATOM     87  S   UNL     1     -13.911   1.382   9.220  1.00  0.00     0.127 S 
ATOM     88  O   UNL     1     -14.831   2.256   9.941  1.00  0.00    -0.237 OA
ATOM     89  O   UNL     1     -14.436   0.831   7.971  1.00  0.00    -0.237 OA
ATOM     90  O   UNL     1     -13.163   0.429  10.026  1.00  0.00    -0.744 OA
ENDBRANCH  84  87
ENDBRANCH  56  80
BRANCH  68  91
ATOM     91  C   UNL     1      -6.096   1.193  13.837  1.00  0.00     0.023 A 
ATOM     92  C   UNL     1      -7.099   1.577  14.748  1.00  0.00     0.012 A 
ATOM     93  C   UNL     1      -4.986   0.486  14.363  1.00  0.00     0.148 A 
ATOM     94  C   UNL     1      -6.985   1.320  16.119  1.00  0.00     0.002 A 
ATOM     95  C   UNL     1      -4.931   0.136  15.710  1.00  0.00     0.091 A 
ATOM     96  F   UNL     1      -3.965   0.154  13.558  1.00  0.00    -0.205 F 
ATOM     97  C   UNL     1      -5.915   0.577  16.597  1.00  0.00     0.022 A 
BRANCH  95  98
ATOM     98  S   UNL     1      -3.691  -1.025  16.299  1.00  0.00     0.127 S 
ATOM     99  O   UNL     1      -2.579  -0.141  16.640  1.00  0.00    -0.237 OA
ATOM    100  O   UNL     1      -4.350  -1.642  17.451  1.00  0.00    -0.237 OA
ATOM    101  O   UNL     1      -3.476  -1.933  15.180  1.00  0.00    -0.744 OA
ENDBRANCH  95  98
ENDBRANCH  68  91
ENDBRANCH  42  43
ENDBRANCH  34  37
ENDBRANCH  32  33
ENDBRANCH  31  32
ENDBRANCH  30  31
ENDBRANCH   1  30
TORSDOF 20
