REMARK SMILES CCc1cc(/C=C/C(=O)NCCCCCCNC(=O)c2ccc(-c3c4nc(c(-c5cccc(S(=O)(=O)[O-])c5F)c5ccc([nH]5)c(-c5cccc(S(=O)(=O)[O-])c5F)c5nc(c(-c6cccc(S(=O)(=O)[O-])c6F)c6ccc3[nH]6)C=C5)C=C4)cc2)cc(C(=O)c2ccccc2)c1
REMARK SMILES IDX 13 1 12 2 11 3 10 4 8 5 9 6 7 8 6 9 5 10 3 11 4 12 93 13
REMARK SMILES IDX 84 14 83 15 2 16 1 17 85 18 86 19 87 20 88 21 92 22 89 23
REMARK SMILES IDX 91 24 90 25 14 26 15 27 16 28 17 29 18 30 19 32 20 33 21 34
REMARK SMILES IDX 82 35 22 36 81 37 23 38 24 39 25 40 75 41 26 42 80 43 74 44
REMARK SMILES IDX 76 45 27 46 79 47 73 48 72 49 28 51 60 52 40 53 59 54 41 55
REMARK SMILES IDX 44 56 58 57 77 58 42 59 43 60 57 62 78 63 45 64 29 65 30 66
REMARK SMILES IDX 38 67 31 68 33 69 39 70 32 71 34 72 35 73 36 74 37 75 61 76
REMARK SMILES IDX 62 77 70 78 63 79 65 80 71 81 64 82 66 83 67 84 68 85 69 86
REMARK SMILES IDX 46 87 47 88 55 89 48 90 50 91 56 92 49 93 51 94 52 95 53 96
REMARK SMILES IDX 54 97
REMARK H PARENT 10 7 17 31 76 50 44 61
REMARK Flexibility Score: inf
ROOT
ATOM      1  C   UNL     1       0.420  -2.161  10.911  1.00  0.00     0.002 C 
ENDROOT
BRANCH   1   2
ATOM      2  C   UNL     1       0.583  -1.537   9.517  1.00  0.00     0.021 C 
BRANCH   2   3
ATOM      3  C   UNL     1       1.871  -1.962   8.808  1.00  0.00     0.116 C 
BRANCH   3   4
ATOM      4  N   UNL     1       1.714  -3.285   8.230  1.00  0.00    -0.353 N 
ATOM      5  C   UNL     1       1.611  -3.709   6.947  1.00  0.00     0.243 C 
ATOM      6  O   UNL     1       1.528  -4.918   6.726  1.00  0.00    -0.270 OA
ATOM      7  H   UNL     1       1.674  -4.010   8.895  1.00  0.00     0.163 HD
BRANCH   5   8
ATOM      8  C   UNL     1       1.669  -2.785   5.788  1.00  0.00     0.072 C 
ATOM      9  C   UNL     1       1.167  -1.544   5.726  1.00  0.00     0.014 C 
BRANCH   9  10
ATOM     10  C   UNL     1       1.198  -0.675   4.540  1.00  0.00    -0.024 A 
ATOM     11  C   UNL     1       0.952  -0.308   2.131  1.00  0.00    -0.047 A 
ATOM     12  C   UNL     1       1.042  -1.170   3.237  1.00  0.00     0.011 A 
ATOM     13  C   UNL     1       1.009   1.074   2.353  1.00  0.00     0.016 A 
ATOM     14  C   UNL     1       1.142   1.590   3.650  1.00  0.00     0.023 A 
ATOM     15  C   UNL     1       1.257   0.710   4.733  1.00  0.00     0.020 A 
BRANCH  11  16
ATOM     16  C   UNL     1       0.668  -0.895   0.766  1.00  0.00     0.032 C 
ATOM     17  C   UNL     1       1.194  -0.108  -0.428  1.00  0.00     0.009 C 
ENDBRANCH  11  16
BRANCH  14  18
ATOM     18  C   UNL     1       1.150   3.055   3.929  1.00  0.00     0.193 C 
ATOM     19  O   UNL     1       1.491   3.473   5.030  1.00  0.00    -0.289 OA
BRANCH  18  20
ATOM     20  C   UNL     1       0.767   4.029   2.886  1.00  0.00     0.022 A 
ATOM     21  C   UNL     1       1.682   5.022   2.531  1.00  0.00     0.012 A 
ATOM     22  C   UNL     1      -0.477   3.947   2.249  1.00  0.00     0.012 A 
ATOM     23  C   UNL     1       1.376   5.899   1.491  1.00  0.00     0.001 A 
ATOM     24  C   UNL     1      -0.776   4.826   1.208  1.00  0.00     0.001 A 
ATOM     25  C   UNL     1       0.155   5.792   0.823  1.00  0.00     0.000 A 
ENDBRANCH  18  20
ENDBRANCH  14  18
ENDBRANCH   9  10
ENDBRANCH   5   8
ENDBRANCH   3   4
ENDBRANCH   2   3
ENDBRANCH   1   2
BRANCH   1  26
ATOM     26  C   UNL     1       1.538  -1.818  11.904  1.00  0.00     0.002 C 
BRANCH  26  27
ATOM     27  C   UNL     1       1.804  -0.321  12.081  1.00  0.00     0.021 C 
BRANCH  27  28
ATOM     28  C   UNL     1       0.614   0.465  12.622  1.00  0.00     0.116 C 
BRANCH  28  29
ATOM     29  N   UNL     1       0.242   0.013  13.955  1.00  0.00    -0.352 N 
ATOM     30  C   UNL     1       0.191   0.724  15.128  1.00  0.00     0.251 C 
ATOM     31  H   UNL     1      -0.007  -0.937  14.026  1.00  0.00     0.163 HD
ATOM     32  O   UNL     1       0.112   0.135  16.201  1.00  0.00    -0.269 OA
BRANCH  30  33
ATOM     33  C   UNL     1       0.229   2.200  15.089  1.00  0.00     0.039 A 
ATOM     34  C   UNL     1       1.026   2.885  16.009  1.00  0.00     0.014 A 
ATOM     35  C   UNL     1      -0.538   2.905  14.158  1.00  0.00     0.014 A 
ATOM     36  C   UNL     1       1.087   4.279  15.966  1.00  0.00     0.010 A 
ATOM     37  C   UNL     1      -0.419   4.288  14.068  1.00  0.00     0.010 A 
ATOM     38  C   UNL     1       0.384   4.990  14.979  1.00  0.00    -0.014 A 
BRANCH  38  39
ATOM     39  C   UNL     1       0.470   6.469  14.884  1.00  0.00     0.031 A 
ATOM     40  C   UNL     1      -0.760   7.312  15.088  1.00  0.00     0.074 A 
ATOM     41  C   UNL     1       1.634   7.044  14.527  1.00  0.00     0.049 A 
ATOM     42  N   UNL     1      -0.898   8.608  14.983  1.00  0.00    -0.248 NA
ATOM     43  C   UNL     1      -2.006   6.604  15.430  1.00  0.00     0.031 C 
ATOM     44  C   UNL     1       2.875   6.327  14.227  1.00  0.00     0.029 A 
ATOM     45  N   UNL     1       1.957   8.363  14.326  1.00  0.00    -0.354 N 
ATOM     46  C   UNL     1      -2.245   8.866  15.206  1.00  0.00     0.074 A 
ATOM     47  C   UNL     1      -2.890   7.590  15.420  1.00  0.00     0.031 C 
ATOM     48  C   UNL     1       3.823   7.212  13.881  1.00  0.00     0.029 A 
ATOM     49  C   UNL     1       3.252   8.555  13.904  1.00  0.00     0.049 A 
ATOM     50  H   UNL     1       1.322   9.101  14.470  1.00  0.00     0.167 HD
ATOM     51  C   UNL     1      -2.883  10.060  15.256  1.00  0.00     0.034 A 
ATOM     52  C   UNL     1       3.902   9.685  13.563  1.00  0.00     0.034 A 
ATOM     53  C   UNL     1      -2.228  11.328  15.083  1.00  0.00     0.049 A 
ATOM     54  C   UNL     1       3.178  11.001  13.662  1.00  0.00     0.074 A 
ATOM     55  C   UNL     1      -2.765  12.597  15.205  1.00  0.00     0.029 A 
ATOM     56  N   UNL     1      -0.894  11.489  14.740  1.00  0.00    -0.354 N 
ATOM     57  N   UNL     1       1.944  11.238  14.034  1.00  0.00    -0.248 NA
ATOM     58  C   UNL     1       3.948  12.208  13.330  1.00  0.00     0.031 C 
ATOM     59  C   UNL     1      -1.762  13.526  14.909  1.00  0.00     0.029 A 
ATOM     60  C   UNL     1      -0.592  12.836  14.634  1.00  0.00     0.049 A 
ATOM     61  H   UNL     1      -0.256  10.754  14.594  1.00  0.00     0.167 HD
ATOM     62  C   UNL     1       1.798  12.620  14.014  1.00  0.00     0.074 A 
ATOM     63  C   UNL     1       3.079  13.168  13.617  1.00  0.00     0.031 C 
ATOM     64  C   UNL     1       0.701  13.368  14.287  1.00  0.00     0.034 A 
BRANCH  51  65
ATOM     65  C   UNL     1      -4.360  10.053  15.558  1.00  0.00     0.023 A 
ATOM     66  C   UNL     1      -4.805   9.712  16.852  1.00  0.00     0.012 A 
ATOM     67  C   UNL     1      -5.302  10.439  14.584  1.00  0.00     0.148 A 
ATOM     68  C   UNL     1      -6.164   9.718  17.162  1.00  0.00     0.002 A 
ATOM     69  C   UNL     1      -6.652  10.488  14.914  1.00  0.00     0.091 A 
ATOM     70  F   UNL     1      -4.864  10.741  13.354  1.00  0.00    -0.205 F 
ATOM     71  C   UNL     1      -7.085  10.116  16.198  1.00  0.00     0.022 A 
BRANCH  69  72
ATOM     72  S   UNL     1      -7.911  11.064  13.770  1.00  0.00     0.127 S 
ATOM     73  O   UNL     1      -8.627   9.825  13.471  1.00  0.00    -0.237 OA
ATOM     74  O   UNL     1      -8.659  12.017  14.589  1.00  0.00    -0.237 OA
ATOM     75  O   UNL     1      -7.195  11.656  12.649  1.00  0.00    -0.744 OA
ENDBRANCH  69  72
ENDBRANCH  51  65
BRANCH  52  76
ATOM     76  C   UNL     1       5.335   9.627  13.158  1.00  0.00     0.023 A 
ATOM     77  C   UNL     1       6.318  10.158  14.016  1.00  0.00     0.012 A 
ATOM     78  C   UNL     1       5.732   9.030  11.945  1.00  0.00     0.148 A 
ATOM     79  C   UNL     1       7.666  10.127  13.660  1.00  0.00     0.002 A 
ATOM     80  C   UNL     1       7.082   8.953  11.622  1.00  0.00     0.091 A 
ATOM     81  F   UNL     1       4.782   8.540  11.138  1.00  0.00    -0.205 F 
ATOM     82  C   UNL     1       8.049   9.517  12.468  1.00  0.00     0.022 A 
BRANCH  80  83
ATOM     83  S   UNL     1       7.679   8.073  10.174  1.00  0.00     0.127 S 
ATOM     84  O   UNL     1       8.147   9.169   9.329  1.00  0.00    -0.237 OA
ATOM     85  O   UNL     1       8.738   7.239  10.744  1.00  0.00    -0.237 OA
ATOM     86  O   UNL     1       6.535   7.327   9.669  1.00  0.00    -0.744 OA
ENDBRANCH  80  83
ENDBRANCH  52  76
BRANCH  64  87
ATOM     87  C   UNL     1       0.838  14.866  14.204  1.00  0.00     0.023 A 
ATOM     88  C   UNL     1       0.960  15.492  12.947  1.00  0.00     0.012 A 
ATOM     89  C   UNL     1       0.772  15.659  15.367  1.00  0.00     0.148 A 
ATOM     90  C   UNL     1       1.048  16.880  12.852  1.00  0.00     0.002 A 
ATOM     91  C   UNL     1       0.808  17.044  15.260  1.00  0.00     0.091 A 
ATOM     92  F   UNL     1       0.673  15.044  16.555  1.00  0.00    -0.205 F 
ATOM     93  C   UNL     1       0.960  17.655  14.006  1.00  0.00     0.022 A 
BRANCH  91  94
ATOM     94  S   UNL     1       0.602  18.125  16.680  1.00  0.00     0.127 S 
ATOM     95  O   UNL     1       1.953  18.659  16.846  1.00  0.00    -0.237 OA
ATOM     96  O   UNL     1      -0.381  19.093  16.192  1.00  0.00    -0.237 OA
ATOM     97  O   UNL     1       0.128  17.277  17.766  1.00  0.00    -0.744 OA
ENDBRANCH  91  94
ENDBRANCH  64  87
ENDBRANCH  38  39
ENDBRANCH  30  33
ENDBRANCH  28  29
ENDBRANCH  27  28
ENDBRANCH  26  27
ENDBRANCH   1  26
TORSDOF 20
