REMARK SMILES CCOC(=O)c1ccc(-c2ccc(C(=O)NCCCCCCNC(=O)c3ccc(-c4c5nc(c(-c6cccc(S(=O)(=O)[O-])c6F)c6ccc([nH]6)c(-c6cccc(S(=O)(=O)[O-])c6F)c6nc(c(-c7cccc(S(=O)(=O)[O-])c7F)c7ccc4[nH]7)C=C6)C=C5)cc3)o2)cc1
REMARK SMILES IDX 19 1 18 2 17 3 16 4 14 5 15 6 13 8 10 9 11 10 89 11 12 12
REMARK SMILES IDX 9 13 6 14 7 15 91 16 8 17 90 18 4 19 5 20 3 21 2 22 1 23
REMARK SMILES IDX 20 24 21 25 22 26 23 27 24 28 25 30 26 31 27 32 88 33 28 34
REMARK SMILES IDX 87 35 29 36 30 37 31 38 81 39 32 40 86 41 80 42 82 43 33 44
REMARK SMILES IDX 85 45 79 46 78 47 34 49 66 50 46 51 65 52 47 53 50 54 64 55
REMARK SMILES IDX 83 56 48 57 49 58 63 60 84 61 51 62 35 63 36 64 44 65 37 66
REMARK SMILES IDX 39 67 45 68 38 69 40 70 41 71 42 72 43 73 67 74 68 75 76 76
REMARK SMILES IDX 69 77 71 78 77 79 70 80 72 81 73 82 74 83 75 84 52 85 53 86
REMARK SMILES IDX 61 87 54 88 56 89 62 90 55 91 57 92 58 93 59 94 60 95
REMARK H PARENT 16 7 23 29 82 48 50 59
REMARK Flexibility Score: inf
ROOT
ATOM      1  C   UNL     1       7.055 -12.674  -6.256  1.00  0.00     0.002 C 
ENDROOT
BRANCH   1   2
ATOM      2  C   UNL     1       6.852 -11.164  -6.449  1.00  0.00     0.021 C 
BRANCH   2   3
ATOM      3  C   UNL     1       5.385 -10.740  -6.389  1.00  0.00     0.116 C 
BRANCH   3   4
ATOM      4  N   UNL     1       4.934 -10.657  -5.015  1.00  0.00    -0.349 N 
ATOM      5  C   UNL     1       4.642  -9.584  -4.207  1.00  0.00     0.287 C 
ATOM      6  O   UNL     1       4.247  -9.871  -3.073  1.00  0.00    -0.266 OA
ATOM      7  H   UNL     1       4.816 -11.531  -4.578  1.00  0.00     0.163 HD
BRANCH   5   8
ATOM      8  C   UNL     1       4.764  -8.214  -4.673  1.00  0.00     0.192 A 
ATOM      9  C   UNL     1       4.301  -6.055  -4.525  1.00  0.00     0.135 A 
ATOM     10  C   UNL     1       5.066  -6.202  -5.656  1.00  0.00     0.052 A 
ATOM     11  O   UNL     1       4.120  -7.256  -3.920  1.00  0.00    -0.451 OA
ATOM     12  C   UNL     1       5.410  -7.574  -5.719  1.00  0.00     0.057 A 
BRANCH   9  13
ATOM     13  C   UNL     1       3.718  -4.908  -3.866  1.00  0.00     0.017 A 
ATOM     14  C   UNL     1       2.772  -2.553  -2.700  1.00  0.00     0.060 A 
ATOM     15  C   UNL     1       3.816  -3.258  -2.092  1.00  0.00     0.016 A 
ATOM     16  C   UNL     1       2.179  -3.032  -3.873  1.00  0.00     0.016 A 
ATOM     17  C   UNL     1       4.274  -4.443  -2.667  1.00  0.00     0.013 A 
ATOM     18  C   UNL     1       2.661  -4.205  -4.459  1.00  0.00     0.013 A 
BRANCH  14  19
ATOM     19  C   UNL     1       2.372  -1.259  -2.117  1.00  0.00     0.338 C 
ATOM     20  O   UNL     1       3.169  -0.421  -1.732  1.00  0.00    -0.246 OA
BRANCH  19  21
ATOM     21  O   UNL     1       1.021  -1.202  -2.032  1.00  0.00    -0.462 OA
BRANCH  21  22
ATOM     22  C   UNL     1       0.496   0.004  -1.459  1.00  0.00     0.230 C 
ATOM     23  C   UNL     1       0.693   0.042   0.047  1.00  0.00     0.049 C 
ENDBRANCH  21  22
ENDBRANCH  19  21
ENDBRANCH  14  19
ENDBRANCH   9  13
ENDBRANCH   5   8
ENDBRANCH   3   4
ENDBRANCH   2   3
ENDBRANCH   1   2
BRANCH   1  24
ATOM     24  C   UNL     1       6.367 -13.561  -7.304  1.00  0.00     0.002 C 
BRANCH  24  25
ATOM     25  C   UNL     1       6.680 -13.206  -8.760  1.00  0.00     0.021 C 
BRANCH  25  26
ATOM     26  C   UNL     1       8.155 -13.322  -9.129  1.00  0.00     0.116 C 
BRANCH  26  27
ATOM     27  N   UNL     1       8.616 -14.703  -9.079  1.00  0.00    -0.352 N 
ATOM     28  C   UNL     1       9.235 -15.434 -10.063  1.00  0.00     0.251 C 
ATOM     29  H   UNL     1       8.465 -15.173  -8.228  1.00  0.00     0.163 HD
ATOM     30  O   UNL     1       9.377 -16.647  -9.944  1.00  0.00    -0.269 OA
BRANCH  28  31
ATOM     31  C   UNL     1       9.715 -14.742 -11.276  1.00  0.00     0.039 A 
ATOM     32  C   UNL     1       9.374 -15.244 -12.535  1.00  0.00     0.014 A 
ATOM     33  C   UNL     1      10.477 -13.577 -11.158  1.00  0.00     0.014 A 
ATOM     34  C   UNL     1       9.745 -14.537 -13.682  1.00  0.00     0.010 A 
ATOM     35  C   UNL     1      10.786 -12.842 -12.296  1.00  0.00     0.010 A 
ATOM     36  C   UNL     1      10.425 -13.314 -13.568  1.00  0.00    -0.014 A 
BRANCH  36  37
ATOM     37  C   UNL     1      10.778 -12.492 -14.753  1.00  0.00     0.031 A 
ATOM     38  C   UNL     1      12.225 -12.216 -15.057  1.00  0.00     0.074 A 
ATOM     39  C   UNL     1       9.806 -11.886 -15.463  1.00  0.00     0.049 A 
ATOM     40  N   UNL     1      12.742 -11.384 -15.921  1.00  0.00    -0.248 NA
ATOM     41  C   UNL     1      13.220 -12.951 -14.258  1.00  0.00     0.031 C 
ATOM     42  C   UNL     1       8.368 -12.030 -15.226  1.00  0.00     0.029 A 
ATOM     43  N   UNL     1       9.882 -10.989 -16.500  1.00  0.00    -0.354 N 
ATOM     44  C   UNL     1      14.118 -11.454 -15.735  1.00  0.00     0.074 A 
ATOM     45  C   UNL     1      14.354 -12.396 -14.662  1.00  0.00     0.031 C 
ATOM     46  C   UNL     1       7.700 -11.239 -16.080  1.00  0.00     0.029 A 
ATOM     47  C   UNL     1       8.658 -10.502 -16.898  1.00  0.00     0.049 A 
ATOM     48  H   UNL     1      10.732 -10.720 -16.919  1.00  0.00     0.167 HD
ATOM     49  C   UNL     1      15.097 -10.809 -16.412  1.00  0.00     0.034 A 
ATOM     50  C   UNL     1       8.345  -9.551 -17.801  1.00  0.00     0.034 A 
ATOM     51  C   UNL     1      14.856  -9.916 -17.511  1.00  0.00     0.049 A 
ATOM     52  C   UNL     1       9.453  -8.877 -18.566  1.00  0.00     0.074 A 
ATOM     53  C   UNL     1      15.782  -9.280 -18.318  1.00  0.00     0.029 A 
ATOM     54  N   UNL     1      13.602  -9.533 -17.958  1.00  0.00    -0.354 N 
ATOM     55  N   UNL     1      10.748  -9.056 -18.469  1.00  0.00    -0.248 NA
ATOM     56  C   UNL     1       9.059  -7.892 -19.585  1.00  0.00     0.031 C 
ATOM     57  C   UNL     1      15.085  -8.496 -19.243  1.00  0.00     0.029 A 
ATOM     58  C   UNL     1      13.727  -8.666 -19.028  1.00  0.00     0.049 A 
ATOM     59  H   UNL     1      12.748  -9.834 -17.571  1.00  0.00     0.167 HD
ATOM     60  C   UNL     1      11.319  -8.247 -19.444  1.00  0.00     0.074 A 
ATOM     61  C   UNL     1      10.230  -7.577 -20.124  1.00  0.00     0.031 C 
ATOM     62  C   UNL     1      12.629  -8.068 -19.742  1.00  0.00     0.034 A 
BRANCH  49  63
ATOM     63  C   UNL     1      16.523 -11.084 -16.015  1.00  0.00     0.023 A 
ATOM     64  C   UNL     1      17.102 -12.332 -16.321  1.00  0.00     0.012 A 
ATOM     65  C   UNL     1      17.308 -10.090 -15.399  1.00  0.00     0.148 A 
ATOM     66  C   UNL     1      18.429 -12.601 -15.988  1.00  0.00     0.002 A 
ATOM     67  C   UNL     1      18.643 -10.349 -15.111  1.00  0.00     0.091 A 
ATOM     68  F   UNL     1      16.734  -8.917 -15.096  1.00  0.00    -0.205 F 
ATOM     69  C   UNL     1      19.201 -11.607 -15.394  1.00  0.00     0.022 A 
BRANCH  67  70
ATOM     70  S   UNL     1      19.742  -9.107 -14.420  1.00  0.00     0.127 S 
ATOM     71  O   UNL     1      19.913  -9.594 -13.052  1.00  0.00    -0.237 OA
ATOM     72  O   UNL     1      20.928  -9.239 -15.267  1.00  0.00    -0.237 OA
ATOM     73  O   UNL     1      19.042  -7.837 -14.550  1.00  0.00    -0.744 OA
ENDBRANCH  67  70
ENDBRANCH  49  63
BRANCH  50  74
ATOM     74  C   UNL     1       6.917  -9.225 -18.073  1.00  0.00     0.023 A 
ATOM     75  C   UNL     1       6.345  -9.610 -19.301  1.00  0.00     0.012 A 
ATOM     76  C   UNL     1       6.115  -8.571 -17.117  1.00  0.00     0.148 A 
ATOM     77  C   UNL     1       5.009  -9.322 -19.586  1.00  0.00     0.002 A 
ATOM     78  C   UNL     1       4.771  -8.336 -17.385  1.00  0.00     0.091 A 
ATOM     79  F   UNL     1       6.679  -8.203 -15.958  1.00  0.00    -0.205 F 
ATOM     80  C   UNL     1       4.220  -8.695 -18.625  1.00  0.00     0.022 A 
BRANCH  78  81
ATOM     81  S   UNL     1       3.649  -7.654 -16.158  1.00  0.00     0.127 S 
ATOM     82  O   UNL     1       3.407  -6.314 -16.685  1.00  0.00    -0.237 OA
ATOM     83  O   UNL     1       2.510  -8.568 -16.248  1.00  0.00    -0.237 OA
ATOM     84  O   UNL     1       4.367  -7.718 -14.892  1.00  0.00    -0.744 OA
ENDBRANCH  78  81
ENDBRANCH  50  74
BRANCH  62  85
ATOM     85  C   UNL     1      12.979  -7.164 -20.894  1.00  0.00     0.023 A 
ATOM     86  C   UNL     1      12.901  -5.767 -20.740  1.00  0.00     0.012 A 
ATOM     87  C   UNL     1      13.508  -7.705 -22.083  1.00  0.00     0.148 A 
ATOM     88  C   UNL     1      13.335  -4.920 -21.759  1.00  0.00     0.002 A 
ATOM     89  C   UNL     1      13.981  -6.856 -23.074  1.00  0.00     0.091 A 
ATOM     90  F   UNL     1      13.556  -9.039 -22.210  1.00  0.00    -0.205 F 
ATOM     91  C   UNL     1      13.887  -5.463 -22.918  1.00  0.00     0.022 A 
BRANCH  89  92
ATOM     92  S   UNL     1      14.801  -7.460 -24.553  1.00  0.00     0.127 S 
ATOM     93  O   UNL     1      13.834  -7.112 -25.593  1.00  0.00    -0.237 OA
ATOM     94  O   UNL     1      16.029  -6.665 -24.572  1.00  0.00    -0.237 OA
ATOM     95  O   UNL     1      15.005  -8.888 -24.348  1.00  0.00    -0.744 OA
ENDBRANCH  89  92
ENDBRANCH  62  85
ENDBRANCH  36  37
ENDBRANCH  28  31
ENDBRANCH  26  27
ENDBRANCH  25  26
ENDBRANCH  24  25
ENDBRANCH   1  24
TORSDOF 20
