REMARK SMILES Cc1c(Br)c(C)c2c(c1Br)O[C@H](C(F)(F)F)C(C(=O)NCCCCCCNC(=O)c1ccc(-c3c4nc(c(-c5cccc(S(=O)(=O)[O-])c5F)c5ccc([nH]5)c(-c5cccc(S(=O)(=O)[O-])c5F)c5nc(c(-c6cccc(S(=O)(=O)[O-])c6F)c6ccc3[nH]6)C=C5)C=C4)cc1)=C2
REMARK SMILES IDX 24 1 23 2 22 3 21 4 20 5 18 6 19 7 17 9 1 10 2 11 3 12 9 13
REMARK SMILES IDX 4 14 5 15 8 16 10 17 6 18 7 19 11 20 93 21 12 22 13 23 14 24
REMARK SMILES IDX 15 25 16 26 25 27 26 28 27 29 28 30 29 32 30 33 31 34 92 35
REMARK SMILES IDX 32 36 91 37 33 38 34 39 35 40 85 41 36 42 90 43 84 44 86 45
REMARK SMILES IDX 37 46 89 47 83 48 82 49 38 51 70 52 50 53 69 54 51 55 54 56
REMARK SMILES IDX 68 57 87 58 52 59 53 60 67 62 88 63 55 64 39 65 40 66 48 67
REMARK SMILES IDX 41 68 43 69 49 70 42 71 44 72 45 73 46 74 47 75 71 76 72 77
REMARK SMILES IDX 80 78 73 79 75 80 81 81 74 82 76 83 77 84 78 85 79 86 56 87
REMARK SMILES IDX 57 88 65 89 58 90 60 91 66 92 59 93 61 94 62 95 63 96 64 97
REMARK H PARENT 20 8 27 31 86 50 54 61
REMARK Flexibility Score: inf
ROOT
ATOM      1  C   UNL     1      -3.076  -4.296  10.559  1.00  0.00     0.002 C 
ENDROOT
BRANCH   1   2
ATOM      2  C   UNL     1      -1.717  -3.588  10.483  1.00  0.00     0.002 C 
BRANCH   2   3
ATOM      3  C   UNL     1      -1.138  -3.456   9.073  1.00  0.00     0.021 C 
BRANCH   3   4
ATOM      4  C   UNL     1      -2.080  -2.763   8.094  1.00  0.00     0.116 C 
BRANCH   4   5
ATOM      5  N   UNL     1      -1.964  -1.316   8.171  1.00  0.00    -0.352 N 
ATOM      6  C   UNL     1      -1.639  -0.303   7.335  1.00  0.00     0.251 C 
ATOM      7  O   UNL     1      -1.695   0.829   7.828  1.00  0.00    -0.270 OA
ATOM      8  H   UNL     1      -2.181  -0.984   9.072  1.00  0.00     0.163 HD
BRANCH   6   9
ATOM      9  C   UNL     1      -1.231  -0.464   5.907  1.00  0.00     0.067 C 
ATOM     10  C   UNL     1       0.979   0.172  -0.242  1.00  0.00     0.047 C 
ATOM     11  C   UNL     1       0.489   0.328   1.178  1.00  0.00    -0.019 A 
ATOM     12  C   UNL     1       0.394   1.603   1.794  1.00  0.00     0.025 A 
ATOM     13  C   UNL     1       0.183  -0.803   1.954  1.00  0.00     0.064 A 
ATOM     14  Br  UNL     1       0.951   3.149   0.798  1.00  0.00    -0.050 Br
ATOM     15  C   UNL     1      -0.058   1.754   3.132  1.00  0.00    -0.026 A 
ATOM     16  C   UNL     1      -0.260  -0.665   3.278  1.00  0.00     0.142 A 
ATOM     17  Br  UNL     1       0.389  -2.578   1.258  1.00  0.00    -0.046 Br
ATOM     18  C   UNL     1      -0.190   3.107   3.798  1.00  0.00     0.046 C 
ATOM     19  C   UNL     1      -0.380   0.595   3.877  1.00  0.00     0.022 A 
ATOM     20  O   UNL     1      -0.503  -1.819   3.968  1.00  0.00    -0.474 OA
ATOM     21  C   UNL     1      -0.780   0.644   5.291  1.00  0.00     0.026 C 
ATOM     22  C   UNL     1      -1.329  -1.749   5.148  1.00  0.00     0.314 C 
BRANCH  22  23
ATOM     23  C   UNL     1      -2.780  -2.122   4.796  1.00  0.00     0.429 C 
ATOM     24  F   UNL     1      -2.869  -3.426   4.444  1.00  0.00    -0.167 F 
ATOM     25  F   UNL     1      -3.626  -1.946   5.840  1.00  0.00    -0.167 F 
ATOM     26  F   UNL     1      -3.265  -1.383   3.772  1.00  0.00    -0.167 F 
ENDBRANCH  22  23
ENDBRANCH   6   9
ENDBRANCH   4   5
ENDBRANCH   3   4
ENDBRANCH   2   3
ENDBRANCH   1   2
BRANCH   1  27
ATOM     27  C   UNL     1      -3.151  -5.646   9.838  1.00  0.00     0.021 C 
BRANCH  27  28
ATOM     28  C   UNL     1      -2.142  -6.679  10.326  1.00  0.00     0.116 C 
BRANCH  28  29
ATOM     29  N   UNL     1      -2.303  -6.952  11.746  1.00  0.00    -0.352 N 
ATOM     30  C   UNL     1      -2.515  -8.148  12.377  1.00  0.00     0.251 C 
ATOM     31  H   UNL     1      -2.251  -6.165  12.336  1.00  0.00     0.163 HD
ATOM     32  O   UNL     1      -2.865  -8.166  13.558  1.00  0.00    -0.269 OA
BRANCH  30  33
ATOM     33  C   UNL     1      -2.325  -9.411  11.639  1.00  0.00     0.039 A 
ATOM     34  C   UNL     1      -3.273 -10.428  11.777  1.00  0.00     0.014 A 
ATOM     35  C   UNL     1      -1.201  -9.596  10.828  1.00  0.00     0.014 A 
ATOM     36  C   UNL     1      -3.114 -11.619  11.067  1.00  0.00     0.010 A 
ATOM     37  C   UNL     1      -1.079 -10.756  10.071  1.00  0.00     0.010 A 
ATOM     38  C   UNL     1      -2.028 -11.782  10.193  1.00  0.00    -0.014 A 
BRANCH  38  39
ATOM     39  C   UNL     1      -1.855 -13.021   9.397  1.00  0.00     0.031 A 
ATOM     40  C   UNL     1      -0.670 -13.912   9.644  1.00  0.00     0.074 A 
ATOM     41  C   UNL     1      -2.721 -13.297   8.402  1.00  0.00     0.049 A 
ATOM     42  N   UNL     1      -0.297 -14.984   8.997  1.00  0.00    -0.248 NA
ATOM     43  C   UNL     1       0.226 -13.537  10.752  1.00  0.00     0.031 C 
ATOM     44  C   UNL     1      -3.880 -12.478   8.041  1.00  0.00     0.029 A 
ATOM     45  N   UNL     1      -2.746 -14.327   7.497  1.00  0.00    -0.354 N 
ATOM     46  C   UNL     1       0.886 -15.398   9.598  1.00  0.00     0.074 A 
ATOM     47  C   UNL     1       1.189 -14.442  10.639  1.00  0.00     0.031 C 
ATOM     48  C   UNL     1      -4.505 -13.040   6.995  1.00  0.00     0.029 A 
ATOM     49  C   UNL     1      -3.773 -14.236   6.587  1.00  0.00     0.049 A 
ATOM     50  H   UNL     1      -2.092 -15.063   7.499  1.00  0.00     0.167 HD
ATOM     51  C   UNL     1       1.634 -16.493   9.325  1.00  0.00     0.034 A 
ATOM     52  C   UNL     1      -4.084 -15.021   5.537  1.00  0.00     0.034 A 
ATOM     53  C   UNL     1       1.306 -17.456   8.308  1.00  0.00     0.049 A 
ATOM     54  C   UNL     1      -3.239 -16.236   5.263  1.00  0.00     0.074 A 
ATOM     55  C   UNL     1       1.973 -18.625   7.988  1.00  0.00     0.029 A 
ATOM     56  N   UNL     1       0.222 -17.365   7.448  1.00  0.00    -0.354 N 
ATOM     57  N   UNL     1      -2.188 -16.674   5.913  1.00  0.00    -0.248 NA
ATOM     58  C   UNL     1      -3.644 -17.086   4.134  1.00  0.00     0.031 C 
ATOM     59  C   UNL     1       1.306 -19.228   6.917  1.00  0.00     0.029 A 
ATOM     60  C   UNL     1       0.202 -18.455   6.595  1.00  0.00     0.049 A 
ATOM     61  H   UNL     1      -0.436 -16.633   7.445  1.00  0.00     0.167 HD
ATOM     62  C   UNL     1      -1.828 -17.868   5.298  1.00  0.00     0.074 A 
ATOM     63  C   UNL     1      -2.788 -18.094   4.237  1.00  0.00     0.031 C 
ATOM     64  C   UNL     1      -0.789 -18.694   5.577  1.00  0.00     0.034 A 
BRANCH  51  65
ATOM     65  C   UNL     1       2.852 -16.747  10.177  1.00  0.00     0.023 A 
ATOM     66  C   UNL     1       2.687 -17.152  11.517  1.00  0.00     0.012 A 
ATOM     67  C   UNL     1       4.149 -16.679   9.631  1.00  0.00     0.148 A 
ATOM     68  C   UNL     1       3.792 -17.463  12.308  1.00  0.00     0.002 A 
ATOM     69  C   UNL     1       5.243 -17.038  10.410  1.00  0.00     0.091 A 
ATOM     70  F   UNL     1       4.287 -16.271   8.361  1.00  0.00    -0.205 F 
ATOM     71  C   UNL     1       5.067 -17.419  11.751  1.00  0.00     0.022 A 
BRANCH  69  72
ATOM     72  S   UNL     1       6.918 -17.103   9.765  1.00  0.00     0.127 S 
ATOM     73  O   UNL     1       7.565 -16.026  10.514  1.00  0.00    -0.237 OA
ATOM     74  O   UNL     1       7.341 -18.450  10.148  1.00  0.00    -0.237 OA
ATOM     75  O   UNL     1       6.807 -16.881   8.330  1.00  0.00    -0.744 OA
ENDBRANCH  69  72
ENDBRANCH  51  65
BRANCH  52  76
ATOM     76  C   UNL     1      -5.295 -14.721   4.721  1.00  0.00     0.023 A 
ATOM     77  C   UNL     1      -6.407 -15.581   4.798  1.00  0.00     0.012 A 
ATOM     78  C   UNL     1      -5.375 -13.567   3.916  1.00  0.00     0.148 A 
ATOM     79  C   UNL     1      -7.567 -15.314   4.070  1.00  0.00     0.002 A 
ATOM     80  C   UNL     1      -6.554 -13.274   3.241  1.00  0.00     0.091 A 
ATOM     81  F   UNL     1      -4.302 -12.766   3.847  1.00  0.00    -0.205 F 
ATOM     82  C   UNL     1      -7.645 -14.155   3.302  1.00  0.00     0.022 A 
BRANCH  80  83
ATOM     83  S   UNL     1      -6.800 -11.736   2.347  1.00  0.00     0.127 S 
ATOM     84  O   UNL     1      -6.885 -12.202   0.966  1.00  0.00    -0.237 OA
ATOM     85  O   UNL     1      -8.061 -11.257   2.916  1.00  0.00    -0.237 OA
ATOM     86  O   UNL     1      -5.645 -10.907   2.663  1.00  0.00    -0.744 OA
ENDBRANCH  80  83
ENDBRANCH  52  76
BRANCH  64  87
ATOM     87  C   UNL     1      -0.643 -19.945   4.748  1.00  0.00     0.023 A 
ATOM     88  C   UNL     1      -0.237 -19.853   3.402  1.00  0.00     0.012 A 
ATOM     89  C   UNL     1      -0.823 -21.217   5.330  1.00  0.00     0.148 A 
ATOM     90  C   UNL     1      -0.046 -21.004   2.639  1.00  0.00     0.002 A 
ATOM     91  C   UNL     1      -0.576 -22.360   4.579  1.00  0.00     0.091 A 
ATOM     92  F   UNL     1      -1.227 -21.286   6.607  1.00  0.00    -0.205 F 
ATOM     93  C   UNL     1      -0.202 -22.256   3.230  1.00  0.00     0.022 A 
BRANCH  91  94
ATOM     94  S   UNL     1      -0.643 -24.010   5.287  1.00  0.00     0.127 S 
ATOM     95  O   UNL     1      -1.875 -24.535   4.700  1.00  0.00    -0.237 OA
ATOM     96  O   UNL     1       0.585 -24.618   4.774  1.00  0.00    -0.237 OA
ATOM     97  O   UNL     1      -0.667 -23.825   6.732  1.00  0.00    -0.744 OA
ENDBRANCH  91  94
ENDBRANCH  64  87
ENDBRANCH  38  39
ENDBRANCH  30  33
ENDBRANCH  28  29
ENDBRANCH  27  28
ENDBRANCH   1  27
TORSDOF 17
