REMARK SMILES COC(=O)c1c(-c2ccccc2Cl)csc1NC(=O)[C@@H]1[C@@H]2CC[C@@H](C2)[C@@H]1C(=O)NCCCCCCNC(=O)c1ccc(-c2c3nc(c(-c4cccc(S(=O)(=O)[O-])c4F)c4ccc([nH]4)c(-c4cccc(S(=O)(=O)[O-])c4F)c4nc(c(-c5cccc(S(=O)(=O)[O-])c5F)c5ccc2[nH]5)C=C4)C=C3)cc1
REMARK SMILES IDX 32 1 31 2 30 3 29 4 27 5 28 6 26 8 20 9 21 10 22 11 25 12
REMARK SMILES IDX 24 13 23 14 18 15 17 16 19 18 16 19 5 20 6 21 14 22 15 23
REMARK SMILES IDX 3 24 4 25 2 26 1 27 7 28 8 29 12 30 9 31 11 32 13 33 10 34
REMARK SMILES IDX 33 35 34 36 35 37 36 38 37 39 38 41 39 42 40 43 101 44 41 45
REMARK SMILES IDX 100 46 42 47 43 48 44 49 94 50 45 51 99 52 93 53 95 54 46 55
REMARK SMILES IDX 98 56 92 57 91 58 47 60 79 61 59 62 78 63 60 64 63 65 77 66
REMARK SMILES IDX 96 67 61 68 62 69 76 71 97 72 64 73 48 74 49 75 57 76 50 77
REMARK SMILES IDX 52 78 58 79 51 80 53 81 54 82 55 83 56 84 80 85 81 86 89 87
REMARK SMILES IDX 82 88 84 89 90 90 83 91 85 92 86 93 87 94 88 95 65 96 66 97
REMARK SMILES IDX 74 98 67 99 69 100 75 101 68 102 70 103 71 104 72 105 73 106
REMARK H PARENT 29 7 17 17 36 40 95 59 63 70
REMARK Flexibility Score: inf
ROOT
ATOM      1  C   UNL     1       3.221   3.015  12.723  1.00  0.00     0.002 C 
ENDROOT
BRANCH   1   2
ATOM      2  C   UNL     1       2.590   3.565  11.445  1.00  0.00     0.021 C 
BRANCH   2   3
ATOM      3  C   UNL     1       2.896   2.787  10.172  1.00  0.00     0.116 C 
BRANCH   3   4
ATOM      4  N   UNL     1       2.052   1.640   9.955  1.00  0.00    -0.356 N 
ATOM      5  C   UNL     1       1.492   1.149   8.825  1.00  0.00     0.224 C 
ATOM      6  O   UNL     1       0.927   0.052   8.951  1.00  0.00    -0.275 OA
ATOM      7  H   UNL     1       1.847   1.125  10.769  1.00  0.00     0.163 HD
BRANCH   5   8
ATOM      8  C   UNL     1       1.406   1.856   7.465  1.00  0.00     0.094 C 
ATOM      9  C   UNL     1       2.562   2.531   6.694  1.00  0.00     0.094 C 
ATOM     10  C   UNL     1       1.934   3.901   6.285  1.00  0.00     0.002 C 
ATOM     11  C   UNL     1       1.617   4.842   7.459  1.00  0.00     0.005 C 
ATOM     12  C   UNL     1       0.511   3.446   5.923  1.00  0.00     0.009 C 
ATOM     13  C   UNL     1       0.242   2.879   7.325  1.00  0.00     0.002 C 
ATOM     14  C   UNL     1       0.451   4.142   8.169  1.00  0.00     0.005 C 
BRANCH   9  15
ATOM     15  C   UNL     1       3.953   2.559   7.292  1.00  0.00     0.229 C 
ATOM     16  N   UNL     1       4.796   1.492   7.348  1.00  0.00    -0.317 N 
ATOM     17  H   UNL     1       5.471   1.580   8.060  1.00  0.00     0.170 HD
ATOM     18  O   UNL     1       4.397   3.605   7.782  1.00  0.00    -0.274 OA
BRANCH  16  19
ATOM     19  C   UNL     1       4.925   0.310   6.635  1.00  0.00     0.110 A 
ATOM     20  C   UNL     1       6.067  -0.493   6.627  1.00  0.00     0.102 A 
ATOM     21  C   UNL     1       5.981  -1.497   5.587  1.00  0.00     0.011 A 
ATOM     22  C   UNL     1       4.745  -1.491   4.973  1.00  0.00     0.076 A 
ATOM     23  S   UNL     1       3.728  -0.280   5.597  1.00  0.00    -0.125 S 
BRANCH  20  24
ATOM     24  C   UNL     1       7.196  -0.228   7.525  1.00  0.00     0.341 C 
ATOM     25  O   UNL     1       7.069   0.428   8.555  1.00  0.00    -0.246 OA
BRANCH  24  26
ATOM     26  O   UNL     1       8.372  -0.764   7.100  1.00  0.00    -0.465 OA
ATOM     27  C   UNL     1       9.513  -0.449   7.902  1.00  0.00     0.282 C 
ENDBRANCH  24  26
ENDBRANCH  20  24
BRANCH  21  28
ATOM     28  C   UNL     1       7.000  -2.443   5.142  1.00  0.00     0.002 A 
ATOM     29  C   UNL     1       7.260  -3.577   5.926  1.00  0.00     0.010 A 
ATOM     30  C   UNL     1       7.735  -2.248   3.958  1.00  0.00     0.048 A 
ATOM     31  C   UNL     1       8.235  -4.499   5.534  1.00  0.00     0.001 A 
ATOM     32  C   UNL     1       8.707  -3.175   3.571  1.00  0.00     0.021 A 
ATOM     33  Cl  UNL     1       7.490  -0.876   2.933  1.00  0.00    -0.084 Cl
ATOM     34  C   UNL     1       8.956  -4.299   4.358  1.00  0.00     0.002 A 
ENDBRANCH  21  28
ENDBRANCH  16  19
ENDBRANCH   9  15
ENDBRANCH   5   8
ENDBRANCH   3   4
ENDBRANCH   2   3
ENDBRANCH   1   2
BRANCH   1  35
ATOM     35  C   UNL     1       4.728   2.740  12.677  1.00  0.00     0.002 C 
BRANCH  35  36
ATOM     36  C   UNL     1       5.617   3.852  12.109  1.00  0.00     0.021 C 
BRANCH  36  37
ATOM     37  C   UNL     1       5.466   5.228  12.749  1.00  0.00     0.116 C 
BRANCH  37  38
ATOM     38  N   UNL     1       5.703   5.213  14.182  1.00  0.00    -0.352 N 
ATOM     39  C   UNL     1       6.502   6.029  14.943  1.00  0.00     0.251 C 
ATOM     40  H   UNL     1       5.219   4.515  14.681  1.00  0.00     0.163 HD
ATOM     41  O   UNL     1       6.675   5.778  16.133  1.00  0.00    -0.269 OA
BRANCH  39  42
ATOM     42  C   UNL     1       7.172   7.198  14.330  1.00  0.00     0.039 A 
ATOM     43  C   UNL     1       8.521   7.426  14.619  1.00  0.00     0.014 A 
ATOM     44  C   UNL     1       6.476   8.076  13.496  1.00  0.00     0.014 A 
ATOM     45  C   UNL     1       9.186   8.506  14.032  1.00  0.00     0.010 A 
ATOM     46  C   UNL     1       7.154   9.117  12.865  1.00  0.00     0.010 A 
ATOM     47  C   UNL     1       8.513   9.348  13.133  1.00  0.00    -0.014 A 
BRANCH  47  48
ATOM     48  C   UNL     1       9.201  10.483  12.468  1.00  0.00     0.031 A 
ATOM     49  C   UNL     1       8.774  11.896  12.764  1.00  0.00     0.074 A 
ATOM     50  C   UNL     1      10.140  10.242  11.532  1.00  0.00     0.049 A 
ATOM     51  N   UNL     1       9.178  13.012  12.217  1.00  0.00    -0.248 NA
ATOM     52  C   UNL     1       7.734  12.074  13.791  1.00  0.00     0.031 C 
ATOM     53  C   UNL     1      10.592   8.915  11.110  1.00  0.00     0.029 A 
ATOM     54  N   UNL     1      10.860  11.104  10.743  1.00  0.00    -0.354 N 
ATOM     55  C   UNL     1       8.416  14.018  12.799  1.00  0.00     0.074 A 
ATOM     56  C   UNL     1       7.507  13.378  13.725  1.00  0.00     0.031 C 
ATOM     57  C   UNL     1      11.506   9.051  10.135  1.00  0.00     0.029 A 
ATOM     58  C   UNL     1      11.688  10.470   9.846  1.00  0.00     0.049 A 
ATOM     59  H   UNL     1      10.790  12.084  10.812  1.00  0.00     0.167 HD
ATOM     60  C   UNL     1       8.485  15.356  12.603  1.00  0.00     0.034 A 
ATOM     61  C   UNL     1      12.497  10.976   8.894  1.00  0.00     0.034 A 
ATOM     62  C   UNL     1       9.430  15.993  11.726  1.00  0.00     0.049 A 
ATOM     63  C   UNL     1      12.596  12.470   8.738  1.00  0.00     0.074 A 
ATOM     64  C   UNL     1       9.635  17.345  11.518  1.00  0.00     0.029 A 
ATOM     65  N   UNL     1      10.331  15.321  10.915  1.00  0.00    -0.354 N 
ATOM     66  N   UNL     1      11.973  13.412   9.404  1.00  0.00    -0.248 NA
ATOM     67  C   UNL     1      13.537  12.974   7.727  1.00  0.00     0.031 C 
ATOM     68  C   UNL     1      10.661  17.491  10.577  1.00  0.00     0.029 A 
ATOM     69  C   UNL     1      11.099  16.230  10.208  1.00  0.00     0.049 A 
ATOM     70  H   UNL     1      10.413  14.342  10.852  1.00  0.00     0.167 HD
ATOM     71  C   UNL     1      12.474  14.616   8.922  1.00  0.00     0.074 A 
ATOM     72  C   UNL     1      13.465  14.284   7.919  1.00  0.00     0.031 C 
ATOM     73  C   UNL     1      12.132  15.882   9.267  1.00  0.00     0.034 A 
BRANCH  60  74
ATOM     74  C   UNL     1       7.556  16.229  13.404  1.00  0.00     0.023 A 
ATOM     75  C   UNL     1       7.799  16.413  14.781  1.00  0.00     0.012 A 
ATOM     76  C   UNL     1       6.484  16.910  12.795  1.00  0.00     0.148 A 
ATOM     77  C   UNL     1       6.973  17.234  15.546  1.00  0.00     0.002 A 
ATOM     78  C   UNL     1       5.687  17.759  13.557  1.00  0.00     0.091 A 
ATOM     79  F   UNL     1       6.253  16.706  11.490  1.00  0.00    -0.205 F 
ATOM     80  C   UNL     1       5.924  17.914  14.932  1.00  0.00     0.022 A 
BRANCH  78  81
ATOM     81  S   UNL     1       4.358  18.735  12.844  1.00  0.00     0.127 S 
ATOM     82  O   UNL     1       3.176  18.021  13.324  1.00  0.00    -0.237 OA
ATOM     83  O   UNL     1       4.571  20.046  13.460  1.00  0.00    -0.237 OA
ATOM     84  O   UNL     1       4.569  18.704  11.403  1.00  0.00    -0.744 OA
ENDBRANCH  78  81
ENDBRANCH  60  74
BRANCH  61  85
ATOM     85  C   UNL     1      13.343  10.063   8.073  1.00  0.00     0.023 A 
ATOM     86  C   UNL     1      14.734  10.036   8.294  1.00  0.00     0.012 A 
ATOM     87  C   UNL     1      12.785   9.205   7.106  1.00  0.00     0.148 A 
ATOM     88  C   UNL     1      15.558   9.195   7.547  1.00  0.00     0.002 A 
ATOM     89  C   UNL     1      13.607   8.332   6.400  1.00  0.00     0.091 A 
ATOM     90  F   UNL     1      11.462   9.255   6.897  1.00  0.00    -0.205 F 
ATOM     91  C   UNL     1      14.995   8.336   6.608  1.00  0.00     0.022 A 
BRANCH  89  92
ATOM     92  S   UNL     1      12.950   7.102   5.266  1.00  0.00     0.127 S 
ATOM     93  O   UNL     1      13.275   7.686   3.968  1.00  0.00    -0.237 OA
ATOM     94  O   UNL     1      13.728   5.913   5.619  1.00  0.00    -0.237 OA
ATOM     95  O   UNL     1      11.532   7.000   5.584  1.00  0.00    -0.744 OA
ENDBRANCH  89  92
ENDBRANCH  61  85
BRANCH  73  96
ATOM     96  C   UNL     1      12.859  17.013   8.590  1.00  0.00     0.023 A 
ATOM     97  C   UNL     1      12.547  17.343   7.256  1.00  0.00     0.012 A 
ATOM     98  C   UNL     1      13.782  17.803   9.302  1.00  0.00     0.148 A 
ATOM     99  C   UNL     1      13.162  18.429   6.634  1.00  0.00     0.002 A 
ATOM    100  C   UNL     1      14.358  18.910   8.690  1.00  0.00     0.091 A 
ATOM    101  F   UNL     1      14.081  17.460  10.564  1.00  0.00    -0.205 F 
ATOM    102  C   UNL     1      14.055  19.219   7.354  1.00  0.00     0.022 A 
BRANCH 100 103
ATOM    103  S   UNL     1      15.447  20.035   9.572  1.00  0.00     0.127 S 
ATOM    104  O   UNL     1      16.758  19.649   9.052  1.00  0.00    -0.237 OA
ATOM    105  O   UNL     1      14.975  21.345   9.123  1.00  0.00    -0.237 OA
ATOM    106  O   UNL     1      15.230  19.770  10.988  1.00  0.00    -0.744 OA
ENDBRANCH 100 103
ENDBRANCH  73  96
ENDBRANCH  47  48
ENDBRANCH  39  42
ENDBRANCH  37  38
ENDBRANCH  36  37
ENDBRANCH  35  36
ENDBRANCH   1  35
TORSDOF 21
