REMARK SMILES COc1ccc(CCc2nnc(NC(=O)[C@@H]3[C@@H](C(=O)NCCCCCCNC(=O)c4ccc(-c5c6nc(c(-c7cccc(S(=O)(=O)[O-])c7F)c7ccc([nH]7)c(-c7cccc(S(=O)(=O)[O-])c7F)c7nc(c(-c8cccc(S(=O)(=O)[O-])c8F)c8ccc5[nH]8)C=C7)C=C6)cc4)C3(C)C)s2)cc1
REMARK SMILES IDX 22 1 21 2 20 3 18 4 19 5 17 7 16 8 93 9 94 10 95 11 14 12
REMARK SMILES IDX 13 13 15 15 12 16 9 17 10 18 96 19 11 20 8 21 7 22 6 23 3 24
REMARK SMILES IDX 4 25 98 26 5 27 97 28 2 29 1 30 23 31 24 32 25 33 26 34
REMARK SMILES IDX 27 35 28 36 29 38 30 39 31 40 92 41 32 42 91 43 33 44 34 45
REMARK SMILES IDX 35 46 85 47 36 48 90 49 84 50 86 51 37 52 89 53 83 54 82 55
REMARK SMILES IDX 38 57 70 58 50 59 69 60 51 61 54 62 68 63 87 64 52 65 53 66
REMARK SMILES IDX 67 68 88 69 55 70 39 71 40 72 48 73 41 74 43 75 49 76 42 77
REMARK SMILES IDX 44 78 45 79 46 80 47 81 71 82 72 83 80 84 73 85 75 86 81 87
REMARK SMILES IDX 74 88 76 89 77 90 78 91 79 92 56 93 57 94 65 95 58 96 60 97
REMARK SMILES IDX 66 98 59 99 61 100 62 101 63 102 64 103
REMARK H PARENT 20 6 13 14 27 37 86 56 54 67
REMARK Flexibility Score: inf
ROOT
ATOM      1  C   UNL     1      -4.244   5.434  -2.278  1.00  0.00     0.021 C 
ENDROOT
BRANCH   1   2
ATOM      2  C   UNL     1      -3.927   5.432  -3.776  1.00  0.00     0.116 C 
BRANCH   2   3
ATOM      3  N   UNL     1      -2.568   4.981  -4.016  1.00  0.00    -0.356 N 
ATOM      4  C   UNL     1      -2.006   3.954  -4.716  1.00  0.00     0.224 C 
ATOM      5  O   UNL     1      -0.790   3.802  -4.577  1.00  0.00    -0.275 OA
ATOM      6  H   UNL     1      -1.897   5.547  -3.571  1.00  0.00     0.163 HD
BRANCH   4   7
ATOM      7  C   UNL     1      -2.693   3.033  -5.657  1.00  0.00     0.098 C 
ATOM      8  C   UNL     1      -4.058   3.148  -6.265  1.00  0.00     0.098 C 
ATOM      9  C   UNL     1      -3.758   2.008  -5.276  1.00  0.00    -0.011 C 
ATOM     10  C   UNL     1      -4.483   2.074  -3.949  1.00  0.00     0.013 C 
ATOM     11  C   UNL     1      -3.567   0.592  -5.766  1.00  0.00     0.013 C 
BRANCH   8  12
ATOM     12  C   UNL     1      -4.218   2.976  -7.744  1.00  0.00     0.230 C 
ATOM     13  N   UNL     1      -4.825   3.966  -8.478  1.00  0.00    -0.300 N 
ATOM     14  H   UNL     1      -5.147   3.732  -9.378  1.00  0.00     0.172 HD
ATOM     15  O   UNL     1      -3.878   1.935  -8.306  1.00  0.00    -0.274 OA
BRANCH  13  16
ATOM     16  C   UNL     1      -5.017   5.249  -8.053  1.00  0.00     0.212 A 
ATOM     17  C   UNL     1      -5.958   7.391  -7.734  1.00  0.00     0.119 A 
ATOM     18  N   UNL     1      -5.020   7.120  -6.848  1.00  0.00    -0.142 NA
ATOM     19  S   UNL     1      -6.109   6.191  -8.967  1.00  0.00    -0.080 S 
ATOM     20  N   UNL     1      -4.485   5.864  -7.027  1.00  0.00    -0.120 NA
BRANCH  17  21
ATOM     21  C   UNL     1      -6.837   8.601  -7.676  1.00  0.00     0.074 C 
BRANCH  21  22
ATOM     22  C   UNL     1      -8.252   8.331  -7.134  1.00  0.00     0.043 C 
BRANCH  22  23
ATOM     23  C   UNL     1      -8.328   7.700  -5.759  1.00  0.00    -0.047 A 
ATOM     24  C   UNL     1      -8.507   6.495  -3.233  1.00  0.00     0.118 A 
ATOM     25  C   UNL     1      -8.129   5.736  -4.331  1.00  0.00     0.046 A 
ATOM     26  C   UNL     1      -8.795   7.853  -3.381  1.00  0.00     0.046 A 
ATOM     27  C   UNL     1      -8.073   6.330  -5.590  1.00  0.00     0.007 A 
ATOM     28  C   UNL     1      -8.696   8.456  -4.639  1.00  0.00     0.007 A 
BRANCH  24  29
ATOM     29  O   UNL     1      -8.458   5.891  -2.007  1.00  0.00    -0.497 OA
ATOM     30  C   UNL     1      -9.749   5.820  -1.407  1.00  0.00     0.278 C 
ENDBRANCH  24  29
ENDBRANCH  22  23
ENDBRANCH  21  22
ENDBRANCH  17  21
ENDBRANCH  13  16
ENDBRANCH   8  12
ENDBRANCH   4   7
ENDBRANCH   2   3
ENDBRANCH   1   2
BRANCH   1  31
ATOM     31  C   UNL     1      -3.600   6.575  -1.481  1.00  0.00     0.002 C 
BRANCH  31  32
ATOM     32  C   UNL     1      -4.021   7.992  -1.888  1.00  0.00     0.002 C 
BRANCH  32  33
ATOM     33  C   UNL     1      -5.530   8.232  -1.968  1.00  0.00     0.021 C 
BRANCH  33  34
ATOM     34  C   UNL     1      -6.295   8.010  -0.663  1.00  0.00     0.116 C 
BRANCH  34  35
ATOM     35  N   UNL     1      -6.034   9.058   0.312  1.00  0.00    -0.352 N 
ATOM     36  C   UNL     1      -6.921   9.913   0.924  1.00  0.00     0.251 C 
ATOM     37  H   UNL     1      -5.090   9.171   0.569  1.00  0.00     0.163 HD
ATOM     38  O   UNL     1      -6.501  10.876   1.560  1.00  0.00    -0.269 OA
BRANCH  36  39
ATOM     39  C   UNL     1      -8.383   9.689   0.815  1.00  0.00     0.039 A 
ATOM     40  C   UNL     1      -9.217  10.764   0.494  1.00  0.00     0.014 A 
ATOM     41  C   UNL     1      -8.944   8.438   1.068  1.00  0.00     0.014 A 
ATOM     42  C   UNL     1     -10.601  10.568   0.367  1.00  0.00     0.010 A 
ATOM     43  C   UNL     1     -10.319   8.239   0.889  1.00  0.00     0.010 A 
ATOM     44  C   UNL     1     -11.171   9.292   0.519  1.00  0.00    -0.014 A 
BRANCH  44  45
ATOM     45  C   UNL     1     -12.629   9.048   0.260  1.00  0.00     0.031 A 
ATOM     46  C   UNL     1     -13.518   8.387   1.291  1.00  0.00     0.074 A 
ATOM     47  C   UNL     1     -13.163   9.337  -0.948  1.00  0.00     0.049 A 
ATOM     48  N   UNL     1     -14.787   8.067   1.207  1.00  0.00    -0.248 NA
ATOM     49  C   UNL     1     -12.893   7.997   2.564  1.00  0.00     0.031 C 
ATOM     50  C   UNL     1     -12.427   9.868  -2.097  1.00  0.00     0.029 A 
ATOM     51  N   UNL     1     -14.451   9.206  -1.421  1.00  0.00    -0.354 N 
ATOM     52  C   UNL     1     -15.097   7.400   2.387  1.00  0.00     0.074 A 
ATOM     53  C   UNL     1     -13.868   7.313   3.147  1.00  0.00     0.031 C 
ATOM     54  C   UNL     1     -13.272  10.042  -3.124  1.00  0.00     0.029 A 
ATOM     55  C   UNL     1     -14.608   9.605  -2.729  1.00  0.00     0.049 A 
ATOM     56  H   UNL     1     -15.191   8.858  -0.873  1.00  0.00     0.167 HD
ATOM     57  C   UNL     1     -16.292   6.937   2.831  1.00  0.00     0.034 A 
ATOM     58  C   UNL     1     -15.694   9.623  -3.530  1.00  0.00     0.034 A 
ATOM     59  C   UNL     1     -17.536   7.073   2.120  1.00  0.00     0.049 A 
ATOM     60  C   UNL     1     -17.029   9.175  -2.994  1.00  0.00     0.074 A 
ATOM     61  C   UNL     1     -18.810   6.735   2.544  1.00  0.00     0.029 A 
ATOM     62  N   UNL     1     -17.668   7.581   0.838  1.00  0.00    -0.354 N 
ATOM     63  N   UNL     1     -17.328   8.713  -1.805  1.00  0.00    -0.248 NA
ATOM     64  C   UNL     1     -18.185   9.287  -3.898  1.00  0.00     0.031 C 
ATOM     65  C   UNL     1     -19.709   7.015   1.509  1.00  0.00     0.029 A 
ATOM     66  C   UNL     1     -18.999   7.559   0.452  1.00  0.00     0.049 A 
ATOM     67  H   UNL     1     -16.925   7.910   0.282  1.00  0.00     0.167 HD
ATOM     68  C   UNL     1     -18.705   8.512  -1.807  1.00  0.00     0.074 A 
ATOM     69  C   UNL     1     -19.187   8.924  -3.108  1.00  0.00     0.031 C 
ATOM     70  C   UNL     1     -19.493   8.016  -0.822  1.00  0.00     0.034 A 
BRANCH  57  71
ATOM     71  C   UNL     1     -16.325   6.291   4.196  1.00  0.00     0.023 A 
ATOM     72  C   UNL     1     -16.106   7.082   5.344  1.00  0.00     0.012 A 
ATOM     73  C   UNL     1     -16.611   4.920   4.350  1.00  0.00     0.148 A 
ATOM     74  C   UNL     1     -16.111   6.510   6.615  1.00  0.00     0.002 A 
ATOM     75  C   UNL     1     -16.668   4.368   5.625  1.00  0.00     0.091 A 
ATOM     76  F   UNL     1     -16.807   4.179   3.250  1.00  0.00    -0.205 F 
ATOM     77  C   UNL     1     -16.401   5.156   6.756  1.00  0.00     0.022 A 
BRANCH  75  78
ATOM     78  S   UNL     1     -17.122   2.655   5.919  1.00  0.00     0.127 S 
ATOM     79  O   UNL     1     -15.836   2.069   6.293  1.00  0.00    -0.237 OA
ATOM     80  O   UNL     1     -18.081   2.774   7.018  1.00  0.00    -0.237 OA
ATOM     81  O   UNL     1     -17.692   2.172   4.669  1.00  0.00    -0.744 OA
ENDBRANCH  75  78
ENDBRANCH  57  71
BRANCH  58  82
ATOM     82  C   UNL     1     -15.580  10.153  -4.921  1.00  0.00     0.023 A 
ATOM     83  C   UNL     1     -16.182  11.386  -5.244  1.00  0.00     0.012 A 
ATOM     84  C   UNL     1     -14.857   9.463  -5.913  1.00  0.00     0.148 A 
ATOM     85  C   UNL     1     -16.096  11.903  -6.537  1.00  0.00     0.002 A 
ATOM     86  C   UNL     1     -14.722  10.014  -7.182  1.00  0.00     0.091 A 
ATOM     87  F   UNL     1     -14.296   8.290  -5.587  1.00  0.00    -0.205 F 
ATOM     88  C   UNL     1     -15.359  11.223  -7.502  1.00  0.00     0.022 A 
BRANCH  86  89
ATOM     89  S   UNL     1     -13.678   9.284  -8.449  1.00  0.00     0.127 S 
ATOM     90  O   UNL     1     -14.655   8.914  -9.469  1.00  0.00    -0.237 OA
ATOM     91  O   UNL     1     -12.809  10.407  -8.805  1.00  0.00    -0.237 OA
ATOM     92  O   UNL     1     -12.987   8.174  -7.808  1.00  0.00    -0.744 OA
ENDBRANCH  86  89
ENDBRANCH  58  82
BRANCH  70  93
ATOM     93  C   UNL     1     -20.977   7.920  -1.078  1.00  0.00     0.023 A 
ATOM     94  C   UNL     1     -21.478   6.953  -1.972  1.00  0.00     0.012 A 
ATOM     95  C   UNL     1     -21.882   8.736  -0.369  1.00  0.00     0.148 A 
ATOM     96  C   UNL     1     -22.852   6.821  -2.180  1.00  0.00     0.002 A 
ATOM     97  C   UNL     1     -23.251   8.565  -0.544  1.00  0.00     0.091 A 
ATOM     98  F   UNL     1     -21.389   9.663   0.465  1.00  0.00    -0.205 F 
ATOM     99  C   UNL     1     -23.737   7.617  -1.458  1.00  0.00     0.022 A 
BRANCH  97 100
ATOM    100  S   UNL     1     -24.469   9.477   0.413  1.00  0.00     0.127 S 
ATOM    101  O   UNL     1     -25.033  10.371  -0.598  1.00  0.00    -0.237 OA
ATOM    102  O   UNL     1     -25.372   8.415   0.858  1.00  0.00    -0.237 OA
ATOM    103  O   UNL     1     -23.731  10.133   1.484  1.00  0.00    -0.744 OA
ENDBRANCH  97 100
ENDBRANCH  70  93
ENDBRANCH  44  45
ENDBRANCH  36  39
ENDBRANCH  34  35
ENDBRANCH  33  34
ENDBRANCH  32  33
ENDBRANCH  31  32
ENDBRANCH   1  31
TORSDOF 22
