REMARK SMILES CCC[NH2+][C@]1(C(=O)NCCCCCCNC(=O)c2ccc(-c3c4nc(c(-c5cccc(S(=O)(=O)[O-])c5F)c5ccc([nH]5)c(-c5cccc(S(=O)(=O)[O-])c5F)c5nc(c(-c6cccc(S(=O)(=O)[O-])c6F)c6ccc3[nH]6)C=C5)C=C4)cc2)CCC[C@H]([N@@H+]2CCOC(C)(C)C2)C1
REMARK SMILES IDX 11 1 10 2 9 3 8 4 6 5 7 6 5 8 81 9 93 10 82 11 84 12 83 13
REMARK SMILES IDX 4 14 3 17 2 18 1 19 85 20 86 21 92 22 87 24 89 25 88 26
REMARK SMILES IDX 90 27 91 28 12 29 13 30 14 31 15 32 16 33 17 35 18 36 19 37
REMARK SMILES IDX 80 38 20 39 79 40 21 41 22 42 23 43 73 44 24 45 78 46 72 47
REMARK SMILES IDX 74 48 25 49 77 50 71 51 70 52 26 54 58 55 38 56 57 57 39 58
REMARK SMILES IDX 42 59 56 60 75 61 40 62 41 63 55 65 76 66 43 67 27 68 28 69
REMARK SMILES IDX 36 70 29 71 31 72 37 73 30 74 32 75 33 76 34 77 35 78 59 79
REMARK SMILES IDX 60 80 68 81 61 82 63 83 69 84 62 85 64 86 65 87 66 88 67 89
REMARK SMILES IDX 44 90 45 91 53 92 46 93 48 94 54 95 47 96 49 97 50 98 51 99
REMARK SMILES IDX 52 100
REMARK H PARENT 8 7 4 15 4 16 85 23 15 34 74 53 42 64
REMARK Flexibility Score: inf
ROOT
ATOM      1  C   UNL     1      -2.394  -0.452   3.284  1.00  0.00     0.002 C 
ENDROOT
BRANCH   1   2
ATOM      2  C   UNL     1      -2.034   0.951   3.787  1.00  0.00     0.021 C 
BRANCH   2   3
ATOM      3  C   UNL     1      -0.581   1.323   3.529  1.00  0.00     0.116 C 
BRANCH   3   4
ATOM      4  N   UNL     1      -0.415   1.642   2.134  1.00  0.00    -0.351 N 
ATOM      5  C   UNL     1      -0.046   2.765   1.485  1.00  0.00     0.281 C 
ATOM      6  O   UNL     1      -0.239   2.710   0.259  1.00  0.00    -0.268 OA
ATOM      7  H   UNL     1      -0.610   0.887   1.532  1.00  0.00     0.163 HD
BRANCH   5   8
ATOM      8  C   UNL     1       0.767   3.973   2.122  1.00  0.00     0.181 C 
ATOM      9  C   UNL     1       0.525   5.117   1.075  1.00  0.00     0.079 C 
ATOM     10  C   UNL     1       0.327   4.522   3.501  1.00  0.00     0.144 C 
ATOM     11  C   UNL     1       0.950   6.531   1.442  1.00  0.00     0.013 C 
ATOM     12  C   UNL     1       0.870   5.922   3.927  1.00  0.00     0.191 C 
ATOM     13  C   UNL     1       0.509   6.943   2.839  1.00  0.00     0.065 C 
BRANCH   8  14
ATOM     14  N   UNL     1       2.194   3.545   2.080  1.00  0.00    -0.333 N 
ATOM     15  H   UNL     1       2.346   3.030   1.213  1.00  0.00     0.347 HD
ATOM     16  H   UNL     1       2.751   4.396   2.146  1.00  0.00     0.347 HD
BRANCH  14  17
ATOM     17  C   UNL     1       2.613   2.690   3.197  1.00  0.00     0.261 C 
BRANCH  17  18
ATOM     18  C   UNL     1       4.051   2.160   3.142  1.00  0.00     0.058 C 
ATOM     19  C   UNL     1       4.898   2.635   1.975  1.00  0.00     0.010 C 
ENDBRANCH  17  18
ENDBRANCH  14  17
ENDBRANCH   8  14
BRANCH  12  20
ATOM     20  N   UNL     1       2.264   5.966   4.480  1.00  0.00    -0.328 N 
ATOM     21  C   UNL     1       2.382   7.042   5.501  1.00  0.00     0.291 C 
ATOM     22  C   UNL     1       3.349   6.194   3.498  1.00  0.00     0.297 C 
ATOM     23  H   UNL     1       2.395   5.029   4.862  1.00  0.00     0.348 HD
ATOM     24  C   UNL     1       3.804   7.214   6.067  1.00  0.00     0.222 C 
ATOM     25  C   UNL     1       4.781   6.328   4.095  1.00  0.00     0.112 C 
ATOM     26  O   UNL     1       4.780   7.422   5.035  1.00  0.00    -0.364 OA
ATOM     27  C   UNL     1       5.334   5.070   4.778  1.00  0.00     0.048 C 
ATOM     28  C   UNL     1       5.747   6.701   2.956  1.00  0.00     0.048 C 
ENDBRANCH  12  20
ENDBRANCH   5   8
ENDBRANCH   3   4
ENDBRANCH   2   3
ENDBRANCH   1   2
BRANCH   1  29
ATOM     29  C   UNL     1      -1.580  -1.584   3.921  1.00  0.00     0.002 C 
BRANCH  29  30
ATOM     30  C   UNL     1      -1.559  -1.568   5.451  1.00  0.00     0.021 C 
BRANCH  30  31
ATOM     31  C   UNL     1      -2.943  -1.560   6.090  1.00  0.00     0.116 C 
BRANCH  31  32
ATOM     32  N   UNL     1      -3.721  -2.724   5.692  1.00  0.00    -0.352 N 
ATOM     33  C   UNL     1      -4.350  -3.645   6.484  1.00  0.00     0.251 C 
ATOM     34  H   UNL     1      -3.807  -2.867   4.722  1.00  0.00     0.163 HD
ATOM     35  O   UNL     1      -4.763  -4.698   6.000  1.00  0.00    -0.269 OA
BRANCH  33  36
ATOM     36  C   UNL     1      -4.518  -3.366   7.923  1.00  0.00     0.039 A 
ATOM     37  C   UNL     1      -4.229  -4.371   8.846  1.00  0.00     0.014 A 
ATOM     38  C   UNL     1      -4.952  -2.108   8.354  1.00  0.00     0.014 A 
ATOM     39  C   UNL     1      -4.333  -4.099  10.210  1.00  0.00     0.010 A 
ATOM     40  C   UNL     1      -4.976  -1.815   9.712  1.00  0.00     0.010 A 
ATOM     41  C   UNL     1      -4.679  -2.811  10.654  1.00  0.00    -0.014 A 
BRANCH  41  42
ATOM     42  C   UNL     1      -4.721  -2.490  12.101  1.00  0.00     0.031 A 
ATOM     43  C   UNL     1      -6.008  -2.064  12.750  1.00  0.00     0.074 A 
ATOM     44  C   UNL     1      -3.578  -2.513  12.815  1.00  0.00     0.049 A 
ATOM     45  N   UNL     1      -6.230  -1.723  13.993  1.00  0.00    -0.248 NA
ATOM     46  C   UNL     1      -7.198  -1.984  11.886  1.00  0.00     0.031 C 
ATOM     47  C   UNL     1      -2.253  -2.825  12.276  1.00  0.00     0.029 A 
ATOM     48  N   UNL     1      -3.344  -2.245  14.139  1.00  0.00    -0.354 N 
ATOM     49  C   UNL     1      -7.570  -1.361  14.054  1.00  0.00     0.074 A 
ATOM     50  C   UNL     1      -8.101  -1.483  12.714  1.00  0.00     0.031 C 
ATOM     51  C   UNL     1      -1.347  -2.741  13.262  1.00  0.00     0.029 A 
ATOM     52  C   UNL     1      -2.019  -2.335  14.493  1.00  0.00     0.049 A 
ATOM     53  H   UNL     1      -4.057  -2.011  14.777  1.00  0.00     0.167 HD
ATOM     54  C   UNL     1      -8.301  -0.991  15.133  1.00  0.00     0.034 A 
ATOM     55  C   UNL     1      -1.410  -2.107  15.672  1.00  0.00     0.034 A 
ATOM     56  C   UNL     1      -7.771  -0.895  16.466  1.00  0.00     0.049 A 
ATOM     57  C   UNL     1      -2.245  -1.724  16.862  1.00  0.00     0.074 A 
ATOM     58  C   UNL     1      -8.443  -0.609  17.641  1.00  0.00     0.029 A 
ATOM     59  N   UNL     1      -6.436  -1.065  16.802  1.00  0.00    -0.354 N 
ATOM     60  N   UNL     1      -3.541  -1.542  16.934  1.00  0.00    -0.248 NA
ATOM     61  C   UNL     1      -1.541  -1.553  18.140  1.00  0.00     0.031 C 
ATOM     62  C   UNL     1      -7.508  -0.570  18.681  1.00  0.00     0.029 A 
ATOM     63  C   UNL     1      -6.260  -0.873  18.162  1.00  0.00     0.049 A 
ATOM     64  H   UNL     1      -5.718  -1.289  16.166  1.00  0.00     0.167 HD
ATOM     65  C   UNL     1      -3.813  -1.264  18.269  1.00  0.00     0.074 A 
ATOM     66  C   UNL     1      -2.548  -1.327  18.973  1.00  0.00     0.031 C 
ATOM     67  C   UNL     1      -5.001  -0.973  18.857  1.00  0.00     0.034 A 
BRANCH  54  68
ATOM     68  C   UNL     1      -9.764  -0.700  14.916  1.00  0.00     0.023 A 
ATOM     69  C   UNL     1     -10.645  -1.751  14.587  1.00  0.00     0.012 A 
ATOM     70  C   UNL     1     -10.276   0.603  15.075  1.00  0.00     0.148 A 
ATOM     71  C   UNL     1     -12.001  -1.505  14.374  1.00  0.00     0.002 A 
ATOM     72  C   UNL     1     -11.638   0.832  14.912  1.00  0.00     0.091 A 
ATOM     73  F   UNL     1      -9.423   1.594  15.368  1.00  0.00    -0.205 F 
ATOM     74  C   UNL     1     -12.498  -0.216  14.547  1.00  0.00     0.022 A 
BRANCH  72  75
ATOM     75  S   UNL     1     -12.390   2.439  15.191  1.00  0.00     0.127 S 
ATOM     76  O   UNL     1     -12.741   2.841  13.830  1.00  0.00    -0.237 OA
ATOM     77  O   UNL     1     -13.532   2.099  16.040  1.00  0.00    -0.237 OA
ATOM     78  O   UNL     1     -11.371   3.252  15.840  1.00  0.00    -0.744 OA
ENDBRANCH  72  75
ENDBRANCH  54  68
BRANCH  55  79
ATOM     79  C   UNL     1       0.064  -2.287  15.788  1.00  0.00     0.023 A 
ATOM     80  C   UNL     1       0.578  -3.372  16.524  1.00  0.00     0.012 A 
ATOM     81  C   UNL     1       0.956  -1.416  15.133  1.00  0.00     0.148 A 
ATOM     82  C   UNL     1       1.955  -3.569  16.630  1.00  0.00     0.002 A 
ATOM     83  C   UNL     1       2.324  -1.651  15.194  1.00  0.00     0.091 A 
ATOM     84  F   UNL     1       0.444  -0.387  14.443  1.00  0.00    -0.205 F 
ATOM     85  C   UNL     1       2.827  -2.717  15.957  1.00  0.00     0.022 A 
BRANCH  83  86
ATOM     86  S   UNL     1       3.510  -0.690  14.249  1.00  0.00     0.127 S 
ATOM     87  O   UNL     1       4.244   0.001  15.306  1.00  0.00    -0.237 OA
ATOM     88  O   UNL     1       4.262  -1.739  13.559  1.00  0.00    -0.237 OA
ATOM     89  O   UNL     1       2.721   0.161  13.370  1.00  0.00    -0.744 OA
ENDBRANCH  83  86
ENDBRANCH  55  79
BRANCH  67  90
ATOM     90  C   UNL     1      -5.000  -0.730  20.344  1.00  0.00     0.023 A 
ATOM     91  C   UNL     1      -4.427   0.447  20.866  1.00  0.00     0.012 A 
ATOM     92  C   UNL     1      -5.628  -1.639  21.218  1.00  0.00     0.148 A 
ATOM     93  C   UNL     1      -4.445   0.696  22.238  1.00  0.00     0.002 A 
ATOM     94  C   UNL     1      -5.690  -1.358  22.577  1.00  0.00     0.091 A 
ATOM     95  F   UNL     1      -6.153  -2.761  20.705  1.00  0.00    -0.205 F 
ATOM     96  C   UNL     1      -5.086  -0.199  23.091  1.00  0.00     0.022 A 
BRANCH  94  97
ATOM     97  S   UNL     1      -6.579  -2.401  23.738  1.00  0.00     0.127 S 
ATOM     98  O   UNL     1      -5.483  -2.996  24.503  1.00  0.00    -0.237 OA
ATOM     99  O   UNL     1      -7.380  -1.427  24.478  1.00  0.00    -0.237 OA
ATOM    100  O   UNL     1      -7.353  -3.334  22.931  1.00  0.00    -0.744 OA
ENDBRANCH  94  97
ENDBRANCH  67  90
ENDBRANCH  41  42
ENDBRANCH  33  36
ENDBRANCH  31  32
ENDBRANCH  30  31
ENDBRANCH  29  30
ENDBRANCH   1  29
TORSDOF 20
