REMARK SMILES O=C(NCCCCCCNC(=O)[C@H]1CCN1C(=O)OCC1c2ccccc2-c2ccccc21)c1ccc(-c2c3nc(c(-c4cccc(S(=O)(=O)[O-])c4F)c4ccc([nH]4)c(-c4cccc(S(=O)(=O)[O-])c4F)c4nc(c(-c5cccc(S(=O)(=O)[O-])c5F)c5ccc2[nH]5)C=C4)C=C3)cc1
REMARK SMILES IDX 7 1 6 2 5 3 4 4 3 5 1 6 2 7 34 9 35 10 96 11 36 12 95 13
REMARK SMILES IDX 37 14 38 15 39 16 89 17 40 18 94 19 88 20 90 21 41 22 93 23
REMARK SMILES IDX 87 24 86 25 42 27 74 28 54 29 73 30 55 31 58 32 72 33 91 34
REMARK SMILES IDX 56 35 57 36 71 38 92 39 59 40 43 41 44 42 52 43 45 44 47 45
REMARK SMILES IDX 53 46 46 47 48 48 49 49 50 50 51 51 75 52 76 53 84 54 77 55
REMARK SMILES IDX 79 56 85 57 78 58 80 59 81 60 82 61 83 62 60 63 61 64 69 65
REMARK SMILES IDX 62 66 64 67 70 68 63 69 65 70 66 71 67 72 68 73 8 74 9 75
REMARK SMILES IDX 10 76 11 77 12 79 13 80 14 81 16 82 15 83 17 84 18 85 19 86
REMARK SMILES IDX 20 87 21 88 22 89 33 90 23 91 27 92 28 93 32 94 24 95 26 96
REMARK SMILES IDX 29 97 31 98 25 99 30 100
REMARK H PARENT 3 8 90 26 58 37 10 78
REMARK Flexibility Score: inf
ROOT
ATOM      1  C   UNL     1       8.056   1.598   1.402  1.00  0.00     0.002 C 
ENDROOT
BRANCH   1   2
ATOM      2  C   UNL     1       9.417   0.939   1.160  1.00  0.00     0.002 C 
BRANCH   2   3
ATOM      3  C   UNL     1       9.696  -0.321   1.979  1.00  0.00     0.021 C 
BRANCH   3   4
ATOM      4  C   UNL     1       8.624  -1.397   1.885  1.00  0.00     0.116 C 
BRANCH   4   5
ATOM      5  N   UNL     1       8.482  -1.922   0.539  1.00  0.00    -0.352 N 
ATOM      6  O   UNL     1       8.606  -3.484  -1.081  1.00  0.00    -0.269 OA
ATOM      7  C   UNL     1       8.559  -3.228   0.118  1.00  0.00     0.251 C 
ATOM      8  H   UNL     1       8.309  -1.256  -0.164  1.00  0.00     0.163 HD
BRANCH   7   9
ATOM      9  C   UNL     1       8.603  -4.310   1.125  1.00  0.00     0.039 A 
ATOM     10  C   UNL     1       7.725  -4.293   2.214  1.00  0.00     0.014 A 
ATOM     11  C   UNL     1       9.521  -5.351   0.977  1.00  0.00     0.014 A 
ATOM     12  C   UNL     1       7.841  -5.252   3.212  1.00  0.00     0.010 A 
ATOM     13  C   UNL     1       9.575  -6.366   1.936  1.00  0.00     0.010 A 
ATOM     14  C   UNL     1       8.739  -6.320   3.064  1.00  0.00    -0.014 A 
BRANCH  14  15
ATOM     15  C   UNL     1       8.672  -7.457   4.015  1.00  0.00     0.031 A 
ATOM     16  C   UNL     1       9.833  -7.822   4.893  1.00  0.00     0.074 A 
ATOM     17  C   UNL     1       7.541  -8.191   4.036  1.00  0.00     0.049 A 
ATOM     18  N   UNL     1       9.932  -8.809   5.745  1.00  0.00    -0.248 NA
ATOM     19  C   UNL     1      11.038  -6.982   4.809  1.00  0.00     0.031 C 
ATOM     20  C   UNL     1       6.369  -7.953   3.187  1.00  0.00     0.029 A 
ATOM     21  N   UNL     1       7.194  -9.295   4.772  1.00  0.00    -0.354 N 
ATOM     22  C   UNL     1      11.219  -8.744   6.262  1.00  0.00     0.074 A 
ATOM     23  C   UNL     1      11.864  -7.607   5.640  1.00  0.00     0.031 C 
ATOM     24  C   UNL     1       5.437  -8.880   3.447  1.00  0.00     0.029 A 
ATOM     25  C   UNL     1       5.970  -9.818   4.425  1.00  0.00     0.049 A 
ATOM     26  H   UNL     1       7.765  -9.676   5.478  1.00  0.00     0.167 HD
ATOM     27  C   UNL     1      11.803  -9.563   7.169  1.00  0.00     0.034 A 
ATOM     28  C   UNL     1       5.360 -10.954   4.809  1.00  0.00     0.034 A 
ATOM     29  C   UNL     1      11.139 -10.676   7.798  1.00  0.00     0.049 A 
ATOM     30  C   UNL     1       6.042 -11.838   5.811  1.00  0.00     0.074 A 
ATOM     31  C   UNL     1      11.614 -11.496   8.807  1.00  0.00     0.029 A 
ATOM     32  N   UNL     1       9.883 -11.149   7.457  1.00  0.00    -0.354 N 
ATOM     33  N   UNL     1       7.188 -11.658   6.420  1.00  0.00    -0.248 NA
ATOM     34  C   UNL     1       5.342 -13.071   6.195  1.00  0.00     0.031 C 
ATOM     35  C   UNL     1      10.668 -12.498   9.038  1.00  0.00     0.029 A 
ATOM     36  C   UNL     1       9.584 -12.276   8.205  1.00  0.00     0.049 A 
ATOM     37  H   UNL     1       9.290 -10.745   6.783  1.00  0.00     0.167 HD
ATOM     38  C   UNL     1       7.339 -12.744   7.271  1.00  0.00     0.074 A 
ATOM     39  C   UNL     1       6.148 -13.557   7.128  1.00  0.00     0.031 C 
ATOM     40  C   UNL     1       8.379 -13.054   8.082  1.00  0.00     0.034 A 
BRANCH  27  41
ATOM     41  C   UNL     1      13.233  -9.303   7.562  1.00  0.00     0.023 A 
ATOM     42  C   UNL     1      13.544  -8.232   8.422  1.00  0.00     0.012 A 
ATOM     43  C   UNL     1      14.248 -10.206   7.184  1.00  0.00     0.148 A 
ATOM     44  C   UNL     1      14.847  -8.057   8.892  1.00  0.00     0.002 A 
ATOM     45  C   UNL     1      15.532 -10.050   7.689  1.00  0.00     0.091 A 
ATOM     46  F   UNL     1      13.931 -11.209   6.353  1.00  0.00    -0.205 F 
ATOM     47  C   UNL     1      15.835  -8.972   8.537  1.00  0.00     0.022 A 
BRANCH  45  48
ATOM     48  S   UNL     1      16.855 -11.220   7.361  1.00  0.00     0.127 S 
ATOM     49  O   UNL     1      17.784 -10.402   6.582  1.00  0.00    -0.237 OA
ATOM     50  O   UNL     1      17.316 -11.546   8.710  1.00  0.00    -0.237 OA
ATOM     51  O   UNL     1      16.247 -12.326   6.636  1.00  0.00    -0.744 OA
ENDBRANCH  45  48
ENDBRANCH  27  41
BRANCH  28  52
ATOM     52  C   UNL     1       4.043 -11.331   4.221  1.00  0.00     0.023 A 
ATOM     53  C   UNL     1       2.898 -11.370   5.037  1.00  0.00     0.012 A 
ATOM     54  C   UNL     1       3.924 -11.644   2.853  1.00  0.00     0.148 A 
ATOM     55  C   UNL     1       1.665 -11.757   4.510  1.00  0.00     0.002 A 
ATOM     56  C   UNL     1       2.683 -11.965   2.321  1.00  0.00     0.091 A 
ATOM     57  F   UNL     1       5.029 -11.615   2.094  1.00  0.00    -0.205 F 
ATOM     58  C   UNL     1       1.556 -12.045   3.151  1.00  0.00     0.022 A 
BRANCH  56  59
ATOM     59  S   UNL     1       2.431 -12.208   0.559  1.00  0.00     0.127 S 
ATOM     60  O   UNL     1       2.261 -13.656   0.479  1.00  0.00    -0.237 OA
ATOM     61  O   UNL     1       1.216 -11.429   0.317  1.00  0.00    -0.237 OA
ATOM     62  O   UNL     1       3.623 -11.670  -0.083  1.00  0.00    -0.744 OA
ENDBRANCH  56  59
ENDBRANCH  28  52
BRANCH  40  63
ATOM     63  C   UNL     1       8.274 -14.317   8.894  1.00  0.00     0.023 A 
ATOM     64  C   UNL     1       8.383 -15.569   8.257  1.00  0.00     0.012 A 
ATOM     65  C   UNL     1       8.142 -14.260  10.295  1.00  0.00     0.148 A 
ATOM     66  C   UNL     1       8.332 -16.747   8.999  1.00  0.00     0.002 A 
ATOM     67  C   UNL     1       8.146 -15.437  11.034  1.00  0.00     0.091 A 
ATOM     68  F   UNL     1       8.025 -13.058  10.878  1.00  0.00    -0.205 F 
ATOM     69  C   UNL     1       8.227 -16.681  10.387  1.00  0.00     0.022 A 
BRANCH  67  70
ATOM     70  S   UNL     1       8.109 -15.451  12.829  1.00  0.00     0.127 S 
ATOM     71  O   UNL     1       6.811 -16.070  13.095  1.00  0.00    -0.237 OA
ATOM     72  O   UNL     1       9.263 -16.289  13.153  1.00  0.00    -0.237 OA
ATOM     73  O   UNL     1       8.228 -14.061  13.248  1.00  0.00    -0.744 OA
ENDBRANCH  67  70
ENDBRANCH  40  63
ENDBRANCH  14  15
ENDBRANCH   7   9
ENDBRANCH   4   5
ENDBRANCH   3   4
ENDBRANCH   2   3
ENDBRANCH   1   2
BRANCH   1  74
ATOM     74  C   UNL     1       7.708   1.905   2.861  1.00  0.00     0.021 C 
BRANCH  74  75
ATOM     75  C   UNL     1       8.715   2.766   3.613  1.00  0.00     0.116 C 
BRANCH  75  76
ATOM     76  N   UNL     1       8.882   4.082   3.033  1.00  0.00    -0.354 N 
ATOM     77  C   UNL     1       9.014   5.298   3.666  1.00  0.00     0.243 C 
ATOM     78  H   UNL     1       8.905   4.111   2.049  1.00  0.00     0.163 HD
ATOM     79  O   UNL     1       9.152   6.282   2.927  1.00  0.00    -0.273 OA
BRANCH  77  80
ATOM     80  C   UNL     1       8.996   5.370   5.240  1.00  0.00     0.179 C 
ATOM     81  C   UNL     1       9.868   4.385   6.076  1.00  0.00     0.057 C 
ATOM     82  N   UNL     1       9.897   6.379   5.791  1.00  0.00    -0.296 N 
ATOM     83  C   UNL     1      10.963   5.450   6.079  1.00  0.00     0.126 C 
BRANCH  82  84
ATOM     84  C   UNL     1       9.913   7.727   5.893  1.00  0.00     0.410 C 
ATOM     85  O   UNL     1      10.944   8.329   6.171  1.00  0.00    -0.224 OA
BRANCH  84  86
ATOM     86  O   UNL     1       8.698   8.318   5.743  1.00  0.00    -0.448 OA
BRANCH  86  87
ATOM     87  C   UNL     1       8.697   9.757   5.961  1.00  0.00     0.248 C 
BRANCH  87  88
ATOM     88  C   UNL     1       8.697  10.107   7.467  1.00  0.00     0.088 C 
ATOM     89  C   UNL     1       9.825  11.037   7.935  1.00  0.00    -0.029 A 
ATOM     90  C   UNL     1       7.462  10.901   7.912  1.00  0.00    -0.029 A 
ATOM     91  C   UNL     1      11.200  10.885   7.825  1.00  0.00     0.005 A 
ATOM     92  C   UNL     1       9.294  12.147   8.625  1.00  0.00    -0.014 A 
ATOM     93  C   UNL     1       7.853  12.069   8.605  1.00  0.00    -0.014 A 
ATOM     94  C   UNL     1       6.120  10.591   7.749  1.00  0.00     0.005 A 
ATOM     95  C   UNL     1      12.041  11.843   8.396  1.00  0.00     0.000 A 
ATOM     96  C   UNL     1      10.127  13.098   9.200  1.00  0.00     0.009 A 
ATOM     97  C   UNL     1       6.908  12.934   9.136  1.00  0.00     0.009 A 
ATOM     98  C   UNL     1       5.167  11.469   8.277  1.00  0.00     0.000 A 
ATOM     99  C   UNL     1      11.510  12.940   9.083  1.00  0.00     0.001 A 
ATOM    100  C   UNL     1       5.557  12.628   8.967  1.00  0.00     0.001 A 
ENDBRANCH  87  88
ENDBRANCH  86  87
ENDBRANCH  84  86
ENDBRANCH  82  84
ENDBRANCH  77  80
ENDBRANCH  75  76
ENDBRANCH  74  75
ENDBRANCH   1  74
TORSDOF 20
