REMARK SMILES Cc1ccc(NC(=O)c2cccnc2C(=O)NCCCCCCNC(=O)c2ccc(-c3c4nc(c(-c5cccc(S(=O)(=O)[O-])c5F)c5ccc([nH]5)c(-c5cccc(S(=O)(=O)[O-])c5F)c5nc(c(-c6cccc(S(=O)(=O)[O-])c6F)c6ccc3[nH]6)C=C5)C=C4)cc2)nc1
REMARK SMILES IDX 21 1 20 2 19 3 18 4 17 5 15 6 16 7 14 9 9 10 10 11 11 12
REMARK SMILES IDX 13 13 12 14 7 15 6 16 8 18 5 19 1 20 2 21 3 22 91 23 4 24
REMARK SMILES IDX 90 25 22 26 23 27 24 28 25 29 26 31 27 32 28 33 89 34 29 35
REMARK SMILES IDX 88 36 30 37 31 38 32 39 82 40 33 41 87 42 81 43 83 44 34 45
REMARK SMILES IDX 86 46 80 47 79 48 35 50 67 51 47 52 66 53 48 54 51 55 65 56
REMARK SMILES IDX 84 57 49 58 50 59 64 61 85 62 52 63 36 64 37 65 45 66 38 67
REMARK SMILES IDX 40 68 46 69 39 70 41 71 42 72 43 73 44 74 68 75 69 76 77 77
REMARK SMILES IDX 70 78 72 79 78 80 71 81 73 82 74 83 75 84 76 85 53 86 54 87
REMARK SMILES IDX 62 88 55 89 57 90 63 91 56 92 58 93 59 94 60 95 61 96
REMARK H PARENT 17 8 6 17 24 30 83 49 51 60
REMARK Flexibility Score: inf
ROOT
ATOM      1  C   UNL     1      -7.034   0.588  -3.183  1.00  0.00     0.002 C 
ENDROOT
BRANCH   1   2
ATOM      2  C   UNL     1      -6.267  -0.728  -3.343  1.00  0.00     0.002 C 
BRANCH   2   3
ATOM      3  C   UNL     1      -5.245  -1.013  -2.239  1.00  0.00     0.021 C 
BRANCH   3   4
ATOM      4  C   UNL     1      -5.864  -1.329  -0.873  1.00  0.00     0.116 C 
BRANCH   4   5
ATOM      5  N   UNL     1      -6.046  -2.760  -0.736  1.00  0.00    -0.351 N 
ATOM      6  C   UNL     1      -5.401  -3.740  -0.019  1.00  0.00     0.270 C 
ATOM      7  O   UNL     1      -5.790  -4.895  -0.228  1.00  0.00    -0.267 OA
ATOM      8  H   UNL     1      -6.795  -3.106  -1.274  1.00  0.00     0.163 HD
BRANCH   6   9
ATOM      9  C   UNL     1      -4.386  -3.500   1.068  1.00  0.00     0.140 A 
ATOM     10  C   UNL     1      -3.351  -2.576   1.069  1.00  0.00     0.071 A 
ATOM     11  C   UNL     1      -2.497  -2.523   2.191  1.00  0.00     0.018 A 
ATOM     12  C   UNL     1      -2.649  -3.428   3.232  1.00  0.00     0.021 A 
ATOM     13  N   UNL     1      -4.555  -4.373   2.117  1.00  0.00    -0.250 NA
ATOM     14  C   UNL     1      -3.672  -4.345   3.137  1.00  0.00     0.112 A 
BRANCH  10  15
ATOM     15  C   UNL     1      -2.870  -1.879  -0.129  1.00  0.00     0.259 C 
ATOM     16  N   UNL     1      -2.440  -0.581   0.064  1.00  0.00    -0.306 N 
ATOM     17  H   UNL     1      -3.078   0.115   0.345  1.00  0.00     0.171 HD
ATOM     18  O   UNL     1      -2.793  -2.506  -1.183  1.00  0.00    -0.269 OA
BRANCH  16  19
ATOM     19  C   UNL     1      -1.090  -0.257  -0.142  1.00  0.00     0.132 A 
ATOM     20  C   UNL     1       3.087   0.471  -0.072  1.00  0.00     0.046 C 
ATOM     21  C   UNL     1       1.608   0.272  -0.131  1.00  0.00    -0.033 A 
ATOM     22  C   UNL     1       0.700   1.320   0.026  1.00  0.00     0.009 A 
ATOM     23  C   UNL     1       1.087  -1.001  -0.302  1.00  0.00     0.117 A 
ATOM     24  C   UNL     1      -0.671   1.055   0.030  1.00  0.00     0.047 A 
ATOM     25  N   UNL     1      -0.229  -1.279  -0.309  1.00  0.00    -0.239 NA
ENDBRANCH  16  19
ENDBRANCH  10  15
ENDBRANCH   6   9
ENDBRANCH   4   5
ENDBRANCH   3   4
ENDBRANCH   2   3
ENDBRANCH   1   2
BRANCH   1  26
ATOM     26  C   UNL     1      -6.161   1.840  -3.048  1.00  0.00     0.021 C 
BRANCH  26  27
ATOM     27  C   UNL     1      -5.182   2.066  -4.198  1.00  0.00     0.116 C 
BRANCH  27  28
ATOM     28  N   UNL     1      -5.875   2.247  -5.465  1.00  0.00    -0.352 N 
ATOM     29  C   UNL     1      -5.944   3.354  -6.271  1.00  0.00     0.251 C 
ATOM     30  H   UNL     1      -6.366   1.458  -5.791  1.00  0.00     0.163 HD
ATOM     31  O   UNL     1      -6.784   3.411  -7.165  1.00  0.00    -0.269 OA
BRANCH  29  32
ATOM     32  C   UNL     1      -5.008   4.480  -6.064  1.00  0.00     0.039 A 
ATOM     33  C   UNL     1      -5.494   5.789  -6.120  1.00  0.00     0.014 A 
ATOM     34  C   UNL     1      -3.646   4.245  -5.852  1.00  0.00     0.014 A 
ATOM     35  C   UNL     1      -4.621   6.862  -5.919  1.00  0.00     0.010 A 
ATOM     36  C   UNL     1      -2.792   5.311  -5.583  1.00  0.00     0.010 A 
ATOM     37  C   UNL     1      -3.267   6.630  -5.626  1.00  0.00    -0.014 A 
BRANCH  37  38
ATOM     38  C   UNL     1      -2.327   7.752  -5.371  1.00  0.00     0.031 A 
ATOM     39  C   UNL     1      -1.163   7.988  -6.297  1.00  0.00     0.074 A 
ATOM     40  C   UNL     1      -2.471   8.503  -4.261  1.00  0.00     0.049 A 
ATOM     41  N   UNL     1      -0.199   8.867  -6.201  1.00  0.00    -0.248 NA
ATOM     42  C   UNL     1      -1.052   7.103  -7.469  1.00  0.00     0.031 C 
ATOM     43  C   UNL     1      -3.514   8.325  -3.249  1.00  0.00     0.029 A 
ATOM     44  N   UNL     1      -1.720   9.548  -3.783  1.00  0.00    -0.354 N 
ATOM     45  C   UNL     1       0.649   8.619  -7.274  1.00  0.00     0.074 A 
ATOM     46  C   UNL     1       0.105   7.486  -7.990  1.00  0.00     0.031 C 
ATOM     47  C   UNL     1      -3.336   9.228  -2.271  1.00  0.00     0.029 A 
ATOM     48  C   UNL     1      -2.154  10.030  -2.570  1.00  0.00     0.049 A 
ATOM     49  H   UNL     1      -0.945   9.918  -4.263  1.00  0.00     0.167 HD
ATOM     50  C   UNL     1       1.763   9.292  -7.650  1.00  0.00     0.034 A 
ATOM     51  C   UNL     1      -1.653  11.003  -1.785  1.00  0.00     0.034 A 
ATOM     52  C   UNL     1       2.272  10.449  -6.965  1.00  0.00     0.049 A 
ATOM     53  C   UNL     1      -0.441  11.765  -2.250  1.00  0.00     0.074 A 
ATOM     54  C   UNL     1       3.345  11.251  -7.313  1.00  0.00     0.029 A 
ATOM     55  N   UNL     1       1.747  10.969  -5.793  1.00  0.00    -0.354 N 
ATOM     56  N   UNL     1       0.258  11.613  -3.349  1.00  0.00    -0.248 NA
ATOM     57  C   UNL     1       0.029  12.859  -1.388  1.00  0.00     0.031 C 
ATOM     58  C   UNL     1       3.478  12.247  -6.340  1.00  0.00     0.029 A 
ATOM     59  C   UNL     1       2.475  12.079  -5.400  1.00  0.00     0.049 A 
ATOM     60  H   UNL     1       0.971  10.603  -5.311  1.00  0.00     0.167 HD
ATOM     61  C   UNL     1       1.223  12.613  -3.329  1.00  0.00     0.074 A 
ATOM     62  C   UNL     1       1.006  13.379  -2.119  1.00  0.00     0.031 C 
ATOM     63  C   UNL     1       2.209  12.866  -4.224  1.00  0.00     0.034 A 
BRANCH  50  64
ATOM     64  C   UNL     1       2.476   8.832  -8.895  1.00  0.00     0.023 A 
ATOM     65  C   UNL     1       1.886   9.059 -10.155  1.00  0.00     0.012 A 
ATOM     66  C   UNL     1       3.753   8.241  -8.826  1.00  0.00     0.148 A 
ATOM     67  C   UNL     1       2.540   8.676 -11.326  1.00  0.00     0.002 A 
ATOM     68  C   UNL     1       4.418   7.903  -9.999  1.00  0.00     0.091 A 
ATOM     69  F   UNL     1       4.289   8.015  -7.618  1.00  0.00    -0.205 F 
ATOM     70  C   UNL     1       3.809   8.109 -11.248  1.00  0.00     0.022 A 
BRANCH  68  71
ATOM     71  S   UNL     1       6.088   7.241 -10.012  1.00  0.00     0.127 S 
ATOM     72  O   UNL     1       5.856   5.863 -10.444  1.00  0.00    -0.237 OA
ATOM     73  O   UNL     1       6.747   8.089 -11.005  1.00  0.00    -0.237 OA
ATOM     74  O   UNL     1       6.591   7.392  -8.654  1.00  0.00    -0.744 OA
ENDBRANCH  68  71
ENDBRANCH  50  64
BRANCH  51  75
ATOM     75  C   UNL     1      -2.334  11.358  -0.508  1.00  0.00     0.023 A 
ATOM     76  C   UNL     1      -3.005  12.592  -0.402  1.00  0.00     0.012 A 
ATOM     77  C   UNL     1      -2.341  10.478   0.591  1.00  0.00     0.148 A 
ATOM     78  C   UNL     1      -3.638  12.959   0.786  1.00  0.00     0.002 A 
ATOM     79  C   UNL     1      -3.021  10.825   1.753  1.00  0.00     0.091 A 
ATOM     80  F   UNL     1      -1.686   9.314   0.478  1.00  0.00    -0.205 F 
ATOM     81  C   UNL     1      -3.655  12.073   1.860  1.00  0.00     0.022 A 
BRANCH  79  82
ATOM     82  S   UNL     1      -3.204   9.686   3.130  1.00  0.00     0.127 S 
ATOM     83  O   UNL     1      -2.277  10.246   4.109  1.00  0.00    -0.237 OA
ATOM     84  O   UNL     1      -4.621   9.836   3.465  1.00  0.00    -0.237 OA
ATOM     85  O   UNL     1      -2.854   8.374   2.601  1.00  0.00    -0.744 OA
ENDBRANCH  79  82
ENDBRANCH  51  75
BRANCH  63  86
ATOM     86  C   UNL     1       3.111  14.043  -3.957  1.00  0.00     0.023 A 
ATOM     87  C   UNL     1       4.075  13.968  -2.933  1.00  0.00     0.012 A 
ATOM     88  C   UNL     1       3.054  15.190  -4.773  1.00  0.00     0.148 A 
ATOM     89  C   UNL     1       4.948  15.030  -2.704  1.00  0.00     0.002 A 
ATOM     90  C   UNL     1       3.960  16.224  -4.571  1.00  0.00     0.091 A 
ATOM     91  F   UNL     1       2.117  15.249  -5.730  1.00  0.00    -0.205 F 
ATOM     92  C   UNL     1       4.899  16.151  -3.529  1.00  0.00     0.022 A 
BRANCH  90  93
ATOM     93  S   UNL     1       4.033  17.662  -5.645  1.00  0.00     0.127 S 
ATOM     94  O   UNL     1       3.457  18.700  -4.792  1.00  0.00    -0.237 OA
ATOM     95  O   UNL     1       5.470  17.797  -5.885  1.00  0.00    -0.237 OA
ATOM     96  O   UNL     1       3.254  17.318  -6.827  1.00  0.00    -0.744 OA
ENDBRANCH  90  93
ENDBRANCH  63  86
ENDBRANCH  37  38
ENDBRANCH  29  32
ENDBRANCH  27  28
ENDBRANCH  26  27
ENDBRANCH   1  26
TORSDOF 18
