REMARK SMILES Cc1ccc(S(=O)(=O)N(CC(=O)NCCCCCCNC(=O)c2ccc(-c3c4nc(c(-c5cccc(S(=O)(=O)[O-])c5F)c5ccc([nH]5)c(-c5cccc(S(=O)(=O)[O-])c5F)c5nc(c(-c6cccc(S(=O)(=O)[O-])c6F)c6ccc3[nH]6)C=C5)C=C4)cc2)c2cc(Cl)cc(Cl)c2)cc1
REMARK SMILES IDX 16 1 15 2 14 3 13 4 11 5 12 6 10 8 9 9 6 10 7 11 8 12 5 13
REMARK SMILES IDX 1 14 2 15 3 16 95 17 4 18 94 19 86 20 87 21 93 22 88 23
REMARK SMILES IDX 91 24 89 25 90 26 92 27 17 28 18 29 19 30 20 31 21 32 22 34
REMARK SMILES IDX 23 35 24 36 85 37 25 38 84 39 26 40 27 41 28 42 78 43 29 44
REMARK SMILES IDX 83 45 77 46 79 47 30 48 82 49 76 50 75 51 31 53 63 54 43 55
REMARK SMILES IDX 62 56 44 57 47 58 61 59 80 60 45 61 46 62 60 64 81 65 48 66
REMARK SMILES IDX 32 67 33 68 41 69 34 70 36 71 42 72 35 73 37 74 38 75 39 76
REMARK SMILES IDX 40 77 64 78 65 79 73 80 66 81 68 82 74 83 67 84 69 85 70 86
REMARK SMILES IDX 71 87 72 88 49 89 50 90 58 91 51 92 53 93 59 94 52 95 54 96
REMARK SMILES IDX 55 97 56 98 57 99
REMARK H PARENT 13 7 20 33 79 52 47 63
REMARK Flexibility Score: inf
ROOT
ATOM      1  C   UNL     1      -3.963   2.002  -5.037  1.00  0.00     0.002 C 
ENDROOT
BRANCH   1   2
ATOM      2  C   UNL     1      -3.832   1.383  -3.642  1.00  0.00     0.021 C 
BRANCH   2   3
ATOM      3  C   UNL     1      -2.748   1.985  -2.750  1.00  0.00     0.116 C 
BRANCH   3   4
ATOM      4  N   UNL     1      -3.004   3.344  -2.311  1.00  0.00    -0.355 N 
ATOM      5  C   UNL     1      -3.305   3.856  -1.084  1.00  0.00     0.240 C 
ATOM      6  O   UNL     1      -3.239   5.086  -0.966  1.00  0.00    -0.273 OA
ATOM      7  H   UNL     1      -2.950   4.017  -3.027  1.00  0.00     0.163 HD
BRANCH   5   8
ATOM      8  C   UNL     1      -3.694   3.010   0.124  1.00  0.00     0.235 C 
BRANCH   8   9
ATOM      9  N   UNL     1      -4.250   1.665  -0.186  1.00  0.00    -0.257 N 
BRANCH   9  10
ATOM     10  S   UNL     1      -3.509   0.346   0.655  1.00  0.00     0.264 S 
ATOM     11  O   UNL     1      -4.134  -0.861   0.146  1.00  0.00    -0.201 OA
ATOM     12  O   UNL     1      -3.546   0.660   2.068  1.00  0.00    -0.201 OA
BRANCH  10  13
ATOM     13  C   UNL     1      -1.759   0.195   0.242  1.00  0.00     0.088 A 
ATOM     14  C   UNL     1       2.506  -0.435  -0.132  1.00  0.00     0.044 C 
ATOM     15  C   UNL     1       1.023  -0.216  -0.062  1.00  0.00    -0.051 A 
ATOM     16  C   UNL     1       0.140  -1.300  -0.069  1.00  0.00     0.005 A 
ATOM     17  C   UNL     1       0.502   1.072   0.059  1.00  0.00     0.005 A 
ATOM     18  C   UNL     1      -1.240  -1.099   0.075  1.00  0.00     0.022 A 
ATOM     19  C   UNL     1      -0.873   1.276   0.223  1.00  0.00     0.022 A 
ENDBRANCH  10  13
ENDBRANCH   9  10
BRANCH   9  20
ATOM     20  C   UNL     1      -5.730   1.705  -0.167  1.00  0.00     0.055 A 
ATOM     21  C   UNL     1      -6.370   2.607  -1.037  1.00  0.00     0.047 A 
ATOM     22  C   UNL     1      -6.510   1.086   0.817  1.00  0.00     0.047 A 
ATOM     23  C   UNL     1      -7.727   2.906  -0.899  1.00  0.00     0.044 A 
ATOM     24  C   UNL     1      -7.877   1.369   0.925  1.00  0.00     0.044 A 
ATOM     25  Cl  UNL     1      -8.438   4.110  -1.904  1.00  0.00    -0.084 Cl
ATOM     26  C   UNL     1      -8.488   2.290   0.083  1.00  0.00     0.041 A 
ATOM     27  Cl  UNL     1      -8.805   0.618   2.167  1.00  0.00    -0.084 Cl
ENDBRANCH   9  20
ENDBRANCH   8   9
ENDBRANCH   5   8
ENDBRANCH   3   4
ENDBRANCH   2   3
ENDBRANCH   1   2
BRANCH   1  28
ATOM     28  C   UNL     1      -2.668   2.132  -5.850  1.00  0.00     0.002 C 
BRANCH  28  29
ATOM     29  C   UNL     1      -1.762   0.901  -5.880  1.00  0.00     0.021 C 
BRANCH  29  30
ATOM     30  C   UNL     1      -2.342  -0.295  -6.615  1.00  0.00     0.116 C 
BRANCH  30  31
ATOM     31  N   UNL     1      -1.999  -0.314  -8.028  1.00  0.00    -0.352 N 
ATOM     32  C   UNL     1      -2.208  -1.297  -8.980  1.00  0.00     0.251 C 
ATOM     33  H   UNL     1      -1.550   0.497  -8.359  1.00  0.00     0.163 HD
ATOM     34  O   UNL     1      -1.663  -1.184 -10.074  1.00  0.00    -0.269 OA
BRANCH  32  35
ATOM     35  C   UNL     1      -3.211  -2.362  -8.729  1.00  0.00     0.039 A 
ATOM     36  C   UNL     1      -4.159  -2.590  -9.735  1.00  0.00     0.014 A 
ATOM     37  C   UNL     1      -3.417  -2.866  -7.450  1.00  0.00     0.014 A 
ATOM     38  C   UNL     1      -5.432  -3.028  -9.386  1.00  0.00     0.010 A 
ATOM     39  C   UNL     1      -4.699  -3.192  -7.081  1.00  0.00     0.010 A 
ATOM     40  C   UNL     1      -5.720  -3.182  -8.037  1.00  0.00    -0.014 A 
BRANCH  40  41
ATOM     41  C   UNL     1      -7.049  -3.326  -7.478  1.00  0.00     0.031 A 
ATOM     42  C   UNL     1      -7.524  -4.675  -7.120  1.00  0.00     0.074 A 
ATOM     43  C   UNL     1      -7.692  -2.212  -7.055  1.00  0.00     0.049 A 
ATOM     44  N   UNL     1      -8.724  -4.944  -6.743  1.00  0.00    -0.248 NA
ATOM     45  C   UNL     1      -6.664  -5.852  -7.192  1.00  0.00     0.031 C 
ATOM     46  C   UNL     1      -8.780  -2.141  -6.085  1.00  0.00     0.029 A 
ATOM     47  N   UNL     1      -7.620  -0.907  -7.559  1.00  0.00    -0.354 N 
ATOM     48  C   UNL     1      -8.714  -6.220  -6.222  1.00  0.00     0.074 A 
ATOM     49  C   UNL     1      -7.457  -6.779  -6.648  1.00  0.00     0.031 C 
ATOM     50  C   UNL     1      -9.454  -0.996  -6.276  1.00  0.00     0.029 A 
ATOM     51  C   UNL     1      -8.942  -0.425  -7.508  1.00  0.00     0.049 A 
ATOM     52  H   UNL     1      -6.820  -0.431  -7.878  1.00  0.00     0.167 HD
ATOM     53  C   UNL     1      -9.712  -6.569  -5.361  1.00  0.00     0.034 A 
ATOM     54  C   UNL     1      -9.701  -0.168  -8.618  1.00  0.00     0.034 A 
ATOM     55  C   UNL     1     -10.770  -5.542  -5.366  1.00  0.00     0.049 A 
ATOM     56  C   UNL     1     -11.016  -0.939  -8.650  1.00  0.00     0.074 A 
ATOM     57  C   UNL     1     -11.114  -4.518  -4.500  1.00  0.00     0.029 A 
ATOM     58  N   UNL     1     -11.476  -5.311  -6.543  1.00  0.00    -0.354 N 
ATOM     59  N   UNL     1     -11.312  -1.925  -7.847  1.00  0.00    -0.248 NA
ATOM     60  C   UNL     1     -12.099  -0.667  -9.592  1.00  0.00     0.031 C 
ATOM     61  C   UNL     1     -11.970  -3.620  -5.201  1.00  0.00     0.029 A 
ATOM     62  C   UNL     1     -12.175  -4.117  -6.477  1.00  0.00     0.049 A 
ATOM     63  H   UNL     1     -11.479  -5.917  -7.319  1.00  0.00     0.167 HD
ATOM     64  C   UNL     1     -12.512  -2.491  -8.201  1.00  0.00     0.074 A 
ATOM     65  C   UNL     1     -12.997  -1.611  -9.252  1.00  0.00     0.031 C 
ATOM     66  C   UNL     1     -12.955  -3.660  -7.629  1.00  0.00     0.034 A 
BRANCH  53  67
ATOM     67  C   UNL     1      -9.661  -7.686  -4.321  1.00  0.00     0.023 A 
ATOM     68  C   UNL     1     -10.680  -7.692  -3.340  1.00  0.00     0.012 A 
ATOM     69  C   UNL     1      -8.656  -8.671  -4.157  1.00  0.00     0.148 A 
ATOM     70  C   UNL     1     -10.670  -8.559  -2.239  1.00  0.00     0.002 A 
ATOM     71  C   UNL     1      -8.640  -9.538  -3.057  1.00  0.00     0.091 A 
ATOM     72  F   UNL     1      -7.690  -8.806  -5.059  1.00  0.00    -0.205 F 
ATOM     73  C   UNL     1      -9.642  -9.476  -2.089  1.00  0.00     0.022 A 
BRANCH  71  74
ATOM     74  S   UNL     1      -7.327 -10.749  -2.793  1.00  0.00     0.127 S 
ATOM     75  O   UNL     1      -6.779 -10.329  -1.503  1.00  0.00    -0.237 OA
ATOM     76  O   UNL     1      -8.067 -12.010  -2.756  1.00  0.00    -0.237 OA
ATOM     77  O   UNL     1      -6.403 -10.615  -3.913  1.00  0.00    -0.744 OA
ENDBRANCH  71  74
ENDBRANCH  53  67
BRANCH  54  78
ATOM     78  C   UNL     1      -8.896   0.229  -9.815  1.00  0.00     0.023 A 
ATOM     79  C   UNL     1      -8.107   1.398  -9.687  1.00  0.00     0.012 A 
ATOM     80  C   UNL     1      -8.592  -0.682 -10.841  1.00  0.00     0.148 A 
ATOM     81  C   UNL     1      -6.941   1.562 -10.435  1.00  0.00     0.002 A 
ATOM     82  C   UNL     1      -7.435  -0.500 -11.601  1.00  0.00     0.091 A 
ATOM     83  F   UNL     1      -9.392  -1.741 -11.020  1.00  0.00    -0.205 F 
ATOM     84  C   UNL     1      -6.582   0.590 -11.361  1.00  0.00     0.022 A 
BRANCH  82  85
ATOM     85  S   UNL     1      -6.916  -1.702 -12.835  1.00  0.00     0.127 S 
ATOM     86  O   UNL     1      -7.484  -1.135 -14.054  1.00  0.00    -0.237 OA
ATOM     87  O   UNL     1      -5.457  -1.636 -12.748  1.00  0.00    -0.237 OA
ATOM     88  O   UNL     1      -7.481  -2.965 -12.383  1.00  0.00    -0.744 OA
ENDBRANCH  82  85
ENDBRANCH  54  78
BRANCH  66  89
ATOM     89  C   UNL     1     -14.136  -4.518  -8.092  1.00  0.00     0.023 A 
ATOM     90  C   UNL     1     -14.797  -4.317  -9.317  1.00  0.00     0.012 A 
ATOM     91  C   UNL     1     -14.548  -5.662  -7.348  1.00  0.00     0.148 A 
ATOM     92  C   UNL     1     -15.822  -5.163  -9.767  1.00  0.00     0.002 A 
ATOM     93  C   UNL     1     -15.483  -6.565  -7.854  1.00  0.00     0.091 A 
ATOM     94  F   UNL     1     -14.060  -5.879  -6.119  1.00  0.00    -0.205 F 
ATOM     95  C   UNL     1     -16.145  -6.304  -9.050  1.00  0.00     0.022 A 
BRANCH  93  96
ATOM     96  S   UNL     1     -15.748  -8.162  -7.067  1.00  0.00     0.127 S 
ATOM     97  O   UNL     1     -16.885  -7.886  -6.192  1.00  0.00    -0.237 OA
ATOM     98  O   UNL     1     -16.056  -9.028  -8.208  1.00  0.00    -0.237 OA
ATOM     99  O   UNL     1     -14.486  -8.472  -6.411  1.00  0.00    -0.744 OA
ENDBRANCH  93  96
ENDBRANCH  66  89
ENDBRANCH  40  41
ENDBRANCH  32  35
ENDBRANCH  30  31
ENDBRANCH  29  30
ENDBRANCH  28  29
ENDBRANCH   1  28
TORSDOF 20
