REMARK SMILES CC1=C(C)C[C@@H](C(=O)NCCCCCCNC(=O)c2ccc(-c3c4nc(c(-c5cccc(S(=O)(=O)[O-])c5F)c5ccc([nH]5)c(-c5cccc(S(=O)(=O)[O-])c5F)c5nc(c(-c6cccc(S(=O)(=O)[O-])c6F)c6ccc3[nH]6)C=C5)C=C4)cc2)[C@@H](C(=O)N2CCN(c3cccc(C(F)(F)F)c3)CC2)C1
REMARK SMILES IDX 12 1 11 2 10 3 9 4 7 5 8 6 6 8 1 9 2 10 3 11 101 12 4 13
REMARK SMILES IDX 5 14 82 15 83 16 84 17 85 18 86 19 100 20 87 21 99 22 88 23
REMARK SMILES IDX 89 24 90 25 98 26 91 27 93 28 92 29 94 30 95 31 96 32 97 33
REMARK SMILES IDX 13 34 14 35 15 36 16 37 17 38 18 40 19 41 20 42 81 43 21 44
REMARK SMILES IDX 80 45 22 46 23 47 24 48 74 49 25 50 79 51 73 52 75 53 26 54
REMARK SMILES IDX 78 55 72 56 71 57 27 59 59 60 39 61 58 62 40 63 43 64 57 65
REMARK SMILES IDX 76 66 41 67 42 68 56 70 77 71 44 72 28 73 29 74 37 75 30 76
REMARK SMILES IDX 32 77 38 78 31 79 33 80 34 81 35 82 36 83 60 84 61 85 69 86
REMARK SMILES IDX 62 87 64 88 70 89 63 90 65 91 66 92 67 93 68 94 45 95 46 96
REMARK SMILES IDX 54 97 47 98 49 99 55 100 48 101 50 102 51 103 52 104 53 105
REMARK H PARENT 9 7 16 39 75 58 43 69
REMARK Flexibility Score: inf
ROOT
ATOM      1  C   UNL     1       5.088   1.767   3.397  1.00  0.00     0.002 C 
ENDROOT
BRANCH   1   2
ATOM      2  C   UNL     1       3.832   1.542   2.558  1.00  0.00     0.021 C 
BRANCH   2   3
ATOM      3  C   UNL     1       2.614   1.160   3.394  1.00  0.00     0.116 C 
BRANCH   3   4
ATOM      4  N   UNL     1       2.180   2.179   4.324  1.00  0.00    -0.356 N 
ATOM      5  C   UNL     1       1.136   3.041   4.297  1.00  0.00     0.224 C 
ATOM      6  O   UNL     1       1.001   3.801   5.266  1.00  0.00    -0.275 OA
ATOM      7  H   UNL     1       2.748   2.260   5.125  1.00  0.00     0.163 HD
BRANCH   5   8
ATOM      8  C   UNL     1       0.118   3.110   3.158  1.00  0.00     0.095 C 
ATOM      9  C   UNL     1       0.750   0.311  -0.219  1.00  0.00     0.039 C 
ATOM     10  C   UNL     1       0.290   1.253   0.872  1.00  0.00    -0.074 C 
ATOM     11  C   UNL     1      -0.433   0.885   1.953  1.00  0.00    -0.074 C 
ATOM     12  C   UNL     1       0.827   2.662   0.693  1.00  0.00     0.045 C 
ATOM     13  C   UNL     1      -0.899  -0.518   2.263  1.00  0.00     0.039 C 
ATOM     14  C   UNL     1      -0.763   1.863   3.056  1.00  0.00     0.045 C 
ATOM     15  C   UNL     1       0.584   3.686   1.821  1.00  0.00     0.095 C 
BRANCH  15  16
ATOM     16  C   UNL     1       1.807   4.607   1.941  1.00  0.00     0.226 C 
ATOM     17  O   UNL     1       2.825   4.363   2.576  1.00  0.00    -0.275 OA
ATOM     18  N   UNL     1       1.746   5.736   1.155  1.00  0.00    -0.339 N 
ATOM     19  C   UNL     1       2.965   6.134   0.448  1.00  0.00     0.141 C 
ATOM     20  C   UNL     1       0.970   6.858   1.675  1.00  0.00     0.141 C 
ATOM     21  C   UNL     1       2.630   7.072  -0.720  1.00  0.00     0.138 C 
ATOM     22  C   UNL     1       0.623   7.865   0.575  1.00  0.00     0.138 C 
ATOM     23  N   UNL     1       1.805   8.186  -0.231  1.00  0.00    -0.368 N 
BRANCH  23  24
ATOM     24  C   UNL     1       2.204   9.479  -0.455  1.00  0.00     0.037 A 
ATOM     25  C   UNL     1       2.392   9.950  -1.758  1.00  0.00     0.026 A 
ATOM     26  C   UNL     1       2.469  10.346   0.610  1.00  0.00     0.039 A 
ATOM     27  C   UNL     1       2.815  11.257  -1.999  1.00  0.00     0.003 A 
ATOM     28  C   UNL     1       2.926  11.655   0.390  1.00  0.00     0.058 A 
ATOM     29  C   UNL     1       3.084  12.106  -0.928  1.00  0.00     0.013 A 
BRANCH  28  30
ATOM     30  C   UNL     1       3.258  12.561   1.545  1.00  0.00     0.416 C 
ATOM     31  F   UNL     1       4.537  13.028   1.492  1.00  0.00    -0.166 F 
ATOM     32  F   UNL     1       2.462  13.665   1.586  1.00  0.00    -0.166 F 
ATOM     33  F   UNL     1       3.131  11.968   2.766  1.00  0.00    -0.166 F 
ENDBRANCH  28  30
ENDBRANCH  23  24
ENDBRANCH  15  16
ENDBRANCH   5   8
ENDBRANCH   3   4
ENDBRANCH   2   3
ENDBRANCH   1   2
BRANCH   1  34
ATOM     34  C   UNL     1       5.536   0.508   4.143  1.00  0.00     0.002 C 
BRANCH  34  35
ATOM     35  C   UNL     1       5.707  -0.719   3.241  1.00  0.00     0.021 C 
BRANCH  35  36
ATOM     36  C   UNL     1       6.668  -0.494   2.079  1.00  0.00     0.116 C 
BRANCH  36  37
ATOM     37  N   UNL     1       8.010  -0.216   2.567  1.00  0.00    -0.352 N 
ATOM     38  C   UNL     1       9.157  -0.933   2.342  1.00  0.00     0.251 C 
ATOM     39  H   UNL     1       8.106   0.587   3.129  1.00  0.00     0.163 HD
ATOM     40  O   UNL     1      10.145  -0.769   3.045  1.00  0.00    -0.269 OA
BRANCH  38  41
ATOM     41  C   UNL     1       9.175  -1.905   1.232  1.00  0.00     0.039 A 
ATOM     42  C   UNL     1       9.675  -3.188   1.456  1.00  0.00     0.014 A 
ATOM     43  C   UNL     1       8.684  -1.540  -0.025  1.00  0.00     0.014 A 
ATOM     44  C   UNL     1       9.650  -4.123   0.420  1.00  0.00     0.010 A 
ATOM     45  C   UNL     1       8.593  -2.493  -1.032  1.00  0.00     0.010 A 
ATOM     46  C   UNL     1       9.089  -3.789  -0.825  1.00  0.00    -0.014 A 
BRANCH  46  47
ATOM     47  C   UNL     1       9.015  -4.779  -1.928  1.00  0.00     0.031 A 
ATOM     48  C   UNL     1       9.754  -4.527  -3.214  1.00  0.00     0.074 A 
ATOM     49  C   UNL     1       8.211  -5.853  -1.805  1.00  0.00     0.049 A 
ATOM     50  N   UNL     1       9.751  -5.230  -4.316  1.00  0.00    -0.248 NA
ATOM     51  C   UNL     1      10.583  -3.311  -3.284  1.00  0.00     0.031 C 
ATOM     52  C   UNL     1       7.383  -6.161  -0.636  1.00  0.00     0.029 A 
ATOM     53  N   UNL     1       7.929  -6.866  -2.687  1.00  0.00    -0.354 N 
ATOM     54  C   UNL     1      10.535  -4.524  -5.220  1.00  0.00     0.074 A 
ATOM     55  C   UNL     1      10.981  -3.324  -4.548  1.00  0.00     0.031 C 
ATOM     56  C   UNL     1       6.682  -7.281  -0.876  1.00  0.00     0.029 A 
ATOM     57  C   UNL     1       6.981  -7.750  -2.225  1.00  0.00     0.049 A 
ATOM     58  H   UNL     1       8.364  -6.952  -3.566  1.00  0.00     0.167 HD
ATOM     59  C   UNL     1      10.871  -4.856  -6.488  1.00  0.00     0.034 A 
ATOM     60  C   UNL     1       6.403  -8.807  -2.829  1.00  0.00     0.034 A 
ATOM     61  C   UNL     1      10.463  -6.074  -7.133  1.00  0.00     0.049 A 
ATOM     62  C   UNL     1       6.835  -9.180  -4.221  1.00  0.00     0.074 A 
ATOM     63  C   UNL     1      10.837  -6.552  -8.377  1.00  0.00     0.029 A 
ATOM     64  N   UNL     1       9.584  -6.999  -6.596  1.00  0.00    -0.354 N 
ATOM     65  N   UNL     1       7.708  -8.587  -5.000  1.00  0.00    -0.248 NA
ATOM     66  C   UNL     1       6.232 -10.386  -4.807  1.00  0.00     0.031 C 
ATOM     67  C   UNL     1      10.154  -7.749  -8.607  1.00  0.00     0.029 A 
ATOM     68  C   UNL     1       9.389  -8.038  -7.488  1.00  0.00     0.049 A 
ATOM     69  H   UNL     1       9.160  -6.928  -5.710  1.00  0.00     0.167 HD
ATOM     70  C   UNL     1       7.791  -9.371  -6.145  1.00  0.00     0.074 A 
ATOM     71  C   UNL     1       6.891 -10.489  -5.953  1.00  0.00     0.031 C 
ATOM     72  C   UNL     1       8.537  -9.176  -7.259  1.00  0.00     0.034 A 
BRANCH  59  73
ATOM     73  C   UNL     1      11.754  -3.912  -7.259  1.00  0.00     0.023 A 
ATOM     74  C   UNL     1      13.117  -3.789  -6.918  1.00  0.00     0.012 A 
ATOM     75  C   UNL     1      11.255  -3.216  -8.378  1.00  0.00     0.148 A 
ATOM     76  C   UNL     1      13.963  -2.968  -7.662  1.00  0.00     0.002 A 
ATOM     77  C   UNL     1      12.115  -2.437  -9.143  1.00  0.00     0.091 A 
ATOM     78  F   UNL     1       9.953  -3.330  -8.672  1.00  0.00    -0.205 F 
ATOM     79  C   UNL     1      13.466  -2.304  -8.780  1.00  0.00     0.022 A 
BRANCH  77  80
ATOM     80  S   UNL     1      11.593  -1.610 -10.649  1.00  0.00     0.127 S 
ATOM     81  O   UNL     1      11.686  -0.203 -10.260  1.00  0.00    -0.237 OA
ATOM     82  O   UNL     1      12.610  -2.046 -11.606  1.00  0.00    -0.237 OA
ATOM     83  O   UNL     1      10.247  -2.090 -10.928  1.00  0.00    -0.744 OA
ENDBRANCH  77  80
ENDBRANCH  59  73
BRANCH  60  84
ATOM     84  C   UNL     1       5.379  -9.613  -2.105  1.00  0.00     0.023 A 
ATOM     85  C   UNL     1       5.679 -10.932  -1.711  1.00  0.00     0.012 A 
ATOM     86  C   UNL     1       4.115  -9.076  -1.797  1.00  0.00     0.148 A 
ATOM     87  C   UNL     1       4.724 -11.715  -1.061  1.00  0.00     0.002 A 
ATOM     88  C   UNL     1       3.189  -9.840  -1.097  1.00  0.00     0.091 A 
ATOM     89  F   UNL     1       3.844  -7.823  -2.189  1.00  0.00    -0.205 F 
ATOM     90  C   UNL     1       3.483 -11.167  -0.747  1.00  0.00     0.022 A 
BRANCH  88  91
ATOM     91  S   UNL     1       1.621  -9.169  -0.534  1.00  0.00     0.127 S 
ATOM     92  O   UNL     1       0.673  -9.836  -1.423  1.00  0.00    -0.237 OA
ATOM     93  O   UNL     1       1.582  -9.617   0.858  1.00  0.00    -0.237 OA
ATOM     94  O   UNL     1       1.732  -7.725  -0.694  1.00  0.00    -0.744 OA
ENDBRANCH  88  91
ENDBRANCH  60  84
BRANCH  72  95
ATOM     95  C   UNL     1       8.469 -10.218  -8.344  1.00  0.00     0.023 A 
ATOM     96  C   UNL     1       7.318 -10.330  -9.148  1.00  0.00     0.012 A 
ATOM     97  C   UNL     1       9.590 -11.027  -8.621  1.00  0.00     0.148 A 
ATOM     98  C   UNL     1       7.273 -11.252 -10.193  1.00  0.00     0.002 A 
ATOM     99  C   UNL     1       9.557 -11.904  -9.697  1.00  0.00     0.091 A 
ATOM    100  F   UNL     1      10.668 -10.916  -7.832  1.00  0.00    -0.205 F 
ATOM    101  C   UNL     1       8.395 -12.028 -10.476  1.00  0.00     0.022 A 
BRANCH  99 102
ATOM    102  S   UNL     1      10.988 -12.867 -10.198  1.00  0.00     0.127 S 
ATOM    103  O   UNL     1      10.576 -14.222  -9.835  1.00  0.00    -0.237 OA
ATOM    104  O   UNL     1      11.043 -12.611 -11.638  1.00  0.00    -0.237 OA
ATOM    105  O   UNL     1      12.116 -12.336  -9.445  1.00  0.00    -0.744 OA
ENDBRANCH  99 102
ENDBRANCH  72  95
ENDBRANCH  46  47
ENDBRANCH  38  41
ENDBRANCH  36  37
ENDBRANCH  35  36
ENDBRANCH  34  35
ENDBRANCH   1  34
TORSDOF 19
