REMARK SMILES Cc1c(C#N)c2ccccc2n1CC(=O)N1CC[C@H](O)C[C@@H]1C(=O)NCCCCCCNC(=O)c1ccc(-c2c3nc(c(-c4cccc(S(=O)(=O)[O-])c4F)c4ccc([nH]4)c(-c4cccc(S(=O)(=O)[O-])c4F)c4nc(c(-c5cccc(S(=O)(=O)[O-])c5F)c5ccc2[nH]5)C=C4)C=C3)cc1
REMARK SMILES IDX 28 1 27 2 26 3 25 4 23 5 24 6 22 8 16 9 17 10 18 11 21 12
REMARK SMILES IDX 19 13 14 14 15 15 13 16 12 17 1 18 2 19 3 20 6 21 11 22 7 23
REMARK SMILES IDX 10 24 8 25 9 26 4 27 5 28 20 29 29 31 30 32 31 33 32 34
REMARK SMILES IDX 33 35 34 37 35 38 36 39 97 40 37 41 96 42 38 43 39 44 40 45
REMARK SMILES IDX 90 46 41 47 95 48 89 49 91 50 42 51 94 52 88 53 87 54 43 56
REMARK SMILES IDX 75 57 55 58 74 59 56 60 59 61 73 62 92 63 57 64 58 65 72 67
REMARK SMILES IDX 93 68 60 69 44 70 45 71 53 72 46 73 48 74 54 75 47 76 49 77
REMARK SMILES IDX 50 78 51 79 52 80 76 81 77 82 85 83 78 84 80 85 86 86 79 87
REMARK SMILES IDX 81 88 82 89 83 90 84 91 61 92 62 93 70 94 63 95 65 96 71 97
REMARK SMILES IDX 64 98 66 99 67 100 68 101 69 102
REMARK H PARENT 25 7 20 30 32 36 91 55 59 66
REMARK Flexibility Score: inf
ROOT
ATOM      1  C   UNL     1       4.879   5.826   4.993  1.00  0.00     0.002 C 
ENDROOT
BRANCH   1   2
ATOM      2  C   UNL     1       4.386   4.519   4.369  1.00  0.00     0.021 C 
BRANCH   2   3
ATOM      3  C   UNL     1       4.147   4.607   2.860  1.00  0.00     0.116 C 
BRANCH   3   4
ATOM      4  N   UNL     1       5.373   4.550   2.080  1.00  0.00    -0.354 N 
ATOM      5  C   UNL     1       5.853   3.800   1.055  1.00  0.00     0.242 C 
ATOM      6  O   UNL     1       6.890   4.256   0.548  1.00  0.00    -0.273 OA
ATOM      7  H   UNL     1       6.023   5.230   2.370  1.00  0.00     0.163 HD
BRANCH   5   8
ATOM      8  C   UNL     1       5.409   2.366   0.646  1.00  0.00     0.177 C 
ATOM      9  N   UNL     1       3.982   2.059   0.582  1.00  0.00    -0.329 N 
ATOM     10  C   UNL     1       3.322   1.541   1.771  1.00  0.00     0.123 C 
ATOM     11  C   UNL     1       4.174   1.092   2.957  1.00  0.00     0.053 C 
ATOM     12  C   UNL     1       6.186   1.278   1.381  1.00  0.00     0.067 C 
ATOM     13  C   UNL     1       5.689   1.068   2.794  1.00  0.00     0.118 C 
BRANCH   9  14
ATOM     14  C   UNL     1       3.404   1.952  -0.688  1.00  0.00     0.243 C 
ATOM     15  O   UNL     1       4.077   1.585  -1.660  1.00  0.00    -0.273 OA
BRANCH  14  16
ATOM     16  C   UNL     1       2.009   2.494  -0.959  1.00  0.00     0.222 C 
BRANCH  16  17
ATOM     17  N   UNL     1       0.983   2.290   0.051  1.00  0.00    -0.334 N 
ATOM     18  C   UNL     1       0.817  -0.223  -0.245  1.00  0.00     0.066 C 
ATOM     19  C   UNL     1       0.424   1.071   0.395  1.00  0.00     0.034 A 
ATOM     20  C   UNL     1      -0.447   1.315   1.445  1.00  0.00     0.080 A 
ATOM     21  C   UNL     1      -0.460   2.713   1.709  1.00  0.00     0.018 A 
ATOM     22  C   UNL     1       0.425   3.311   0.806  1.00  0.00     0.050 A 
ATOM     23  C   UNL     1      -1.134   3.530   2.642  1.00  0.00     0.012 A 
ATOM     24  C   UNL     1       0.642   4.702   0.798  1.00  0.00     0.027 A 
ATOM     25  C   UNL     1      -0.919   4.912   2.641  1.00  0.00     0.001 A 
ATOM     26  C   UNL     1      -0.045   5.488   1.728  1.00  0.00     0.002 A 
BRANCH  20  27
ATOM     27  C   UNL     1      -1.172   0.311   2.172  1.00  0.00     0.102 C 
ATOM     28  N   UNL     1      -1.712  -0.520   2.762  1.00  0.00    -0.192 NA
ENDBRANCH  20  27
ENDBRANCH  16  17
ENDBRANCH  14  16
ENDBRANCH   9  14
BRANCH  13  29
ATOM     29  O   UNL     1       6.309   1.994   3.679  1.00  0.00    -0.393 OA
ATOM     30  H   UNL     1       6.046   2.897   3.441  1.00  0.00     0.210 HD
ENDBRANCH  13  29
ENDBRANCH   5   8
ENDBRANCH   3   4
ENDBRANCH   2   3
ENDBRANCH   1   2
BRANCH   1  31
ATOM     31  C   UNL     1       3.846   6.959   4.962  1.00  0.00     0.002 C 
BRANCH  31  32
ATOM     32  C   UNL     1       2.472   6.590   5.542  1.00  0.00     0.021 C 
BRANCH  32  33
ATOM     33  C   UNL     1       2.544   5.993   6.947  1.00  0.00     0.116 C 
BRANCH  33  34
ATOM     34  N   UNL     1       3.188   6.872   7.895  1.00  0.00    -0.352 N 
ATOM     35  C   UNL     1       2.771   7.883   8.708  1.00  0.00     0.251 C 
ATOM     36  H   UNL     1       4.154   6.701   7.971  1.00  0.00     0.163 HD
ATOM     37  O   UNL     1       3.646   8.400   9.407  1.00  0.00    -0.269 OA
BRANCH  35  38
ATOM     38  C   UNL     1       1.397   8.443   8.730  1.00  0.00     0.039 A 
ATOM     39  C   UNL     1       0.277   7.905   8.093  1.00  0.00     0.014 A 
ATOM     40  C   UNL     1       1.264   9.662   9.418  1.00  0.00     0.014 A 
ATOM     41  C   UNL     1      -0.880   8.660   7.970  1.00  0.00     0.010 A 
ATOM     42  C   UNL     1       0.093  10.391   9.352  1.00  0.00     0.010 A 
ATOM     43  C   UNL     1      -0.936   9.932   8.544  1.00  0.00    -0.014 A 
BRANCH  43  44
ATOM     44  C   UNL     1      -2.166  10.701   8.437  1.00  0.00     0.031 A 
ATOM     45  C   UNL     1      -3.325   9.992   9.048  1.00  0.00     0.074 A 
ATOM     46  C   UNL     1      -2.192  11.959   7.941  1.00  0.00     0.049 A 
ATOM     47  N   UNL     1      -4.359   9.517   8.433  1.00  0.00    -0.248 NA
ATOM     48  C   UNL     1      -3.226   9.560  10.455  1.00  0.00     0.031 C 
ATOM     49  C   UNL     1      -1.072  12.807   7.521  1.00  0.00     0.029 A 
ATOM     50  N   UNL     1      -3.246  12.803   7.796  1.00  0.00    -0.354 N 
ATOM     51  C   UNL     1      -5.163   8.967   9.428  1.00  0.00     0.074 A 
ATOM     52  C   UNL     1      -4.337   8.835  10.598  1.00  0.00     0.031 C 
ATOM     53  C   UNL     1      -1.481  14.097   7.460  1.00  0.00     0.029 A 
ATOM     54  C   UNL     1      -2.910  14.154   7.707  1.00  0.00     0.049 A 
ATOM     55  H   UNL     1      -4.177  12.486   7.756  1.00  0.00     0.167 HD
ATOM     56  C   UNL     1      -6.515   8.919   9.288  1.00  0.00     0.034 A 
ATOM     57  C   UNL     1      -3.744  15.217   7.893  1.00  0.00     0.034 A 
ATOM     58  C   UNL     1      -6.909   9.096   7.917  1.00  0.00     0.049 A 
ATOM     59  C   UNL     1      -5.122  14.699   7.693  1.00  0.00     0.074 A 
ATOM     60  C   UNL     1      -6.646   8.412   6.746  1.00  0.00     0.029 A 
ATOM     61  N   UNL     1      -7.301  10.359   7.542  1.00  0.00    -0.354 N 
ATOM     62  N   UNL     1      -5.539  14.240   6.543  1.00  0.00    -0.248 NA
ATOM     63  C   UNL     1      -5.819  14.200   8.870  1.00  0.00     0.031 C 
ATOM     64  C   UNL     1      -6.396   9.431   5.783  1.00  0.00     0.029 A 
ATOM     65  C   UNL     1      -6.629  10.667   6.387  1.00  0.00     0.049 A 
ATOM     66  H   UNL     1      -7.944  10.935   8.015  1.00  0.00     0.167 HD
ATOM     67  C   UNL     1      -6.211  13.072   6.869  1.00  0.00     0.074 A 
ATOM     68  C   UNL     1      -6.392  13.123   8.324  1.00  0.00     0.031 C 
ATOM     69  C   UNL     1      -6.263  12.012   6.011  1.00  0.00     0.034 A 
BRANCH  56  70
ATOM     70  C   UNL     1      -7.484   9.109  10.425  1.00  0.00     0.023 A 
ATOM     71  C   UNL     1      -8.838   8.790  10.199  1.00  0.00     0.012 A 
ATOM     72  C   UNL     1      -7.177   9.849  11.592  1.00  0.00     0.148 A 
ATOM     73  C   UNL     1      -9.841   9.201  11.084  1.00  0.00     0.002 A 
ATOM     74  C   UNL     1      -8.168  10.209  12.495  1.00  0.00     0.091 A 
ATOM     75  F   UNL     1      -5.941  10.323  11.770  1.00  0.00    -0.205 F 
ATOM     76  C   UNL     1      -9.506   9.903  12.237  1.00  0.00     0.022 A 
BRANCH  74  77
ATOM     77  S   UNL     1      -7.798  11.134  13.991  1.00  0.00     0.127 S 
ATOM     78  O   UNL     1      -8.410  12.426  13.693  1.00  0.00    -0.237 OA
ATOM     79  O   UNL     1      -8.486  10.340  15.008  1.00  0.00    -0.237 OA
ATOM     80  O   UNL     1      -6.346  11.130  14.108  1.00  0.00    -0.744 OA
ENDBRANCH  74  77
ENDBRANCH  56  70
BRANCH  57  81
ATOM     81  C   UNL     1      -3.485  16.524   8.573  1.00  0.00     0.023 A 
ATOM     82  C   UNL     1      -4.451  17.557   8.534  1.00  0.00     0.012 A 
ATOM     83  C   UNL     1      -2.423  16.672   9.494  1.00  0.00     0.148 A 
ATOM     84  C   UNL     1      -4.381  18.663   9.401  1.00  0.00     0.002 A 
ATOM     85  C   UNL     1      -2.346  17.778  10.340  1.00  0.00     0.091 A 
ATOM     86  F   UNL     1      -1.530  15.683   9.614  1.00  0.00    -0.205 F 
ATOM     87  C   UNL     1      -3.333  18.769  10.310  1.00  0.00     0.022 A 
BRANCH  85  88
ATOM     88  S   UNL     1      -1.006  17.975  11.526  1.00  0.00     0.127 S 
ATOM     89  O   UNL     1      -0.593  19.359  11.288  1.00  0.00    -0.237 OA
ATOM     90  O   UNL     1      -1.687  17.749  12.798  1.00  0.00    -0.237 OA
ATOM     91  O   UNL     1      -0.004  16.983  11.160  1.00  0.00    -0.744 OA
ENDBRANCH  85  88
ENDBRANCH  57  81
BRANCH  69  92
ATOM     92  C   UNL     1      -5.703  12.167   4.619  1.00  0.00     0.023 A 
ATOM     93  C   UNL     1      -4.316  12.228   4.356  1.00  0.00     0.012 A 
ATOM     94  C   UNL     1      -6.590  11.974   3.549  1.00  0.00     0.148 A 
ATOM     95  C   UNL     1      -3.829  12.082   3.051  1.00  0.00     0.002 A 
ATOM     96  C   UNL     1      -6.101  11.799   2.262  1.00  0.00     0.091 A 
ATOM     97  F   UNL     1      -7.899  11.892   3.829  1.00  0.00    -0.205 F 
ATOM     98  C   UNL     1      -4.721  11.851   2.006  1.00  0.00     0.022 A 
BRANCH  96  99
ATOM     99  S   UNL     1      -7.185  11.400   0.891  1.00  0.00     0.127 S 
ATOM    100  O   UNL     1      -7.037  12.576   0.036  1.00  0.00    -0.237 OA
ATOM    101  O   UNL     1      -6.576  10.178   0.364  1.00  0.00    -0.237 OA
ATOM    102  O   UNL     1      -8.513  11.213   1.462  1.00  0.00    -0.744 OA
ENDBRANCH  96  99
ENDBRANCH  69  92
ENDBRANCH  43  44
ENDBRANCH  35  38
ENDBRANCH  33  34
ENDBRANCH  32  33
ENDBRANCH  31  32
ENDBRANCH   1  31
TORSDOF 21
