REMARK SMILES C=CCN(CC(=O)NCCCCCCNC(=O)c1ccc(-c2c3nc(c(-c4cccc(S(=O)(=O)[O-])c4F)c4ccc([nH]4)c(-c4cccc(S(=O)(=O)[O-])c4F)c4nc(c(-c5cccc(S(=O)(=O)[O-])c5F)c5ccc2[nH]5)C=C4)C=C3)cc1)c1ccc([N+](=O)[O-])cc1Br
REMARK SMILES IDX 11 1 10 2 9 3 8 4 6 5 7 6 5 8 4 9 3 10 2 11 1 12 81 13 82 14
REMARK SMILES IDX 89 15 83 16 88 17 90 18 84 19 85 20 86 21 87 22 12 23 13 24
REMARK SMILES IDX 14 25 15 26 16 27 17 29 18 30 19 31 80 32 20 33 79 34 21 35
REMARK SMILES IDX 22 36 23 37 73 38 24 39 78 40 72 41 74 42 25 43 77 44 71 45
REMARK SMILES IDX 70 46 26 48 58 49 38 50 57 51 39 52 42 53 56 54 75 55 40 56
REMARK SMILES IDX 41 57 55 59 76 60 43 61 27 62 28 63 36 64 29 65 31 66 37 67
REMARK SMILES IDX 30 68 32 69 33 70 34 71 35 72 59 73 60 74 68 75 61 76 63 77
REMARK SMILES IDX 69 78 62 79 64 80 65 81 66 82 67 83 44 84 45 85 53 86 46 87
REMARK SMILES IDX 48 88 54 89 47 90 49 91 50 92 51 93 52 94
REMARK H PARENT 8 7 15 28 74 47 42 58
REMARK Flexibility Score: inf
ROOT
ATOM      1  C   UNL     1      -5.638  -0.503  -1.234  1.00  0.00     0.002 C 
ENDROOT
BRANCH   1   2
ATOM      2  C   UNL     1      -4.306  -0.324  -0.496  1.00  0.00     0.021 C 
BRANCH   2   3
ATOM      3  C   UNL     1      -4.380  -0.614   1.006  1.00  0.00     0.116 C 
BRANCH   3   4
ATOM      4  N   UNL     1      -4.542  -2.025   1.282  1.00  0.00    -0.355 N 
ATOM      5  C   UNL     1      -3.643  -2.961   1.707  1.00  0.00     0.239 C 
ATOM      6  O   UNL     1      -4.071  -4.114   1.842  1.00  0.00    -0.273 OA
ATOM      7  H   UNL     1      -5.454  -2.368   1.139  1.00  0.00     0.163 HD
BRANCH   5   8
ATOM      8  C   UNL     1      -2.182  -2.619   2.052  1.00  0.00     0.216 C 
BRANCH   8   9
ATOM      9  N   UNL     1      -1.304  -2.171   0.946  1.00  0.00    -0.358 N 
BRANCH   9  10
ATOM     10  C   UNL     1      -1.032  -0.732   0.831  1.00  0.00     0.144 C 
BRANCH  10  11
ATOM     11  C   UNL     1       0.407  -0.382   1.011  1.00  0.00    -0.014 C 
ATOM     12  C   UNL     1       1.122   0.341   0.137  1.00  0.00     0.006 C 
ENDBRANCH  10  11
ENDBRANCH   9  10
BRANCH   9  13
ATOM     13  C   UNL     1      -1.064  -3.000  -0.150  1.00  0.00     0.052 A 
ATOM     14  C   UNL     1      -2.134  -3.417  -0.968  1.00  0.00     0.034 A 
ATOM     15  C   UNL     1       0.220  -3.445  -0.542  1.00  0.00     0.048 A 
ATOM     16  C   UNL     1      -1.953  -4.169  -2.133  1.00  0.00     0.088 A 
ATOM     17  C   UNL     1       0.428  -4.148  -1.741  1.00  0.00     0.103 A 
ATOM     18  Br  UNL     1       1.752  -3.322   0.585  1.00  0.00    -0.048 Br
ATOM     19  C   UNL     1      -0.664  -4.504  -2.532  1.00  0.00     0.270 A 
BRANCH  19  20
ATOM     20  N   UNL     1      -0.459  -5.266  -3.766  1.00  0.00     0.062 N 
ATOM     21  O   UNL     1      -1.452  -5.788  -4.293  1.00  0.00    -0.258 OA
ATOM     22  O   UNL     1       0.696  -5.348  -4.208  1.00  0.00    -0.258 OA
ENDBRANCH  19  20
ENDBRANCH   9  13
ENDBRANCH   8   9
ENDBRANCH   5   8
ENDBRANCH   3   4
ENDBRANCH   2   3
ENDBRANCH   1   2
BRANCH   1  23
ATOM     23  C   UNL     1      -6.773   0.398  -0.737  1.00  0.00     0.002 C 
BRANCH  23  24
ATOM     24  C   UNL     1      -6.450   1.895  -0.726  1.00  0.00     0.021 C 
BRANCH  24  25
ATOM     25  C   UNL     1      -6.123   2.482  -2.096  1.00  0.00     0.116 C 
BRANCH  25  26
ATOM     26  N   UNL     1      -7.262   2.413  -3.000  1.00  0.00    -0.352 N 
ATOM     27  C   UNL     1      -7.899   3.425  -3.672  1.00  0.00     0.251 C 
ATOM     28  H   UNL     1      -7.628   1.512  -3.150  1.00  0.00     0.163 HD
ATOM     29  O   UNL     1      -8.983   3.211  -4.216  1.00  0.00    -0.269 OA
BRANCH  27  30
ATOM     30  C   UNL     1      -7.294   4.772  -3.730  1.00  0.00     0.039 A 
ATOM     31  C   UNL     1      -8.105   5.891  -3.528  1.00  0.00     0.014 A 
ATOM     32  C   UNL     1      -5.930   4.932  -3.993  1.00  0.00     0.014 A 
ATOM     33  C   UNL     1      -7.538   7.167  -3.533  1.00  0.00     0.010 A 
ATOM     34  C   UNL     1      -5.355   6.198  -3.922  1.00  0.00     0.010 A 
ATOM     35  C   UNL     1      -6.152   7.330  -3.698  1.00  0.00    -0.014 A 
BRANCH  35  36
ATOM     36  C   UNL     1      -5.521   8.674  -3.627  1.00  0.00     0.031 A 
ATOM     37  C   UNL     1      -4.798   9.240  -4.820  1.00  0.00     0.074 A 
ATOM     38  C   UNL     1      -5.531   9.351  -2.462  1.00  0.00     0.049 A 
ATOM     39  N   UNL     1      -4.147  10.370  -4.928  1.00  0.00    -0.248 NA
ATOM     40  C   UNL     1      -4.781   8.421  -6.043  1.00  0.00     0.031 C 
ATOM     41  C   UNL     1      -6.132   8.878  -1.213  1.00  0.00     0.029 A 
ATOM     42  N   UNL     1      -4.997  10.572  -2.129  1.00  0.00    -0.354 N 
ATOM     43  C   UNL     1      -3.617  10.382  -6.213  1.00  0.00     0.074 A 
ATOM     44  C   UNL     1      -3.992   9.132  -6.836  1.00  0.00     0.031 C 
ATOM     45  C   UNL     1      -5.939   9.797  -0.255  1.00  0.00     0.029 A 
ATOM     46  C   UNL     1      -5.171  10.908  -0.807  1.00  0.00     0.049 A 
ATOM     47  H   UNL     1      -4.533  11.151  -2.776  1.00  0.00     0.167 HD
ATOM     48  C   UNL     1      -2.906  11.357  -6.830  1.00  0.00     0.034 A 
ATOM     49  C   UNL     1      -4.749  11.984  -0.113  1.00  0.00     0.034 A 
ATOM     50  C   UNL     1      -2.564  12.613  -6.219  1.00  0.00     0.049 A 
ATOM     51  C   UNL     1      -3.982  13.062  -0.829  1.00  0.00     0.074 A 
ATOM     52  C   UNL     1      -1.922  13.699  -6.789  1.00  0.00     0.029 A 
ATOM     53  N   UNL     1      -2.823  12.950  -4.900  1.00  0.00    -0.354 N 
ATOM     54  N   UNL     1      -3.627  13.124  -2.089  1.00  0.00    -0.248 NA
ATOM     55  C   UNL     1      -3.588  14.236  -0.036  1.00  0.00     0.031 C 
ATOM     56  C   UNL     1      -1.761  14.678  -5.804  1.00  0.00     0.029 A 
ATOM     57  C   UNL     1      -2.339  14.219  -4.631  1.00  0.00     0.049 A 
ATOM     58  H   UNL     1      -3.283  12.372  -4.249  1.00  0.00     0.167 HD
ATOM     59  C   UNL     1      -3.002  14.356  -2.249  1.00  0.00     0.074 A 
ATOM     60  C   UNL     1      -3.048  15.017  -0.961  1.00  0.00     0.031 C 
ATOM     61  C   UNL     1      -2.431  14.887  -3.358  1.00  0.00     0.034 A 
BRANCH  48  62
ATOM     62  C   UNL     1      -2.484  11.121  -8.257  1.00  0.00     0.023 A 
ATOM     63  C   UNL     1      -3.453  11.120  -9.282  1.00  0.00     0.012 A 
ATOM     64  C   UNL     1      -1.125  10.967  -8.593  1.00  0.00     0.148 A 
ATOM     65  C   UNL     1      -3.081  10.932 -10.612  1.00  0.00     0.002 A 
ATOM     66  C   UNL     1      -0.757  10.829  -9.927  1.00  0.00     0.091 A 
ATOM     67  F   UNL     1      -0.219  10.952  -7.605  1.00  0.00    -0.205 F 
ATOM     68  C   UNL     1      -1.734  10.798 -10.935  1.00  0.00     0.022 A 
BRANCH  66  69
ATOM     69  S   UNL     1       0.957  10.731 -10.456  1.00  0.00     0.127 S 
ATOM     70  O   UNL     1       1.043   9.347 -10.920  1.00  0.00    -0.237 OA
ATOM     71  O   UNL     1       1.007  11.735 -11.519  1.00  0.00    -0.237 OA
ATOM     72  O   UNL     1       1.760  11.046  -9.283  1.00  0.00    -0.744 OA
ENDBRANCH  66  69
ENDBRANCH  48  62
BRANCH  49  73
ATOM     73  C   UNL     1      -5.086  12.118   1.333  1.00  0.00     0.023 A 
ATOM     74  C   UNL     1      -5.992  13.114   1.746  1.00  0.00     0.012 A 
ATOM     75  C   UNL     1      -4.527  11.257   2.297  1.00  0.00     0.148 A 
ATOM     76  C   UNL     1      -6.306  13.276   3.096  1.00  0.00     0.002 A 
ATOM     77  C   UNL     1      -4.889  11.385   3.633  1.00  0.00     0.091 A 
ATOM     78  F   UNL     1      -3.659  10.321   1.886  1.00  0.00    -0.205 F 
ATOM     79  C   UNL     1      -5.763  12.406   4.037  1.00  0.00     0.022 A 
BRANCH  77  80
ATOM     80  S   UNL     1      -4.344  10.227   4.893  1.00  0.00     0.127 S 
ATOM     81  O   UNL     1      -3.437  11.052   5.686  1.00  0.00    -0.237 OA
ATOM     82  O   UNL     1      -5.604   9.884   5.553  1.00  0.00    -0.237 OA
ATOM     83  O   UNL     1      -3.726   9.122   4.172  1.00  0.00    -0.744 OA
ENDBRANCH  77  80
ENDBRANCH  49  73
BRANCH  61  84
ATOM     84  C   UNL     1      -1.841  16.269  -3.249  1.00  0.00     0.023 A 
ATOM     85  C   UNL     1      -0.653  16.474  -2.521  1.00  0.00     0.012 A 
ATOM     86  C   UNL     1      -2.430  17.354  -3.929  1.00  0.00     0.148 A 
ATOM     87  C   UNL     1      -0.080  17.742  -2.441  1.00  0.00     0.002 A 
ATOM     88  C   UNL     1      -1.825  18.604  -3.890  1.00  0.00     0.091 A 
ATOM     89  F   UNL     1      -3.571  17.143  -4.603  1.00  0.00    -0.205 F 
ATOM     90  C   UNL     1      -0.658  18.803  -3.134  1.00  0.00     0.022 A 
BRANCH  88  91
ATOM     91  S   UNL     1      -2.441  20.004  -4.830  1.00  0.00     0.127 S 
ATOM     92  O   UNL     1      -2.962  20.868  -3.771  1.00  0.00    -0.237 OA
ATOM     93  O   UNL     1      -1.226  20.499  -5.479  1.00  0.00    -0.237 OA
ATOM     94  O   UNL     1      -3.440  19.468  -5.745  1.00  0.00    -0.744 OA
ENDBRANCH  88  91
ENDBRANCH  61  84
ENDBRANCH  35  36
ENDBRANCH  27  30
ENDBRANCH  25  26
ENDBRANCH  24  25
ENDBRANCH  23  24
ENDBRANCH   1  23
TORSDOF 21
