REMARK SMILES CCOc1ccc(-c2nc(C(=O)NCCCCCCNC(=O)c3ccc(-c4c5nc(c(-c6cccc(S(=O)(=O)[O-])c6F)c6ccc([nH]6)c(-c6cccc(S(=O)(=O)[O-])c6F)c6nc(c(-c7cccc(S(=O)(=O)[O-])c7F)c7ccc4[nH]7)C=C6)C=C5)cc3)cc(=O)[nH]2)cc1
REMARK SMILES IDX 16 1 15 2 14 3 13 4 11 5 12 6 10 8 8 9 9 10 89 11 87 12
REMARK SMILES IDX 86 14 88 15 7 16 4 17 5 18 91 19 6 20 90 21 3 22 2 23 1 24
REMARK SMILES IDX 17 25 18 26 19 27 20 28 21 29 22 31 23 32 24 33 85 34 25 35
REMARK SMILES IDX 84 36 26 37 27 38 28 39 78 40 29 41 83 42 77 43 79 44 30 45
REMARK SMILES IDX 82 46 76 47 75 48 31 50 63 51 43 52 62 53 44 54 47 55 61 56
REMARK SMILES IDX 80 57 45 58 46 59 60 61 81 62 48 63 32 64 33 65 41 66 34 67
REMARK SMILES IDX 36 68 42 69 35 70 37 71 38 72 39 73 40 74 64 75 65 76 73 77
REMARK SMILES IDX 66 78 68 79 74 80 67 81 69 82 70 83 71 84 72 85 49 86 50 87
REMARK SMILES IDX 58 88 51 89 53 90 59 91 52 92 54 93 55 94 56 95 57 96
REMARK H PARENT 13 7 89 13 20 30 79 49 47 60
REMARK Flexibility Score: inf
ROOT
ATOM      1  C   UNL     1      13.551   3.319   2.674  1.00  0.00     0.002 C 
ENDROOT
BRANCH   1   2
ATOM      2  C   UNL     1      12.701   2.049   2.625  1.00  0.00     0.021 C 
BRANCH   2   3
ATOM      3  C   UNL     1      11.581   1.946   3.652  1.00  0.00     0.116 C 
BRANCH   3   4
ATOM      4  N   UNL     1      10.521   2.915   3.451  1.00  0.00    -0.351 N 
ATOM      5  C   UNL     1       9.159   2.808   3.469  1.00  0.00     0.270 C 
ATOM      6  O   UNL     1       8.521   3.839   3.235  1.00  0.00    -0.268 OA
ATOM      7  H   UNL     1      10.845   3.825   3.265  1.00  0.00     0.163 HD
BRANCH   5   8
ATOM      8  C   UNL     1       8.433   1.496   3.707  1.00  0.00     0.136 A 
ATOM      9  C   UNL     1       6.459   0.350   3.470  1.00  0.00     0.141 A 
ATOM     10  N   UNL     1       7.158   1.397   3.173  1.00  0.00    -0.225 NA
ATOM     11  N   UNL     1       6.973  -0.717   4.155  1.00  0.00    -0.306 N 
ATOM     12  C   UNL     1       8.233  -0.705   4.659  1.00  0.00     0.251 A 
ATOM     13  H   UNL     1       6.413  -1.516   4.287  1.00  0.00     0.171 HD
ATOM     14  C   UNL     1       8.947   0.567   4.523  1.00  0.00     0.105 A 
ATOM     15  O   UNL     1       8.745  -1.676   5.191  1.00  0.00    -0.269 OA
BRANCH   9  16
ATOM     16  C   UNL     1       5.030   0.248   3.102  1.00  0.00     0.018 A 
ATOM     17  C   UNL     1       2.322   0.165   2.469  1.00  0.00     0.119 A 
ATOM     18  C   UNL     1       2.750  -0.308   3.707  1.00  0.00     0.047 A 
ATOM     19  C   UNL     1       3.231   0.726   1.571  1.00  0.00     0.047 A 
ATOM     20  C   UNL     1       4.108  -0.271   4.024  1.00  0.00     0.016 A 
ATOM     21  C   UNL     1       4.590   0.762   1.882  1.00  0.00     0.016 A 
BRANCH  17  22
ATOM     22  O   UNL     1       0.980   0.183   2.212  1.00  0.00    -0.494 OA
BRANCH  22  23
ATOM     23  C   UNL     1       0.591  -0.812   1.257  1.00  0.00     0.226 C 
ATOM     24  C   UNL     1       0.626  -0.264  -0.160  1.00  0.00     0.049 C 
ENDBRANCH  22  23
ENDBRANCH  17  22
ENDBRANCH   9  16
ENDBRANCH   5   8
ENDBRANCH   3   4
ENDBRANCH   2   3
ENDBRANCH   1   2
BRANCH   1  25
ATOM     25  C   UNL     1      14.171   3.666   4.029  1.00  0.00     0.002 C 
BRANCH  25  26
ATOM     26  C   UNL     1      14.941   2.542   4.729  1.00  0.00     0.021 C 
BRANCH  26  27
ATOM     27  C   UNL     1      16.044   1.882   3.907  1.00  0.00     0.116 C 
BRANCH  27  28
ATOM     28  N   UNL     1      17.055   2.830   3.475  1.00  0.00    -0.352 N 
ATOM     29  C   UNL     1      18.418   2.792   3.627  1.00  0.00     0.251 C 
ATOM     30  H   UNL     1      16.710   3.621   3.000  1.00  0.00     0.163 HD
ATOM     31  O   UNL     1      19.083   3.788   3.351  1.00  0.00    -0.269 OA
BRANCH  29  32
ATOM     32  C   UNL     1      19.090   1.573   4.134  1.00  0.00     0.039 A 
ATOM     33  C   UNL     1      20.140   1.723   5.044  1.00  0.00     0.014 A 
ATOM     34  C   UNL     1      18.722   0.296   3.699  1.00  0.00     0.014 A 
ATOM     35  C   UNL     1      20.784   0.593   5.553  1.00  0.00     0.010 A 
ATOM     36  C   UNL     1      19.316  -0.833   4.265  1.00  0.00     0.010 A 
ATOM     37  C   UNL     1      20.358  -0.697   5.194  1.00  0.00    -0.014 A 
BRANCH  37  38
ATOM     38  C   UNL     1      20.979  -1.896   5.817  1.00  0.00     0.031 A 
ATOM     39  C   UNL     1      21.731  -2.902   4.986  1.00  0.00     0.074 A 
ATOM     40  C   UNL     1      20.828  -2.098   7.142  1.00  0.00     0.049 A 
ATOM     41  N   UNL     1      22.355  -3.986   5.373  1.00  0.00    -0.248 NA
ATOM     42  C   UNL     1      21.774  -2.677   3.532  1.00  0.00     0.031 C 
ATOM     43  C   UNL     1      20.052  -1.243   8.043  1.00  0.00     0.029 A 
ATOM     44  N   UNL     1      21.308  -3.090   7.960  1.00  0.00    -0.354 N 
ATOM     45  C   UNL     1      22.846  -4.580   4.216  1.00  0.00     0.074 A 
ATOM     46  C   UNL     1      22.415  -3.757   3.107  1.00  0.00     0.031 C 
ATOM     47  C   UNL     1      20.123  -1.736   9.290  1.00  0.00     0.029 A 
ATOM     48  C   UNL     1      20.920  -2.957   9.274  1.00  0.00     0.049 A 
ATOM     49  H   UNL     1      21.875  -3.828   7.638  1.00  0.00     0.167 HD
ATOM     50  C   UNL     1      23.612  -5.691   4.090  1.00  0.00     0.034 A 
ATOM     51  C   UNL     1      21.174  -3.733  10.346  1.00  0.00     0.034 A 
ATOM     52  C   UNL     1      24.060  -6.494   5.197  1.00  0.00     0.049 A 
ATOM     53  C   UNL     1      22.050  -4.944  10.177  1.00  0.00     0.074 A 
ATOM     54  C   UNL     1      24.898  -7.596   5.177  1.00  0.00     0.029 A 
ATOM     55  N   UNL     1      23.701  -6.292   6.521  1.00  0.00    -0.354 N 
ATOM     56  N   UNL     1      22.638  -5.396   9.096  1.00  0.00    -0.248 NA
ATOM     57  C   UNL     1      22.329  -5.732  11.386  1.00  0.00     0.031 C 
ATOM     58  C   UNL     1      25.019  -8.079   6.484  1.00  0.00     0.029 A 
ATOM     59  C   UNL     1      24.289  -7.255   7.324  1.00  0.00     0.049 A 
ATOM     60  H   UNL     1      23.114  -5.570   6.842  1.00  0.00     0.167 HD
ATOM     61  C   UNL     1      23.382  -6.498   9.500  1.00  0.00     0.074 A 
ATOM     62  C   UNL     1      23.198  -6.622  10.931  1.00  0.00     0.031 C 
ATOM     63  C   UNL     1      24.133  -7.345   8.753  1.00  0.00     0.034 A 
BRANCH  50  64
ATOM     64  C   UNL     1      24.064  -6.083   2.705  1.00  0.00     0.023 A 
ATOM     65  C   UNL     1      25.034  -5.301   2.044  1.00  0.00     0.012 A 
ATOM     66  C   UNL     1      23.599  -7.264   2.095  1.00  0.00     0.148 A 
ATOM     67  C   UNL     1      25.513  -5.673   0.788  1.00  0.00     0.002 A 
ATOM     68  C   UNL     1      24.115  -7.653   0.864  1.00  0.00     0.091 A 
ATOM     69  F   UNL     1      22.665  -7.987   2.731  1.00  0.00    -0.205 F 
ATOM     70  C   UNL     1      25.063  -6.853   0.205  1.00  0.00     0.022 A 
BRANCH  68  71
ATOM     71  S   UNL     1      23.663  -9.196   0.061  1.00  0.00     0.127 S 
ATOM     72  O   UNL     1      22.956  -8.715  -1.125  1.00  0.00    -0.237 OA
ATOM     73  O   UNL     1      24.971  -9.793  -0.210  1.00  0.00    -0.237 OA
ATOM     74  O   UNL     1      22.844  -9.925   1.019  1.00  0.00    -0.744 OA
ENDBRANCH  68  71
ENDBRANCH  50  64
BRANCH  51  75
ATOM     75  C   UNL     1      20.634  -3.366  11.686  1.00  0.00     0.023 A 
ATOM     76  C   UNL     1      21.518  -2.975  12.712  1.00  0.00     0.012 A 
ATOM     77  C   UNL     1      19.252  -3.407  11.952  1.00  0.00     0.148 A 
ATOM     78  C   UNL     1      21.040  -2.681  13.990  1.00  0.00     0.002 A 
ATOM     79  C   UNL     1      18.777  -3.053  13.209  1.00  0.00     0.091 A 
ATOM     80  F   UNL     1      18.427  -3.792  10.967  1.00  0.00    -0.205 F 
ATOM     81  C   UNL     1      19.670  -2.712  14.236  1.00  0.00     0.022 A 
BRANCH  79  82
ATOM     82  S   UNL     1      17.022  -2.933  13.571  1.00  0.00     0.127 S 
ATOM     83  O   UNL     1      16.813  -4.099  14.425  1.00  0.00    -0.237 OA
ATOM     84  O   UNL     1      16.942  -1.643  14.256  1.00  0.00    -0.237 OA
ATOM     85  O   UNL     1      16.353  -2.965  12.277  1.00  0.00    -0.744 OA
ENDBRANCH  79  82
ENDBRANCH  51  75
BRANCH  63  86
ATOM     86  C   UNL     1      24.841  -8.462   9.477  1.00  0.00     0.023 A 
ATOM     87  C   UNL     1      24.098  -9.520  10.038  1.00  0.00     0.012 A 
ATOM     88  C   UNL     1      26.247  -8.478   9.576  1.00  0.00     0.148 A 
ATOM     89  C   UNL     1      24.737 -10.547  10.732  1.00  0.00     0.002 A 
ATOM     90  C   UNL     1      26.880  -9.534  10.220  1.00  0.00     0.091 A 
ATOM     91  F   UNL     1      26.938  -7.456   9.051  1.00  0.00    -0.205 F 
ATOM     92  C   UNL     1      26.127 -10.559  10.815  1.00  0.00     0.022 A 
BRANCH  90  93
ATOM     93  S   UNL     1      28.669  -9.685  10.291  1.00  0.00     0.127 S 
ATOM     94  O   UNL     1      28.940  -9.363  11.691  1.00  0.00    -0.237 OA
ATOM     95  O   UNL     1      28.875 -11.089   9.937  1.00  0.00    -0.237 OA
ATOM     96  O   UNL     1      29.190  -8.734   9.318  1.00  0.00    -0.744 OA
ENDBRANCH  90  93
ENDBRANCH  63  86
ENDBRANCH  37  38
ENDBRANCH  29  32
ENDBRANCH  27  28
ENDBRANCH  26  27
ENDBRANCH  25  26
ENDBRANCH   1  25
TORSDOF 19
