REMARK SMILES [NH3+][C@@H](Cc1c[nH]c2ccccc12)C(=O)N[C@@H](CS)C(=O)N[C@@H](CO)C(=O)NCCCCCCNC(=O)c1ccc(-c2c3nc(c(-c4cccc(S(=O)(=O)[O-])c4F)c4ccc([nH]4)c(-c4cccc(S(=O)(=O)[O-])c4F)c4nc(c(-c5cccc(S(=O)(=O)[O-])c5F)c5ccc2[nH]5)C=C4)C=C3)cc1
REMARK SMILES IDX 29 1 28 2 27 3 25 4 26 5 22 7 21 8 19 9 20 10 16 12 15 13
REMARK SMILES IDX 13 14 14 15 2 17 1 18 3 22 4 23 5 24 12 25 6 26 7 27 11 28
REMARK SMILES IDX 8 30 10 31 9 32 17 33 18 34 23 36 24 37 30 39 31 40 32 41
REMARK SMILES IDX 33 42 34 43 35 44 36 46 37 47 38 48 99 49 39 50 98 51 40 52
REMARK SMILES IDX 41 53 42 54 92 55 43 56 97 57 91 58 93 59 44 60 96 61 90 62
REMARK SMILES IDX 89 63 45 65 77 66 57 67 76 68 58 69 61 70 75 71 94 72 59 73
REMARK SMILES IDX 60 74 74 76 95 77 62 78 46 79 47 80 55 81 48 82 50 83 56 84
REMARK SMILES IDX 49 85 51 86 52 87 53 88 54 89 78 90 79 91 87 92 80 93 82 94
REMARK SMILES IDX 88 95 81 96 83 97 84 98 85 99 86 100 63 101 64 102 72 103
REMARK SMILES IDX 65 104 67 105 73 106 66 107 68 108 69 109 70 110 71 111
REMARK H PARENT 27 6 21 11 15 16 1 19 1 20 1 21 6 29 18 35 24 38 34 45 93 64
REMARK H PARENT 61 75
REMARK Flexibility Score: inf
ROOT
ATOM      1  C   UNL     1      -4.560  -6.946   2.411  1.00  0.00     0.021 C 
ENDROOT
BRANCH   1   2
ATOM      2  C   UNL     1      -5.222  -5.794   1.667  1.00  0.00     0.116 C 
BRANCH   2   3
ATOM      3  N   UNL     1      -5.338  -4.623   2.507  1.00  0.00    -0.354 N 
ATOM      4  C   UNL     1      -5.090  -3.320   2.227  1.00  0.00     0.244 C 
ATOM      5  O   UNL     1      -5.370  -2.483   3.094  1.00  0.00    -0.273 OA
ATOM      6  H   UNL     1      -5.646  -4.799   3.425  1.00  0.00     0.163 HD
BRANCH   4   7
ATOM      7  C   UNL     1      -4.517  -2.862   0.883  1.00  0.00     0.197 C 
BRANCH   7   8
ATOM      8  N   UNL     1      -3.235  -3.454   0.546  1.00  0.00    -0.340 N 
ATOM      9  C   UNL     1      -2.177  -2.859  -0.049  1.00  0.00     0.244 C 
ATOM     10  O   UNL     1      -1.551  -3.582  -0.835  1.00  0.00    -0.273 OA
ATOM     11  H   UNL     1      -3.122  -4.404   0.778  1.00  0.00     0.164 HD
BRANCH   9  12
ATOM     12  C   UNL     1      -1.769  -1.383   0.173  1.00  0.00     0.181 C 
BRANCH  12  13
ATOM     13  N   UNL     1      -1.707  -0.684  -1.093  1.00  0.00    -0.338 N 
ATOM     14  C   UNL     1      -0.603  -0.362  -1.818  1.00  0.00     0.279 C 
ATOM     15  O   UNL     1      -0.806   0.210  -2.898  1.00  0.00    -0.268 OA
ATOM     16  H   UNL     1      -2.571  -0.409  -1.477  1.00  0.00     0.164 HD
BRANCH  14  17
ATOM     17  C   UNL     1       0.864  -0.554  -1.311  1.00  0.00     0.275 C 
BRANCH  17  18
ATOM     18  N   UNL     1       1.211   0.480  -0.315  1.00  0.00    -0.347 N 
ATOM     19  H   UNL     1       2.169   0.338   0.003  1.00  0.00     0.345 HD
ATOM     20  H   UNL     1       0.575   0.413   0.480  1.00  0.00     0.345 HD
ATOM     21  H   UNL     1       1.127   1.404  -0.740  1.00  0.00     0.345 HD
ENDBRANCH  17  18
BRANCH  17  22
ATOM     22  C   UNL     1       1.458  -1.956  -1.067  1.00  0.00     0.113 C 
BRANCH  22  23
ATOM     23  C   UNL     1       1.324  -2.761   0.214  1.00  0.00    -0.016 A 
ATOM     24  C   UNL     1       1.359  -4.148   0.168  1.00  0.00     0.087 A 
ATOM     25  C   UNL     1       1.091  -2.432   1.608  1.00  0.00     0.003 A 
ATOM     26  N   UNL     1       0.976  -4.648   1.375  1.00  0.00    -0.361 N 
ATOM     27  C   UNL     1       0.717  -3.622   2.246  1.00  0.00     0.046 A 
ATOM     28  C   UNL     1       1.008  -1.250   2.381  1.00  0.00     0.010 A 
ATOM     29  H   UNL     1       0.896  -5.606   1.591  1.00  0.00     0.166 HD
ATOM     30  C   UNL     1       0.161  -3.670   3.532  1.00  0.00     0.026 A 
ATOM     31  C   UNL     1       0.456  -1.278   3.672  1.00  0.00     0.001 A 
ATOM     32  C   UNL     1       0.008  -2.470   4.224  1.00  0.00     0.002 A 
ENDBRANCH  22  23
ENDBRANCH  17  22
ENDBRANCH  14  17
ENDBRANCH  12  13
BRANCH  12  33
ATOM     33  C   UNL     1      -2.252  -0.552   1.370  1.00  0.00     0.101 C 
BRANCH  33  34
ATOM     34  S   UNL     1      -3.558   0.688   1.030  1.00  0.00    -0.177 SA
ATOM     35  H   UNL     1      -3.077   1.631   0.176  1.00  0.00     0.102 HD
ENDBRANCH  33  34
ENDBRANCH  12  33
ENDBRANCH   9  12
ENDBRANCH   7   8
BRANCH   7  36
ATOM     36  C   UNL     1      -5.514  -2.910  -0.280  1.00  0.00     0.191 C 
BRANCH  36  37
ATOM     37  O   UNL     1      -5.692  -4.217  -0.811  1.00  0.00    -0.394 OA
ATOM     38  H   UNL     1      -4.849  -4.540  -1.165  1.00  0.00     0.210 HD
ENDBRANCH  36  37
ENDBRANCH   7  36
ENDBRANCH   4   7
ENDBRANCH   2   3
ENDBRANCH   1   2
BRANCH   1  39
ATOM     39  C   UNL     1      -5.366  -7.462   3.606  1.00  0.00     0.002 C 
BRANCH  39  40
ATOM     40  C   UNL     1      -6.836  -7.768   3.303  1.00  0.00     0.002 C 
BRANCH  40  41
ATOM     41  C   UNL     1      -7.067  -8.696   2.109  1.00  0.00     0.021 C 
BRANCH  41  42
ATOM     42  C   UNL     1      -6.320 -10.019   2.192  1.00  0.00     0.116 C 
BRANCH  42  43
ATOM     43  N   UNL     1      -6.704 -10.778   3.371  1.00  0.00    -0.352 N 
ATOM     44  C   UNL     1      -7.210 -12.051   3.442  1.00  0.00     0.251 C 
ATOM     45  H   UNL     1      -6.585 -10.317   4.232  1.00  0.00     0.163 HD
ATOM     46  O   UNL     1      -7.700 -12.467   4.483  1.00  0.00    -0.269 OA
BRANCH  44  47
ATOM     47  C   UNL     1      -7.163 -12.904   2.236  1.00  0.00     0.039 A 
ATOM     48  C   UNL     1      -8.310 -13.603   1.857  1.00  0.00     0.014 A 
ATOM     49  C   UNL     1      -5.994 -12.986   1.475  1.00  0.00     0.014 A 
ATOM     50  C   UNL     1      -8.296 -14.350   0.679  1.00  0.00     0.010 A 
ATOM     51  C   UNL     1      -6.009 -13.663   0.261  1.00  0.00     0.010 A 
ATOM     52  C   UNL     1      -7.156 -14.361  -0.143  1.00  0.00    -0.014 A 
BRANCH  52  53
ATOM     53  C   UNL     1      -7.146 -15.096  -1.431  1.00  0.00     0.031 A 
ATOM     54  C   UNL     1      -6.192 -16.239  -1.641  1.00  0.00     0.074 A 
ATOM     55  C   UNL     1      -7.943 -14.684  -2.436  1.00  0.00     0.049 A 
ATOM     56  N   UNL     1      -6.005 -16.972  -2.708  1.00  0.00    -0.248 NA
ATOM     57  C   UNL     1      -5.312 -16.590  -0.513  1.00  0.00     0.031 C 
ATOM     58  C   UNL     1      -8.859 -13.543  -2.376  1.00  0.00     0.029 A 
ATOM     59  N   UNL     1      -8.094 -15.164  -3.712  1.00  0.00    -0.354 N 
ATOM     60  C   UNL     1      -4.973 -17.847  -2.392  1.00  0.00     0.074 A 
ATOM     61  C   UNL     1      -4.543 -17.525  -1.050  1.00  0.00     0.031 C 
ATOM     62  C   UNL     1      -9.486 -13.420  -3.557  1.00  0.00     0.029 A 
ATOM     63  C   UNL     1      -8.992 -14.447  -4.468  1.00  0.00     0.049 A 
ATOM     64  H   UNL     1      -7.606 -15.948  -4.055  1.00  0.00     0.167 HD
ATOM     65  C   UNL     1      -4.451 -18.848  -3.139  1.00  0.00     0.034 A 
ATOM     66  C   UNL     1      -9.367 -14.595  -5.753  1.00  0.00     0.034 A 
ATOM     67  C   UNL     1      -4.902 -19.180  -4.464  1.00  0.00     0.049 A 
ATOM     68  C   UNL     1      -8.777 -15.720  -6.560  1.00  0.00     0.074 A 
ATOM     69  C   UNL     1      -4.492 -20.221  -5.277  1.00  0.00     0.029 A 
ATOM     70  N   UNL     1      -5.854 -18.467  -5.177  1.00  0.00    -0.354 N 
ATOM     71  N   UNL     1      -7.910 -16.633  -6.193  1.00  0.00    -0.248 NA
ATOM     72  C   UNL     1      -9.241 -15.854  -7.948  1.00  0.00     0.031 C 
ATOM     73  C   UNL     1      -5.171 -20.118  -6.495  1.00  0.00     0.029 A 
ATOM     74  C   UNL     1      -6.033 -19.035  -6.427  1.00  0.00     0.049 A 
ATOM     75  H   UNL     1      -6.332 -17.674  -4.844  1.00  0.00     0.167 HD
ATOM     76  C   UNL     1      -7.752 -17.471  -7.291  1.00  0.00     0.074 A 
ATOM     77  C   UNL     1      -8.630 -16.968  -8.328  1.00  0.00     0.031 C 
ATOM     78  C   UNL     1      -6.944 -18.550  -7.434  1.00  0.00     0.034 A 
BRANCH  65  79
ATOM     79  C   UNL     1      -3.359 -19.683  -2.520  1.00  0.00     0.023 A 
ATOM     80  C   UNL     1      -3.666 -20.550  -1.451  1.00  0.00     0.012 A 
ATOM     81  C   UNL     1      -2.042 -19.642  -3.018  1.00  0.00     0.148 A 
ATOM     82  C   UNL     1      -2.673 -21.329  -0.858  1.00  0.00     0.002 A 
ATOM     83  C   UNL     1      -1.068 -20.458  -2.454  1.00  0.00     0.091 A 
ATOM     84  F   UNL     1      -1.763 -18.797  -4.020  1.00  0.00    -0.205 F 
ATOM     85  C   UNL     1      -1.378 -21.291  -1.367  1.00  0.00     0.022 A 
BRANCH  83  86
ATOM     86  S   UNL     1       0.611 -20.541  -3.087  1.00  0.00     0.127 S 
ATOM     87  O   UNL     1       1.362 -19.887  -2.015  1.00  0.00    -0.237 OA
ATOM     88  O   UNL     1       0.829 -21.984  -3.191  1.00  0.00    -0.237 OA
ATOM     89  O   UNL     1       0.597 -19.835  -4.360  1.00  0.00    -0.744 OA
ENDBRANCH  83  86
ENDBRANCH  65  79
BRANCH  66  90
ATOM     90  C   UNL     1     -10.397 -13.691  -6.339  1.00  0.00     0.023 A 
ATOM     91  C   UNL     1     -11.669 -14.207  -6.655  1.00  0.00     0.012 A 
ATOM     92  C   UNL     1     -10.134 -12.326  -6.561  1.00  0.00     0.148 A 
ATOM     93  C   UNL     1     -12.650 -13.387  -7.216  1.00  0.00     0.002 A 
ATOM     94  C   UNL     1     -11.133 -11.503  -7.066  1.00  0.00     0.091 A 
ATOM     95  F   UNL     1      -8.915 -11.858  -6.259  1.00  0.00    -0.205 F 
ATOM     96  C   UNL     1     -12.385 -12.034  -7.412  1.00  0.00     0.022 A 
BRANCH  94  97
ATOM     97  S   UNL     1     -10.927  -9.726  -7.233  1.00  0.00     0.127 S 
ATOM     98  O   UNL     1     -10.935  -9.559  -8.684  1.00  0.00    -0.237 OA
ATOM     99  O   UNL     1     -12.116  -9.221  -6.546  1.00  0.00    -0.237 OA
ATOM    100  O   UNL     1      -9.669  -9.411  -6.569  1.00  0.00    -0.744 OA
ENDBRANCH  94  97
ENDBRANCH  66  90
BRANCH  78 101
ATOM    101  C   UNL     1      -6.993 -19.290  -8.746  1.00  0.00     0.023 A 
ATOM    102  C   UNL     1      -6.446 -18.705  -9.905  1.00  0.00     0.012 A 
ATOM    103  C   UNL     1      -7.520 -20.595  -8.813  1.00  0.00     0.148 A 
ATOM    104  C   UNL     1      -6.457 -19.392 -11.118  1.00  0.00     0.002 A 
ATOM    105  C   UNL     1      -7.479 -21.294 -10.012  1.00  0.00     0.091 A 
ATOM    106  F   UNL     1      -8.051 -21.128  -7.702  1.00  0.00    -0.205 F 
ATOM    107  C   UNL     1      -6.961 -20.689 -11.169  1.00  0.00     0.022 A 
BRANCH 105 108
ATOM    108  S   UNL     1      -8.013 -23.003 -10.152  1.00  0.00     0.127 S 
ATOM    109  O   UNL     1      -9.227 -22.871 -10.957  1.00  0.00    -0.237 OA
ATOM    110  O   UNL     1      -6.885 -23.623 -10.848  1.00  0.00    -0.237 OA
ATOM    111  O   UNL     1      -8.217 -23.475  -8.790  1.00  0.00    -0.744 OA
ENDBRANCH 105 108
ENDBRANCH  78 101
ENDBRANCH  52  53
ENDBRANCH  44  47
ENDBRANCH  42  43
ENDBRANCH  41  42
ENDBRANCH  40  41
ENDBRANCH  39  40
ENDBRANCH   1  39
TORSDOF 27
