REMARK SMILES O=C(NCCCCCCNC(=O)[C@H](NC(=O)[C@H]1CC[C@@H](CNC(=O)[C@@H]2Cc3ccccc3C[NH2+]2)CC1)c1ccccc1)c1ccc(-c2c3nc(c(-c4cccc(S(=O)(=O)[O-])c4F)c4ccc([nH]4)c(-c4cccc(S(=O)(=O)[O-])c4F)c4nc(c(-c5cccc(S(=O)(=O)[O-])c5F)c5ccc2[nH]5)C=C4)C=C3)cc1
REMARK SMILES IDX 7 1 6 2 5 3 4 4 3 5 1 6 2 7 43 9 44 10 105 11 45 12 104 13
REMARK SMILES IDX 46 14 47 15 48 16 98 17 49 18 103 19 97 20 99 21 50 22
REMARK SMILES IDX 102 23 96 24 95 25 51 27 83 28 63 29 82 30 64 31 67 32 81 33
REMARK SMILES IDX 100 34 65 35 66 36 80 38 101 39 68 40 52 41 53 42 61 43
REMARK SMILES IDX 54 44 56 45 62 46 55 47 57 48 58 49 59 50 60 51 84 52 85 53
REMARK SMILES IDX 93 54 86 55 88 56 94 57 87 58 89 59 90 60 91 61 92 62 69 63
REMARK SMILES IDX 70 64 78 65 71 66 73 67 79 68 72 69 74 70 75 71 76 72 77 73
REMARK SMILES IDX 8 74 9 75 10 76 11 77 12 79 13 80 37 81 38 82 42 83 39 84
REMARK SMILES IDX 41 85 40 86 14 87 15 88 16 90 17 91 36 92 18 93 35 94 19 95
REMARK SMILES IDX 20 96 21 97 22 98 23 99 24 101 25 102 26 103 34 104 27 105
REMARK SMILES IDX 33 106 28 109 32 110 29 111 31 112 30 113
REMARK H PARENT 3 8 99 26 67 37 10 78 14 89 22 100 34 107 34 108
REMARK Flexibility Score: inf
ROOT
ATOM      1  C   UNL     1      10.650  -9.331  -1.193  1.00  0.00     0.002 C 
ENDROOT
BRANCH   1   2
ATOM      2  C   UNL     1       9.915 -10.633  -0.870  1.00  0.00     0.002 C 
BRANCH   2   3
ATOM      3  C   UNL     1      10.743 -11.761  -0.269  1.00  0.00     0.021 C 
BRANCH   3   4
ATOM      4  C   UNL     1      11.551 -11.368   0.953  1.00  0.00     0.116 C 
BRANCH   4   5
ATOM      5  N   UNL     1      10.738 -10.888   2.055  1.00  0.00    -0.352 N 
ATOM      6  O   UNL     1      10.101 -10.729   4.216  1.00  0.00    -0.269 OA
ATOM      7  C   UNL     1      10.914 -11.126   3.404  1.00  0.00     0.251 C 
ATOM      8  H   UNL     1       9.968 -10.324   1.812  1.00  0.00     0.163 HD
BRANCH   7   9
ATOM      9  C   UNL     1      12.100 -11.908   3.823  1.00  0.00     0.039 A 
ATOM     10  C   UNL     1      13.356 -11.603   3.297  1.00  0.00     0.014 A 
ATOM     11  C   UNL     1      11.940 -12.989   4.692  1.00  0.00     0.014 A 
ATOM     12  C   UNL     1      14.415 -12.471   3.506  1.00  0.00     0.010 A 
ATOM     13  C   UNL     1      13.041 -13.796   4.998  1.00  0.00     0.010 A 
ATOM     14  C   UNL     1      14.281 -13.558   4.388  1.00  0.00    -0.014 A 
BRANCH  14  15
ATOM     15  C   UNL     1      15.497 -14.338   4.731  1.00  0.00     0.031 A 
ATOM     16  C   UNL     1      15.620 -15.803   4.425  1.00  0.00     0.074 A 
ATOM     17  C   UNL     1      16.520 -13.671   5.305  1.00  0.00     0.049 A 
ATOM     18  N   UNL     1      16.645 -16.594   4.619  1.00  0.00    -0.248 NA
ATOM     19  C   UNL     1      14.450 -16.476   3.838  1.00  0.00     0.031 C 
ATOM     20  C   UNL     1      16.483 -12.258   5.697  1.00  0.00     0.029 A 
ATOM     21  N   UNL     1      17.786 -14.072   5.641  1.00  0.00    -0.354 N 
ATOM     22  C   UNL     1      16.236 -17.860   4.218  1.00  0.00     0.074 A 
ATOM     23  C   UNL     1      14.866 -17.736   3.770  1.00  0.00     0.031 C 
ATOM     24  C   UNL     1      17.683 -11.896   6.167  1.00  0.00     0.029 A 
ATOM     25  C   UNL     1      18.553 -13.064   6.178  1.00  0.00     0.049 A 
ATOM     26  H   UNL     1      18.114 -14.990   5.511  1.00  0.00     0.167 HD
ATOM     27  C   UNL     1      16.948 -19.014   4.214  1.00  0.00     0.034 A 
ATOM     28  C   UNL     1      19.814 -13.077   6.647  1.00  0.00     0.034 A 
ATOM     29  C   UNL     1      18.323 -19.115   4.632  1.00  0.00     0.049 A 
ATOM     30  C   UNL     1      20.586 -14.360   6.581  1.00  0.00     0.074 A 
ATOM     31  C   UNL     1      19.143 -20.230   4.629  1.00  0.00     0.029 A 
ATOM     32  N   UNL     1      19.082 -18.065   5.127  1.00  0.00    -0.354 N 
ATOM     33  N   UNL     1      20.215 -15.519   6.095  1.00  0.00    -0.248 NA
ATOM     34  C   UNL     1      21.957 -14.333   7.106  1.00  0.00     0.031 C 
ATOM     35  C   UNL     1      20.395 -19.856   5.132  1.00  0.00     0.029 A 
ATOM     36  C   UNL     1      20.360 -18.504   5.433  1.00  0.00     0.049 A 
ATOM     37  H   UNL     1      18.760 -17.142   5.244  1.00  0.00     0.167 HD
ATOM     38  C   UNL     1      21.307 -16.361   6.250  1.00  0.00     0.074 A 
ATOM     39  C   UNL     1      22.369 -15.562   6.829  1.00  0.00     0.031 C 
ATOM     40  C   UNL     1      21.413 -17.683   5.971  1.00  0.00     0.034 A 
BRANCH  27  41
ATOM     41  C   UNL     1      16.276 -20.261   3.697  1.00  0.00     0.023 A 
ATOM     42  C   UNL     1      16.086 -20.420   2.310  1.00  0.00     0.012 A 
ATOM     43  C   UNL     1      15.923 -21.313   4.567  1.00  0.00     0.148 A 
ATOM     44  C   UNL     1      15.541 -21.597   1.796  1.00  0.00     0.002 A 
ATOM     45  C   UNL     1      15.415 -22.498   4.045  1.00  0.00     0.091 A 
ATOM     46  F   UNL     1      16.096 -21.137   5.885  1.00  0.00    -0.205 F 
ATOM     47  C   UNL     1      15.216 -22.638   2.662  1.00  0.00     0.022 A 
BRANCH  45  48
ATOM     48  S   UNL     1      15.035 -23.929   5.064  1.00  0.00     0.127 S 
ATOM     49  O   UNL     1      13.576 -23.981   4.968  1.00  0.00    -0.237 OA
ATOM     50  O   UNL     1      15.730 -25.004   4.356  1.00  0.00    -0.237 OA
ATOM     51  O   UNL     1      15.562 -23.631   6.388  1.00  0.00    -0.744 OA
ENDBRANCH  45  48
ENDBRANCH  27  41
BRANCH  28  52
ATOM     52  C   UNL     1      20.417 -11.826   7.185  1.00  0.00     0.023 A 
ATOM     53  C   UNL     1      21.472 -11.205   6.491  1.00  0.00     0.012 A 
ATOM     54  C   UNL     1      19.911 -11.218   8.351  1.00  0.00     0.148 A 
ATOM     55  C   UNL     1      22.029 -10.015   6.963  1.00  0.00     0.002 A 
ATOM     56  C   UNL     1      20.424  -9.999   8.777  1.00  0.00     0.091 A 
ATOM     57  F   UNL     1      18.921 -11.832   9.014  1.00  0.00    -0.205 F 
ATOM     58  C   UNL     1      21.496  -9.405   8.096  1.00  0.00     0.022 A 
BRANCH  56  59
ATOM     59  S   UNL     1      19.668  -9.084  10.124  1.00  0.00     0.127 S 
ATOM     60  O   UNL     1      20.521  -9.446  11.251  1.00  0.00    -0.237 OA
ATOM     61  O   UNL     1      19.799  -7.698   9.671  1.00  0.00    -0.237 OA
ATOM     62  O   UNL     1      18.291  -9.559  10.177  1.00  0.00    -0.744 OA
ENDBRANCH  56  59
ENDBRANCH  28  52
BRANCH  40  63
ATOM     63  C   UNL     1      22.729 -18.338   6.290  1.00  0.00     0.023 A 
ATOM     64  C   UNL     1      23.074 -18.580   7.635  1.00  0.00     0.012 A 
ATOM     65  C   UNL     1      23.607 -18.739   5.266  1.00  0.00     0.148 A 
ATOM     66  C   UNL     1      24.292 -19.173   7.958  1.00  0.00     0.002 A 
ATOM     67  C   UNL     1      24.800 -19.371   5.594  1.00  0.00     0.091 A 
ATOM     68  F   UNL     1      23.271 -18.477   3.994  1.00  0.00    -0.205 F 
ATOM     69  C   UNL     1      25.150 -19.578   6.938  1.00  0.00     0.022 A 
BRANCH  67  70
ATOM     70  S   UNL     1      25.922 -19.997   4.340  1.00  0.00     0.127 S 
ATOM     71  O   UNL     1      26.962 -18.971   4.330  1.00  0.00    -0.237 OA
ATOM     72  O   UNL     1      26.338 -21.282   4.903  1.00  0.00    -0.237 OA
ATOM     73  O   UNL     1      25.132 -20.105   3.120  1.00  0.00    -0.744 OA
ENDBRANCH  67  70
ENDBRANCH  40  63
ENDBRANCH  14  15
ENDBRANCH   7   9
ENDBRANCH   4   5
ENDBRANCH   3   4
ENDBRANCH   2   3
ENDBRANCH   1   2
BRANCH   1  74
ATOM     74  C   UNL     1      11.958  -9.451  -1.981  1.00  0.00     0.021 C 
BRANCH  74  75
ATOM     75  C   UNL     1      11.850 -10.127  -3.340  1.00  0.00     0.116 C 
BRANCH  75  76
ATOM     76  N   UNL     1      11.038  -9.372  -4.278  1.00  0.00    -0.354 N 
ATOM     77  C   UNL     1      10.793  -9.611  -5.604  1.00  0.00     0.247 C 
ATOM     78  H   UNL     1      10.599  -8.573  -3.906  1.00  0.00     0.163 HD
ATOM     79  O   UNL     1       9.957  -8.894  -6.167  1.00  0.00    -0.272 OA
BRANCH  77  80
ATOM     80  C   UNL     1      11.637 -10.631  -6.426  1.00  0.00     0.202 C 
BRANCH  80  81
ATOM     81  C   UNL     1      12.973  -9.934  -6.732  1.00  0.00    -0.016 A 
ATOM     82  C   UNL     1      14.113 -10.082  -5.925  1.00  0.00     0.006 A 
ATOM     83  C   UNL     1      12.981  -8.912  -7.700  1.00  0.00     0.006 A 
ATOM     84  C   UNL     1      15.149  -9.146  -5.970  1.00  0.00     0.000 A 
ATOM     85  C   UNL     1      14.037  -8.000  -7.771  1.00  0.00     0.000 A 
ATOM     86  C   UNL     1      15.099  -8.092  -6.878  1.00  0.00     0.000 A 
ENDBRANCH  80  81
BRANCH  80  87
ATOM     87  N   UNL     1      11.780 -11.965  -5.847  1.00  0.00    -0.340 N 
ATOM     88  C   UNL     1      10.835 -12.936  -5.677  1.00  0.00     0.224 C 
ATOM     89  H   UNL     1      12.686 -12.197  -5.537  1.00  0.00     0.164 HD
ATOM     90  O   UNL     1      11.252 -14.089  -5.542  1.00  0.00    -0.275 OA
BRANCH  88  91
ATOM     91  C   UNL     1       9.335 -12.607  -5.551  1.00  0.00     0.078 C 
ATOM     92  C   UNL     1       8.485 -13.877  -5.785  1.00  0.00     0.014 C 
ATOM     93  C   UNL     1       9.071 -12.045  -4.151  1.00  0.00     0.014 C 
ATOM     94  C   UNL     1       7.033 -13.757  -5.316  1.00  0.00     0.006 C 
ATOM     95  C   UNL     1       7.615 -11.946  -3.739  1.00  0.00     0.006 C 
ATOM     96  C   UNL     1       6.905 -13.281  -3.863  1.00  0.00     0.008 C 
BRANCH  96  97
ATOM     97  C   UNL     1       7.411 -14.326  -2.837  1.00  0.00     0.119 C 
BRANCH  97  98
ATOM     98  N   UNL     1       6.970 -14.004  -1.485  1.00  0.00    -0.351 N 
ATOM     99  C   UNL     1       5.918 -14.513  -0.770  1.00  0.00     0.278 C 
ATOM    100  H   UNL     1       7.505 -13.322  -1.019  1.00  0.00     0.163 HD
ATOM    101  O   UNL     1       5.677 -14.036   0.342  1.00  0.00    -0.268 OA
BRANCH  99 102
ATOM    102  C   UNL     1       5.074 -15.655  -1.366  1.00  0.00     0.277 C 
ATOM    103  C   UNL     1       4.259 -15.148  -2.563  1.00  0.00     0.111 C 
ATOM    104  N   UNL     1       4.249 -16.301  -0.303  1.00  0.00    -0.332 N 
ATOM    105  C   UNL     1       3.456 -16.289  -3.104  1.00  0.00    -0.033 A 
ATOM    106  C   UNL     1       2.875 -16.625  -0.711  1.00  0.00     0.298 C 
ATOM    107  H   UNL     1       4.204 -15.667   0.495  1.00  0.00     0.347 HD
ATOM    108  H   UNL     1       4.703 -17.187  -0.081  1.00  0.00     0.347 HD
ATOM    109  C   UNL     1       3.441 -16.619  -4.460  1.00  0.00     0.004 A 
ATOM    110  C   UNL     1       2.773 -17.062  -2.155  1.00  0.00     0.010 A 
ATOM    111  C   UNL     1       2.728 -17.737  -4.877  1.00  0.00     0.000 A 
ATOM    112  C   UNL     1       2.035 -18.162  -2.587  1.00  0.00     0.010 A 
ATOM    113  C   UNL     1       2.022 -18.501  -3.945  1.00  0.00     0.001 A 
ENDBRANCH  99 102
ENDBRANCH  97  98
ENDBRANCH  96  97
ENDBRANCH  88  91
ENDBRANCH  80  87
ENDBRANCH  77  80
ENDBRANCH  75  76
ENDBRANCH  74  75
ENDBRANCH   1  74
TORSDOF 22
