REMARK SMILES CCN(CC)C(=O)COc1cc(C)ccc1C(=O)NCCCCCCNC(=O)c1ccc(-c2c3nc(c(-c4cccc(S(=O)(=O)[O-])c4F)c4ccc([nH]4)c(-c4cccc(S(=O)(=O)[O-])c4F)c4nc(c(-c5cccc(S(=O)(=O)[O-])c5F)c5ccc2[nH]5)C=C4)C=C3)cc1
REMARK SMILES IDX 22 1 21 2 20 3 19 4 17 5 18 6 16 8 10 9 11 10 12 11 15 12
REMARK SMILES IDX 13 13 14 14 9 15 8 16 6 17 3 18 7 19 2 20 1 21 4 22 5 23
REMARK SMILES IDX 23 24 24 25 25 26 26 27 27 28 28 30 29 31 30 32 91 33 31 34
REMARK SMILES IDX 90 35 32 36 33 37 34 38 84 39 35 40 89 41 83 42 85 43 36 44
REMARK SMILES IDX 88 45 82 46 81 47 37 49 69 50 49 51 68 52 50 53 53 54 67 55
REMARK SMILES IDX 86 56 51 57 52 58 66 60 87 61 54 62 38 63 39 64 47 65 40 66
REMARK SMILES IDX 42 67 48 68 41 69 43 70 44 71 45 72 46 73 70 74 71 75 79 76
REMARK SMILES IDX 72 77 74 78 80 79 73 80 75 81 76 82 77 83 78 84 55 85 56 86
REMARK SMILES IDX 64 87 57 88 59 89 65 90 58 91 60 92 61 93 62 94 63 95
REMARK H PARENT 19 7 26 29 85 48 53 59
REMARK Flexibility Score: inf
ROOT
ATOM      1  C   UNL     1       2.825   7.893  -2.268  1.00  0.00     0.002 C 
ENDROOT
BRANCH   1   2
ATOM      2  C   UNL     1       2.716   6.366  -2.151  1.00  0.00     0.021 C 
BRANCH   2   3
ATOM      3  C   UNL     1       2.035   5.686  -3.343  1.00  0.00     0.116 C 
BRANCH   3   4
ATOM      4  N   UNL     1       3.003   5.402  -4.376  1.00  0.00    -0.352 N 
ATOM      5  C   UNL     1       3.674   4.274  -4.759  1.00  0.00     0.255 C 
ATOM      6  O   UNL     1       4.466   4.429  -5.697  1.00  0.00    -0.269 OA
ATOM      7  H   UNL     1       3.228   6.189  -4.922  1.00  0.00     0.163 HD
BRANCH   5   8
ATOM      8  C   UNL     1       3.485   2.885  -4.224  1.00  0.00     0.081 A 
ATOM      9  C   UNL     1       3.188   2.473  -2.912  1.00  0.00     0.133 A 
ATOM     10  C   UNL     1       3.109   1.095  -2.633  1.00  0.00     0.050 A 
ATOM     11  C   UNL     1       3.348   0.117  -3.606  1.00  0.00    -0.047 A 
ATOM     12  C   UNL     1       3.753   1.883  -5.188  1.00  0.00     0.018 A 
ATOM     13  C   UNL     1       3.284  -1.341  -3.258  1.00  0.00     0.044 C 
ATOM     14  C   UNL     1       3.693   0.522  -4.888  1.00  0.00     0.004 A 
BRANCH   9  15
ATOM     15  O   UNL     1       2.929   3.406  -1.949  1.00  0.00    -0.483 OA
BRANCH  15  16
ATOM     16  C   UNL     1       3.254   3.135  -0.596  1.00  0.00     0.329 C 
BRANCH  16  17
ATOM     17  C   UNL     1       2.475   2.112   0.260  1.00  0.00     0.260 C 
ATOM     18  N   UNL     1       1.085   2.090   0.241  1.00  0.00    -0.340 N 
ATOM     19  O   UNL     1       3.114   1.301   0.939  1.00  0.00    -0.271 OA
BRANCH  18  20
ATOM     20  C   UNL     1       0.419   1.030   1.003  1.00  0.00     0.116 C 
ATOM     21  C   UNL     1       0.461  -0.299   0.259  1.00  0.00     0.027 C 
ENDBRANCH  18  20
BRANCH  18  22
ATOM     22  C   UNL     1       0.227   3.036  -0.470  1.00  0.00     0.116 C 
ATOM     23  C   UNL     1       0.016   4.320   0.315  1.00  0.00     0.027 C 
ENDBRANCH  18  22
ENDBRANCH  16  17
ENDBRANCH  15  16
ENDBRANCH   9  15
ENDBRANCH   5   8
ENDBRANCH   3   4
ENDBRANCH   2   3
ENDBRANCH   1   2
BRANCH   1  24
ATOM     24  C   UNL     1       1.496   8.657  -2.397  1.00  0.00     0.002 C 
BRANCH  24  25
ATOM     25  C   UNL     1       0.369   8.195  -1.470  1.00  0.00     0.021 C 
BRANCH  25  26
ATOM     26  C   UNL     1       0.647   8.459   0.004  1.00  0.00     0.116 C 
BRANCH  26  27
ATOM     27  N   UNL     1      -0.004   9.655   0.503  1.00  0.00    -0.352 N 
ATOM     28  C   UNL     1       0.032  10.246   1.758  1.00  0.00     0.251 C 
ATOM     29  H   UNL     1      -0.563  10.125  -0.157  1.00  0.00     0.163 HD
ATOM     30  O   UNL     1      -0.779  11.107   2.014  1.00  0.00    -0.269 OA
BRANCH  28  31
ATOM     31  C   UNL     1       1.129   9.907   2.709  1.00  0.00     0.039 A 
ATOM     32  C   UNL     1       1.715  10.962   3.425  1.00  0.00     0.014 A 
ATOM     33  C   UNL     1       1.695   8.638   2.763  1.00  0.00     0.014 A 
ATOM     34  C   UNL     1       2.980  10.801   3.990  1.00  0.00     0.010 A 
ATOM     35  C   UNL     1       2.979   8.495   3.243  1.00  0.00     0.010 A 
ATOM     36  C   UNL     1       3.643   9.594   3.799  1.00  0.00    -0.014 A 
BRANCH  36  37
ATOM     37  C   UNL     1       5.058   9.379   4.051  1.00  0.00     0.031 A 
ATOM     38  C   UNL     1       5.511   8.688   5.271  1.00  0.00     0.074 A 
ATOM     39  C   UNL     1       5.927   9.632   3.048  1.00  0.00     0.049 A 
ATOM     40  N   UNL     1       6.719   8.732   5.720  1.00  0.00    -0.248 NA
ATOM     41  C   UNL     1       4.608   7.907   6.103  1.00  0.00     0.031 C 
ATOM     42  C   UNL     1       7.279   9.110   2.900  1.00  0.00     0.029 A 
ATOM     43  N   UNL     1       5.818  10.600   2.045  1.00  0.00    -0.354 N 
ATOM     44  C   UNL     1       6.825   7.785   6.717  1.00  0.00     0.074 A 
ATOM     45  C   UNL     1       5.466   7.368   6.973  1.00  0.00     0.031 C 
ATOM     46  C   UNL     1       7.964   9.922   2.081  1.00  0.00     0.029 A 
ATOM     47  C   UNL     1       7.120  11.076   1.821  1.00  0.00     0.049 A 
ATOM     48  H   UNL     1       4.995  10.889   1.588  1.00  0.00     0.167 HD
ATOM     49  C   UNL     1       8.064   7.356   7.093  1.00  0.00     0.034 A 
ATOM     50  C   UNL     1       7.492  12.380   1.970  1.00  0.00     0.034 A 
ATOM     51  C   UNL     1       9.113   8.081   6.361  1.00  0.00     0.049 A 
ATOM     52  C   UNL     1       8.633  12.564   2.950  1.00  0.00     0.074 A 
ATOM     53  C   UNL     1       9.856   7.763   5.235  1.00  0.00     0.029 A 
ATOM     54  N   UNL     1       9.338   9.428   6.615  1.00  0.00    -0.354 N 
ATOM     55  N   UNL     1       9.077  11.622   3.735  1.00  0.00    -0.248 NA
ATOM     56  C   UNL     1       9.347  13.822   3.147  1.00  0.00     0.031 C 
ATOM     57  C   UNL     1      10.478   8.949   4.770  1.00  0.00     0.029 A 
ATOM     58  C   UNL     1      10.135   9.982   5.626  1.00  0.00     0.049 A 
ATOM     59  H   UNL     1       8.980   9.920   7.389  1.00  0.00     0.167 HD
ATOM     60  C   UNL     1      10.004  12.134   4.604  1.00  0.00     0.074 A 
ATOM     61  C   UNL     1      10.192  13.499   4.143  1.00  0.00     0.031 C 
ATOM     62  C   UNL     1      10.482  11.400   5.657  1.00  0.00     0.034 A 
BRANCH  49  63
ATOM     63  C   UNL     1       8.363   6.072   7.860  1.00  0.00     0.023 A 
ATOM     64  C   UNL     1       9.673   5.546   7.749  1.00  0.00     0.012 A 
ATOM     65  C   UNL     1       7.459   5.298   8.619  1.00  0.00     0.148 A 
ATOM     66  C   UNL     1      10.028   4.285   8.240  1.00  0.00     0.002 A 
ATOM     67  C   UNL     1       7.789   4.009   9.056  1.00  0.00     0.091 A 
ATOM     68  F   UNL     1       6.299   5.825   9.015  1.00  0.00    -0.205 F 
ATOM     69  C   UNL     1       9.073   3.496   8.858  1.00  0.00     0.022 A 
BRANCH  67  70
ATOM     70  S   UNL     1       6.583   2.906   9.816  1.00  0.00     0.127 S 
ATOM     71  O   UNL     1       6.715   1.696   9.001  1.00  0.00    -0.237 OA
ATOM     72  O   UNL     1       7.089   2.777  11.180  1.00  0.00    -0.237 OA
ATOM     73  O   UNL     1       5.290   3.569   9.687  1.00  0.00    -0.744 OA
ENDBRANCH  67  70
ENDBRANCH  49  63
BRANCH  50  74
ATOM     74  C   UNL     1       6.392  13.356   1.722  1.00  0.00     0.023 A 
ATOM     75  C   UNL     1       5.872  13.407   0.406  1.00  0.00     0.012 A 
ATOM     76  C   UNL     1       5.633  13.900   2.773  1.00  0.00     0.148 A 
ATOM     77  C   UNL     1       4.581  13.874   0.161  1.00  0.00     0.002 A 
ATOM     78  C   UNL     1       4.342  14.364   2.519  1.00  0.00     0.091 A 
ATOM     79  F   UNL     1       6.145  13.881   4.010  1.00  0.00    -0.205 F 
ATOM     80  C   UNL     1       3.804  14.321   1.222  1.00  0.00     0.022 A 
BRANCH  78  81
ATOM     81  S   UNL     1       3.253  14.897   3.848  1.00  0.00     0.127 S 
ATOM     82  O   UNL     1       3.452  16.343   3.827  1.00  0.00    -0.237 OA
ATOM     83  O   UNL     1       1.942  14.449   3.381  1.00  0.00    -0.237 OA
ATOM     84  O   UNL     1       3.735  14.193   5.027  1.00  0.00    -0.744 OA
ENDBRANCH  78  81
ENDBRANCH  50  74
BRANCH  62  85
ATOM     85  C   UNL     1      11.309  11.929   6.818  1.00  0.00     0.023 A 
ATOM     86  C   UNL     1      11.354  13.296   7.153  1.00  0.00     0.012 A 
ATOM     87  C   UNL     1      11.954  11.038   7.717  1.00  0.00     0.148 A 
ATOM     88  C   UNL     1      12.035  13.762   8.285  1.00  0.00     0.002 A 
ATOM     89  C   UNL     1      12.534  11.495   8.899  1.00  0.00     0.091 A 
ATOM     90  F   UNL     1      12.030   9.730   7.428  1.00  0.00    -0.205 F 
ATOM     91  C   UNL     1      12.602  12.860   9.174  1.00  0.00     0.022 A 
BRANCH  89  92
ATOM     92  S   UNL     1      13.057  10.333  10.169  1.00  0.00     0.127 S 
ATOM     93  O   UNL     1      14.439  10.057   9.784  1.00  0.00    -0.237 OA
ATOM     94  O   UNL     1      12.915  11.116  11.399  1.00  0.00    -0.237 OA
ATOM     95  O   UNL     1      12.119   9.224  10.062  1.00  0.00    -0.744 OA
ENDBRANCH  89  92
ENDBRANCH  62  85
ENDBRANCH  36  37
ENDBRANCH  28  31
ENDBRANCH  26  27
ENDBRANCH  25  26
ENDBRANCH  24  25
ENDBRANCH   1  24
TORSDOF 21
