REMARK SMILES COc1cccc(-c2nn(-c3cc4c(cc3C(N)=O)OCO4)cc2C(=O)NCCCCCCNC(=O)c2ccc(-c3c4nc(c(-c5cccc(S(=O)(=O)[O-])c5F)c5ccc([nH]5)c(-c5cccc(S(=O)(=O)[O-])c5F)c5nc(c(-c6cccc(S(=O)(=O)[O-])c6F)c6ccc3[nH]6)C=C5)C=C4)cc2)c1
REMARK SMILES IDX 31 1 30 2 29 3 28 4 27 5 25 6 26 7 24 9 8 10 9 11 10 12
REMARK SMILES IDX 23 13 7 14 3 15 4 16 100 17 5 18 6 19 2 20 1 21 11 22 12 23
REMARK SMILES IDX 16 24 13 25 15 26 14 27 22 28 20 29 21 30 17 31 18 32 19 33
REMARK SMILES IDX 32 36 33 37 34 38 35 39 36 41 37 42 38 43 99 44 39 45 98 46
REMARK SMILES IDX 40 47 41 48 42 49 92 50 43 51 97 52 91 53 93 54 44 55 96 56
REMARK SMILES IDX 90 57 89 58 45 60 77 61 57 62 76 63 58 64 61 65 75 66 94 67
REMARK SMILES IDX 59 68 60 69 74 71 95 72 62 73 46 74 47 75 55 76 48 77 50 78
REMARK SMILES IDX 56 79 49 80 51 81 52 82 53 83 54 84 78 85 79 86 87 87 80 88
REMARK SMILES IDX 82 89 88 90 81 91 83 92 84 93 85 94 86 95 63 96 64 97 72 98
REMARK SMILES IDX 65 99 67 100 73 101 66 102 68 103 69 104 70 105 71 106
REMARK H PARENT 27 8 18 34 18 35 34 40 93 59 61 70
REMARK Flexibility Score: inf
ROOT
ATOM      1  C   UNL     1       5.353  -5.595  -8.378  1.00  0.00     0.002 C 
ENDROOT
BRANCH   1   2
ATOM      2  C   UNL     1       4.865  -6.615  -7.334  1.00  0.00     0.002 C 
BRANCH   2   3
ATOM      3  C   UNL     1       5.519  -6.493  -5.952  1.00  0.00     0.021 C 
BRANCH   3   4
ATOM      4  C   UNL     1       5.435  -5.080  -5.384  1.00  0.00     0.116 C 
BRANCH   4   5
ATOM      5  N   UNL     1       4.088  -4.791  -4.945  1.00  0.00    -0.352 N 
ATOM      6  C   UNL     1       3.519  -4.633  -3.710  1.00  0.00     0.255 C 
ATOM      7  O   UNL     1       2.321  -4.347  -3.719  1.00  0.00    -0.269 OA
ATOM      8  H   UNL     1       3.448  -4.688  -5.687  1.00  0.00     0.163 HD
BRANCH   6   9
ATOM      9  C   UNL     1       4.297  -4.704  -2.481  1.00  0.00     0.086 A 
ATOM     10  C   UNL     1       3.890  -4.308  -1.159  1.00  0.00     0.106 A 
ATOM     11  N   UNL     1       4.928  -4.308  -0.293  1.00  0.00    -0.167 NA
ATOM     12  N   UNL     1       5.983  -4.625  -1.078  1.00  0.00    -0.239 N 
ATOM     13  C   UNL     1       5.572  -5.177  -2.264  1.00  0.00     0.129 A 
BRANCH  10  14
ATOM     14  C   UNL     1       2.536  -3.945  -0.742  1.00  0.00     0.007 A 
ATOM     15  C   UNL     1       0.934  -2.327   0.080  1.00  0.00     0.119 A 
ATOM     16  C   UNL     1      -0.099  -3.245  -0.119  1.00  0.00     0.046 A 
ATOM     17  C   UNL     1       2.256  -2.680  -0.213  1.00  0.00     0.056 A 
ATOM     18  C   UNL     1       0.175  -4.511  -0.631  1.00  0.00     0.005 A 
ATOM     19  C   UNL     1       1.490  -4.862  -0.933  1.00  0.00     0.011 A 
BRANCH  15  20
ATOM     20  O   UNL     1       0.564  -1.123   0.618  1.00  0.00    -0.497 OA
ATOM     21  C   UNL     1       1.164  -0.001  -0.021  1.00  0.00     0.278 C 
ENDBRANCH  15  20
ENDBRANCH  10  14
BRANCH  12  22
ATOM     22  C   UNL     1       7.333  -4.516  -0.669  1.00  0.00     0.081 A 
ATOM     23  C   UNL     1       7.692  -5.071   0.572  1.00  0.00     0.079 A 
ATOM     24  C   UNL     1       8.320  -3.957  -1.538  1.00  0.00     0.069 A 
ATOM     25  C   UNL     1       9.037  -5.116   0.878  1.00  0.00     0.167 A 
ATOM     26  C   UNL     1       9.678  -4.124  -1.222  1.00  0.00     0.066 A 
ATOM     27  C   UNL     1       9.996  -4.681  -0.006  1.00  0.00     0.166 A 
ATOM     28  O   UNL     1       9.588  -5.576   2.034  1.00  0.00    -0.454 OA
ATOM     29  O   UNL     1      11.260  -4.804   0.481  1.00  0.00    -0.454 OA
ATOM     30  C   UNL     1      10.978  -5.243   1.824  1.00  0.00     0.468 C 
BRANCH  24  31
ATOM     31  C   UNL     1       7.967  -3.009  -2.654  1.00  0.00     0.251 C 
ATOM     32  N   UNL     1       8.947  -2.194  -3.151  1.00  0.00    -0.366 N 
ATOM     33  O   UNL     1       6.829  -2.849  -3.091  1.00  0.00    -0.269 OA
ATOM     34  H   UNL     1       9.873  -2.286  -2.829  1.00  0.00     0.159 HD
ATOM     35  H   UNL     1       8.727  -1.516  -3.829  1.00  0.00     0.159 HD
ENDBRANCH  24  31
ENDBRANCH  12  22
ENDBRANCH   6   9
ENDBRANCH   4   5
ENDBRANCH   3   4
ENDBRANCH   2   3
ENDBRANCH   1   2
BRANCH   1  36
ATOM     36  C   UNL     1       6.877  -5.502  -8.561  1.00  0.00     0.021 C 
BRANCH  36  37
ATOM     37  C   UNL     1       7.458  -6.739  -9.218  1.00  0.00     0.116 C 
BRANCH  37  38
ATOM     38  N   UNL     1       7.024  -6.860 -10.617  1.00  0.00    -0.352 N 
ATOM     39  C   UNL     1       7.388  -7.808 -11.554  1.00  0.00     0.251 C 
ATOM     40  H   UNL     1       6.389  -6.175 -10.928  1.00  0.00     0.163 HD
ATOM     41  O   UNL     1       7.235  -7.609 -12.752  1.00  0.00    -0.269 OA
BRANCH  39  42
ATOM     42  C   UNL     1       7.931  -9.084 -11.066  1.00  0.00     0.039 A 
ATOM     43  C   UNL     1       8.957  -9.778 -11.716  1.00  0.00     0.014 A 
ATOM     44  C   UNL     1       7.369  -9.571  -9.893  1.00  0.00     0.014 A 
ATOM     45  C   UNL     1       9.430 -10.957 -11.142  1.00  0.00     0.010 A 
ATOM     46  C   UNL     1       7.998 -10.562  -9.211  1.00  0.00     0.010 A 
ATOM     47  C   UNL     1       8.930 -11.333  -9.892  1.00  0.00    -0.014 A 
BRANCH  47  48
ATOM     48  C   UNL     1       9.338 -12.531  -9.180  1.00  0.00     0.031 A 
ATOM     49  C   UNL     1      10.684 -12.418  -8.551  1.00  0.00     0.074 A 
ATOM     50  C   UNL     1       8.381 -13.428  -8.838  1.00  0.00     0.049 A 
ATOM     51  N   UNL     1      11.744 -13.119  -8.790  1.00  0.00    -0.248 NA
ATOM     52  C   UNL     1      10.938 -11.253  -7.680  1.00  0.00     0.031 C 
ATOM     53  C   UNL     1       6.931 -13.344  -9.108  1.00  0.00     0.029 A 
ATOM     54  N   UNL     1       8.450 -14.495  -8.003  1.00  0.00    -0.354 N 
ATOM     55  C   UNL     1      12.713 -12.630  -7.909  1.00  0.00     0.074 A 
ATOM     56  C   UNL     1      12.256 -11.337  -7.494  1.00  0.00     0.031 C 
ATOM     57  C   UNL     1       6.262 -14.130  -8.236  1.00  0.00     0.029 A 
ATOM     58  C   UNL     1       7.226 -14.880  -7.455  1.00  0.00     0.049 A 
ATOM     59  H   UNL     1       9.294 -14.960  -7.801  1.00  0.00     0.167 HD
ATOM     60  C   UNL     1      13.644 -13.451  -7.346  1.00  0.00     0.034 A 
ATOM     61  C   UNL     1       7.033 -15.688  -6.379  1.00  0.00     0.034 A 
ATOM     62  C   UNL     1      13.661 -14.728  -8.014  1.00  0.00     0.049 A 
ATOM     63  C   UNL     1       8.319 -16.379  -6.125  1.00  0.00     0.074 A 
ATOM     64  C   UNL     1      13.905 -15.149  -9.305  1.00  0.00     0.029 A 
ATOM     65  N   UNL     1      12.971 -15.745  -7.399  1.00  0.00    -0.354 N 
ATOM     66  N   UNL     1       8.859 -17.220  -6.964  1.00  0.00    -0.248 NA
ATOM     67  C   UNL     1       9.237 -15.751  -5.186  1.00  0.00     0.031 C 
ATOM     68  C   UNL     1      12.941 -16.172  -9.537  1.00  0.00     0.029 A 
ATOM     69  C   UNL     1      12.229 -16.385  -8.354  1.00  0.00     0.049 A 
ATOM     70  H   UNL     1      13.004 -15.973  -6.441  1.00  0.00     0.167 HD
ATOM     71  C   UNL     1      10.207 -16.884  -6.968  1.00  0.00     0.074 A 
ATOM     72  C   UNL     1      10.395 -16.037  -5.789  1.00  0.00     0.031 C 
ATOM     73  C   UNL     1      10.970 -17.048  -8.088  1.00  0.00     0.034 A 
BRANCH  60  74
ATOM     74  C   UNL     1      14.264 -13.289  -5.968  1.00  0.00     0.023 A 
ATOM     75  C   UNL     1      15.268 -14.221  -5.615  1.00  0.00     0.012 A 
ATOM     76  C   UNL     1      13.760 -12.481  -4.922  1.00  0.00     0.148 A 
ATOM     77  C   UNL     1      15.688 -14.393  -4.292  1.00  0.00     0.002 A 
ATOM     78  C   UNL     1      14.233 -12.603  -3.619  1.00  0.00     0.091 A 
ATOM     79  F   UNL     1      12.729 -11.663  -5.133  1.00  0.00    -0.205 F 
ATOM     80  C   UNL     1      15.171 -13.582  -3.292  1.00  0.00     0.022 A 
BRANCH  78  81
ATOM     81  S   UNL     1      13.629 -11.550  -2.290  1.00  0.00     0.127 S 
ATOM     82  O   UNL     1      12.823 -12.488  -1.515  1.00  0.00    -0.237 OA
ATOM     83  O   UNL     1      14.876 -11.128  -1.653  1.00  0.00    -0.237 OA
ATOM     84  O   UNL     1      12.899 -10.468  -2.941  1.00  0.00    -0.744 OA
ENDBRANCH  78  81
ENDBRANCH  60  74
BRANCH  61  85
ATOM     85  C   UNL     1       5.938 -15.677  -5.374  1.00  0.00     0.023 A 
ATOM     86  C   UNL     1       5.632 -16.838  -4.635  1.00  0.00     0.012 A 
ATOM     87  C   UNL     1       5.361 -14.456  -4.955  1.00  0.00     0.148 A 
ATOM     88  C   UNL     1       4.788 -16.783  -3.514  1.00  0.00     0.002 A 
ATOM     89  C   UNL     1       4.517 -14.407  -3.848  1.00  0.00     0.091 A 
ATOM     90  F   UNL     1       5.714 -13.331  -5.590  1.00  0.00    -0.205 F 
ATOM     91  C   UNL     1       4.234 -15.568  -3.118  1.00  0.00     0.022 A 
BRANCH  89  92
ATOM     92  S   UNL     1       3.788 -12.869  -3.264  1.00  0.00     0.127 S 
ATOM     93  O   UNL     1       2.370 -13.218  -3.189  1.00  0.00    -0.237 OA
ATOM     94  O   UNL     1       4.447 -12.695  -1.972  1.00  0.00    -0.237 OA
ATOM     95  O   UNL     1       4.110 -11.868  -4.273  1.00  0.00    -0.744 OA
ENDBRANCH  89  92
ENDBRANCH  61  85
BRANCH  73  96
ATOM     96  C   UNL     1      10.377 -17.797  -9.256  1.00  0.00     0.023 A 
ATOM     97  C   UNL     1       9.328 -17.279 -10.046  1.00  0.00     0.012 A 
ATOM     98  C   UNL     1      11.071 -18.929  -9.707  1.00  0.00     0.148 A 
ATOM     99  C   UNL     1       8.982 -17.881 -11.260  1.00  0.00     0.002 A 
ATOM    100  C   UNL     1      10.764 -19.488 -10.939  1.00  0.00     0.091 A 
ATOM    101  F   UNL     1      12.065 -19.404  -8.942  1.00  0.00    -0.205 F 
ATOM    102  C   UNL     1       9.714 -18.974 -11.716  1.00  0.00     0.022 A 
BRANCH 100 103
ATOM    103  S   UNL     1      11.777 -20.786 -11.647  1.00  0.00     0.127 S 
ATOM    104  O   UNL     1      10.905 -21.952 -11.525  1.00  0.00    -0.237 OA
ATOM    105  O   UNL     1      11.981 -20.312 -13.016  1.00  0.00    -0.237 OA
ATOM    106  O   UNL     1      12.994 -20.829 -10.845  1.00  0.00    -0.744 OA
ENDBRANCH 100 103
ENDBRANCH  73  96
ENDBRANCH  47  48
ENDBRANCH  39  42
ENDBRANCH  37  38
ENDBRANCH  36  37
ENDBRANCH   1  36
TORSDOF 20
