REMARK SMILES CCn1ncc(NC(=O)[C@@H]2CCCC[C@@H]2C(=O)NCCCCCCNC(=O)c2ccc(-c3c4nc(c(-c5cccc(S(=O)(=O)[O-])c5F)c5ccc([nH]5)c(-c5cccc(S(=O)(=O)[O-])c5F)c5nc(c(-c6cccc(S(=O)(=O)[O-])c6F)c6ccc3[nH]6)C=C5)C=C4)cc2)c1C(=O)Nc1cnn(C)c1C
REMARK SMILES IDX 21 1 20 2 19 3 18 4 16 5 17 6 15 8 10 9 11 10 12 11 14 12
REMARK SMILES IDX 13 13 8 14 7 15 9 17 6 18 3 19 4 20 91 21 5 22 2 23 1 24
REMARK SMILES IDX 92 25 93 26 94 27 95 29 96 30 100 31 97 32 98 33 101 34
REMARK SMILES IDX 99 35 22 36 23 37 24 38 25 39 26 40 27 42 28 43 29 44 90 45
REMARK SMILES IDX 30 46 89 47 31 48 32 49 33 50 83 51 34 52 88 53 82 54 84 55
REMARK SMILES IDX 35 56 87 57 81 58 80 59 36 61 68 62 48 63 67 64 49 65 52 66
REMARK SMILES IDX 66 67 85 68 50 69 51 70 65 72 86 73 53 74 37 75 38 76 46 77
REMARK SMILES IDX 39 78 41 79 47 80 40 81 42 82 43 83 44 84 45 85 69 86 70 87
REMARK SMILES IDX 78 88 71 89 73 90 79 91 72 92 74 93 75 94 76 95 77 96 54 97
REMARK SMILES IDX 55 98 63 99 56 100 58 101 64 102 57 103 59 104 60 105 61 106
REMARK SMILES IDX 62 107
REMARK H PARENT 18 7 7 16 94 28 25 41 84 60 52 71
REMARK Flexibility Score: inf
ROOT
ATOM      1  C   UNL     1       4.112  -8.747  -0.693  1.00  0.00     0.002 C 
ENDROOT
BRANCH   1   2
ATOM      2  C   UNL     1       2.589  -8.624  -0.687  1.00  0.00     0.021 C 
BRANCH   2   3
ATOM      3  C   UNL     1       2.015  -7.870   0.502  1.00  0.00     0.116 C 
BRANCH   3   4
ATOM      4  N   UNL     1       2.595  -6.549   0.619  1.00  0.00    -0.356 N 
ATOM      5  C   UNL     1       1.966  -5.353   0.672  1.00  0.00     0.223 C 
ATOM      6  O   UNL     1       2.652  -4.331   0.593  1.00  0.00    -0.275 OA
ATOM      7  H   UNL     1       3.578  -6.517   0.666  1.00  0.00     0.163 HD
BRANCH   5   8
ATOM      8  C   UNL     1       0.467  -5.316   0.928  1.00  0.00     0.091 C 
ATOM      9  C   UNL     1      -0.252  -4.473  -0.134  1.00  0.00     0.091 C 
ATOM     10  C   UNL     1      -0.089  -3.020   0.161  1.00  0.00     0.014 C 
ATOM     11  C   UNL     1      -0.252  -2.551   1.583  1.00  0.00     0.001 C 
ATOM     12  C   UNL     1       0.233  -4.842   2.378  1.00  0.00     0.014 C 
ATOM     13  C   UNL     1       0.522  -3.365   2.583  1.00  0.00     0.001 C 
BRANCH   9  14
ATOM     14  C   UNL     1       0.116  -4.829  -1.591  1.00  0.00     0.228 C 
ATOM     15  N   UNL     1      -0.124  -3.987  -2.670  1.00  0.00    -0.322 N 
ATOM     16  H   UNL     1      -0.748  -4.307  -3.360  1.00  0.00     0.170 HD
ATOM     17  O   UNL     1       0.499  -5.978  -1.842  1.00  0.00    -0.274 OA
BRANCH  15  18
ATOM     18  C   UNL     1       0.449  -2.715  -2.860  1.00  0.00     0.092 A 
ATOM     19  N   UNL     1       1.223  -0.691  -2.693  1.00  0.00    -0.258 N 
ATOM     20  N   UNL     1       2.008  -1.241  -3.642  1.00  0.00    -0.178 NA
ATOM     21  C   UNL     1       0.073  -1.421  -2.445  1.00  0.00     0.150 A 
ATOM     22  C   UNL     1       1.548  -2.486  -3.725  1.00  0.00     0.162 A 
BRANCH  19  23
ATOM     23  C   UNL     1       1.771   0.459  -2.006  1.00  0.00     0.142 C 
ATOM     24  C   UNL     1       2.466   0.076  -0.708  1.00  0.00     0.029 C 
ENDBRANCH  19  23
BRANCH  21  25
ATOM     25  C   UNL     1      -1.206  -0.943  -1.907  1.00  0.00     0.276 C 
ATOM     26  O   UNL     1      -2.289  -1.294  -2.373  1.00  0.00    -0.267 OA
ATOM     27  N   UNL     1      -1.208  -0.349  -0.650  1.00  0.00    -0.318 N 
ATOM     28  H   UNL     1      -1.370  -0.941   0.120  1.00  0.00     0.170 HD
BRANCH  27  29
ATOM     29  C   UNL     1      -1.007   0.984  -0.375  1.00  0.00     0.082 A 
ATOM     30  C   UNL     1      -1.183   2.105  -1.206  1.00  0.00     0.161 A 
ATOM     31  C   UNL     1      -0.561   1.493   0.833  1.00  0.00     0.059 A 
ATOM     32  N   UNL     1      -0.704   3.217  -0.645  1.00  0.00    -0.179 NA
ATOM     33  N   UNL     1      -0.224   2.792   0.540  1.00  0.00    -0.271 N 
ATOM     34  C   UNL     1      -0.264   0.879   2.153  1.00  0.00     0.068 C 
ATOM     35  C   UNL     1       0.730   3.625   1.235  1.00  0.00     0.174 C 
ENDBRANCH  27  29
ENDBRANCH  21  25
ENDBRANCH  15  18
ENDBRANCH   9  14
ENDBRANCH   5   8
ENDBRANCH   3   4
ENDBRANCH   2   3
ENDBRANCH   1   2
BRANCH   1  36
ATOM     36  C   UNL     1       4.777  -9.168   0.625  1.00  0.00     0.002 C 
BRANCH  36  37
ATOM     37  C   UNL     1       4.205 -10.392   1.353  1.00  0.00     0.021 C 
BRANCH  37  38
ATOM     38  C   UNL     1       4.162 -11.660   0.523  1.00  0.00     0.116 C 
BRANCH  38  39
ATOM     39  N   UNL     1       5.493 -12.121   0.141  1.00  0.00    -0.352 N 
ATOM     40  C   UNL     1       5.817 -13.124  -0.757  1.00  0.00     0.251 C 
ATOM     41  H   UNL     1       6.251 -11.665   0.573  1.00  0.00     0.163 HD
ATOM     42  O   UNL     1       6.902 -13.667  -0.735  1.00  0.00    -0.269 OA
BRANCH  40  43
ATOM     43  C   UNL     1       4.792 -13.508  -1.747  1.00  0.00     0.039 A 
ATOM     44  C   UNL     1       4.497 -14.844  -2.017  1.00  0.00     0.014 A 
ATOM     45  C   UNL     1       4.074 -12.480  -2.347  1.00  0.00     0.014 A 
ATOM     46  C   UNL     1       3.416 -15.130  -2.848  1.00  0.00     0.010 A 
ATOM     47  C   UNL     1       2.902 -12.765  -2.993  1.00  0.00     0.010 A 
ATOM     48  C   UNL     1       2.610 -14.082  -3.322  1.00  0.00    -0.014 A 
BRANCH  48  49
ATOM     49  C   UNL     1       1.431 -14.345  -4.137  1.00  0.00     0.031 A 
ATOM     50  C   UNL     1       0.465 -15.332  -3.584  1.00  0.00     0.074 A 
ATOM     51  C   UNL     1       1.134 -13.620  -5.238  1.00  0.00     0.049 A 
ATOM     52  N   UNL     1       0.199 -16.512  -4.039  1.00  0.00    -0.248 NA
ATOM     53  C   UNL     1      -0.203 -15.019  -2.312  1.00  0.00     0.031 C 
ATOM     54  C   UNL     1       1.792 -12.408  -5.753  1.00  0.00     0.029 A 
ATOM     55  N   UNL     1       0.066 -13.748  -6.067  1.00  0.00    -0.354 N 
ATOM     56  C   UNL     1      -0.824 -17.013  -3.236  1.00  0.00     0.074 A 
ATOM     57  C   UNL     1      -0.909 -16.132  -2.099  1.00  0.00     0.031 C 
ATOM     58  C   UNL     1       0.965 -11.776  -6.613  1.00  0.00     0.029 A 
ATOM     59  C   UNL     1      -0.168 -12.639  -6.869  1.00  0.00     0.049 A 
ATOM     60  H   UNL     1      -0.493 -14.558  -6.098  1.00  0.00     0.167 HD
ATOM     61  C   UNL     1      -1.661 -17.996  -3.673  1.00  0.00     0.034 A 
ATOM     62  C   UNL     1      -1.240 -12.435  -7.667  1.00  0.00     0.034 A 
ATOM     63  C   UNL     1      -1.163 -18.620  -4.871  1.00  0.00     0.049 A 
ATOM     64  C   UNL     1      -1.833 -13.763  -7.939  1.00  0.00     0.074 A 
ATOM     65  C   UNL     1      -0.025 -19.327  -5.204  1.00  0.00     0.029 A 
ATOM     66  N   UNL     1      -1.714 -18.210  -6.061  1.00  0.00    -0.354 N 
ATOM     67  N   UNL     1      -1.222 -14.696  -8.615  1.00  0.00    -0.248 NA
ATOM     68  C   UNL     1      -2.922 -14.212  -7.090  1.00  0.00     0.031 C 
ATOM     69  C   UNL     1       0.307 -18.881  -6.517  1.00  0.00     0.029 A 
ATOM     70  C   UNL     1      -0.679 -17.980  -6.929  1.00  0.00     0.049 A 
ATOM     71  H   UNL     1      -2.673 -18.102  -6.254  1.00  0.00     0.167 HD
ATOM     72  C   UNL     1      -1.539 -15.871  -7.946  1.00  0.00     0.074 A 
ATOM     73  C   UNL     1      -2.675 -15.525  -7.094  1.00  0.00     0.031 C 
ATOM     74  C   UNL     1      -0.677 -16.932  -7.928  1.00  0.00     0.034 A 
BRANCH  61  75
ATOM     75  C   UNL     1      -3.088 -18.202  -3.224  1.00  0.00     0.023 A 
ATOM     76  C   UNL     1      -3.735 -19.395  -3.623  1.00  0.00     0.012 A 
ATOM     77  C   UNL     1      -3.900 -17.193  -2.661  1.00  0.00     0.148 A 
ATOM     78  C   UNL     1      -5.120 -19.557  -3.505  1.00  0.00     0.002 A 
ATOM     79  C   UNL     1      -5.264 -17.391  -2.470  1.00  0.00     0.091 A 
ATOM     80  F   UNL     1      -3.391 -15.980  -2.427  1.00  0.00    -0.205 F 
ATOM     81  C   UNL     1      -5.885 -18.558  -2.918  1.00  0.00     0.022 A 
BRANCH  79  82
ATOM     82  S   UNL     1      -6.286 -16.154  -1.661  1.00  0.00     0.127 S 
ATOM     83  O   UNL     1      -6.990 -15.565  -2.796  1.00  0.00    -0.237 OA
ATOM     84  O   UNL     1      -7.114 -16.977  -0.778  1.00  0.00    -0.237 OA
ATOM     85  O   UNL     1      -5.352 -15.284  -0.957  1.00  0.00    -0.744 OA
ENDBRANCH  79  82
ENDBRANCH  61  75
BRANCH  62  86
ATOM     86  C   UNL     1      -1.926 -11.170  -7.999  1.00  0.00     0.023 A 
ATOM     87  C   UNL     1      -2.700 -11.083  -9.171  1.00  0.00     0.012 A 
ATOM     88  C   UNL     1      -2.055 -10.150  -7.029  1.00  0.00     0.148 A 
ATOM     89  C   UNL     1      -3.605 -10.032  -9.356  1.00  0.00     0.002 A 
ATOM     90  C   UNL     1      -2.956  -9.108  -7.217  1.00  0.00     0.091 A 
ATOM     91  F   UNL     1      -1.361 -10.256  -5.887  1.00  0.00    -0.205 F 
ATOM     92  C   UNL     1      -3.742  -9.053  -8.376  1.00  0.00     0.022 A 
BRANCH  90  93
ATOM     93  S   UNL     1      -3.219  -7.826  -5.983  1.00  0.00     0.127 S 
ATOM     94  O   UNL     1      -3.096  -6.608  -6.784  1.00  0.00    -0.237 OA
ATOM     95  O   UNL     1      -4.573  -8.125  -5.524  1.00  0.00    -0.237 OA
ATOM     96  O   UNL     1      -2.163  -8.002  -4.995  1.00  0.00    -0.744 OA
ENDBRANCH  90  93
ENDBRANCH  62  86
BRANCH  74  97
ATOM     97  C   UNL     1       0.532 -16.885  -8.835  1.00  0.00     0.023 A 
ATOM     98  C   UNL     1       1.552 -15.923  -8.679  1.00  0.00     0.012 A 
ATOM     99  C   UNL     1       0.739 -17.951  -9.727  1.00  0.00     0.148 A 
ATOM    100  C   UNL     1       2.743 -16.012  -9.406  1.00  0.00     0.002 A 
ATOM    101  C   UNL     1       1.944 -18.063 -10.412  1.00  0.00     0.091 A 
ATOM    102  F   UNL     1      -0.236 -18.862  -9.862  1.00  0.00    -0.205 F 
ATOM    103  C   UNL     1       2.945 -17.091 -10.262  1.00  0.00     0.022 A 
BRANCH 101 104
ATOM    104  S   UNL     1       2.317 -19.500 -11.420  1.00  0.00     0.127 S 
ATOM    105  O   UNL     1       2.173 -18.970 -12.774  1.00  0.00    -0.237 OA
ATOM    106  O   UNL     1       3.693 -19.812 -11.029  1.00  0.00    -0.237 OA
ATOM    107  O   UNL     1       1.348 -20.520 -11.039  1.00  0.00    -0.744 OA
ENDBRANCH 101 104
ENDBRANCH  74  97
ENDBRANCH  48  49
ENDBRANCH  40  43
ENDBRANCH  38  39
ENDBRANCH  37  38
ENDBRANCH  36  37
ENDBRANCH   1  36
TORSDOF 21
