REMARK SMILES CC(C)(CC(=O)NCCCCCCNC(=O)c1ccc(-c2c3nc(c(-c4cccc(S(=O)(=O)[O-])c4F)c4ccc([nH]4)c(-c4cccc(S(=O)(=O)[O-])c4F)c4nc(c(-c5cccc(S(=O)(=O)[O-])c5F)c5ccc2[nH]5)C=C4)C=C3)cc1)Cc1nc([C@@]2(C)CCCO2)no1
REMARK SMILES IDX 10 1 9 2 8 3 7 4 5 5 6 6 4 8 2 9 1 10 3 11 80 12 81 13 82 14
REMARK SMILES IDX 91 15 83 16 90 17 84 18 85 19 86 20 89 21 87 22 88 23 11 24
REMARK SMILES IDX 12 25 13 26 14 27 15 28 16 30 17 31 18 32 79 33 19 34 78 35
REMARK SMILES IDX 20 36 21 37 22 38 72 39 23 40 77 41 71 42 73 43 24 44 76 45
REMARK SMILES IDX 70 46 69 47 25 49 57 50 37 51 56 52 38 53 41 54 55 55 74 56
REMARK SMILES IDX 39 57 40 58 54 60 75 61 42 62 26 63 27 64 35 65 28 66 30 67
REMARK SMILES IDX 36 68 29 69 31 70 32 71 33 72 34 73 58 74 59 75 67 76 60 77
REMARK SMILES IDX 62 78 68 79 61 80 63 81 64 82 65 83 66 84 43 85 44 86 52 87
REMARK SMILES IDX 45 88 47 89 53 90 46 91 48 92 49 93 50 94 51 95
REMARK H PARENT 7 7 14 29 73 48 41 59
REMARK Flexibility Score: inf
ROOT
ATOM      1  C   UNL     1      -0.190   3.269   2.299  1.00  0.00     0.002 C 
ENDROOT
BRANCH   1   2
ATOM      2  C   UNL     1       0.288   1.942   1.716  1.00  0.00     0.021 C 
BRANCH   2   3
ATOM      3  C   UNL     1      -0.758   0.831   1.657  1.00  0.00     0.116 C 
BRANCH   3   4
ATOM      4  N   UNL     1      -1.718   1.054   0.599  1.00  0.00    -0.356 N 
ATOM      5  C   UNL     1      -1.866   0.434  -0.601  1.00  0.00     0.220 C 
ATOM      6  O   UNL     1      -2.836   0.741  -1.300  1.00  0.00    -0.275 OA
ATOM      7  H   UNL     1      -2.370   1.769   0.777  1.00  0.00     0.163 HD
BRANCH   5   8
ATOM      8  C   UNL     1      -0.934  -0.682  -1.036  1.00  0.00     0.107 C 
BRANCH   8   9
ATOM      9  C   UNL     1       0.472  -0.406  -1.651  1.00  0.00    -0.018 C 
ATOM     10  C   UNL     1       1.578  -0.296  -0.586  1.00  0.00     0.012 C 
ATOM     11  C   UNL     1       0.820  -1.707  -2.443  1.00  0.00     0.012 C 
BRANCH   9  12
ATOM     12  C   UNL     1       0.546   0.759  -2.679  1.00  0.00     0.107 C 
BRANCH  12  13
ATOM     13  C   UNL     1       0.312   2.147  -2.191  1.00  0.00     0.227 A 
ATOM     14  N   UNL     1      -0.817   2.764  -1.941  1.00  0.00    -0.193 NA
ATOM     15  O   UNL     1       1.393   2.978  -2.100  1.00  0.00    -0.339 OA
ATOM     16  C   UNL     1      -0.425   4.049  -1.645  1.00  0.00     0.203 A 
ATOM     17  N   UNL     1       0.903   4.238  -1.734  1.00  0.00    -0.059 NA
BRANCH  16  18
ATOM     18  C   UNL     1      -1.412   5.123  -1.228  1.00  0.00     0.128 C 
ATOM     19  C   UNL     1      -2.731   4.489  -0.735  1.00  0.00     0.051 C 
ATOM     20  C   UNL     1      -0.842   6.085  -0.175  1.00  0.00     0.046 C 
ATOM     21  O   UNL     1      -1.781   5.997  -2.332  1.00  0.00    -0.367 OA
ATOM     22  C   UNL     1      -1.685   7.323  -0.345  1.00  0.00     0.032 C 
ATOM     23  C   UNL     1      -1.956   7.333  -1.835  1.00  0.00     0.161 C 
ENDBRANCH  16  18
ENDBRANCH  12  13
ENDBRANCH   9  12
ENDBRANCH   8   9
ENDBRANCH   5   8
ENDBRANCH   3   4
ENDBRANCH   2   3
ENDBRANCH   1   2
BRANCH   1  24
ATOM     24  C   UNL     1      -0.699   3.234   3.735  1.00  0.00     0.002 C 
BRANCH  24  25
ATOM     25  C   UNL     1       0.226   2.552   4.742  1.00  0.00     0.021 C 
BRANCH  25  26
ATOM     26  C   UNL     1       1.654   3.091   4.783  1.00  0.00     0.116 C 
BRANCH  26  27
ATOM     27  N   UNL     1       1.701   4.501   5.131  1.00  0.00    -0.352 N 
ATOM     28  C   UNL     1       2.269   5.118   6.216  1.00  0.00     0.251 C 
ATOM     29  H   UNL     1       1.259   5.104   4.490  1.00  0.00     0.163 HD
ATOM     30  O   UNL     1       2.026   6.304   6.434  1.00  0.00    -0.269 OA
BRANCH  28  31
ATOM     31  C   UNL     1       3.157   4.366   7.129  1.00  0.00     0.039 A 
ATOM     32  C   UNL     1       3.011   4.547   8.507  1.00  0.00     0.014 A 
ATOM     33  C   UNL     1       4.148   3.510   6.638  1.00  0.00     0.014 A 
ATOM     34  C   UNL     1       3.824   3.832   9.390  1.00  0.00     0.010 A 
ATOM     35  C   UNL     1       4.907   2.744   7.521  1.00  0.00     0.010 A 
ATOM     36  C   UNL     1       4.761   2.904   8.906  1.00  0.00    -0.014 A 
BRANCH  36  37
ATOM     37  C   UNL     1       5.571   2.086   9.846  1.00  0.00     0.031 A 
ATOM     38  C   UNL     1       7.068   2.227   9.901  1.00  0.00     0.074 A 
ATOM     39  C   UNL     1       4.956   1.164  10.615  1.00  0.00     0.049 A 
ATOM     40  N   UNL     1       7.924   1.615  10.678  1.00  0.00    -0.248 NA
ATOM     41  C   UNL     1       7.690   3.157   8.944  1.00  0.00     0.031 C 
ATOM     42  C   UNL     1       3.524   0.858  10.584  1.00  0.00     0.029 A 
ATOM     43  N   UNL     1       5.459   0.303  11.558  1.00  0.00    -0.354 N 
ATOM     44  C   UNL     1       9.182   2.059  10.288  1.00  0.00     0.074 A 
ATOM     45  C   UNL     1       8.981   2.968   9.180  1.00  0.00     0.031 C 
ATOM     46  C   UNL     1       3.263  -0.112  11.473  1.00  0.00     0.029 A 
ATOM     47  C   UNL     1       4.506  -0.509  12.127  1.00  0.00     0.049 A 
ATOM     48  H   UNL     1       6.411   0.271  11.805  1.00  0.00     0.167 HD
ATOM     49  C   UNL     1      10.392   1.764  10.822  1.00  0.00     0.034 A 
ATOM     50  C   UNL     1       4.618  -1.463  13.072  1.00  0.00     0.034 A 
ATOM     51  C   UNL     1      10.585   0.896  11.953  1.00  0.00     0.049 A 
ATOM     52  C   UNL     1       5.962  -1.716  13.699  1.00  0.00     0.074 A 
ATOM     53  C   UNL     1      11.758   0.614  12.632  1.00  0.00     0.029 A 
ATOM     54  N   UNL     1       9.582   0.162  12.568  1.00  0.00    -0.354 N 
ATOM     55  N   UNL     1       7.113  -1.144  13.442  1.00  0.00    -0.248 NA
ATOM     56  C   UNL     1       6.013  -2.713  14.777  1.00  0.00     0.031 C 
ATOM     57  C   UNL     1      11.467  -0.306  13.646  1.00  0.00     0.029 A 
ATOM     58  C   UNL     1      10.110  -0.580  13.612  1.00  0.00     0.049 A 
ATOM     59  H   UNL     1       8.635   0.168  12.302  1.00  0.00     0.167 HD
ATOM     60  C   UNL     1       8.019  -1.690  14.343  1.00  0.00     0.074 A 
ATOM     61  C   UNL     1       7.275  -2.614  15.175  1.00  0.00     0.031 C 
ATOM     62  C   UNL     1       9.351  -1.464  14.460  1.00  0.00     0.034 A 
BRANCH  49  63
ATOM     63  C   UNL     1      11.603   2.438  10.230  1.00  0.00     0.023 A 
ATOM     64  C   UNL     1      11.812   3.814  10.458  1.00  0.00     0.012 A 
ATOM     65  C   UNL     1      12.565   1.704   9.508  1.00  0.00     0.148 A 
ATOM     66  C   UNL     1      12.941   4.456   9.953  1.00  0.00     0.002 A 
ATOM     67  C   UNL     1      13.710   2.342   9.044  1.00  0.00     0.091 A 
ATOM     68  F   UNL     1      12.340   0.402   9.282  1.00  0.00    -0.205 F 
ATOM     69  C   UNL     1      13.895   3.719   9.256  1.00  0.00     0.022 A 
BRANCH  67  70
ATOM     70  S   UNL     1      15.034   1.466   8.203  1.00  0.00     0.127 S 
ATOM     71  O   UNL     1      14.882   1.949   6.831  1.00  0.00    -0.237 OA
ATOM     72  O   UNL     1      16.223   1.966   8.895  1.00  0.00    -0.237 OA
ATOM     73  O   UNL     1      14.767   0.049   8.401  1.00  0.00    -0.744 OA
ENDBRANCH  67  70
ENDBRANCH  49  63
BRANCH  50  74
ATOM     74  C   UNL     1       3.404  -2.190  13.540  1.00  0.00     0.023 A 
ATOM     75  C   UNL     1       2.900  -1.937  14.830  1.00  0.00     0.012 A 
ATOM     76  C   UNL     1       2.728  -3.100  12.704  1.00  0.00     0.148 A 
ATOM     77  C   UNL     1       1.764  -2.602  15.293  1.00  0.00     0.002 A 
ATOM     78  C   UNL     1       1.565  -3.716  13.150  1.00  0.00     0.091 A 
ATOM     79  F   UNL     1       3.231  -3.337  11.485  1.00  0.00    -0.205 F 
ATOM     80  C   UNL     1       1.091  -3.482  14.450  1.00  0.00     0.022 A 
BRANCH  78  81
ATOM     81  S   UNL     1       0.561  -4.751  12.079  1.00  0.00     0.127 S 
ATOM     82  O   UNL     1       0.850  -6.087  12.598  1.00  0.00    -0.237 OA
ATOM     83  O   UNL     1      -0.790  -4.261  12.361  1.00  0.00    -0.237 OA
ATOM     84  O   UNL     1       1.024  -4.479  10.728  1.00  0.00    -0.744 OA
ENDBRANCH  78  81
ENDBRANCH  50  74
BRANCH  62  85
ATOM     85  C   UNL     1      10.090  -2.216  15.536  1.00  0.00     0.023 A 
ATOM     86  C   UNL     1      10.314  -3.601  15.391  1.00  0.00     0.012 A 
ATOM     87  C   UNL     1      10.604  -1.549  16.665  1.00  0.00     0.148 A 
ATOM     88  C   UNL     1      10.999  -4.316  16.372  1.00  0.00     0.002 A 
ATOM     89  C   UNL     1      11.329  -2.260  17.615  1.00  0.00     0.091 A 
ATOM     90  F   UNL     1      10.366  -0.236  16.799  1.00  0.00    -0.205 F 
ATOM     91  C   UNL     1      11.516  -3.645  17.477  1.00  0.00     0.022 A 
BRANCH  89  92
ATOM     92  S   UNL     1      12.107  -1.456  19.020  1.00  0.00     0.127 S 
ATOM     93  O   UNL     1      11.180  -1.781  20.102  1.00  0.00    -0.237 OA
ATOM     94  O   UNL     1      13.399  -2.140  19.099  1.00  0.00    -0.237 OA
ATOM     95  O   UNL     1      12.197  -0.045  18.668  1.00  0.00    -0.744 OA
ENDBRANCH  89  92
ENDBRANCH  62  85
ENDBRANCH  36  37
ENDBRANCH  28  31
ENDBRANCH  26  27
ENDBRANCH  25  26
ENDBRANCH  24  25
ENDBRANCH   1  24
TORSDOF 20
