REMARK SMILES O=C(Cc1ccn(C(F)F)c(=O)c1)NCCCCCCNC(=O)c1ccc(-c2c3nc(c(-c4cccc(S(=O)(=O)[O-])c4F)c4ccc([nH]4)c(-c4cccc(S(=O)(=O)[O-])c4F)c4nc(c(-c5cccc(S(=O)(=O)[O-])c5F)c5ccc2[nH]5)C=C4)C=C3)cc1
REMARK SMILES IDX 18 1 17 2 16 3 15 4 14 5 1 6 2 7 3 9 4 10 5 11 13 12 6 13
REMARK SMILES IDX 11 14 7 15 12 16 8 17 9 18 10 19 19 20 20 21 21 22 22 23
REMARK SMILES IDX 23 25 24 26 25 27 86 28 26 29 85 30 27 31 28 32 29 33 79 34
REMARK SMILES IDX 30 35 84 36 78 37 80 38 31 39 83 40 77 41 76 42 32 44 64 45
REMARK SMILES IDX 44 46 63 47 45 48 48 49 62 50 81 51 46 52 47 53 61 55 82 56
REMARK SMILES IDX 49 57 33 58 34 59 42 60 35 61 37 62 43 63 36 64 38 65 39 66
REMARK SMILES IDX 40 67 41 68 65 69 66 70 74 71 67 72 69 73 75 74 68 75 70 76
REMARK SMILES IDX 71 77 72 78 73 79 50 80 51 81 59 82 52 83 54 84 60 85 53 86
REMARK SMILES IDX 55 87 56 88 57 89 58 90
REMARK H PARENT 14 8 21 24 80 43 48 54
REMARK Flexibility Score: inf
ROOT
ATOM      1  C   UNL     1       4.738   2.914   3.018  1.00  0.00     0.002 C 
ENDROOT
BRANCH   1   2
ATOM      2  C   UNL     1       4.255   1.529   3.458  1.00  0.00     0.002 C 
BRANCH   2   3
ATOM      3  C   UNL     1       2.748   1.273   3.317  1.00  0.00     0.021 C 
BRANCH   3   4
ATOM      4  C   UNL     1       2.193   1.445   1.905  1.00  0.00     0.116 C 
BRANCH   4   5
ATOM      5  N   UNL     1       2.856   0.572   0.959  1.00  0.00    -0.356 N 
ATOM      6  O   UNL     1       0.961  -0.111  -0.155  1.00  0.00    -0.275 OA
ATOM      7  C   UNL     1       2.178  -0.139  -0.008  1.00  0.00     0.224 C 
ATOM      8  H   UNL     1       3.835   0.481   1.009  1.00  0.00     0.163 HD
BRANCH   7   9
ATOM      9  C   UNL     1       3.095  -0.952  -0.915  1.00  0.00     0.135 C 
BRANCH   9  10
ATOM     10  C   UNL     1       3.799  -0.176  -2.006  1.00  0.00    -0.032 A 
ATOM     11  C   UNL     1       3.644   1.259  -2.153  1.00  0.00     0.022 A 
ATOM     12  C   UNL     1       4.601  -0.825  -2.870  1.00  0.00     0.076 A 
ATOM     13  C   UNL     1       4.303   1.922  -3.111  1.00  0.00     0.095 A 
ATOM     14  C   UNL     1       5.326  -0.106  -3.955  1.00  0.00     0.255 A 
ATOM     15  N   UNL     1       5.136   1.264  -3.995  1.00  0.00    -0.258 N 
ATOM     16  O   UNL     1       6.031  -0.758  -4.719  1.00  0.00    -0.269 OA
BRANCH  15  17
ATOM     17  C   UNL     1       5.807   1.990  -5.042  1.00  0.00     0.451 C 
ATOM     18  F   UNL     1       7.147   1.787  -5.002  1.00  0.00    -0.185 F 
ATOM     19  F   UNL     1       5.362   1.598  -6.262  1.00  0.00    -0.185 F 
ENDBRANCH  15  17
ENDBRANCH   9  10
ENDBRANCH   7   9
ENDBRANCH   4   5
ENDBRANCH   3   4
ENDBRANCH   2   3
ENDBRANCH   1   2
BRANCH   1  20
ATOM     20  C   UNL     1       4.071   4.096   3.723  1.00  0.00     0.021 C 
BRANCH  20  21
ATOM     21  C   UNL     1       4.143   4.072   5.246  1.00  0.00     0.116 C 
BRANCH  21  22
ATOM     22  N   UNL     1       5.504   4.141   5.756  1.00  0.00    -0.352 N 
ATOM     23  C   UNL     1       6.008   4.918   6.775  1.00  0.00     0.251 C 
ATOM     24  H   UNL     1       6.154   3.551   5.312  1.00  0.00     0.163 HD
ATOM     25  O   UNL     1       7.216   4.933   6.991  1.00  0.00    -0.269 OA
BRANCH  23  26
ATOM     26  C   UNL     1       5.092   5.762   7.576  1.00  0.00     0.039 A 
ATOM     27  C   UNL     1       3.882   5.252   8.050  1.00  0.00     0.014 A 
ATOM     28  C   UNL     1       5.436   7.094   7.827  1.00  0.00     0.014 A 
ATOM     29  C   UNL     1       2.947   6.110   8.620  1.00  0.00     0.010 A 
ATOM     30  C   UNL     1       4.526   7.936   8.477  1.00  0.00     0.010 A 
ATOM     31  C   UNL     1       3.254   7.465   8.833  1.00  0.00    -0.014 A 
BRANCH  31  32
ATOM     32  C   UNL     1       2.229   8.356   9.438  1.00  0.00     0.031 A 
ATOM     33  C   UNL     1       1.644   9.508   8.664  1.00  0.00     0.074 A 
ATOM     34  C   UNL     1       1.789   8.095  10.685  1.00  0.00     0.049 A 
ATOM     35  N   UNL     1       0.701  10.341   9.024  1.00  0.00    -0.248 NA
ATOM     36  C   UNL     1       2.180   9.764   7.317  1.00  0.00     0.031 C 
ATOM     37  C   UNL     1       2.296   7.026  11.548  1.00  0.00     0.029 A 
ATOM     38  N   UNL     1       0.808   8.691  11.436  1.00  0.00    -0.354 N 
ATOM     39  C   UNL     1       0.560  11.240   7.974  1.00  0.00     0.074 A 
ATOM     40  C   UNL     1       1.514  10.855   6.958  1.00  0.00     0.031 C 
ATOM     41  C   UNL     1       1.590   7.010  12.688  1.00  0.00     0.029 A 
ATOM     42  C   UNL     1       0.613   8.093  12.659  1.00  0.00     0.049 A 
ATOM     43  H   UNL     1       0.292   9.472  11.129  1.00  0.00     0.167 HD
ATOM     44  C   UNL     1      -0.301  12.278   7.857  1.00  0.00     0.034 A 
ATOM     45  C   UNL     1      -0.255   8.378  13.649  1.00  0.00     0.034 A 
ATOM     46  C   UNL     1      -1.293  12.625   8.838  1.00  0.00     0.049 A 
ATOM     47  C   UNL     1      -1.218   9.516  13.481  1.00  0.00     0.074 A 
ATOM     48  C   UNL     1      -2.248  13.625   8.772  1.00  0.00     0.029 A 
ATOM     49  N   UNL     1      -1.464  11.986  10.055  1.00  0.00    -0.354 N 
ATOM     50  N   UNL     1      -1.393  10.294  12.441  1.00  0.00    -0.248 NA
ATOM     51  C   UNL     1      -2.111   9.809  14.611  1.00  0.00     0.031 C 
ATOM     52  C   UNL     1      -2.995  13.593   9.953  1.00  0.00     0.029 A 
ATOM     53  C   UNL     1      -2.508  12.570  10.750  1.00  0.00     0.049 A 
ATOM     54  H   UNL     1      -0.923  11.229  10.377  1.00  0.00     0.167 HD
ATOM     55  C   UNL     1      -2.423  11.160  12.784  1.00  0.00     0.074 A 
ATOM     56  C   UNL     1      -2.847  10.800  14.122  1.00  0.00     0.031 C 
ATOM     57  C   UNL     1      -2.954  12.173  12.059  1.00  0.00     0.034 A 
BRANCH  44  58
ATOM     58  C   UNL     1      -0.264  13.095   6.596  1.00  0.00     0.023 A 
ATOM     59  C   UNL     1      -0.916  12.610   5.445  1.00  0.00     0.012 A 
ATOM     60  C   UNL     1       0.305  14.383   6.582  1.00  0.00     0.148 A 
ATOM     61  C   UNL     1      -0.998  13.393   4.295  1.00  0.00     0.002 A 
ATOM     62  C   UNL     1       0.196  15.169   5.441  1.00  0.00     0.091 A 
ATOM     63  F   UNL     1       0.929  14.816   7.687  1.00  0.00    -0.205 F 
ATOM     64  C   UNL     1      -0.452  14.674   4.296  1.00  0.00     0.022 A 
BRANCH  62  65
ATOM     65  S   UNL     1       0.814  16.854   5.354  1.00  0.00     0.127 S 
ATOM     66  O   UNL     1       1.889  16.721   4.372  1.00  0.00    -0.237 OA
ATOM     67  O   UNL     1      -0.359  17.587   4.880  1.00  0.00    -0.237 OA
ATOM     68  O   UNL     1       1.246  17.195   6.702  1.00  0.00    -0.744 OA
ENDBRANCH  62  65
ENDBRANCH  44  58
BRANCH  45  69
ATOM     69  C   UNL     1      -0.281   7.513  14.859  1.00  0.00     0.023 A 
ATOM     70  C   UNL     1      -1.328   6.587  15.018  1.00  0.00     0.012 A 
ATOM     71  C   UNL     1       0.770   7.539  15.796  1.00  0.00     0.148 A 
ATOM     72  C   UNL     1      -1.330   5.699  16.094  1.00  0.00     0.002 A 
ATOM     73  C   UNL     1       0.785   6.622  16.839  1.00  0.00     0.091 A 
ATOM     74  F   UNL     1       1.751   8.436  15.622  1.00  0.00    -0.205 F 
ATOM     75  C   UNL     1      -0.269   5.708  16.996  1.00  0.00     0.022 A 
BRANCH  73  76
ATOM     76  S   UNL     1       2.165   6.476  17.979  1.00  0.00     0.127 S 
ATOM     77  O   UNL     1       1.553   6.879  19.242  1.00  0.00    -0.237 OA
ATOM     78  O   UNL     1       2.487   5.052  17.876  1.00  0.00    -0.237 OA
ATOM     79  O   UNL     1       3.197   7.367  17.468  1.00  0.00    -0.744 OA
ENDBRANCH  73  76
ENDBRANCH  45  69
BRANCH  57  80
ATOM     80  C   UNL     1      -4.062  12.979  12.674  1.00  0.00     0.023 A 
ATOM     81  C   UNL     1      -3.741  14.000  13.589  1.00  0.00     0.012 A 
ATOM     82  C   UNL     1      -5.393  12.819  12.244  1.00  0.00     0.148 A 
ATOM     83  C   UNL     1      -4.734  14.852  14.070  1.00  0.00     0.002 A 
ATOM     84  C   UNL     1      -6.371  13.692  12.703  1.00  0.00     0.091 A 
ATOM     85  F   UNL     1      -5.669  11.833  11.377  1.00  0.00    -0.205 F 
ATOM     86  C   UNL     1      -6.044  14.706  13.619  1.00  0.00     0.022 A 
BRANCH  84  87
ATOM     87  S   UNL     1      -8.071  13.634  12.125  1.00  0.00     0.127 S 
ATOM     88  O   UNL     1      -8.787  13.254  13.343  1.00  0.00    -0.237 OA
ATOM     89  O   UNL     1      -8.295  15.013  11.691  1.00  0.00    -0.237 OA
ATOM     90  O   UNL     1      -8.102  12.646  11.056  1.00  0.00    -0.744 OA
ENDBRANCH  84  87
ENDBRANCH  57  80
ENDBRANCH  31  32
ENDBRANCH  23  26
ENDBRANCH  21  22
ENDBRANCH  20  21
ENDBRANCH   1  20
TORSDOF 18
