REMARK SMILES Cc1cscc1-c1nnnn1CCC(=O)NCCCCCCNC(=O)c1ccc(-c2c3nc(c(-c4cccc(S(=O)(=O)[O-])c4F)c4ccc([nH]4)c(-c4cccc(S(=O)(=O)[O-])c4F)c4nc(c(-c5cccc(S(=O)(=O)[O-])c5F)c5ccc2[nH]5)C=C4)C=C3)cc1
REMARK SMILES IDX 19 1 18 2 17 3 16 4 14 5 15 6 13 8 12 9 11 10 7 11 8 12 9 13
REMARK SMILES IDX 10 14 6 15 1 16 2 17 3 18 4 19 5 20 20 21 21 22 22 23 23 24
REMARK SMILES IDX 24 25 25 27 26 28 27 29 88 30 28 31 87 32 29 33 30 34 31 35
REMARK SMILES IDX 81 36 32 37 86 38 80 39 82 40 33 41 85 42 79 43 78 44 34 46
REMARK SMILES IDX 66 47 46 48 65 49 47 50 50 51 64 52 83 53 48 54 49 55 63 57
REMARK SMILES IDX 84 58 51 59 35 60 36 61 44 62 37 63 39 64 45 65 38 66 40 67
REMARK SMILES IDX 41 68 42 69 43 70 67 71 68 72 76 73 69 74 71 75 77 76 70 77
REMARK SMILES IDX 72 78 73 79 74 80 75 81 52 82 53 83 61 84 54 85 56 86 62 87
REMARK SMILES IDX 55 88 57 89 58 90 59 91 60 92
REMARK H PARENT 16 7 23 26 82 45 50 56
REMARK Flexibility Score: inf
ROOT
ATOM      1  C   UNL     1       3.395   7.216  -0.083  1.00  0.00     0.002 C 
ENDROOT
BRANCH   1   2
ATOM      2  C   UNL     1       2.950   5.783  -0.326  1.00  0.00     0.021 C 
BRANCH   2   3
ATOM      3  C   UNL     1       2.089   5.535  -1.559  1.00  0.00     0.116 C 
BRANCH   3   4
ATOM      4  N   UNL     1       2.917   5.269  -2.719  1.00  0.00    -0.356 N 
ATOM      5  C   UNL     1       3.124   4.098  -3.381  1.00  0.00     0.221 C 
ATOM      6  O   UNL     1       3.973   4.070  -4.274  1.00  0.00    -0.275 OA
ATOM      7  H   UNL     1       3.400   6.048  -3.080  1.00  0.00     0.163 HD
BRANCH   5   8
ATOM      8  C   UNL     1       2.268   2.882  -3.089  1.00  0.00     0.124 C 
BRANCH   8   9
ATOM      9  C   UNL     1       2.886   1.904  -2.089  1.00  0.00     0.158 C 
BRANCH   9  10
ATOM     10  N   UNL     1       2.604   2.198  -0.703  1.00  0.00    -0.225 N 
ATOM     11  C   UNL     1       1.465   1.978   0.026  1.00  0.00     0.183 A 
ATOM     12  N   UNL     1       1.516   2.745   1.094  1.00  0.00    -0.108 NA
ATOM     13  N   UNL     1       2.815   3.186   1.154  1.00  0.00    -0.023 NA
ATOM     14  N   UNL     1       3.474   2.881   0.043  1.00  0.00    -0.045 NA
BRANCH  11  15
ATOM     15  C   UNL     1       0.521   0.847  -0.119  1.00  0.00     0.034 A 
ATOM     16  C   UNL     1       2.384  -0.945   0.100  1.00  0.00     0.046 C 
ATOM     17  C   UNL     1       0.960  -0.519  -0.109  1.00  0.00    -0.029 A 
ATOM     18  C   UNL     1      -0.122  -1.375  -0.165  1.00  0.00     0.069 A 
ATOM     19  S   UNL     1      -1.620  -0.547  -0.191  1.00  0.00    -0.151 S 
ATOM     20  C   UNL     1      -0.846   0.976  -0.059  1.00  0.00     0.077 A 
ENDBRANCH  11  15
ENDBRANCH   9  10
ENDBRANCH   8   9
ENDBRANCH   5   8
ENDBRANCH   3   4
ENDBRANCH   2   3
ENDBRANCH   1   2
BRANCH   1  21
ATOM     21  C   UNL     1       2.255   8.220   0.107  1.00  0.00     0.002 C 
BRANCH  21  22
ATOM     22  C   UNL     1       1.170   7.840   1.128  1.00  0.00     0.021 C 
BRANCH  22  23
ATOM     23  C   UNL     1       1.703   7.645   2.538  1.00  0.00     0.116 C 
BRANCH  23  24
ATOM     24  N   UNL     1       2.266   8.880   3.092  1.00  0.00    -0.352 N 
ATOM     25  C   UNL     1       2.688   9.129   4.378  1.00  0.00     0.251 C 
ATOM     26  H   UNL     1       2.354   9.631   2.461  1.00  0.00     0.163 HD
ATOM     27  O   UNL     1       2.834  10.289   4.777  1.00  0.00    -0.269 OA
BRANCH  25  28
ATOM     28  C   UNL     1       2.986   7.996   5.266  1.00  0.00     0.039 A 
ATOM     29  C   UNL     1       2.740   8.046   6.643  1.00  0.00     0.014 A 
ATOM     30  C   UNL     1       3.544   6.861   4.685  1.00  0.00     0.014 A 
ATOM     31  C   UNL     1       3.032   6.925   7.413  1.00  0.00     0.010 A 
ATOM     32  C   UNL     1       3.630   5.702   5.396  1.00  0.00     0.010 A 
ATOM     33  C   UNL     1       3.481   5.763   6.772  1.00  0.00    -0.014 A 
BRANCH  33  34
ATOM     34  C   UNL     1       3.734   4.529   7.491  1.00  0.00     0.031 A 
ATOM     35  C   UNL     1       2.516   3.950   8.106  1.00  0.00     0.074 A 
ATOM     36  C   UNL     1       4.903   3.867   7.342  1.00  0.00     0.049 A 
ATOM     37  N   UNL     1       2.249   3.860   9.365  1.00  0.00    -0.248 NA
ATOM     38  C   UNL     1       1.378   3.612   7.233  1.00  0.00     0.031 C 
ATOM     39  C   UNL     1       6.028   4.207   6.458  1.00  0.00     0.029 A 
ATOM     40  N   UNL     1       5.258   2.640   7.803  1.00  0.00    -0.354 N 
ATOM     41  C   UNL     1       1.029   3.193   9.434  1.00  0.00     0.074 A 
ATOM     42  C   UNL     1       0.434   3.321   8.132  1.00  0.00     0.031 C 
ATOM     43  C   UNL     1       6.766   3.099   6.228  1.00  0.00     0.029 A 
ATOM     44  C   UNL     1       6.255   2.019   7.051  1.00  0.00     0.049 A 
ATOM     45  H   UNL     1       4.848   2.225   8.596  1.00  0.00     0.167 HD
ATOM     46  C   UNL     1       0.763   2.332  10.456  1.00  0.00     0.034 A 
ATOM     47  C   UNL     1       6.553   0.694   7.043  1.00  0.00     0.034 A 
ATOM     48  C   UNL     1       1.742   2.470  11.511  1.00  0.00     0.049 A 
ATOM     49  C   UNL     1       5.990   0.123   8.294  1.00  0.00     0.074 A 
ATOM     50  C   UNL     1       2.206   3.524  12.275  1.00  0.00     0.029 A 
ATOM     51  N   UNL     1       2.708   1.492  11.592  1.00  0.00    -0.354 N 
ATOM     52  N   UNL     1       6.409   0.457   9.485  1.00  0.00    -0.248 NA
ATOM     53  C   UNL     1       4.642  -0.423   8.235  1.00  0.00     0.031 C 
ATOM     54  C   UNL     1       3.617   3.327  12.343  1.00  0.00     0.029 A 
ATOM     55  C   UNL     1       3.919   2.118  11.713  1.00  0.00     0.049 A 
ATOM     56  H   UNL     1       2.554   0.520  11.567  1.00  0.00     0.167 HD
ATOM     57  C   UNL     1       5.241   0.630  10.218  1.00  0.00     0.074 A 
ATOM     58  C   UNL     1       4.194  -0.024   9.430  1.00  0.00     0.031 C 
ATOM     59  C   UNL     1       5.159   1.561  11.217  1.00  0.00     0.034 A 
BRANCH  46  60
ATOM     60  C   UNL     1      -0.100   1.091  10.361  1.00  0.00     0.023 A 
ATOM     61  C   UNL     1      -0.334   0.393  11.569  1.00  0.00     0.012 A 
ATOM     62  C   UNL     1      -0.448   0.425   9.164  1.00  0.00     0.148 A 
ATOM     63  C   UNL     1      -0.805  -0.923  11.580  1.00  0.00     0.002 A 
ATOM     64  C   UNL     1      -0.989  -0.856   9.183  1.00  0.00     0.091 A 
ATOM     65  F   UNL     1      -0.144   0.958   7.980  1.00  0.00    -0.205 F 
ATOM     66  C   UNL     1      -1.135  -1.549  10.386  1.00  0.00     0.022 A 
BRANCH  64  67
ATOM     67  S   UNL     1      -1.476  -1.701   7.672  1.00  0.00     0.127 S 
ATOM     68  O   UNL     1      -0.438  -2.721   7.559  1.00  0.00    -0.237 OA
ATOM     69  O   UNL     1      -2.804  -2.203   8.027  1.00  0.00    -0.237 OA
ATOM     70  O   UNL     1      -1.484  -0.679   6.633  1.00  0.00    -0.744 OA
ENDBRANCH  64  67
ENDBRANCH  46  60
BRANCH  47  71
ATOM     71  C   UNL     1       6.997  -0.163   5.907  1.00  0.00     0.023 A 
ATOM     72  C   UNL     1       7.500  -1.456   6.160  1.00  0.00     0.012 A 
ATOM     73  C   UNL     1       6.685   0.166   4.567  1.00  0.00     0.148 A 
ATOM     74  C   UNL     1       7.654  -2.393   5.127  1.00  0.00     0.002 A 
ATOM     75  C   UNL     1       6.853  -0.763   3.541  1.00  0.00     0.091 A 
ATOM     76  F   UNL     1       6.132   1.356   4.302  1.00  0.00    -0.205 F 
ATOM     77  C   UNL     1       7.325  -2.049   3.819  1.00  0.00     0.022 A 
BRANCH  75  78
ATOM     78  S   UNL     1       6.437  -0.384   1.832  1.00  0.00     0.127 S 
ATOM     79  O   UNL     1       7.602  -0.896   1.108  1.00  0.00    -0.237 OA
ATOM     80  O   UNL     1       5.214  -1.157   1.630  1.00  0.00    -0.237 OA
ATOM     81  O   UNL     1       6.291   1.063   1.772  1.00  0.00    -0.744 OA
ENDBRANCH  75  78
ENDBRANCH  47  71
BRANCH  59  82
ATOM     82  C   UNL     1       6.421   2.249  11.678  1.00  0.00     0.023 A 
ATOM     83  C   UNL     1       7.204   3.062  10.831  1.00  0.00     0.012 A 
ATOM     84  C   UNL     1       6.705   2.238  13.053  1.00  0.00     0.148 A 
ATOM     85  C   UNL     1       8.254   3.831  11.342  1.00  0.00     0.002 A 
ATOM     86  C   UNL     1       7.717   3.039  13.565  1.00  0.00     0.091 A 
ATOM     87  F   UNL     1       5.951   1.464  13.849  1.00  0.00    -0.205 F 
ATOM     88  C   UNL     1       8.501   3.831  12.713  1.00  0.00     0.022 A 
BRANCH  86  89
ATOM     89  S   UNL     1       7.991   3.175  15.332  1.00  0.00     0.127 S 
ATOM     90  O   UNL     1       9.188   2.358  15.518  1.00  0.00    -0.237 OA
ATOM     91  O   UNL     1       8.197   4.613  15.512  1.00  0.00    -0.237 OA
ATOM     92  O   UNL     1       6.780   2.667  15.965  1.00  0.00    -0.744 OA
ENDBRANCH  86  89
ENDBRANCH  59  82
ENDBRANCH  33  34
ENDBRANCH  25  28
ENDBRANCH  23  24
ENDBRANCH  22  23
ENDBRANCH  21  22
ENDBRANCH   1  21
TORSDOF 19
