REMARK SMILES O=C(CC[NH+]1CCC([N@H+]2CCC[C@H](C(=O)NCc3cccnc3)C2)CC1)NCCCCCCNC(=O)c1ccc(-c2c3nc(c(-c4cccc(S(=O)(=O)[O-])c4F)c4ccc([nH]4)c(-c4cccc(S(=O)(=O)[O-])c4F)c4nc(c(-c5cccc(S(=O)(=O)[O-])c5F)c5ccc2[nH]5)C=C4)C=C3)cc1
REMARK SMILES IDX 29 1 28 2 27 3 1 4 2 5 3 7 4 8 5 9 6 10 26 11 7 13 25 14
REMARK SMILES IDX 8 15 9 16 10 17 24 18 11 20 13 21 12 22 14 23 15 24 16 25
REMARK SMILES IDX 17 27 18 28 19 29 23 30 20 31 22 32 21 33 30 34 31 35 32 36
REMARK SMILES IDX 33 37 34 38 35 39 36 41 37 42 38 43 99 44 39 45 98 46 40 47
REMARK SMILES IDX 41 48 42 49 92 50 43 51 97 52 91 53 93 54 44 55 96 56 90 57
REMARK SMILES IDX 89 58 45 60 77 61 57 62 76 63 58 64 61 65 75 66 94 67 59 68
REMARK SMILES IDX 60 69 74 71 95 72 62 73 46 74 47 75 55 76 48 77 50 78 56 79
REMARK SMILES IDX 49 80 51 81 52 82 53 83 54 84 78 85 79 86 87 87 80 88 82 89
REMARK SMILES IDX 88 90 81 91 83 92 84 93 85 94 86 95 63 96 64 97 72 98 65 99
REMARK SMILES IDX 67 100 73 101 66 102 68 103 69 104 70 105 71 106
REMARK H PARENT 27 6 5 12 9 19 16 26 34 40 93 59 61 70
REMARK Flexibility Score: inf
ROOT
ATOM      1  C   UNL     1       2.317   3.406   1.376  1.00  0.00     0.021 C 
ENDROOT
BRANCH   1   2
ATOM      2  C   UNL     1       1.744   2.294   0.496  1.00  0.00     0.116 C 
BRANCH   2   3
ATOM      3  N   UNL     1       2.473   1.047   0.618  1.00  0.00    -0.356 N 
ATOM      4  O   UNL     1       0.950  -0.211  -0.560  1.00  0.00    -0.275 OA
ATOM      5  C   UNL     1       2.035  -0.105   0.001  1.00  0.00     0.225 C 
ATOM      6  H   UNL     1       3.299   1.023   1.153  1.00  0.00     0.163 HD
BRANCH   5   7
ATOM      7  C   UNL     1       3.042  -1.233   0.019  1.00  0.00     0.161 C 
BRANCH   7   8
ATOM      8  C   UNL     1       3.683  -1.455  -1.359  1.00  0.00     0.272 C 
BRANCH   8   9
ATOM      9  N   UNL     1       4.838  -0.567  -1.583  1.00  0.00    -0.334 N 
ATOM     10  C   UNL     1       5.830  -1.161  -2.491  1.00  0.00     0.268 C 
ATOM     11  C   UNL     1       4.444   0.739  -2.132  1.00  0.00     0.268 C 
ATOM     12  H   UNL     1       5.251  -0.438  -0.659  1.00  0.00     0.348 HD
ATOM     13  C   UNL     1       7.109  -0.317  -2.465  1.00  0.00     0.126 C 
ATOM     14  C   UNL     1       5.627   1.694  -2.018  1.00  0.00     0.126 C 
ATOM     15  C   UNL     1       6.848   1.169  -2.783  1.00  0.00     0.195 C 
BRANCH  15  16
ATOM     16  N   UNL     1       7.963   2.113  -2.526  1.00  0.00    -0.331 N 
ATOM     17  C   UNL     1       8.955   1.668  -1.550  1.00  0.00     0.262 C 
ATOM     18  C   UNL     1       8.556   2.636  -3.759  1.00  0.00     0.275 C 
ATOM     19  H   UNL     1       7.514   2.901  -2.060  1.00  0.00     0.348 HD
ATOM     20  C   UNL     1       9.977   2.743  -1.200  1.00  0.00     0.062 C 
ATOM     21  C   UNL     1       9.650   3.689  -3.553  1.00  0.00     0.133 C 
ATOM     22  C   UNL     1      10.621   3.385  -2.415  1.00  0.00     0.025 C 
BRANCH  21  23
ATOM     23  C   UNL     1       9.214   5.154  -3.630  1.00  0.00     0.229 C 
ATOM     24  O   UNL     1       9.627   5.848  -4.569  1.00  0.00    -0.275 OA
ATOM     25  N   UNL     1       8.439   5.783  -2.718  1.00  0.00    -0.352 N 
ATOM     26  H   UNL     1       8.442   6.763  -2.804  1.00  0.00     0.163 HD
BRANCH  25  27
ATOM     27  C   UNL     1       7.609   5.296  -1.643  1.00  0.00     0.153 C 
BRANCH  27  28
ATOM     28  C   UNL     1       8.111   5.573  -0.252  1.00  0.00    -0.010 A 
ATOM     29  C   UNL     1       8.902   6.674   0.076  1.00  0.00     0.009 A 
ATOM     30  C   UNL     1       7.647   4.797   0.812  1.00  0.00     0.116 A 
ATOM     31  C   UNL     1       9.117   7.001   1.414  1.00  0.00     0.020 A 
ATOM     32  N   UNL     1       7.848   5.077   2.119  1.00  0.00    -0.264 NA
ATOM     33  C   UNL     1       8.559   6.192   2.388  1.00  0.00     0.111 A 
ENDBRANCH  27  28
ENDBRANCH  25  27
ENDBRANCH  21  23
ENDBRANCH  15  16
ENDBRANCH   8   9
ENDBRANCH   7   8
ENDBRANCH   5   7
ENDBRANCH   2   3
ENDBRANCH   1   2
BRANCH   1  34
ATOM     34  C   UNL     1       3.769   3.796   1.068  1.00  0.00     0.002 C 
BRANCH  34  35
ATOM     35  C   UNL     1       4.001   4.390  -0.322  1.00  0.00     0.002 C 
BRANCH  35  36
ATOM     36  C   UNL     1       3.332   5.733  -0.604  1.00  0.00     0.021 C 
BRANCH  36  37
ATOM     37  C   UNL     1       3.647   6.851   0.386  1.00  0.00     0.116 C 
BRANCH  37  38
ATOM     38  N   UNL     1       5.058   7.216   0.392  1.00  0.00    -0.352 N 
ATOM     39  C   UNL     1       5.644   8.431   0.155  1.00  0.00     0.251 C 
ATOM     40  H   UNL     1       5.681   6.482   0.597  1.00  0.00     0.163 HD
ATOM     41  O   UNL     1       6.836   8.512  -0.150  1.00  0.00    -0.269 OA
BRANCH  39  42
ATOM     42  C   UNL     1       4.879   9.679   0.239  1.00  0.00     0.039 A 
ATOM     43  C   UNL     1       5.268  10.746  -0.578  1.00  0.00     0.014 A 
ATOM     44  C   UNL     1       3.809   9.812   1.123  1.00  0.00     0.014 A 
ATOM     45  C   UNL     1       4.515  11.909  -0.589  1.00  0.00     0.010 A 
ATOM     46  C   UNL     1       2.994  10.924   1.032  1.00  0.00     0.010 A 
ATOM     47  C   UNL     1       3.335  11.969   0.164  1.00  0.00    -0.014 A 
BRANCH  47  48
ATOM     48  C   UNL     1       2.396  13.091   0.001  1.00  0.00     0.031 A 
ATOM     49  C   UNL     1       2.078  13.969   1.168  1.00  0.00     0.074 A 
ATOM     50  C   UNL     1       1.756  13.208  -1.178  1.00  0.00     0.049 A 
ATOM     51  N   UNL     1       1.210  14.939   1.251  1.00  0.00    -0.248 NA
ATOM     52  C   UNL     1       2.798  13.694   2.424  1.00  0.00     0.031 C 
ATOM     53  C   UNL     1       1.940  12.317  -2.330  1.00  0.00     0.029 A 
ATOM     54  N   UNL     1       0.805  14.097  -1.598  1.00  0.00    -0.354 N 
ATOM     55  C   UNL     1       1.243  15.358   2.574  1.00  0.00     0.074 A 
ATOM     56  C   UNL     1       2.191  14.515   3.267  1.00  0.00     0.031 C 
ATOM     57  C   UNL     1       1.139  12.715  -3.329  1.00  0.00     0.029 A 
ATOM     58  C   UNL     1       0.362  13.861  -2.878  1.00  0.00     0.049 A 
ATOM     59  H   UNL     1       0.471  14.834  -1.038  1.00  0.00     0.167 HD
ATOM     60  C   UNL     1       0.558  16.375   3.145  1.00  0.00     0.034 A 
ATOM     61  C   UNL     1      -0.575  14.501  -3.600  1.00  0.00     0.034 A 
ATOM     62  C   UNL     1      -0.345  17.218   2.412  1.00  0.00     0.049 A 
ATOM     63  C   UNL     1      -1.251  15.685  -2.973  1.00  0.00     0.074 A 
ATOM     64  C   UNL     1      -1.033  18.334   2.847  1.00  0.00     0.029 A 
ATOM     65  N   UNL     1      -0.684  17.030   1.077  1.00  0.00    -0.354 N 
ATOM     66  N   UNL     1      -1.100  16.169  -1.762  1.00  0.00    -0.248 NA
ATOM     67  C   UNL     1      -2.192  16.435  -3.811  1.00  0.00     0.031 C 
ATOM     68  C   UNL     1      -1.799  18.813   1.778  1.00  0.00     0.029 A 
ATOM     69  C   UNL     1      -1.573  18.008   0.670  1.00  0.00     0.049 A 
ATOM     70  H   UNL     1      -0.341  16.306   0.505  1.00  0.00     0.167 HD
ATOM     71  C   UNL     1      -1.908  17.294  -1.697  1.00  0.00     0.074 A 
ATOM     72  C   UNL     1      -2.526  17.432  -3.003  1.00  0.00     0.031 C 
ATOM     73  C   UNL     1      -2.134  18.130  -0.653  1.00  0.00     0.034 A 
BRANCH  60  74
ATOM     74  C   UNL     1       0.804  16.639   4.608  1.00  0.00     0.023 A 
ATOM     75  C   UNL     1       2.054  17.144   5.025  1.00  0.00     0.012 A 
ATOM     76  C   UNL     1      -0.192  16.387   5.571  1.00  0.00     0.148 A 
ATOM     77  C   UNL     1       2.327  17.346   6.377  1.00  0.00     0.002 A 
ATOM     78  C   UNL     1       0.073  16.635   6.915  1.00  0.00     0.091 A 
ATOM     79  F   UNL     1      -1.364  15.882   5.165  1.00  0.00    -0.205 F 
ATOM     80  C   UNL     1       1.335  17.099   7.320  1.00  0.00     0.022 A 
BRANCH  78  81
ATOM     81  S   UNL     1      -1.164  16.414   8.199  1.00  0.00     0.127 S 
ATOM     82  O   UNL     1      -0.696  15.193   8.853  1.00  0.00    -0.237 OA
ATOM     83  O   UNL     1      -1.003  17.632   8.995  1.00  0.00    -0.237 OA
ATOM     84  O   UNL     1      -2.442  16.309   7.508  1.00  0.00    -0.744 OA
ENDBRANCH  78  81
ENDBRANCH  60  74
BRANCH  61  85
ATOM     85  C   UNL     1      -0.837  14.080  -5.005  1.00  0.00     0.023 A 
ATOM     86  C   UNL     1      -0.383  14.890  -6.063  1.00  0.00     0.012 A 
ATOM     87  C   UNL     1      -1.443  12.842  -5.300  1.00  0.00     0.148 A 
ATOM     88  C   UNL     1      -0.545  14.487  -7.389  1.00  0.00     0.002 A 
ATOM     89  C   UNL     1      -1.553  12.422  -6.621  1.00  0.00     0.091 A 
ATOM     90  F   UNL     1      -1.869  12.085  -4.279  1.00  0.00    -0.205 F 
ATOM     91  C   UNL     1      -1.119  13.249  -7.668  1.00  0.00     0.022 A 
BRANCH  89  92
ATOM     92  S   UNL     1      -2.146  10.784  -7.065  1.00  0.00     0.127 S 
ATOM     93  O   UNL     1      -3.449  11.087  -7.651  1.00  0.00    -0.237 OA
ATOM     94  O   UNL     1      -1.129  10.342  -8.020  1.00  0.00    -0.237 OA
ATOM     95  O   UNL     1      -2.170  10.025  -5.822  1.00  0.00    -0.744 OA
ENDBRANCH  89  92
ENDBRANCH  61  85
BRANCH  73  96
ATOM     96  C   UNL     1      -3.079  19.275  -0.889  1.00  0.00     0.023 A 
ATOM     97  C   UNL     1      -4.463  19.030  -0.965  1.00  0.00     0.012 A 
ATOM     98  C   UNL     1      -2.598  20.596  -0.953  1.00  0.00     0.148 A 
ATOM     99  C   UNL     1      -5.357  20.086  -1.128  1.00  0.00     0.002 A 
ATOM    100  C   UNL     1      -3.498  21.647  -1.065  1.00  0.00     0.091 A 
ATOM    101  F   UNL     1      -1.274  20.800  -0.901  1.00  0.00    -0.205 F 
ATOM    102  C   UNL     1      -4.876  21.394  -1.164  1.00  0.00     0.022 A 
BRANCH 100 103
ATOM    103  S   UNL     1      -2.974  23.363  -1.017  1.00  0.00     0.127 S 
ATOM    104  O   UNL     1      -3.115  23.757  -2.417  1.00  0.00    -0.237 OA
ATOM    105  O   UNL     1      -3.956  23.963  -0.112  1.00  0.00    -0.237 OA
ATOM    106  O   UNL     1      -1.611  23.351  -0.503  1.00  0.00    -0.744 OA
ENDBRANCH 100 103
ENDBRANCH  73  96
ENDBRANCH  47  48
ENDBRANCH  39  42
ENDBRANCH  37  38
ENDBRANCH  36  37
ENDBRANCH  35  36
ENDBRANCH  34  35
ENDBRANCH   1  34
TORSDOF 22
