REMARK SMILES COc1ccc(-c2ccc([C@H](C)[NH+]3CCOCC3)cc2)c(C(=O)NCCCCCCNC(=O)c2ccc(-c3c4nc(c(-c5cccc(S(=O)(=O)[O-])c5F)c5ccc([nH]5)c(-c5cccc(S(=O)(=O)[O-])c5F)c5nc(c(-c6cccc(S(=O)(=O)[O-])c6F)c6ccc3[nH]6)C=C5)C=C4)cc2)c1
REMARK SMILES IDX 27 1 26 2 25 3 24 4 22 5 23 6 21 8 3 9 4 10 97 11 5 12 6 13
REMARK SMILES IDX 2 14 1 15 7 16 8 17 20 18 9 19 19 20 10 21 11 22 12 23 13 24
REMARK SMILES IDX 14 25 18 26 15 28 17 29 16 30 28 31 29 32 30 33 31 34 32 35
REMARK SMILES IDX 33 37 34 38 35 39 96 40 36 41 95 42 37 43 38 44 39 45 89 46
REMARK SMILES IDX 40 47 94 48 88 49 90 50 41 51 93 52 87 53 86 54 42 56 74 57
REMARK SMILES IDX 54 58 73 59 55 60 58 61 72 62 91 63 56 64 57 65 71 67 92 68
REMARK SMILES IDX 59 69 43 70 44 71 52 72 45 73 47 74 53 75 46 76 48 77 49 78
REMARK SMILES IDX 50 79 51 80 75 81 76 82 84 83 77 84 79 85 85 86 78 87 80 88
REMARK SMILES IDX 81 89 82 90 83 91 60 92 61 93 69 94 62 95 64 96 70 97 63 98
REMARK SMILES IDX 65 99 66 100 67 101 68 102
REMARK H PARENT 24 7 13 27 31 36 90 55 58 66
REMARK Flexibility Score: inf
ROOT
ATOM      1  C   UNL     1      -7.514  -6.856   8.637  1.00  0.00     0.002 C 
ENDROOT
BRANCH   1   2
ATOM      2  C   UNL     1      -6.849  -6.510   9.968  1.00  0.00     0.021 C 
BRANCH   2   3
ATOM      3  C   UNL     1      -5.909  -7.551  10.568  1.00  0.00     0.116 C 
BRANCH   3   4
ATOM      4  N   UNL     1      -4.741  -7.868   9.759  1.00  0.00    -0.352 N 
ATOM      5  C   UNL     1      -3.431  -8.153  10.107  1.00  0.00     0.252 C 
ATOM      6  O   UNL     1      -2.677  -8.511   9.204  1.00  0.00    -0.269 OA
ATOM      7  H   UNL     1      -4.914  -7.884   8.790  1.00  0.00     0.163 HD
BRANCH   5   8
ATOM      8  C   UNL     1      -2.930  -7.997  11.513  1.00  0.00     0.051 A 
ATOM      9  C   UNL     1      -3.456  -8.053  13.899  1.00  0.00     0.119 A 
ATOM     10  C   UNL     1      -2.219  -7.494  14.183  1.00  0.00     0.047 A 
ATOM     11  C   UNL     1      -3.773  -8.367  12.579  1.00  0.00     0.060 A 
ATOM     12  C   UNL     1      -1.308  -7.256  13.155  1.00  0.00     0.013 A 
ATOM     13  C   UNL     1      -1.631  -7.511  11.804  1.00  0.00    -0.005 A 
BRANCH   9  14
ATOM     14  O   UNL     1      -4.268  -8.244  14.981  1.00  0.00    -0.497 OA
ATOM     15  C   UNL     1      -5.646  -8.494  14.715  1.00  0.00     0.278 C 
ENDBRANCH   9  14
BRANCH  13  16
ATOM     16  C   UNL     1      -0.548  -7.313  10.821  1.00  0.00    -0.018 A 
ATOM     17  C   UNL     1       0.590  -8.137  10.873  1.00  0.00     0.009 A 
ATOM     18  C   UNL     1      -0.573  -6.297   9.861  1.00  0.00     0.009 A 
ATOM     19  C   UNL     1       1.658  -7.962   9.989  1.00  0.00     0.010 A 
ATOM     20  C   UNL     1       0.494  -6.124   8.965  1.00  0.00     0.010 A 
ATOM     21  C   UNL     1       1.626  -6.957   9.010  1.00  0.00     0.009 A 
BRANCH  21  22
ATOM     22  C   UNL     1       2.783  -6.882   8.005  1.00  0.00     0.212 C 
ATOM     23  C   UNL     1       2.874  -5.543   7.261  1.00  0.00     0.081 C 
BRANCH  22  24
ATOM     24  N   UNL     1       2.846  -8.102   7.176  1.00  0.00    -0.325 N 
ATOM     25  C   UNL     1       4.050  -8.276   6.352  1.00  0.00     0.291 C 
ATOM     26  C   UNL     1       1.642  -8.457   6.409  1.00  0.00     0.291 C 
ATOM     27  H   UNL     1       2.908  -8.781   7.934  1.00  0.00     0.348 HD
ATOM     28  C   UNL     1       3.944  -7.770   4.900  1.00  0.00     0.221 C 
ATOM     29  C   UNL     1       1.591  -7.838   5.009  1.00  0.00     0.221 C 
ATOM     30  O   UNL     1       2.748  -8.208   4.247  1.00  0.00    -0.370 OA
ENDBRANCH  22  24
ENDBRANCH  21  22
ENDBRANCH  13  16
ENDBRANCH   5   8
ENDBRANCH   3   4
ENDBRANCH   2   3
ENDBRANCH   1   2
BRANCH   1  31
ATOM     31  C   UNL     1      -8.274  -8.182   8.568  1.00  0.00     0.002 C 
BRANCH  31  32
ATOM     32  C   UNL     1      -9.317  -8.433   9.660  1.00  0.00     0.021 C 
BRANCH  32  33
ATOM     33  C   UNL     1     -10.375  -7.347   9.838  1.00  0.00     0.116 C 
BRANCH  33  34
ATOM     34  N   UNL     1     -11.176  -7.135   8.643  1.00  0.00    -0.352 N 
ATOM     35  C   UNL     1     -12.539  -7.210   8.475  1.00  0.00     0.251 C 
ATOM     36  H   UNL     1     -10.666  -6.905   7.833  1.00  0.00     0.163 HD
ATOM     37  O   UNL     1     -13.022  -7.148   7.350  1.00  0.00    -0.269 OA
BRANCH  35  38
ATOM     38  C   UNL     1     -13.422  -7.393   9.649  1.00  0.00     0.039 A 
ATOM     39  C   UNL     1     -14.422  -8.368   9.593  1.00  0.00     0.014 A 
ATOM     40  C   UNL     1     -13.261  -6.618  10.801  1.00  0.00     0.014 A 
ATOM     41  C   UNL     1     -15.204  -8.624  10.723  1.00  0.00     0.010 A 
ATOM     42  C   UNL     1     -13.995  -6.921  11.947  1.00  0.00     0.010 A 
ATOM     43  C   UNL     1     -14.964  -7.936  11.924  1.00  0.00    -0.014 A 
BRANCH  43  44
ATOM     44  C   UNL     1     -15.665  -8.313  13.179  1.00  0.00     0.031 A 
ATOM     45  C   UNL     1     -16.555  -7.333  13.890  1.00  0.00     0.074 A 
ATOM     46  C   UNL     1     -15.407  -9.513  13.739  1.00  0.00     0.049 A 
ATOM     47  N   UNL     1     -17.182  -7.468  15.030  1.00  0.00    -0.248 NA
ATOM     48  C   UNL     1     -16.746  -6.022  13.252  1.00  0.00     0.031 C 
ATOM     49  C   UNL     1     -14.495 -10.519  13.191  1.00  0.00     0.029 A 
ATOM     50  N   UNL     1     -15.854 -10.073  14.911  1.00  0.00    -0.354 N 
ATOM     51  C   UNL     1     -17.810  -6.252  15.266  1.00  0.00     0.074 A 
ATOM     52  C   UNL     1     -17.470  -5.383  14.160  1.00  0.00     0.031 C 
ATOM     53  C   UNL     1     -14.440 -11.566  14.029  1.00  0.00     0.029 A 
ATOM     54  C   UNL     1     -15.278 -11.290  15.191  1.00  0.00     0.049 A 
ATOM     55  H   UNL     1     -16.521  -9.644  15.494  1.00  0.00     0.167 HD
ATOM     56  C   UNL     1     -18.610  -5.896  16.300  1.00  0.00     0.034 A 
ATOM     57  C   UNL     1     -15.386 -12.087  16.273  1.00  0.00     0.034 A 
ATOM     58  C   UNL     1     -18.965  -6.772  17.386  1.00  0.00     0.049 A 
ATOM     59  C   UNL     1     -16.298 -11.681  17.397  1.00  0.00     0.074 A 
ATOM     60  C   UNL     1     -19.857  -6.542  18.419  1.00  0.00     0.029 A 
ATOM     61  N   UNL     1     -18.426  -8.032  17.598  1.00  0.00    -0.354 N 
ATOM     62  N   UNL     1     -17.030 -10.601  17.513  1.00  0.00    -0.248 NA
ATOM     63  C   UNL     1     -16.424 -12.616  18.524  1.00  0.00     0.031 C 
ATOM     64  C   UNL     1     -19.820  -7.643  19.282  1.00  0.00     0.029 A 
ATOM     65  C   UNL     1     -18.939  -8.578  18.763  1.00  0.00     0.049 A 
ATOM     66  H   UNL     1     -17.774  -8.474  17.007  1.00  0.00     0.167 HD
ATOM     67  C   UNL     1     -17.718 -10.733  18.713  1.00  0.00     0.074 A 
ATOM     68  C   UNL     1     -17.337 -12.013  19.274  1.00  0.00     0.031 C 
ATOM     69  C   UNL     1     -18.577  -9.865  19.302  1.00  0.00     0.034 A 
BRANCH  56  70
ATOM     70  C   UNL     1     -19.180  -4.501  16.298  1.00  0.00     0.023 A 
ATOM     71  C   UNL     1     -20.165  -4.145  15.354  1.00  0.00     0.012 A 
ATOM     72  C   UNL     1     -18.781  -3.558  17.266  1.00  0.00     0.148 A 
ATOM     73  C   UNL     1     -20.712  -2.862  15.345  1.00  0.00     0.002 A 
ATOM     74  C   UNL     1     -19.365  -2.297  17.282  1.00  0.00     0.091 A 
ATOM     75  F   UNL     1     -17.829  -3.907  18.144  1.00  0.00    -0.205 F 
ATOM     76  C   UNL     1     -20.320  -1.943  16.315  1.00  0.00     0.022 A 
BRANCH  74  77
ATOM     77  S   UNL     1     -18.987  -1.072  18.539  1.00  0.00     0.127 S 
ATOM     78  O   UNL     1     -18.218  -0.092  17.773  1.00  0.00    -0.237 OA
ATOM     79  O   UNL     1     -20.321  -0.621  18.940  1.00  0.00    -0.237 OA
ATOM     80  O   UNL     1     -18.247  -1.775  19.577  1.00  0.00    -0.744 OA
ENDBRANCH  74  77
ENDBRANCH  56  70
BRANCH  57  81
ATOM     81  C   UNL     1     -14.615 -13.361  16.326  1.00  0.00     0.023 A 
ATOM     82  C   UNL     1     -15.289 -14.592  16.221  1.00  0.00     0.012 A 
ATOM     83  C   UNL     1     -13.210 -13.351  16.426  1.00  0.00     0.148 A 
ATOM     84  C   UNL     1     -14.579 -15.793  16.238  1.00  0.00     0.002 A 
ATOM     85  C   UNL     1     -12.504 -14.547  16.381  1.00  0.00     0.091 A 
ATOM     86  F   UNL     1     -12.590 -12.168  16.535  1.00  0.00    -0.205 F 
ATOM     87  C   UNL     1     -13.188 -15.771  16.305  1.00  0.00     0.022 A 
BRANCH  85  88
ATOM     88  S   UNL     1     -10.710 -14.604  16.315  1.00  0.00     0.127 S 
ATOM     89  O   UNL     1     -10.382 -15.201  17.607  1.00  0.00    -0.237 OA
ATOM     90  O   UNL     1     -10.480 -15.468  15.157  1.00  0.00    -0.237 OA
ATOM     91  O   UNL     1     -10.276 -13.225  16.129  1.00  0.00    -0.744 OA
ENDBRANCH  85  88
ENDBRANCH  57  81
BRANCH  69  92
ATOM     92  C   UNL     1     -19.183 -10.267  20.623  1.00  0.00     0.023 A 
ATOM     93  C   UNL     1     -18.386 -10.282  21.785  1.00  0.00     0.012 A 
ATOM     94  C   UNL     1     -20.559 -10.552  20.726  1.00  0.00     0.148 A 
ATOM     95  C   UNL     1     -18.941 -10.603  23.023  1.00  0.00     0.002 A 
ATOM     96  C   UNL     1     -21.116 -10.821  21.970  1.00  0.00     0.091 A 
ATOM     97  F   UNL     1     -21.297 -10.549  19.607  1.00  0.00    -0.205 F 
ATOM     98  C   UNL     1     -20.307 -10.860  23.117  1.00  0.00     0.022 A 
BRANCH  96  99
ATOM     99  S   UNL     1     -22.879 -11.071  22.207  1.00  0.00     0.127 S 
ATOM    100  O   UNL     1     -22.932 -12.484  22.580  1.00  0.00    -0.237 OA
ATOM    101  O   UNL     1     -23.178 -10.141  23.296  1.00  0.00    -0.237 OA
ATOM    102  O   UNL     1     -23.509 -10.741  20.936  1.00  0.00    -0.744 OA
ENDBRANCH  96  99
ENDBRANCH  69  92
ENDBRANCH  43  44
ENDBRANCH  35  38
ENDBRANCH  33  34
ENDBRANCH  32  33
ENDBRANCH  31  32
ENDBRANCH   1  31
TORSDOF 20
