REMARK SMILES CCc1ccc(-c2cc(Cl)cc3c2O[C@H](C(F)(F)F)C(C(=O)NCCCCCCNC(=O)c2ccc(-c4c5nc(c(-c6cccc(S(=O)(=O)[O-])c6F)c6ccc([nH]6)c(-c6cccc(S(=O)(=O)[O-])c6F)c6nc(c(-c7cccc(S(=O)(=O)[O-])c7F)c7ccc4[nH]7)C=C6)C=C5)cc2)=C3)cc1
REMARK SMILES IDX 27 1 26 2 25 3 24 4 23 5 21 6 22 7 20 9 7 10 8 11 13 12 9 13
REMARK SMILES IDX 12 14 14 15 10 16 11 17 96 18 15 19 6 20 3 21 4 22 98 23
REMARK SMILES IDX 5 24 97 25 2 26 1 27 16 28 17 29 18 30 19 31 28 32 29 33
REMARK SMILES IDX 30 34 31 35 32 37 33 38 34 39 95 40 35 41 94 42 36 43 37 44
REMARK SMILES IDX 38 45 88 46 39 47 93 48 87 49 89 50 40 51 92 52 86 53 85 54
REMARK SMILES IDX 41 56 73 57 53 58 72 59 54 60 57 61 71 62 90 63 55 64 56 65
REMARK SMILES IDX 70 67 91 68 58 69 42 70 43 71 51 72 44 73 46 74 52 75 45 76
REMARK SMILES IDX 47 77 48 78 49 79 50 80 74 81 75 82 83 83 76 84 78 85 84 86
REMARK SMILES IDX 77 87 79 88 80 89 81 90 82 91 59 92 60 93 68 94 61 95 63 96
REMARK SMILES IDX 69 97 62 98 64 99 65 100 66 101 67 102
REMARK H PARENT 23 8 30 36 89 55 57 66
REMARK Flexibility Score: inf
ROOT
ATOM      1  C   UNL     1       1.413   8.710  13.957  1.00  0.00     0.002 C 
ENDROOT
BRANCH   1   2
ATOM      2  C   UNL     1       0.751   7.334  13.842  1.00  0.00     0.002 C 
BRANCH   2   3
ATOM      3  C   UNL     1      -0.387   7.249  12.810  1.00  0.00     0.021 C 
BRANCH   3   4
ATOM      4  C   UNL     1      -0.002   7.691  11.390  1.00  0.00     0.116 C 
BRANCH   4   5
ATOM      5  N   UNL     1       1.091   6.870  10.905  1.00  0.00    -0.352 N 
ATOM      6  C   UNL     1       1.047   6.056   9.823  1.00  0.00     0.251 C 
ATOM      7  O   UNL     1       1.463   4.906   9.904  1.00  0.00    -0.270 OA
ATOM      8  H   UNL     1       1.938   6.908  11.406  1.00  0.00     0.163 HD
BRANCH   6   9
ATOM      9  C   UNL     1       0.648   6.690   8.532  1.00  0.00     0.067 C 
ATOM     10  C   UNL     1       1.370   3.535   6.076  1.00  0.00     0.026 A 
ATOM     11  C   UNL     1       2.651   3.027   6.425  1.00  0.00     0.033 A 
ATOM     12  C   UNL     1       1.044   4.803   6.591  1.00  0.00     0.135 A 
ATOM     13  C   UNL     1       3.604   3.781   7.105  1.00  0.00     0.042 A 
ATOM     14  C   UNL     1       2.069   5.596   7.171  1.00  0.00     0.019 A 
ATOM     15  O   UNL     1      -0.252   5.304   6.621  1.00  0.00    -0.475 OA
ATOM     16  Cl  UNL     1       5.110   3.071   7.533  1.00  0.00    -0.084 Cl
ATOM     17  C   UNL     1       3.345   5.098   7.419  1.00  0.00     0.032 A 
ATOM     18  C   UNL     1       1.697   6.918   7.719  1.00  0.00     0.025 C 
ATOM     19  C   UNL     1      -0.572   6.079   7.862  1.00  0.00     0.314 C 
BRANCH  10  20
ATOM     20  C   UNL     1       0.640   2.720   5.067  1.00  0.00    -0.015 A 
ATOM     21  C   UNL     1       0.354   0.977   2.811  1.00  0.00    -0.048 A 
ATOM     22  C   UNL     1       0.415   0.469   4.115  1.00  0.00     0.004 A 
ATOM     23  C   UNL     1       0.292   2.368   2.663  1.00  0.00     0.004 A 
ATOM     24  C   UNL     1       0.537   1.323   5.223  1.00  0.00     0.009 A 
ATOM     25  C   UNL     1       0.431   3.226   3.774  1.00  0.00     0.009 A 
BRANCH  21  26
ATOM     26  C   UNL     1       0.320   0.006   1.649  1.00  0.00     0.032 C 
ATOM     27  C   UNL     1       0.998   0.449   0.354  1.00  0.00     0.009 C 
ENDBRANCH  21  26
ENDBRANCH  10  20
BRANCH  19  28
ATOM     28  C   UNL     1      -1.584   7.217   7.594  1.00  0.00     0.429 C 
ATOM     29  F   UNL     1      -1.665   7.540   6.283  1.00  0.00    -0.167 F 
ATOM     30  F   UNL     1      -2.825   6.879   8.014  1.00  0.00    -0.167 F 
ATOM     31  F   UNL     1      -1.259   8.361   8.253  1.00  0.00    -0.167 F 
ENDBRANCH  19  28
ENDBRANCH   6   9
ENDBRANCH   4   5
ENDBRANCH   3   4
ENDBRANCH   2   3
ENDBRANCH   1   2
BRANCH   1  32
ATOM     32  C   UNL     1       0.458   9.839  14.343  1.00  0.00     0.021 C 
BRANCH  32  33
ATOM     33  C   UNL     1      -0.319   9.597  15.631  1.00  0.00     0.116 C 
BRANCH  33  34
ATOM     34  N   UNL     1       0.555   9.430  16.784  1.00  0.00    -0.352 N 
ATOM     35  C   UNL     1       0.468  10.020  18.019  1.00  0.00     0.251 C 
ATOM     36  H   UNL     1       1.310   8.810  16.659  1.00  0.00     0.163 HD
ATOM     37  O   UNL     1       1.385   9.898  18.829  1.00  0.00    -0.269 OA
BRANCH  35  38
ATOM     38  C   UNL     1      -0.724  10.822  18.358  1.00  0.00     0.039 A 
ATOM     39  C   UNL     1      -0.551  12.078  18.944  1.00  0.00     0.014 A 
ATOM     40  C   UNL     1      -2.007  10.344  18.077  1.00  0.00     0.014 A 
ATOM     41  C   UNL     1      -1.666  12.879  19.197  1.00  0.00     0.010 A 
ATOM     42  C   UNL     1      -3.108  11.176  18.254  1.00  0.00     0.010 A 
ATOM     43  C   UNL     1      -2.950  12.447  18.826  1.00  0.00    -0.014 A 
BRANCH  43  44
ATOM     44  C   UNL     1      -4.136  13.320  19.015  1.00  0.00     0.031 A 
ATOM     45  C   UNL     1      -5.263  12.891  19.913  1.00  0.00     0.074 A 
ATOM     46  C   UNL     1      -4.242  14.458  18.302  1.00  0.00     0.049 A 
ATOM     47  N   UNL     1      -6.390  13.503  20.169  1.00  0.00    -0.248 NA
ATOM     48  C   UNL     1      -5.120  11.590  20.585  1.00  0.00     0.031 C 
ATOM     49  C   UNL     1      -3.264  14.933  17.322  1.00  0.00     0.029 A 
ATOM     50  N   UNL     1      -5.236  15.404  18.266  1.00  0.00    -0.354 N 
ATOM     51  C   UNL     1      -7.107  12.646  20.995  1.00  0.00     0.074 A 
ATOM     52  C   UNL     1      -6.302  11.456  21.168  1.00  0.00     0.031 C 
ATOM     53  C   UNL     1      -3.707  16.077  16.779  1.00  0.00     0.029 A 
ATOM     54  C   UNL     1      -5.012  16.401  17.347  1.00  0.00     0.049 A 
ATOM     55  H   UNL     1      -6.033  15.371  18.843  1.00  0.00     0.167 HD
ATOM     56  C   UNL     1      -8.315  12.840  21.578  1.00  0.00     0.034 A 
ATOM     57  C   UNL     1      -5.775  17.452  16.989  1.00  0.00     0.034 A 
ATOM     58  C   UNL     1      -9.095  14.038  21.428  1.00  0.00     0.049 A 
ATOM     59  C   UNL     1      -7.085  17.680  17.689  1.00  0.00     0.074 A 
ATOM     60  C   UNL     1     -10.273  14.383  22.068  1.00  0.00     0.029 A 
ATOM     61  N   UNL     1      -8.792  15.078  20.562  1.00  0.00    -0.354 N 
ATOM     62  N   UNL     1      -7.662  16.950  18.612  1.00  0.00    -0.248 NA
ATOM     63  C   UNL     1      -7.830  18.895  17.329  1.00  0.00     0.031 C 
ATOM     64  C   UNL     1     -10.703  15.613  21.556  1.00  0.00     0.029 A 
ATOM     65  C   UNL     1      -9.772  16.054  20.630  1.00  0.00     0.049 A 
ATOM     66  H   UNL     1      -7.997  15.116  19.983  1.00  0.00     0.167 HD
ATOM     67  C   UNL     1      -8.825  17.627  18.963  1.00  0.00     0.074 A 
ATOM     68  C   UNL     1      -8.856  18.838  18.168  1.00  0.00     0.031 C 
ATOM     69  C   UNL     1      -9.781  17.272  19.857  1.00  0.00     0.034 A 
BRANCH  56  70
ATOM     70  C   UNL     1      -8.848  11.734  22.454  1.00  0.00     0.023 A 
ATOM     71  C   UNL     1      -8.214  11.437  23.678  1.00  0.00     0.012 A 
ATOM     72  C   UNL     1      -9.991  11.003  22.076  1.00  0.00     0.148 A 
ATOM     73  C   UNL     1      -8.673  10.396  24.485  1.00  0.00     0.002 A 
ATOM     74  C   UNL     1     -10.475  10.001  22.910  1.00  0.00     0.091 A 
ATOM     75  F   UNL     1     -10.571  11.281  20.900  1.00  0.00    -0.205 F 
ATOM     76  C   UNL     1      -9.808   9.685  24.105  1.00  0.00     0.022 A 
BRANCH  74  77
ATOM     77  S   UNL     1     -11.978   9.088  22.548  1.00  0.00     0.127 S 
ATOM     78  O   UNL     1     -11.444   7.795  22.126  1.00  0.00    -0.237 OA
ATOM     79  O   UNL     1     -12.652   9.075  23.847  1.00  0.00    -0.237 OA
ATOM     80  O   UNL     1     -12.669   9.851  21.518  1.00  0.00    -0.744 OA
ENDBRANCH  74  77
ENDBRANCH  56  70
BRANCH  57  81
ATOM     81  C   UNL     1      -5.278  18.388  15.942  1.00  0.00     0.023 A 
ATOM     82  C   UNL     1      -4.830  19.671  16.308  1.00  0.00     0.012 A 
ATOM     83  C   UNL     1      -5.175  17.978  14.599  1.00  0.00     0.148 A 
ATOM     84  C   UNL     1      -4.303  20.538  15.350  1.00  0.00     0.002 A 
ATOM     85  C   UNL     1      -4.596  18.823  13.661  1.00  0.00     0.091 A 
ATOM     86  F   UNL     1      -5.612  16.753  14.275  1.00  0.00    -0.205 F 
ATOM     87  C   UNL     1      -4.174  20.110  14.030  1.00  0.00     0.022 A 
BRANCH  85  88
ATOM     88  S   UNL     1      -4.255  18.306  11.975  1.00  0.00     0.127 S 
ATOM     89  O   UNL     1      -5.130  19.190  11.208  1.00  0.00    -0.237 OA
ATOM     90  O   UNL     1      -2.826  18.597  11.857  1.00  0.00    -0.237 OA
ATOM     91  O   UNL     1      -4.589  16.889  11.919  1.00  0.00    -0.744 OA
ENDBRANCH  85  88
ENDBRANCH  57  81
BRANCH  69  92
ATOM     92  C   UNL     1     -10.943  18.213  20.049  1.00  0.00     0.023 A 
ATOM     93  C   UNL     1     -11.917  18.346  19.039  1.00  0.00     0.012 A 
ATOM     94  C   UNL     1     -11.108  18.909  21.263  1.00  0.00     0.148 A 
ATOM     95  C   UNL     1     -13.018  19.183  19.221  1.00  0.00     0.002 A 
ATOM     96  C   UNL     1     -12.235  19.699  21.458  1.00  0.00     0.091 A 
ATOM     97  F   UNL     1     -10.162  18.784  22.205  1.00  0.00    -0.205 F 
ATOM     98  C   UNL     1     -13.183  19.848  20.434  1.00  0.00     0.022 A 
BRANCH  96  99
ATOM     99  S   UNL     1     -12.581  20.514  23.021  1.00  0.00     0.127 S 
ATOM    100  O   UNL     1     -12.353  21.918  22.682  1.00  0.00    -0.237 OA
ATOM    101  O   UNL     1     -13.982  20.161  23.250  1.00  0.00    -0.237 OA
ATOM    102  O   UNL     1     -11.649  19.946  23.986  1.00  0.00    -0.744 OA
ENDBRANCH  96  99
ENDBRANCH  69  92
ENDBRANCH  43  44
ENDBRANCH  35  38
ENDBRANCH  33  34
ENDBRANCH  32  33
ENDBRANCH   1  32
TORSDOF 19
