REMARK SMILES C[C@H]1[C@@H](C(=O)NCCCCCCNC(=O)c2ccc(-c3c4nc(c(-c5cccc(S(=O)(=O)[O-])c5F)c5ccc([nH]5)c(-c5cccc(S(=O)(=O)[O-])c5F)c5nc(c(-c6cccc(S(=O)(=O)[O-])c6F)c6ccc3[nH]6)C=C5)C=C4)cc2)CCN1C(=O)N(C)CC(=O)N1CCCC1
REMARK SMILES IDX 9 1 8 2 7 3 6 4 4 5 5 6 3 8 1 9 2 10 81 11 79 12 80 13 82 14
REMARK SMILES IDX 83 15 84 16 85 17 86 18 87 19 88 20 89 21 90 22 93 23 91 24
REMARK SMILES IDX 92 25 10 26 11 27 12 28 13 29 14 30 15 32 16 33 17 34 78 35
REMARK SMILES IDX 18 36 77 37 19 38 20 39 21 40 71 41 22 42 76 43 70 44 72 45
REMARK SMILES IDX 23 46 75 47 69 48 68 49 24 51 56 52 36 53 55 54 37 55 40 56
REMARK SMILES IDX 54 57 73 58 38 59 39 60 53 62 74 63 41 64 25 65 26 66 34 67
REMARK SMILES IDX 27 68 29 69 35 70 28 71 30 72 31 73 32 74 33 75 57 76 58 77
REMARK SMILES IDX 66 78 59 79 61 80 67 81 60 82 62 83 63 84 64 85 65 86 42 87
REMARK SMILES IDX 43 88 51 89 44 90 46 91 52 92 45 93 47 94 48 95 49 96 50 97
REMARK H PARENT 6 7 13 31 72 50 40 61
REMARK Flexibility Score: inf
ROOT
ATOM      1  C   UNL     1       4.502   1.574  -3.293  1.00  0.00     0.002 C 
ENDROOT
BRANCH   1   2
ATOM      2  C   UNL     1       3.580   0.968  -2.241  1.00  0.00     0.021 C 
BRANCH   2   3
ATOM      3  C   UNL     1       2.817   1.962  -1.357  1.00  0.00     0.116 C 
BRANCH   3   4
ATOM      4  N   UNL     1       1.489   2.190  -1.901  1.00  0.00    -0.356 N 
ATOM      5  C   UNL     1       0.266   1.713  -1.535  1.00  0.00     0.225 C 
ATOM      6  O   UNL     1      -0.668   1.958  -2.304  1.00  0.00    -0.275 OA
ATOM      7  H   UNL     1       1.469   2.799  -2.675  1.00  0.00     0.163 HD
BRANCH   5   8
ATOM      8  C   UNL     1       0.040   1.026  -0.187  1.00  0.00     0.102 C 
ATOM      9  C   UNL     1       1.462  -1.026  -1.000  1.00  0.00     0.032 C 
ATOM     10  C   UNL     1       0.777  -0.295   0.146  1.00  0.00     0.096 C 
ATOM     11  N   UNL     1      -0.233  -1.184   0.708  1.00  0.00    -0.321 N 
ATOM     12  C   UNL     1      -1.453   0.709   0.073  1.00  0.00     0.037 C 
ATOM     13  C   UNL     1      -1.528  -0.798   0.189  1.00  0.00     0.122 C 
BRANCH  11  14
ATOM     14  C   UNL     1      -0.097  -2.427   1.278  1.00  0.00     0.320 C 
ATOM     15  O   UNL     1      -1.095  -3.147   1.398  1.00  0.00    -0.248 OA
BRANCH  14  16
ATOM     16  N   UNL     1       1.139  -2.900   1.666  1.00  0.00    -0.318 N 
ATOM     17  C   UNL     1       2.385  -2.184   1.927  1.00  0.00     0.149 C 
BRANCH  16  18
ATOM     18  C   UNL     1       1.204  -4.335   1.915  1.00  0.00     0.221 C 
BRANCH  18  19
ATOM     19  C   UNL     1       0.756  -4.929   3.264  1.00  0.00     0.242 C 
ATOM     20  O   UNL     1       0.660  -6.163   3.342  1.00  0.00    -0.273 OA
ATOM     21  N   UNL     1       0.658  -4.168   4.407  1.00  0.00    -0.341 N 
ATOM     22  C   UNL     1       0.466  -2.742   4.600  1.00  0.00     0.119 C 
ATOM     23  C   UNL     1       0.653  -4.834   5.698  1.00  0.00     0.119 C 
ATOM     24  C   UNL     1       1.140  -2.488   5.934  1.00  0.00     0.023 C 
ATOM     25  C   UNL     1       0.749  -3.720   6.738  1.00  0.00     0.023 C 
ENDBRANCH  18  19
ENDBRANCH  16  18
ENDBRANCH  14  16
ENDBRANCH  11  14
ENDBRANCH   5   8
ENDBRANCH   3   4
ENDBRANCH   2   3
ENDBRANCH   1   2
BRANCH   1  26
ATOM     26  C   UNL     1       5.808   2.148  -2.743  1.00  0.00     0.002 C 
BRANCH  26  27
ATOM     27  C   UNL     1       6.631   1.212  -1.847  1.00  0.00     0.021 C 
BRANCH  27  28
ATOM     28  C   UNL     1       6.912  -0.179  -2.416  1.00  0.00     0.116 C 
BRANCH  28  29
ATOM     29  N   UNL     1       7.629  -0.121  -3.678  1.00  0.00    -0.352 N 
ATOM     30  C   UNL     1       8.922  -0.472  -3.970  1.00  0.00     0.251 C 
ATOM     31  H   UNL     1       7.107   0.223  -4.439  1.00  0.00     0.163 HD
ATOM     32  O   UNL     1       9.419  -0.128  -5.040  1.00  0.00    -0.269 OA
BRANCH  30  33
ATOM     33  C   UNL     1       9.723  -1.253  -3.003  1.00  0.00     0.039 A 
ATOM     34  C   UNL     1      11.043  -0.868  -2.752  1.00  0.00     0.014 A 
ATOM     35  C   UNL     1       9.194  -2.387  -2.380  1.00  0.00     0.014 A 
ATOM     36  C   UNL     1      11.815  -1.589  -1.837  1.00  0.00     0.010 A 
ATOM     37  C   UNL     1       9.944  -3.067  -1.421  1.00  0.00     0.010 A 
ATOM     38  C   UNL     1      11.265  -2.681  -1.146  1.00  0.00    -0.014 A 
BRANCH  38  39
ATOM     39  C   UNL     1      12.053  -3.422  -0.127  1.00  0.00     0.031 A 
ATOM     40  C   UNL     1      12.401  -4.871  -0.338  1.00  0.00     0.074 A 
ATOM     41  C   UNL     1      12.385  -2.812   1.028  1.00  0.00     0.049 A 
ATOM     42  N   UNL     1      13.037  -5.690   0.459  1.00  0.00    -0.248 NA
ATOM     43  C   UNL     1      11.954  -5.488  -1.597  1.00  0.00     0.031 C 
ATOM     44  C   UNL     1      12.039  -1.435   1.386  1.00  0.00     0.029 A 
ATOM     45  N   UNL     1      13.062  -3.280   2.127  1.00  0.00    -0.354 N 
ATOM     46  C   UNL     1      13.037  -6.923  -0.182  1.00  0.00     0.074 A 
ATOM     47  C   UNL     1      12.309  -6.753  -1.421  1.00  0.00     0.031 C 
ATOM     48  C   UNL     1      12.507  -1.169   2.616  1.00  0.00     0.029 A 
ATOM     49  C   UNL     1      13.162  -2.361   3.146  1.00  0.00     0.049 A 
ATOM     50  H   UNL     1      13.442  -4.187   2.180  1.00  0.00     0.167 HD
ATOM     51  C   UNL     1      13.616  -8.085   0.207  1.00  0.00     0.034 A 
ATOM     52  C   UNL     1      13.712  -2.468   4.371  1.00  0.00     0.034 A 
ATOM     53  C   UNL     1      14.378  -8.239   1.418  1.00  0.00     0.049 A 
ATOM     54  C   UNL     1      14.384  -3.756   4.763  1.00  0.00     0.074 A 
ATOM     55  C   UNL     1      15.081  -9.348   1.856  1.00  0.00     0.029 A 
ATOM     56  N   UNL     1      14.530  -7.261   2.387  1.00  0.00    -0.354 N 
ATOM     57  N   UNL     1      14.517  -4.860   4.070  1.00  0.00    -0.248 NA
ATOM     58  C   UNL     1      15.014  -3.801   6.091  1.00  0.00     0.031 C 
ATOM     59  C   UNL     1      15.642  -9.045   3.102  1.00  0.00     0.029 A 
ATOM     60  C   UNL     1      15.306  -7.741   3.428  1.00  0.00     0.049 A 
ATOM     61  H   UNL     1      14.143  -6.356   2.342  1.00  0.00     0.167 HD
ATOM     62  C   UNL     1      15.272  -5.719   4.861  1.00  0.00     0.074 A 
ATOM     63  C   UNL     1      15.587  -4.997   6.077  1.00  0.00     0.031 C 
ATOM     64  C   UNL     1      15.655  -6.995   4.611  1.00  0.00     0.034 A 
BRANCH  51  65
ATOM     65  C   UNL     1      13.497  -9.270  -0.716  1.00  0.00     0.023 A 
ATOM     66  C   UNL     1      14.218  -9.280  -1.928  1.00  0.00     0.012 A 
ATOM     67  C   UNL     1      12.723 -10.393  -0.364  1.00  0.00     0.148 A 
ATOM     68  C   UNL     1      14.142 -10.371  -2.793  1.00  0.00     0.002 A 
ATOM     69  C   UNL     1      12.687 -11.496  -1.211  1.00  0.00     0.091 A 
ATOM     70  F   UNL     1      12.028 -10.358   0.781  1.00  0.00    -0.205 F 
ATOM     71  C   UNL     1      13.385 -11.482  -2.430  1.00  0.00     0.022 A 
BRANCH  69  72
ATOM     72  S   UNL     1      11.805 -13.005  -0.794  1.00  0.00     0.127 S 
ATOM     73  O   UNL     1      10.666 -12.942  -1.712  1.00  0.00    -0.237 OA
ATOM     74  O   UNL     1      12.792 -14.038  -1.123  1.00  0.00    -0.237 OA
ATOM     75  O   UNL     1      11.481 -12.904   0.616  1.00  0.00    -0.744 OA
ENDBRANCH  69  72
ENDBRANCH  51  65
BRANCH  52  76
ATOM     76  C   UNL     1      13.712  -1.293   5.289  1.00  0.00     0.023 A 
ATOM     77  C   UNL     1      14.923  -0.626   5.557  1.00  0.00     0.012 A 
ATOM     78  C   UNL     1      12.521  -0.811   5.865  1.00  0.00     0.148 A 
ATOM     79  C   UNL     1      14.953   0.480   6.405  1.00  0.00     0.002 A 
ATOM     80  C   UNL     1      12.549   0.326   6.665  1.00  0.00     0.091 A 
ATOM     81  F   UNL     1      11.380  -1.466   5.607  1.00  0.00    -0.205 F 
ATOM     82  C   UNL     1      13.766   0.963   6.950  1.00  0.00     0.022 A 
BRANCH  80  83
ATOM     83  S   UNL     1      11.052   1.095   7.293  1.00  0.00     0.127 S 
ATOM     84  O   UNL     1      11.128   0.779   8.718  1.00  0.00    -0.237 OA
ATOM     85  O   UNL     1      11.273   2.504   6.963  1.00  0.00    -0.237 OA
ATOM     86  O   UNL     1       9.955   0.476   6.564  1.00  0.00    -0.744 OA
ENDBRANCH  80  83
ENDBRANCH  52  76
BRANCH  64  87
ATOM     87  C   UNL     1      16.482  -7.694   5.658  1.00  0.00     0.023 A 
ATOM     88  C   UNL     1      15.877  -8.119   6.857  1.00  0.00     0.012 A 
ATOM     89  C   UNL     1      17.838  -7.997   5.422  1.00  0.00     0.148 A 
ATOM     90  C   UNL     1      16.616  -8.807   7.819  1.00  0.00     0.002 A 
ATOM     91  C   UNL     1      18.556  -8.725   6.364  1.00  0.00     0.091 A 
ATOM     92  F   UNL     1      18.401  -7.568   4.283  1.00  0.00    -0.205 F 
ATOM     93  C   UNL     1      17.950  -9.120   7.568  1.00  0.00     0.022 A 
BRANCH  91  94
ATOM     94  S   UNL     1      20.250  -9.254   6.085  1.00  0.00     0.127 S 
ATOM     95  O   UNL     1      20.990  -8.367   6.981  1.00  0.00    -0.237 OA
ATOM     96  O   UNL     1      20.212 -10.654   6.508  1.00  0.00    -0.237 OA
ATOM     97  O   UNL     1      20.501  -9.060   4.663  1.00  0.00    -0.744 OA
ENDBRANCH  91  94
ENDBRANCH  64  87
ENDBRANCH  38  39
ENDBRANCH  30  33
ENDBRANCH  28  29
ENDBRANCH  27  28
ENDBRANCH  26  27
ENDBRANCH   1  26
TORSDOF 20
