REMARK SMILES Cc1occc1C(=O)N[C@@H]1CCCCC[C@@H]1C(=O)NCCCCCCNC(=O)c1ccc(-c2c3nc(c(-c4cccc(S(=O)(=O)[O-])c4F)c4ccc([nH]4)c(-c4cccc(S(=O)(=O)[O-])c4F)c4nc(c(-c5cccc(S(=O)(=O)[O-])c5F)c5ccc2[nH]5)C=C4)C=C3)cc1
REMARK SMILES IDX 22 1 21 2 20 3 19 4 17 5 18 6 16 8 10 9 9 10 7 11 8 12 6 14
REMARK SMILES IDX 1 15 2 16 3 17 4 18 5 19 11 20 15 22 14 23 13 24 12 25 23 27
REMARK SMILES IDX 24 28 25 29 26 30 27 31 28 33 29 34 30 35 91 36 31 37 90 38
REMARK SMILES IDX 32 39 33 40 34 41 84 42 35 43 89 44 83 45 85 46 36 47 88 48
REMARK SMILES IDX 82 49 81 50 37 52 69 53 49 54 68 55 50 56 53 57 67 58 86 59
REMARK SMILES IDX 51 60 52 61 66 63 87 64 54 65 38 66 39 67 47 68 40 69 42 70
REMARK SMILES IDX 48 71 41 72 43 73 44 74 45 75 46 76 70 77 71 78 79 79 72 80
REMARK SMILES IDX 74 81 80 82 73 83 75 84 76 85 77 86 78 87 55 88 56 89 64 90
REMARK SMILES IDX 57 91 59 92 65 93 58 94 60 95 61 96 62 97 63 98
REMARK H PARENT 19 7 9 13 26 32 85 51 53 62
REMARK Flexibility Score: 90.00
ROOT
ATOM      1  C   UNL     1      -3.295  -1.603  -1.368  1.00  0.00     0.002 C 
ENDROOT
BRANCH   1   2
ATOM      2  C   UNL     1      -1.907  -1.565  -0.722  1.00  0.00     0.021 C 
BRANCH   2   3
ATOM      3  C   UNL     1      -0.782  -2.423  -1.352  1.00  0.00     0.116 C 
BRANCH   3   4
ATOM      4  N   UNL     1       0.168  -1.711  -2.253  1.00  0.00    -0.356 N 
ATOM      5  C   UNL     1       1.454  -1.283  -2.384  1.00  0.00     0.225 C 
ATOM      6  O   UNL     1       1.698  -0.976  -3.571  1.00  0.00    -0.275 OA
ATOM      7  H   UNL     1      -0.323  -1.449  -3.066  1.00  0.00     0.163 HD
BRANCH   5   8
ATOM      8  C   UNL     1       2.642  -1.010  -1.366  1.00  0.00     0.101 C 
BRANCH   8   9
ATOM      9  C   UNL     1       2.811  -1.929  -0.147  1.00  0.00     0.094 C 
BRANCH   9  10
ATOM     10  N   UNL     1       1.608  -2.317   0.554  1.00  0.00    -0.348 N 
ATOM     11  C   UNL     1       0.734  -1.607   1.327  1.00  0.00     0.255 C 
ATOM     12  O   UNL     1       0.013  -2.254   2.083  1.00  0.00    -0.269 OA
ATOM     13  H   UNL     1       1.375  -3.269   0.457  1.00  0.00     0.164 HD
BRANCH  11  14
ATOM     14  C   UNL     1       0.620  -0.168   1.229  1.00  0.00     0.080 A 
ATOM     15  C   UNL     1       1.322   0.478   3.653  1.00  0.00     0.088 C 
ATOM     16  C   UNL     1       0.805   0.691   2.292  1.00  0.00     0.113 A 
ATOM     17  O   UNL     1       0.445   1.964   1.969  1.00  0.00    -0.469 OA
ATOM     18  C   UNL     1       0.022   1.940   0.687  1.00  0.00     0.196 A 
ATOM     19  C   UNL     1       0.169   0.676   0.177  1.00  0.00     0.056 A 
ENDBRANCH  11  14
ENDBRANCH   9  10
BRANCH   9  20
ATOM     20  C   UNL     1       3.893  -1.737   0.941  1.00  0.00     0.026 CG0
ATOM     21  G   UNL     1       5.048  -0.783   0.744  1.00  0.00     0.000 G0
ENDBRANCH   9  20
ENDBRANCH   8   9
BRANCH   8  22
ATOM     22  C   UNL     1       2.938   0.519  -1.290  1.00  0.00     0.015 C 
BRANCH  22  23
ATOM     23  C   UNL     1       4.214   1.097  -0.675  1.00  0.00     0.001 C 
BRANCH  23  24
ATOM     24  C   UNL     1       4.583   0.657   0.725  1.00  0.00     0.000 C 
BRANCH  24  25
ATOM     25  C   UNL     1       5.048  -0.783   0.744  1.00  0.00     0.002 CG0
ATOM     26  G   UNL     1       3.893  -1.737   0.941  1.00  0.00     0.000 G0
ENDBRANCH  24  25
ENDBRANCH  23  24
ENDBRANCH  22  23
ENDBRANCH   8  22
ENDBRANCH   5   8
ENDBRANCH   3   4
ENDBRANCH   2   3
ENDBRANCH   1   2
BRANCH   1  27
ATOM     27  C   UNL     1      -4.172  -2.794  -0.987  1.00  0.00     0.002 C 
BRANCH  27  28
ATOM     28  C   UNL     1      -4.486  -2.951   0.509  1.00  0.00     0.021 C 
BRANCH  28  29
ATOM     29  C   UNL     1      -5.094  -1.724   1.190  1.00  0.00     0.116 C 
BRANCH  29  30
ATOM     30  N   UNL     1      -6.359  -1.349   0.571  1.00  0.00    -0.352 N 
ATOM     31  C   UNL     1      -7.616  -1.403   1.118  1.00  0.00     0.251 C 
ATOM     32  H   UNL     1      -6.305  -1.015  -0.354  1.00  0.00     0.163 HD
ATOM     33  O   UNL     1      -8.615  -1.381   0.402  1.00  0.00    -0.269 OA
BRANCH  31  34
ATOM     34  C   UNL     1      -7.750  -1.463   2.585  1.00  0.00     0.039 A 
ATOM     35  C   UNL     1      -8.575  -2.424   3.172  1.00  0.00     0.014 A 
ATOM     36  C   UNL     1      -7.049  -0.544   3.373  1.00  0.00     0.014 A 
ATOM     37  C   UNL     1      -8.675  -2.480   4.563  1.00  0.00     0.010 A 
ATOM     38  C   UNL     1      -7.100  -0.645   4.757  1.00  0.00     0.010 A 
ATOM     39  C   UNL     1      -7.931  -1.598   5.365  1.00  0.00    -0.014 A 
BRANCH  39  40
ATOM     40  C   UNL     1      -8.031  -1.637   6.844  1.00  0.00     0.031 A 
ATOM     41  C   UNL     1      -8.604  -0.460   7.586  1.00  0.00     0.074 A 
ATOM     42  C   UNL     1      -7.542  -2.696   7.516  1.00  0.00     0.049 A 
ATOM     43  N   UNL     1      -8.754  -0.290   8.873  1.00  0.00    -0.248 NA
ATOM     44  C   UNL     1      -9.041   0.692   6.777  1.00  0.00     0.031 C 
ATOM     45  C   UNL     1      -6.887  -3.855   6.906  1.00  0.00     0.029 A 
ATOM     46  N   UNL     1      -7.497  -2.960   8.862  1.00  0.00    -0.354 N 
ATOM     47  C   UNL     1      -9.267   0.993   9.030  1.00  0.00     0.074 A 
ATOM     48  C   UNL     1      -9.365   1.574   7.710  1.00  0.00     0.031 C 
ATOM     49  C   UNL     1      -6.513  -4.708   7.872  1.00  0.00     0.029 A 
ATOM     50  C   UNL     1      -6.877  -4.148   9.170  1.00  0.00     0.049 A 
ATOM     51  H   UNL     1      -7.874  -2.356   9.542  1.00  0.00     0.167 HD
ATOM     52  C   UNL     1      -9.651   1.619  10.167  1.00  0.00     0.034 A 
ATOM     53  C   UNL     1      -6.628  -4.717  10.366  1.00  0.00     0.034 A 
ATOM     54  C   UNL     1      -9.584   1.016  11.470  1.00  0.00     0.049 A 
ATOM     55  C   UNL     1      -7.107  -4.021  11.611  1.00  0.00     0.074 A 
ATOM     56  C   UNL     1     -10.027   1.524  12.677  1.00  0.00     0.029 A 
ATOM     57  N   UNL     1      -9.027  -0.226  11.736  1.00  0.00    -0.354 N 
ATOM     58  N   UNL     1      -7.740  -2.878  11.726  1.00  0.00    -0.248 NA
ATOM     59  C   UNL     1      -6.874  -4.709  12.888  1.00  0.00     0.031 C 
ATOM     60  C   UNL     1      -9.710   0.601  13.679  1.00  0.00     0.029 A 
ATOM     61  C   UNL     1      -9.104  -0.498  13.091  1.00  0.00     0.049 A 
ATOM     62  H   UNL     1      -8.634  -0.825  11.061  1.00  0.00     0.167 HD
ATOM     63  C   UNL     1      -8.013  -2.727  13.081  1.00  0.00     0.074 A 
ATOM     64  C   UNL     1      -7.495  -3.908  13.742  1.00  0.00     0.031 C 
ATOM     65  C   UNL     1      -8.625  -1.701  13.722  1.00  0.00     0.034 A 
BRANCH  52  66
ATOM     66  C   UNL     1     -10.220   3.010  10.045  1.00  0.00     0.023 A 
ATOM     67  C   UNL     1     -11.483   3.197   9.445  1.00  0.00     0.012 A 
ATOM     68  C   UNL     1      -9.533   4.123  10.566  1.00  0.00     0.148 A 
ATOM     69  C   UNL     1     -12.034   4.473   9.329  1.00  0.00     0.002 A 
ATOM     70  C   UNL     1     -10.111   5.386  10.491  1.00  0.00     0.091 A 
ATOM     71  F   UNL     1      -8.326   3.930  11.115  1.00  0.00    -0.205 F 
ATOM     72  C   UNL     1     -11.354   5.564   9.861  1.00  0.00     0.022 A 
BRANCH  70  73
ATOM     73  S   UNL     1      -9.356   6.844  11.218  1.00  0.00     0.127 S 
ATOM     74  O   UNL     1      -8.985   7.609  10.028  1.00  0.00    -0.237 OA
ATOM     75  O   UNL     1     -10.464   7.412  11.987  1.00  0.00    -0.237 OA
ATOM     76  O   UNL     1      -8.241   6.363  12.022  1.00  0.00    -0.744 OA
ENDBRANCH  70  73
ENDBRANCH  52  66
BRANCH  53  77
ATOM     77  C   UNL     1      -5.953  -6.044  10.435  1.00  0.00     0.023 A 
ATOM     78  C   UNL     1      -6.686  -7.175  10.844  1.00  0.00     0.012 A 
ATOM     79  C   UNL     1      -4.600  -6.197  10.073  1.00  0.00     0.148 A 
ATOM     80  C   UNL     1      -6.076  -8.428  10.925  1.00  0.00     0.002 A 
ATOM     81  C   UNL     1      -4.014  -7.457  10.103  1.00  0.00     0.091 A 
ATOM     82  F   UNL     1      -3.917  -5.108   9.694  1.00  0.00    -0.205 F 
ATOM     83  C   UNL     1      -4.745  -8.571  10.546  1.00  0.00     0.022 A 
BRANCH  81  84
ATOM     84  S   UNL     1      -2.345  -7.760   9.511  1.00  0.00     0.127 S 
ATOM     85  O   UNL     1      -1.638  -8.066  10.752  1.00  0.00    -0.237 OA
ATOM     86  O   UNL     1      -2.544  -8.901   8.617  1.00  0.00    -0.237 OA
ATOM     87  O   UNL     1      -1.938  -6.534   8.838  1.00  0.00    -0.744 OA
ENDBRANCH  81  84
ENDBRANCH  53  77
BRANCH  65  88
ATOM     88  C   UNL     1      -8.808  -1.821  15.212  1.00  0.00     0.023 A 
ATOM     89  C   UNL     1      -7.697  -1.707  16.070  1.00  0.00     0.012 A 
ATOM     90  C   UNL     1     -10.097  -1.971  15.763  1.00  0.00     0.148 A 
ATOM     91  C   UNL     1      -7.861  -1.777  17.453  1.00  0.00     0.002 A 
ATOM     92  C   UNL     1     -10.258  -1.986  17.142  1.00  0.00     0.091 A 
ATOM     93  F   UNL     1     -11.139  -2.095  14.928  1.00  0.00    -0.205 F 
ATOM     94  C   UNL     1      -9.141  -1.903  17.988  1.00  0.00     0.022 A 
BRANCH  92  95
ATOM     95  S   UNL     1     -11.876  -2.041  17.921  1.00  0.00     0.127 S 
ATOM     96  O   UNL     1     -11.894  -3.395  18.472  1.00  0.00    -0.237 OA
ATOM     97  O   UNL     1     -11.774  -0.977  18.920  1.00  0.00    -0.237 OA
ATOM     98  O   UNL     1     -12.842  -1.785  16.861  1.00  0.00    -0.744 OA
ENDBRANCH  92  95
ENDBRANCH  65  88
ENDBRANCH  39  40
ENDBRANCH  31  34
ENDBRANCH  29  30
ENDBRANCH  28  29
ENDBRANCH  27  28
ENDBRANCH   1  27
TORSDOF 18
