REMARK SMILES CC(C)(C)c1cc2c(cc1Cl)C=C(C(=O)NCCCCCCNC(=O)c1ccc(-c3c4nc(c(-c5cccc(S(=O)(=O)[O-])c5F)c5ccc([nH]5)c(-c5cccc(S(=O)(=O)[O-])c5F)c5nc(c(-c6cccc(S(=O)(=O)[O-])c6F)c6ccc3[nH]6)C=C5)C=C4)cc1)[C@@H](C(F)(F)F)O2
REMARK SMILES IDX 20 1 19 2 18 3 17 4 16 5 14 6 15 7 13 9 5 10 6 11 10 12 7 13
REMARK SMILES IDX 9 14 11 15 8 16 94 17 12 18 89 19 2 20 1 21 3 22 4 23 90 24
REMARK SMILES IDX 91 25 92 26 93 27 21 28 22 29 23 30 24 31 25 33 26 34 27 35
REMARK SMILES IDX 88 36 28 37 87 38 29 39 30 40 31 41 81 42 32 43 86 44 80 45
REMARK SMILES IDX 82 46 33 47 85 48 79 49 78 50 34 52 66 53 46 54 65 55 47 56
REMARK SMILES IDX 50 57 64 58 83 59 48 60 49 61 63 63 84 64 51 65 35 66 36 67
REMARK SMILES IDX 44 68 37 69 39 70 45 71 38 72 40 73 41 74 42 75 43 76 67 77
REMARK SMILES IDX 68 78 76 79 69 80 71 81 77 82 70 83 72 84 73 85 74 86 75 87
REMARK SMILES IDX 52 88 53 89 61 90 54 91 56 92 62 93 55 94 57 95 58 96 59 97
REMARK SMILES IDX 60 98
REMARK H PARENT 16 8 23 32 82 51 50 62
REMARK Flexibility Score: inf
ROOT
ATOM      1  C   UNL     1       0.085  13.303   1.068  1.00  0.00     0.002 C 
ENDROOT
BRANCH   1   2
ATOM      2  C   UNL     1      -0.528  12.294   2.049  1.00  0.00     0.002 C 
BRANCH   2   3
ATOM      3  C   UNL     1      -0.736  10.878   1.502  1.00  0.00     0.021 C 
BRANCH   3   4
ATOM      4  C   UNL     1       0.528  10.229   0.945  1.00  0.00     0.116 C 
BRANCH   4   5
ATOM      5  N   UNL     1       1.337   9.627   1.992  1.00  0.00    -0.352 N 
ATOM      6  C   UNL     1       1.801   8.395   2.304  1.00  0.00     0.251 C 
ATOM      7  O   UNL     1       2.510   8.344   3.316  1.00  0.00    -0.270 OA
ATOM      8  H   UNL     1       1.625  10.297   2.652  1.00  0.00     0.163 HD
BRANCH   6   9
ATOM      9  C   UNL     1       1.518   7.140   1.543  1.00  0.00     0.067 C 
ATOM     10  C   UNL     1       1.055   2.244   0.181  1.00  0.00    -0.020 A 
ATOM     11  C   UNL     1       0.575   3.493  -0.286  1.00  0.00     0.053 A 
ATOM     12  C   UNL     1       1.902   2.300   1.308  1.00  0.00     0.045 A 
ATOM     13  C   UNL     1       0.883   4.702   0.334  1.00  0.00     0.128 A 
ATOM     14  C   UNL     1       2.201   3.529   1.937  1.00  0.00     0.032 A 
ATOM     15  Cl  UNL     1       2.666   0.940   2.053  1.00  0.00    -0.084 Cl
ATOM     16  C   UNL     1       1.685   4.732   1.460  1.00  0.00     0.019 A 
ATOM     17  O   UNL     1       0.309   5.814  -0.203  1.00  0.00    -0.475 OA
ATOM     18  C   UNL     1       1.923   6.000   2.135  1.00  0.00     0.025 C 
ATOM     19  C   UNL     1       0.865   7.097   0.188  1.00  0.00     0.314 C 
BRANCH  10  20
ATOM     20  C   UNL     1       0.578   0.998  -0.606  1.00  0.00    -0.012 C 
ATOM     21  C   UNL     1       0.990  -0.389  -0.076  1.00  0.00     0.016 C 
ATOM     22  C   UNL     1       1.112   1.085  -2.057  1.00  0.00     0.016 C 
ATOM     23  C   UNL     1      -0.975   0.981  -0.643  1.00  0.00     0.016 C 
ENDBRANCH  10  20
BRANCH  19  24
ATOM     24  C   UNL     1       1.796   7.595  -0.931  1.00  0.00     0.429 C 
ATOM     25  F   UNL     1       1.098   7.814  -2.071  1.00  0.00    -0.167 F 
ATOM     26  F   UNL     1       2.400   8.766  -0.621  1.00  0.00    -0.167 F 
ATOM     27  F   UNL     1       2.777   6.709  -1.217  1.00  0.00    -0.167 F 
ENDBRANCH  19  24
ENDBRANCH   6   9
ENDBRANCH   4   5
ENDBRANCH   3   4
ENDBRANCH   2   3
ENDBRANCH   1   2
BRANCH   1  28
ATOM     28  C   UNL     1      -0.554  13.354  -0.322  1.00  0.00     0.021 C 
BRANCH  28  29
ATOM     29  C   UNL     1      -2.047  13.659  -0.336  1.00  0.00     0.116 C 
BRANCH  29  30
ATOM     30  N   UNL     1      -2.352  14.978   0.191  1.00  0.00    -0.352 N 
ATOM     31  C   UNL     1      -3.114  15.976  -0.370  1.00  0.00     0.251 C 
ATOM     32  H   UNL     1      -1.960  15.186   1.069  1.00  0.00     0.163 HD
ATOM     33  O   UNL     1      -3.146  17.089   0.147  1.00  0.00    -0.269 OA
BRANCH  31  34
ATOM     34  C   UNL     1      -3.861  15.704  -1.616  1.00  0.00     0.039 A 
ATOM     35  C   UNL     1      -4.648  14.555  -1.736  1.00  0.00     0.014 A 
ATOM     36  C   UNL     1      -3.742  16.593  -2.688  1.00  0.00     0.014 A 
ATOM     37  C   UNL     1      -5.193  14.219  -2.972  1.00  0.00     0.010 A 
ATOM     38  C   UNL     1      -4.349  16.287  -3.909  1.00  0.00     0.010 A 
ATOM     39  C   UNL     1      -5.040  15.076  -4.074  1.00  0.00    -0.014 A 
BRANCH  39  40
ATOM     40  C   UNL     1      -5.607  14.693  -5.392  1.00  0.00     0.031 A 
ATOM     41  C   UNL     1      -4.706  14.416  -6.566  1.00  0.00     0.074 A 
ATOM     42  C   UNL     1      -6.942  14.573  -5.526  1.00  0.00     0.049 A 
ATOM     43  N   UNL     1      -5.030  14.095  -7.791  1.00  0.00    -0.248 NA
ATOM     44  C   UNL     1      -3.254  14.513  -6.338  1.00  0.00     0.031 C 
ATOM     45  C   UNL     1      -7.920  14.823  -4.466  1.00  0.00     0.029 A 
ATOM     46  N   UNL     1      -7.706  14.208  -6.605  1.00  0.00    -0.354 N 
ATOM     47  C   UNL     1      -3.833  13.995  -8.490  1.00  0.00     0.074 A 
ATOM     48  C   UNL     1      -2.771  14.285  -7.553  1.00  0.00     0.031 C 
ATOM     49  C   UNL     1      -9.151  14.575  -4.937  1.00  0.00     0.029 A 
ATOM     50  C   UNL     1      -9.055  14.197  -6.343  1.00  0.00     0.049 A 
ATOM     51  H   UNL     1      -7.324  13.976  -7.482  1.00  0.00     0.167 HD
ATOM     52  C   UNL     1      -3.637  13.672  -9.790  1.00  0.00     0.034 A 
ATOM     53  C   UNL     1     -10.102  13.926  -7.146  1.00  0.00     0.034 A 
ATOM     54  C   UNL     1      -4.688  13.327 -10.709  1.00  0.00     0.049 A 
ATOM     55  C   UNL     1      -9.855  13.560  -8.579  1.00  0.00     0.074 A 
ATOM     56  C   UNL     1      -4.576  12.945 -12.034  1.00  0.00     0.029 A 
ATOM     57  N   UNL     1      -6.038  13.313 -10.399  1.00  0.00    -0.354 N 
ATOM     58  N   UNL     1      -8.712  13.410  -9.202  1.00  0.00    -0.248 NA
ATOM     59  C   UNL     1     -11.037  13.318  -9.419  1.00  0.00     0.031 C 
ATOM     60  C   UNL     1      -5.862  12.698 -12.527  1.00  0.00     0.029 A 
ATOM     61  C   UNL     1      -6.771  12.926 -11.507  1.00  0.00     0.049 A 
ATOM     62  H   UNL     1      -6.419  13.544  -9.521  1.00  0.00     0.167 HD
ATOM     63  C   UNL     1      -9.034  13.048 -10.504  1.00  0.00     0.074 A 
ATOM     64  C   UNL     1     -10.480  12.978 -10.575  1.00  0.00     0.031 C 
ATOM     65  C   UNL     1      -8.206  12.818 -11.550  1.00  0.00     0.034 A 
BRANCH  52  66
ATOM     66  C   UNL     1      -2.223  13.619 -10.299  1.00  0.00     0.023 A 
ATOM     67  C   UNL     1      -1.447  12.471 -10.048  1.00  0.00     0.012 A 
ATOM     68  C   UNL     1      -1.702  14.651 -11.103  1.00  0.00     0.148 A 
ATOM     69  C   UNL     1      -0.166  12.352 -10.585  1.00  0.00     0.002 A 
ATOM     70  C   UNL     1      -0.434  14.514 -11.656  1.00  0.00     0.091 A 
ATOM     71  F   UNL     1      -2.456  15.738 -11.315  1.00  0.00    -0.205 F 
ATOM     72  C   UNL     1       0.336  13.367 -11.396  1.00  0.00     0.022 A 
BRANCH  70  73
ATOM     73  S   UNL     1       0.288  15.738 -12.755  1.00  0.00     0.127 S 
ATOM     74  O   UNL     1       1.405  16.232 -11.951  1.00  0.00    -0.237 OA
ATOM     75  O   UNL     1       0.678  14.924 -13.906  1.00  0.00    -0.237 OA
ATOM     76  O   UNL     1      -0.762  16.711 -13.021  1.00  0.00    -0.744 OA
ENDBRANCH  70  73
ENDBRANCH  52  66
BRANCH  53  77
ATOM     77  C   UNL     1     -11.476  13.950  -6.577  1.00  0.00     0.023 A 
ATOM     78  C   UNL     1     -12.133  12.732  -6.321  1.00  0.00     0.012 A 
ATOM     79  C   UNL     1     -12.094  15.161  -6.212  1.00  0.00     0.148 A 
ATOM     80  C   UNL     1     -13.386  12.720  -5.709  1.00  0.00     0.002 A 
ATOM     81  C   UNL     1     -13.322  15.140  -5.563  1.00  0.00     0.091 A 
ATOM     82  F   UNL     1     -11.449  16.306  -6.476  1.00  0.00    -0.205 F 
ATOM     83  C   UNL     1     -13.975  13.921  -5.320  1.00  0.00     0.022 A 
BRANCH  81  84
ATOM     84  S   UNL     1     -14.102  16.623  -4.918  1.00  0.00     0.127 S 
ATOM     85  O   UNL     1     -15.301  16.714  -5.746  1.00  0.00    -0.237 OA
ATOM     86  O   UNL     1     -14.342  16.251  -3.523  1.00  0.00    -0.237 OA
ATOM     87  O   UNL     1     -13.130  17.693  -5.099  1.00  0.00    -0.744 OA
ENDBRANCH  81  84
ENDBRANCH  53  77
BRANCH  65  88
ATOM     88  C   UNL     1      -8.828  12.469 -12.872  1.00  0.00     0.023 A 
ATOM     89  C   UNL     1      -9.350  13.500 -13.677  1.00  0.00     0.012 A 
ATOM     90  C   UNL     1      -8.799  11.149 -13.361  1.00  0.00     0.148 A 
ATOM     91  C   UNL     1      -9.843  13.220 -14.950  1.00  0.00     0.002 A 
ATOM     92  C   UNL     1      -9.265  10.883 -14.643  1.00  0.00     0.091 A 
ATOM     93  F   UNL     1      -8.310  10.185 -12.567  1.00  0.00    -0.205 F 
ATOM     94  C   UNL     1      -9.791  11.916 -15.437  1.00  0.00     0.022 A 
BRANCH  92  95
ATOM     95  S   UNL     1      -9.172   9.248 -15.382  1.00  0.00     0.127 S 
ATOM     96  O   UNL     1     -10.579   8.850 -15.400  1.00  0.00    -0.237 OA
ATOM     97  O   UNL     1      -8.602   9.535 -16.699  1.00  0.00    -0.237 OA
ATOM     98  O   UNL     1      -8.312   8.460 -14.509  1.00  0.00    -0.744 OA
ENDBRANCH  92  95
ENDBRANCH  65  88
ENDBRANCH  39  40
ENDBRANCH  31  34
ENDBRANCH  29  30
ENDBRANCH  28  29
ENDBRANCH   1  28
TORSDOF 18
