REMARK SMILES CC/C(=C/C(=O)[C@H](Cc1ccc(Cl)cc1Cl)C(=O)NCCCCCCNC(=O)c1ccc(-c2c3nc(c(-c4cccc(S(=O)(=O)[O-])c4F)c4ccc([nH]4)c(-c4cccc(S(=O)(=O)[O-])c4F)c4nc(c(-c5cccc(S(=O)(=O)[O-])c5F)c5ccc2[nH]5)C=C4)C=C3)cc1)N(C)C
REMARK SMILES IDX 22 1 21 2 20 3 19 4 17 5 18 6 7 8 5 9 6 10 4 11 3 12 2 13
REMARK SMILES IDX 1 14 92 15 93 16 94 17 8 18 9 19 10 20 15 21 11 22 14 23
REMARK SMILES IDX 16 24 12 25 13 26 23 27 24 28 25 29 26 30 27 31 28 33 29 34
REMARK SMILES IDX 30 35 91 36 31 37 90 38 32 39 33 40 34 41 84 42 35 43 89 44
REMARK SMILES IDX 83 45 85 46 36 47 88 48 82 49 81 50 37 52 69 53 49 54 68 55
REMARK SMILES IDX 50 56 53 57 67 58 86 59 51 60 52 61 66 63 87 64 54 65 38 66
REMARK SMILES IDX 39 67 47 68 40 69 42 70 48 71 41 72 43 73 44 74 45 75 46 76
REMARK SMILES IDX 70 77 71 78 79 79 72 80 74 81 80 82 73 83 75 84 76 85 77 86
REMARK SMILES IDX 78 87 55 88 56 89 64 90 57 91 59 92 65 93 58 94 60 95 61 96
REMARK SMILES IDX 62 97 63 98
REMARK H PARENT 19 7 26 32 85 51 53 62
REMARK Flexibility Score: inf
ROOT
ATOM      1  C   UNL     1       1.895   0.541  -0.556  1.00  0.00     0.002 C 
ENDROOT
BRANCH   1   2
ATOM      2  C   UNL     1       1.227  -0.397   0.458  1.00  0.00     0.021 C 
BRANCH   2   3
ATOM      3  C   UNL     1       1.818  -0.249   1.842  1.00  0.00     0.116 C 
BRANCH   3   4
ATOM      4  N   UNL     1       1.551   1.069   2.381  1.00  0.00    -0.355 N 
ATOM      5  C   UNL     1       1.455   1.487   3.664  1.00  0.00     0.231 C 
ATOM      6  O   UNL     1       1.207   2.682   3.862  1.00  0.00    -0.274 OA
ATOM      7  H   UNL     1       1.418   1.773   1.706  1.00  0.00     0.163 HD
BRANCH   5   8
ATOM      8  C   UNL     1       1.532   0.538   4.824  1.00  0.00     0.154 C 
BRANCH   8   9
ATOM      9  C   UNL     1       2.734  -0.399   4.889  1.00  0.00     0.170 C 
ATOM     10  O   UNL     1       2.691  -1.363   5.671  1.00  0.00    -0.294 OA
BRANCH   9  11
ATOM     11  C   UNL     1       4.005  -0.300   4.069  1.00  0.00     0.069 C 
ATOM     12  C   UNL     1       4.723   0.541   3.279  1.00  0.00     0.016 C 
BRANCH  12  13
ATOM     13  C   UNL     1       5.904  -0.133   2.537  1.00  0.00     0.050 C 
ATOM     14  C   UNL     1       5.540  -0.627   1.136  1.00  0.00     0.010 C 
ENDBRANCH  12  13
BRANCH  12  15
ATOM     15  N   UNL     1       4.565   1.912   3.009  1.00  0.00    -0.381 N 
ATOM     16  C   UNL     1       4.936   2.544   1.728  1.00  0.00     0.143 C 
ATOM     17  C   UNL     1       4.160   2.904   4.003  1.00  0.00     0.143 C 
ENDBRANCH  12  15
ENDBRANCH   9  11
ENDBRANCH   8   9
BRANCH   8  18
ATOM     18  C   UNL     1       0.148  -0.185   5.093  1.00  0.00     0.059 C 
BRANCH  18  19
ATOM     19  C   UNL     1      -1.055   0.430   4.374  1.00  0.00    -0.028 A 
ATOM     20  C   UNL     1      -1.665   1.579   4.900  1.00  0.00     0.007 A 
ATOM     21  C   UNL     1      -1.407   0.046   3.071  1.00  0.00     0.045 A 
ATOM     22  C   UNL     1      -2.378   2.443   4.063  1.00  0.00     0.021 A 
ATOM     23  C   UNL     1      -2.003   0.961   2.202  1.00  0.00     0.041 A 
ATOM     24  Cl  UNL     1      -1.185  -1.576   2.522  1.00  0.00    -0.084 Cl
ATOM     25  C   UNL     1      -2.444   2.180   2.697  1.00  0.00     0.042 A 
ATOM     26  Cl  UNL     1      -3.073   3.368   1.623  1.00  0.00    -0.084 Cl
ENDBRANCH  18  19
ENDBRANCH   8  18
ENDBRANCH   5   8
ENDBRANCH   3   4
ENDBRANCH   2   3
ENDBRANCH   1   2
BRANCH   1  27
ATOM     27  C   UNL     1       2.763  -0.164  -1.595  1.00  0.00     0.002 C 
BRANCH  27  28
ATOM     28  C   UNL     1       2.103  -1.348  -2.292  1.00  0.00     0.021 C 
BRANCH  28  29
ATOM     29  C   UNL     1       0.678  -1.072  -2.740  1.00  0.00     0.116 C 
BRANCH  29  30
ATOM     30  N   UNL     1       0.652  -0.098  -3.818  1.00  0.00    -0.352 N 
ATOM     31  C   UNL     1       0.246  -0.313  -5.118  1.00  0.00     0.251 C 
ATOM     32  H   UNL     1       0.956   0.812  -3.597  1.00  0.00     0.163 HD
ATOM     33  O   UNL     1       0.505   0.467  -6.006  1.00  0.00    -0.269 OA
BRANCH  31  34
ATOM     34  C   UNL     1      -0.513  -1.555  -5.373  1.00  0.00     0.039 A 
ATOM     35  C   UNL     1      -0.031  -2.476  -6.301  1.00  0.00     0.014 A 
ATOM     36  C   UNL     1      -1.632  -1.837  -4.583  1.00  0.00     0.014 A 
ATOM     37  C   UNL     1      -0.668  -3.712  -6.419  1.00  0.00     0.010 A 
ATOM     38  C   UNL     1      -2.203  -3.099  -4.639  1.00  0.00     0.010 A 
ATOM     39  C   UNL     1      -1.746  -4.038  -5.577  1.00  0.00    -0.014 A 
BRANCH  39  40
ATOM     40  C   UNL     1      -2.453  -5.336  -5.693  1.00  0.00     0.031 A 
ATOM     41  C   UNL     1      -3.907  -5.347  -6.083  1.00  0.00     0.074 A 
ATOM     42  C   UNL     1      -1.822  -6.482  -5.374  1.00  0.00     0.049 A 
ATOM     43  N   UNL     1      -4.726  -6.359  -6.187  1.00  0.00    -0.248 NA
ATOM     44  C   UNL     1      -4.534  -4.041  -6.358  1.00  0.00     0.031 C 
ATOM     45  C   UNL     1      -0.440  -6.588  -4.899  1.00  0.00     0.029 A 
ATOM     46  N   UNL     1      -2.270  -7.779  -5.379  1.00  0.00    -0.354 N 
ATOM     47  C   UNL     1      -5.965  -5.812  -6.497  1.00  0.00     0.074 A 
ATOM     48  C   UNL     1      -5.804  -4.376  -6.515  1.00  0.00     0.031 C 
ATOM     49  C   UNL     1      -0.151  -7.880  -4.669  1.00  0.00     0.029 A 
ATOM     50  C   UNL     1      -1.331  -8.691  -4.957  1.00  0.00     0.049 A 
ATOM     51  H   UNL     1      -3.179  -8.033  -5.659  1.00  0.00     0.167 HD
ATOM     52  C   UNL     1      -7.125  -6.446  -6.782  1.00  0.00     0.034 A 
ATOM     53  C   UNL     1      -1.415 -10.029  -4.822  1.00  0.00     0.034 A 
ATOM     54  C   UNL     1      -7.261  -7.875  -6.823  1.00  0.00     0.049 A 
ATOM     55  C   UNL     1      -2.700 -10.716  -5.204  1.00  0.00     0.074 A 
ATOM     56  C   UNL     1      -8.364  -8.625  -7.189  1.00  0.00     0.029 A 
ATOM     57  N   UNL     1      -6.258  -8.771  -6.486  1.00  0.00    -0.354 N 
ATOM     58  N   UNL     1      -3.815 -10.192  -5.651  1.00  0.00    -0.248 NA
ATOM     59  C   UNL     1      -2.725 -12.182  -5.101  1.00  0.00     0.031 C 
ATOM     60  C   UNL     1      -8.031  -9.977  -7.059  1.00  0.00     0.029 A 
ATOM     61  C   UNL     1      -6.715 -10.068  -6.634  1.00  0.00     0.049 A 
ATOM     62  H   UNL     1      -5.355  -8.521  -6.186  1.00  0.00     0.167 HD
ATOM     63  C   UNL     1      -4.660 -11.262  -5.920  1.00  0.00     0.074 A 
ATOM     64  C   UNL     1      -3.919 -12.467  -5.604  1.00  0.00     0.031 C 
ATOM     65  C   UNL     1      -5.939 -11.252  -6.372  1.00  0.00     0.034 A 
BRANCH  52  66
ATOM     66  C   UNL     1      -8.316  -5.596  -7.139  1.00  0.00     0.023 A 
ATOM     67  C   UNL     1      -8.330  -4.900  -8.366  1.00  0.00     0.012 A 
ATOM     68  C   UNL     1      -9.433  -5.514  -6.286  1.00  0.00     0.148 A 
ATOM     69  C   UNL     1      -9.418  -4.105  -8.721  1.00  0.00     0.002 A 
ATOM     70  C   UNL     1     -10.535  -4.756  -6.669  1.00  0.00     0.091 A 
ATOM     71  F   UNL     1      -9.393  -6.162  -5.114  1.00  0.00    -0.205 F 
ATOM     72  C   UNL     1     -10.523  -4.041  -7.878  1.00  0.00     0.022 A 
BRANCH  70  73
ATOM     73  S   UNL     1     -12.041  -4.673  -5.693  1.00  0.00     0.127 S 
ATOM     74  O   UNL     1     -11.995  -3.299  -5.197  1.00  0.00    -0.237 OA
ATOM     75  O   UNL     1     -13.073  -4.924  -6.700  1.00  0.00    -0.237 OA
ATOM     76  O   UNL     1     -11.919  -5.709  -4.678  1.00  0.00    -0.744 OA
ENDBRANCH  70  73
ENDBRANCH  52  66
BRANCH  53  77
ATOM     77  C   UNL     1      -0.225 -10.814  -4.385  1.00  0.00     0.023 A 
ATOM     78  C   UNL     1       0.429 -11.648  -5.314  1.00  0.00     0.012 A 
ATOM     79  C   UNL     1       0.276 -10.727  -3.072  1.00  0.00     0.148 A 
ATOM     80  C   UNL     1       1.537 -12.406  -4.935  1.00  0.00     0.002 A 
ATOM     81  C   UNL     1       1.413 -11.444  -2.715  1.00  0.00     0.091 A 
ATOM     82  F   UNL     1      -0.365  -9.938  -2.199  1.00  0.00    -0.205 F 
ATOM     83  C   UNL     1       2.035 -12.298  -3.640  1.00  0.00     0.022 A 
BRANCH  81  84
ATOM     84  S   UNL     1       2.200 -11.265  -1.110  1.00  0.00     0.127 S 
ATOM     85  O   UNL     1       1.871 -12.536  -0.472  1.00  0.00    -0.237 OA
ATOM     86  O   UNL     1       3.607 -11.105  -1.479  1.00  0.00    -0.237 OA
ATOM     87  O   UNL     1       1.601 -10.079  -0.512  1.00  0.00    -0.744 OA
ENDBRANCH  81  84
ENDBRANCH  53  77
BRANCH  65  88
ATOM     88  C   UNL     1      -6.612 -12.580  -6.594  1.00  0.00     0.023 A 
ATOM     89  C   UNL     1      -7.025 -13.350  -5.489  1.00  0.00     0.012 A 
ATOM     90  C   UNL     1      -6.913 -13.021  -7.898  1.00  0.00     0.148 A 
ATOM     91  C   UNL     1      -7.701 -14.554  -5.679  1.00  0.00     0.002 A 
ATOM     92  C   UNL     1      -7.630 -14.197  -8.078  1.00  0.00     0.091 A 
ATOM     93  F   UNL     1      -6.495 -12.282  -8.936  1.00  0.00    -0.205 F 
ATOM     94  C   UNL     1      -8.014 -14.970  -6.971  1.00  0.00     0.022 A 
BRANCH  92  95
ATOM     95  S   UNL     1      -8.165 -14.757  -9.698  1.00  0.00     0.127 S 
ATOM     96  O   UNL     1      -7.270 -15.890  -9.932  1.00  0.00    -0.237 OA
ATOM     97  O   UNL     1      -9.561 -15.123  -9.456  1.00  0.00    -0.237 OA
ATOM     98  O   UNL     1      -7.985 -13.623 -10.594  1.00  0.00    -0.744 OA
ENDBRANCH  92  95
ENDBRANCH  65  88
ENDBRANCH  39  40
ENDBRANCH  31  34
ENDBRANCH  29  30
ENDBRANCH  28  29
ENDBRANCH  27  28
ENDBRANCH   1  27
TORSDOF 22
