REMARK SMILES Cc1cc(C)c(C#N)c(NC[C@H](CC(C)C)C(=O)NCCCCCCNC(=O)c2ccc(-c3c4nc(c(-c5cccc(S(=O)(=O)[O-])c5F)c5ccc([nH]5)c(-c5cccc(S(=O)(=O)[O-])c5F)c5nc(c(-c6cccc(S(=O)(=O)[O-])c6F)c6ccc3[nH]6)C=C5)C=C4)cc2)n1
REMARK SMILES IDX 22 1 21 2 20 3 19 4 17 5 18 6 12 8 11 9 10 10 9 12 1 13 2 14
REMARK SMILES IDX 3 15 92 16 4 17 5 18 6 19 7 20 8 21 13 22 14 23 15 24 16 25
REMARK SMILES IDX 23 26 24 27 25 28 26 29 27 30 28 32 29 33 30 34 91 35 31 36
REMARK SMILES IDX 90 37 32 38 33 39 34 40 84 41 35 42 89 43 83 44 85 45 36 46
REMARK SMILES IDX 88 47 82 48 81 49 37 51 69 52 49 53 68 54 50 55 53 56 67 57
REMARK SMILES IDX 86 58 51 59 52 60 66 62 87 63 54 64 38 65 39 66 47 67 40 68
REMARK SMILES IDX 42 69 48 70 41 71 43 72 44 73 45 74 46 75 70 76 71 77 79 78
REMARK SMILES IDX 72 79 74 80 80 81 73 82 75 83 76 84 77 85 78 86 55 87 56 88
REMARK SMILES IDX 64 89 57 90 59 91 65 92 58 93 60 94 61 95 62 96 63 97
REMARK H PARENT 19 7 10 11 26 31 85 50 53 61
REMARK Flexibility Score: inf
ROOT
ATOM      1  C   UNL     1       6.635   5.199   2.028  1.00  0.00     0.002 C 
ENDROOT
BRANCH   1   2
ATOM      2  C   UNL     1       5.290   4.592   1.650  1.00  0.00     0.021 C 
BRANCH   2   3
ATOM      3  C   UNL     1       4.644   5.183   0.393  1.00  0.00     0.116 C 
BRANCH   3   4
ATOM      4  N   UNL     1       4.724   4.275  -0.729  1.00  0.00    -0.356 N 
ATOM      5  C   UNL     1       3.772   3.620  -1.435  1.00  0.00     0.224 C 
ATOM      6  O   UNL     1       4.179   2.981  -2.414  1.00  0.00    -0.275 OA
ATOM      7  H   UNL     1       5.642   4.100  -1.038  1.00  0.00     0.163 HD
BRANCH   5   8
ATOM      8  C   UNL     1       2.273   3.611  -1.103  1.00  0.00     0.098 C 
BRANCH   8   9
ATOM      9  C   UNL     1       1.452   4.819  -1.584  1.00  0.00     0.128 C 
BRANCH   9  10
ATOM     10  N   UNL     1       1.889   6.138  -1.185  1.00  0.00    -0.368 N 
ATOM     11  H   UNL     1       2.451   6.175  -0.377  1.00  0.00     0.162 HD
BRANCH  10  12
ATOM     12  C   UNL     1       1.623   7.346  -1.783  1.00  0.00     0.144 A 
ATOM     13  C   UNL     1       1.794  10.729  -0.283  1.00  0.00     0.067 C 
ATOM     14  C   UNL     1       1.617   9.650  -1.311  1.00  0.00     0.040 A 
ATOM     15  C   UNL     1       1.278   9.973  -2.614  1.00  0.00     0.028 A 
ATOM     16  N   UNL     1       1.800   8.367  -0.907  1.00  0.00    -0.235 NA
ATOM     17  C   UNL     1       1.101   8.943  -3.537  1.00  0.00    -0.028 A 
ATOM     18  C   UNL     1       0.748   9.282  -4.962  1.00  0.00     0.046 C 
ATOM     19  C   UNL     1       1.260   7.603  -3.111  1.00  0.00     0.097 A 
BRANCH  19  20
ATOM     20  C   UNL     1       1.030   6.574  -4.077  1.00  0.00     0.103 C 
ATOM     21  N   UNL     1       0.805   5.784  -4.902  1.00  0.00    -0.192 NA
ENDBRANCH  19  20
ENDBRANCH  10  12
ENDBRANCH   9  10
ENDBRANCH   8   9
BRANCH   8  22
ATOM     22  C   UNL     1       1.782   2.801   0.121  1.00  0.00     0.018 C 
BRANCH  22  23
ATOM     23  C   UNL     1       2.161   3.201   1.547  1.00  0.00    -0.017 C 
ATOM     24  C   UNL     1       1.433   4.436   2.063  1.00  0.00     0.007 C 
ATOM     25  C   UNL     1       1.933   2.045   2.529  1.00  0.00     0.007 C 
ENDBRANCH  22  23
ENDBRANCH   8  22
ENDBRANCH   5   8
ENDBRANCH   3   4
ENDBRANCH   2   3
ENDBRANCH   1   2
BRANCH   1  26
ATOM     26  C   UNL     1       6.596   6.706   2.293  1.00  0.00     0.002 C 
BRANCH  26  27
ATOM     27  C   UNL     1       5.568   7.162   3.334  1.00  0.00     0.021 C 
BRANCH  27  28
ATOM     28  C   UNL     1       5.695   6.486   4.697  1.00  0.00     0.116 C 
BRANCH  28  29
ATOM     29  N   UNL     1       7.053   6.570   5.213  1.00  0.00    -0.352 N 
ATOM     30  C   UNL     1       7.542   7.249   6.297  1.00  0.00     0.251 C 
ATOM     31  H   UNL     1       7.724   6.060   4.704  1.00  0.00     0.163 HD
ATOM     32  O   UNL     1       8.751   7.440   6.401  1.00  0.00    -0.269 OA
BRANCH  30  33
ATOM     33  C   UNL     1       6.620   7.743   7.339  1.00  0.00     0.039 A 
ATOM     34  C   UNL     1       6.855   8.995   7.911  1.00  0.00     0.014 A 
ATOM     35  C   UNL     1       5.549   6.958   7.776  1.00  0.00     0.014 A 
ATOM     36  C   UNL     1       5.990   9.475   8.895  1.00  0.00     0.010 A 
ATOM     37  C   UNL     1       4.638   7.477   8.690  1.00  0.00     0.010 A 
ATOM     38  C   UNL     1       4.858   8.732   9.271  1.00  0.00    -0.014 A 
BRANCH  38  39
ATOM     39  C   UNL     1       3.894   9.270  10.263  1.00  0.00     0.031 A 
ATOM     40  C   UNL     1       3.657   8.561  11.567  1.00  0.00     0.074 A 
ATOM     41  C   UNL     1       3.188  10.376   9.958  1.00  0.00     0.049 A 
ATOM     42  N   UNL     1       2.876   8.902  12.559  1.00  0.00    -0.248 NA
ATOM     43  C   UNL     1       4.371   7.291  11.776  1.00  0.00     0.031 C 
ATOM     44  C   UNL     1       3.279  11.114   8.696  1.00  0.00     0.029 A 
ATOM     45  N   UNL     1       2.252  11.069  10.682  1.00  0.00    -0.354 N 
ATOM     46  C   UNL     1       2.976   7.876  13.492  1.00  0.00     0.074 A 
ATOM     47  C   UNL     1       3.861   6.881  12.928  1.00  0.00     0.031 C 
ATOM     48  C   UNL     1       2.463  12.177   8.750  1.00  0.00     0.029 A 
ATOM     49  C   UNL     1       1.760  12.173  10.028  1.00  0.00     0.049 A 
ATOM     50  H   UNL     1       1.961  10.802  11.583  1.00  0.00     0.167 HD
ATOM     51  C   UNL     1       2.401   7.780  14.715  1.00  0.00     0.034 A 
ATOM     52  C   UNL     1       0.846  13.083  10.415  1.00  0.00     0.034 A 
ATOM     53  C   UNL     1       1.526   8.778  15.271  1.00  0.00     0.049 A 
ATOM     54  C   UNL     1       0.224  12.956  11.777  1.00  0.00     0.074 A 
ATOM     55  C   UNL     1       0.958   8.820  16.532  1.00  0.00     0.029 A 
ATOM     56  N   UNL     1       1.066   9.896  14.590  1.00  0.00    -0.354 N 
ATOM     57  N   UNL     1       0.450  12.063  12.710  1.00  0.00    -0.248 NA
ATOM     58  C   UNL     1      -0.755  13.985  12.152  1.00  0.00     0.031 C 
ATOM     59  C   UNL     1       0.107   9.929  16.591  1.00  0.00     0.029 A 
ATOM     60  C   UNL     1       0.195  10.617  15.391  1.00  0.00     0.049 A 
ATOM     61  H   UNL     1       1.322  10.141  13.671  1.00  0.00     0.167 HD
ATOM     62  C   UNL     1      -0.329  12.443  13.798  1.00  0.00     0.074 A 
ATOM     63  C   UNL     1      -1.015  13.660  13.411  1.00  0.00     0.031 C 
ATOM     64  C   UNL     1      -0.466  11.838  15.005  1.00  0.00     0.034 A 
BRANCH  51  65
ATOM     65  C   UNL     1       2.706   6.546  15.530  1.00  0.00     0.023 A 
ATOM     66  C   UNL     1       4.014   6.315  16.007  1.00  0.00     0.012 A 
ATOM     67  C   UNL     1       1.692   5.617  15.835  1.00  0.00     0.148 A 
ATOM     68  C   UNL     1       4.321   5.153  16.715  1.00  0.00     0.002 A 
ATOM     69  C   UNL     1       1.992   4.490  16.590  1.00  0.00     0.091 A 
ATOM     70  F   UNL     1       0.457   5.838  15.362  1.00  0.00    -0.205 F 
ATOM     71  C   UNL     1       3.309   4.246  17.013  1.00  0.00     0.022 A 
BRANCH  69  72
ATOM     72  S   UNL     1       0.742   3.306  17.099  1.00  0.00     0.127 S 
ATOM     73  O   UNL     1       1.076   2.149  16.269  1.00  0.00    -0.237 OA
ATOM     74  O   UNL     1       1.038   3.140  18.522  1.00  0.00    -0.237 OA
ATOM     75  O   UNL     1      -0.542   3.931  16.815  1.00  0.00    -0.744 OA
ENDBRANCH  69  72
ENDBRANCH  51  65
BRANCH  52  76
ATOM     76  C   UNL     1       0.525  14.236   9.528  1.00  0.00     0.023 A 
ATOM     77  C   UNL     1       0.941  15.529   9.902  1.00  0.00     0.012 A 
ATOM     78  C   UNL     1      -0.150  14.056   8.306  1.00  0.00     0.148 A 
ATOM     79  C   UNL     1       0.662  16.628   9.089  1.00  0.00     0.002 A 
ATOM     80  C   UNL     1      -0.376  15.147   7.475  1.00  0.00     0.091 A 
ATOM     81  F   UNL     1      -0.535  12.817   7.971  1.00  0.00    -0.205 F 
ATOM     82  C   UNL     1       0.013  16.436   7.873  1.00  0.00     0.022 A 
BRANCH  80  83
ATOM     83  S   UNL     1      -1.093  14.983   5.837  1.00  0.00     0.127 S 
ATOM     84  O   UNL     1      -2.330  15.748   5.973  1.00  0.00    -0.237 OA
ATOM     85  O   UNL     1      -0.070  15.608   4.999  1.00  0.00    -0.237 OA
ATOM     86  O   UNL     1      -1.264  13.553   5.617  1.00  0.00    -0.744 OA
ENDBRANCH  80  83
ENDBRANCH  52  76
BRANCH  64  87
ATOM     87  C   UNL     1      -1.367  12.505  16.015  1.00  0.00     0.023 A 
ATOM     88  C   UNL     1      -2.760  12.554  15.806  1.00  0.00     0.012 A 
ATOM     89  C   UNL     1      -0.829  13.052  17.198  1.00  0.00     0.148 A 
ATOM     90  C   UNL     1      -3.595  13.183  16.730  1.00  0.00     0.002 A 
ATOM     91  C   UNL     1      -1.673  13.622  18.142  1.00  0.00     0.091 A 
ATOM     92  F   UNL     1       0.500  13.011  17.375  1.00  0.00    -0.205 F 
ATOM     93  C   UNL     1      -3.054  13.706  17.901  1.00  0.00     0.022 A 
BRANCH  91  94
ATOM     94  S   UNL     1      -1.079  14.230  19.724  1.00  0.00     0.127 S 
ATOM     95  O   UNL     1      -1.243  15.675  19.568  1.00  0.00    -0.237 OA
ATOM     96  O   UNL     1      -2.013  13.608  20.663  1.00  0.00    -0.237 OA
ATOM     97  O   UNL     1       0.297  13.769  19.843  1.00  0.00    -0.744 OA
ENDBRANCH  91  94
ENDBRANCH  64  87
ENDBRANCH  38  39
ENDBRANCH  30  33
ENDBRANCH  28  29
ENDBRANCH  27  28
ENDBRANCH  26  27
ENDBRANCH   1  26
TORSDOF 22
