REMARK SMILES C[C@@H](NC(=O)N[C@H]1CCCCC[C@@H]1C(=O)NCCCCCCNC(=O)c1ccc(-c2c3nc(c(-c4cccc(S(=O)(=O)[O-])c4F)c4ccc([nH]4)c(-c4cccc(S(=O)(=O)[O-])c4F)c4nc(c(-c5cccc(S(=O)(=O)[O-])c5F)c5ccc2[nH]5)C=C4)C=C3)cc1)c1nccs1
REMARK SMILES IDX 19 1 18 2 17 3 16 4 14 5 15 6 13 8 7 9 6 10 3 11 4 12 5 14
REMARK SMILES IDX 2 16 1 17 89 18 90 19 93 20 91 21 92 22 8 23 12 25 11 26
REMARK SMILES IDX 10 27 9 28 20 30 21 31 22 32 23 33 24 34 25 36 26 37 27 38
REMARK SMILES IDX 88 39 28 40 87 41 29 42 30 43 31 44 81 45 32 46 86 47 80 48
REMARK SMILES IDX 82 49 33 50 85 51 79 52 78 53 34 55 66 56 46 57 65 58 47 59
REMARK SMILES IDX 50 60 64 61 83 62 48 63 49 64 63 66 84 67 51 68 35 69 36 70
REMARK SMILES IDX 44 71 37 72 39 73 45 74 38 75 40 76 41 77 42 78 43 79 67 80
REMARK SMILES IDX 68 81 76 82 69 83 71 84 77 85 70 86 72 87 73 88 74 89 75 90
REMARK SMILES IDX 52 91 53 92 61 93 54 94 56 95 62 96 55 97 57 98 58 99 59 100
REMARK SMILES IDX 60 101
REMARK H PARENT 16 7 3 13 6 15 23 35 82 54 50 65
REMARK Flexibility Score: 100.00
ROOT
ATOM      1  C   UNL     1      -0.977  -7.104  -1.540  1.00  0.00     0.002 C 
ENDROOT
BRANCH   1   2
ATOM      2  C   UNL     1      -0.740  -5.596  -1.705  1.00  0.00     0.021 C 
BRANCH   2   3
ATOM      3  C   UNL     1      -2.007  -4.812  -2.025  1.00  0.00     0.116 C 
BRANCH   3   4
ATOM      4  N   UNL     1      -2.946  -4.911  -0.932  1.00  0.00    -0.356 N 
ATOM      5  C   UNL     1      -3.566  -3.946  -0.206  1.00  0.00     0.225 C 
ATOM      6  O   UNL     1      -4.397  -4.347   0.614  1.00  0.00    -0.275 OA
ATOM      7  H   UNL     1      -3.174  -5.832  -0.670  1.00  0.00     0.163 HD
BRANCH   5   8
ATOM      8  C   UNL     1      -3.320  -2.449  -0.515  1.00  0.00     0.101 C 
BRANCH   8   9
ATOM      9  C   UNL     1      -1.504  -1.910  -0.121  1.00  0.00     0.096 C 
BRANCH   9  10
ATOM     10  N   UNL     1      -0.757  -1.814  -1.331  1.00  0.00    -0.335 N 
ATOM     11  N   UNL     1      -2.552  -0.587  -1.862  1.00  0.00    -0.329 N 
ATOM     12  C   UNL     1      -1.364  -1.095  -2.280  1.00  0.00     0.315 C 
ATOM     13  H   UNL     1      -3.265  -0.601  -2.540  1.00  0.00     0.166 HD
ATOM     14  O   UNL     1      -0.959  -1.008  -3.425  1.00  0.00    -0.249 OA
ATOM     15  H   UNL     1       0.122  -2.238  -1.456  1.00  0.00     0.165 HD
BRANCH  11  16
ATOM     16  C   UNL     1      -2.982   0.022  -0.467  1.00  0.00     0.140 C 
ATOM     17  C   UNL     1      -2.429   1.487  -0.927  1.00  0.00     0.039 C 
BRANCH  16  18
ATOM     18  C   UNL     1      -3.055  -0.924   1.319  1.00  0.00     0.115 A 
ATOM     19  N   UNL     1      -2.755  -2.209   1.617  1.00  0.00    -0.247 NA
ATOM     20  S   UNL     1      -3.628  -0.436   3.189  1.00  0.00    -0.125 S 
ATOM     21  C   UNL     1      -2.703  -2.725   2.893  1.00  0.00     0.123 A 
ATOM     22  C   UNL     1      -2.988  -1.840   3.873  1.00  0.00     0.087 A 
ENDBRANCH  16  18
ENDBRANCH  11  16
ENDBRANCH   9  10
BRANCH   9  23
ATOM     23  C   UNL     1      -0.964  -0.347   0.790  1.00  0.00     0.026 CG0
ATOM     24  G   UNL     1      -1.973   1.080   1.457  1.00  0.00     0.000 G0
ENDBRANCH   9  23
ENDBRANCH   8   9
BRANCH   8  25
ATOM     25  C   UNL     1      -4.865  -1.565   0.049  1.00  0.00     0.015 C 
BRANCH  25  26
ATOM     26  C   UNL     1      -5.117   0.114   0.779  1.00  0.00     0.001 C 
BRANCH  26  27
ATOM     27  C   UNL     1      -3.842   1.357   1.285  1.00  0.00     0.000 C 
BRANCH  27  28
ATOM     28  C   UNL     1      -1.973   1.080   1.457  1.00  0.00     0.002 CG0
ATOM     29  G   UNL     1      -0.964  -0.347   0.790  1.00  0.00     0.000 G0
ENDBRANCH  27  28
ENDBRANCH  26  27
ENDBRANCH  25  26
ENDBRANCH   8  25
ENDBRANCH   5   8
ENDBRANCH   3   4
ENDBRANCH   2   3
ENDBRANCH   1   2
BRANCH   1  30
ATOM     30  C   UNL     1      -1.729  -7.769  -2.699  1.00  0.00     0.002 C 
BRANCH  30  31
ATOM     31  C   UNL     1      -1.127  -7.520  -4.084  1.00  0.00     0.021 C 
BRANCH  31  32
ATOM     32  C   UNL     1       0.329  -7.943  -4.219  1.00  0.00     0.116 C 
BRANCH  32  33
ATOM     33  N   UNL     1       0.496  -9.371  -4.010  1.00  0.00    -0.352 N 
ATOM     34  C   UNL     1       1.151 -10.284  -4.795  1.00  0.00     0.251 C 
ATOM     35  H   UNL     1       0.081  -9.732  -3.194  1.00  0.00     0.163 HD
ATOM     36  O   UNL     1       1.014 -11.485  -4.581  1.00  0.00    -0.269 OA
BRANCH  34  37
ATOM     37  C   UNL     1       2.015  -9.817  -5.900  1.00  0.00     0.039 A 
ATOM     38  C   UNL     1       1.963 -10.488  -7.123  1.00  0.00     0.014 A 
ATOM     39  C   UNL     1       2.892  -8.741  -5.723  1.00  0.00     0.014 A 
ATOM     40  C   UNL     1       2.779 -10.069  -8.175  1.00  0.00     0.010 A 
ATOM     41  C   UNL     1       3.647  -8.277  -6.796  1.00  0.00     0.010 A 
ATOM     42  C   UNL     1       3.621  -8.955  -8.023  1.00  0.00    -0.014 A 
BRANCH  42  43
ATOM     43  C   UNL     1       4.504  -8.518  -9.133  1.00  0.00     0.031 A 
ATOM     44  C   UNL     1       6.000  -8.595  -8.986  1.00  0.00     0.074 A 
ATOM     45  C   UNL     1       3.959  -8.013 -10.256  1.00  0.00     0.049 A 
ATOM     46  N   UNL     1       6.930  -8.297  -9.857  1.00  0.00    -0.248 NA
ATOM     47  C   UNL     1       6.525  -9.038  -7.683  1.00  0.00     0.031 C 
ATOM     48  C   UNL     1       2.528  -7.799 -10.480  1.00  0.00     0.029 A 
ATOM     49  N   UNL     1       4.546  -7.576 -11.416  1.00  0.00    -0.354 N 
ATOM     50  C   UNL     1       8.141  -8.487  -9.202  1.00  0.00     0.074 A 
ATOM     51  C   UNL     1       7.830  -8.883  -7.846  1.00  0.00     0.031 C 
ATOM     52  C   UNL     1       2.348  -7.287 -11.709  1.00  0.00     0.029 A 
ATOM     53  C   UNL     1       3.647  -7.125 -12.353  1.00  0.00     0.049 A 
ATOM     54  H   UNL     1       5.520  -7.585 -11.564  1.00  0.00     0.167 HD
ATOM     55  C   UNL     1       9.399  -8.380  -9.692  1.00  0.00     0.034 A 
ATOM     56  C   UNL     1       3.849  -6.649 -13.597  1.00  0.00     0.034 A 
ATOM     57  C   UNL     1       9.701  -8.035 -11.055  1.00  0.00     0.049 A 
ATOM     58  C   UNL     1       5.250  -6.615 -14.145  1.00  0.00     0.074 A 
ATOM     59  C   UNL     1      10.935  -7.984 -11.678  1.00  0.00     0.029 A 
ATOM     60  N   UNL     1       8.758  -7.680 -12.007  1.00  0.00    -0.354 N 
ATOM     61  N   UNL     1       6.373  -6.968 -13.566  1.00  0.00    -0.248 NA
ATOM     62  C   UNL     1       5.408  -6.163 -15.534  1.00  0.00     0.031 C 
ATOM     63  C   UNL     1      10.738  -7.586 -13.005  1.00  0.00     0.029 A 
ATOM     64  C   UNL     1       9.380  -7.408 -13.213  1.00  0.00     0.049 A 
ATOM     65  H   UNL     1       7.787  -7.629 -11.848  1.00  0.00     0.167 HD
ATOM     66  C   UNL     1       7.364  -6.816 -14.529  1.00  0.00     0.074 A 
ATOM     67  C   UNL     1       6.703  -6.365 -15.737  1.00  0.00     0.031 C 
ATOM     68  C   UNL     1       8.701  -7.011 -14.420  1.00  0.00     0.034 A 
BRANCH  55  69
ATOM     69  C   UNL     1      10.540  -8.705  -8.763  1.00  0.00     0.023 A 
ATOM     70  C   UNL     1      10.759 -10.044  -8.379  1.00  0.00     0.012 A 
ATOM     71  C   UNL     1      11.420  -7.704  -8.308  1.00  0.00     0.148 A 
ATOM     72  C   UNL     1      11.812 -10.378  -7.528  1.00  0.00     0.002 A 
ATOM     73  C   UNL     1      12.494  -8.051  -7.495  1.00  0.00     0.091 A 
ATOM     74  F   UNL     1      11.184  -6.434  -8.664  1.00  0.00    -0.205 F 
ATOM     75  C   UNL     1      12.684  -9.384  -7.095  1.00  0.00     0.022 A 
BRANCH  73  76
ATOM     76  S   UNL     1      13.720  -6.857  -6.947  1.00  0.00     0.127 S 
ATOM     77  O   UNL     1      13.392  -6.729  -5.527  1.00  0.00    -0.237 OA
ATOM     78  O   UNL     1      14.976  -7.556  -7.221  1.00  0.00    -0.237 OA
ATOM     79  O   UNL     1      13.503  -5.662  -7.750  1.00  0.00    -0.744 OA
ENDBRANCH  73  76
ENDBRANCH  55  69
BRANCH  56  80
ATOM     80  C   UNL     1       2.685  -6.261 -14.443  1.00  0.00     0.023 A 
ATOM     81  C   UNL     1       2.332  -7.067 -15.543  1.00  0.00     0.012 A 
ATOM     82  C   UNL     1       1.911  -5.122 -14.150  1.00  0.00     0.148 A 
ATOM     83  C   UNL     1       1.252  -6.728 -16.357  1.00  0.00     0.002 A 
ATOM     84  C   UNL     1       0.803  -4.819 -14.934  1.00  0.00     0.091 A 
ATOM     85  F   UNL     1       2.269  -4.362 -13.106  1.00  0.00    -0.205 F 
ATOM     86  C   UNL     1       0.482  -5.610 -16.047  1.00  0.00     0.022 A 
BRANCH  84  87
ATOM     87  S   UNL     1      -0.320  -3.476 -14.532  1.00  0.00     0.127 S 
ATOM     88  O   UNL     1       0.006  -2.495 -15.563  1.00  0.00    -0.237 OA
ATOM     89  O   UNL     1      -1.627  -4.117 -14.682  1.00  0.00    -0.237 OA
ATOM     90  O   UNL     1       0.004  -3.092 -13.164  1.00  0.00    -0.744 OA
ENDBRANCH  84  87
ENDBRANCH  56  80
BRANCH  68  91
ATOM     91  C   UNL     1       9.539  -6.766 -15.648  1.00  0.00     0.023 A 
ATOM     92  C   UNL     1       9.747  -5.448 -16.101  1.00  0.00     0.012 A 
ATOM     93  C   UNL     1      10.161  -7.835 -16.323  1.00  0.00     0.148 A 
ATOM     94  C   UNL     1      10.524  -5.201 -17.232  1.00  0.00     0.002 A 
ATOM     95  C   UNL     1      10.976  -7.577 -17.419  1.00  0.00     0.091 A 
ATOM     96  F   UNL     1       9.937  -9.085 -15.892  1.00  0.00    -0.205 F 
ATOM     97  C   UNL     1      11.147  -6.263 -17.884  1.00  0.00     0.022 A 
BRANCH  95  98
ATOM     98  S   UNL     1      11.889  -8.879 -18.253  1.00  0.00     0.127 S 
ATOM     99  O   UNL     1      11.056  -9.125 -19.428  1.00  0.00    -0.237 OA
ATOM    100  O   UNL     1      13.171  -8.232 -18.540  1.00  0.00    -0.237 OA
ATOM    101  O   UNL     1      11.974  -9.975 -17.297  1.00  0.00    -0.744 OA
ENDBRANCH  95  98
ENDBRANCH  68  91
ENDBRANCH  42  43
ENDBRANCH  34  37
ENDBRANCH  32  33
ENDBRANCH  31  32
ENDBRANCH  30  31
ENDBRANCH   1  30
TORSDOF 19
