REMARK SMILES CC1(C)[C@H](C(=O)NCCCCCCNC(=O)c2ccc(-c3c4nc(c(-c5cccc(S(=O)(=O)[O-])c5F)c5ccc([nH]5)c(-c5cccc(S(=O)(=O)[O-])c5F)c5nc(c(-c6cccc(S(=O)(=O)[O-])c6F)c6ccc3[nH]6)C=C5)C=C4)cc2)[C@H]1C(=O)Nc1cccc2[nH]ccc12
REMARK SMILES IDX 11 1 10 2 9 3 8 4 7 5 5 6 6 7 4 9 1 10 2 11 3 12 80 13 81 14
REMARK SMILES IDX 82 15 83 16 84 18 85 19 92 20 86 21 88 22 91 23 87 24 89 25
REMARK SMILES IDX 90 26 12 28 13 29 14 30 15 31 16 33 17 34 18 35 79 36 19 37
REMARK SMILES IDX 78 38 20 39 21 40 22 41 72 42 23 43 77 44 71 45 73 46 24 47
REMARK SMILES IDX 76 48 70 49 69 50 25 52 57 53 37 54 56 55 38 56 41 57 55 58
REMARK SMILES IDX 74 59 39 60 40 61 54 63 75 64 42 65 26 66 27 67 35 68 28 69
REMARK SMILES IDX 30 70 36 71 29 72 31 73 32 74 33 75 34 76 58 77 59 78 67 79
REMARK SMILES IDX 60 80 62 81 68 82 61 83 63 84 64 85 65 86 66 87 43 88 44 89
REMARK SMILES IDX 52 90 45 91 47 92 53 93 46 94 48 95 49 96 50 97 51 98
REMARK H PARENT 7 8 83 17 89 27 14 32 73 51 41 62
REMARK Flexibility Score: inf
ROOT
ATOM      1  C   UNL     1      -2.001   6.206  -1.014  1.00  0.00     0.002 C 
ENDROOT
BRANCH   1   2
ATOM      2  C   UNL     1      -1.122   5.212  -1.781  1.00  0.00     0.002 C 
BRANCH   2   3
ATOM      3  C   UNL     1      -0.620   4.022  -0.959  1.00  0.00     0.021 C 
BRANCH   3   4
ATOM      4  C   UNL     1      -1.729   3.146  -0.375  1.00  0.00     0.116 C 
BRANCH   4   5
ATOM      5  N   UNL     1      -2.145   2.134  -1.312  1.00  0.00    -0.356 N 
ATOM      6  C   UNL     1      -1.823   0.823  -1.491  1.00  0.00     0.224 C 
ATOM      7  O   UNL     1      -2.412   0.260  -2.420  1.00  0.00    -0.275 OA
ATOM      8  H   UNL     1      -2.806   2.461  -1.964  1.00  0.00     0.163 HD
BRANCH   6   9
ATOM      9  C   UNL     1      -0.864  -0.004  -0.707  1.00  0.00     0.098 C 
ATOM     10  C   UNL     1       1.586  -0.484  -0.338  1.00  0.00     0.013 C 
ATOM     11  C   UNL     1       0.407   0.358   0.074  1.00  0.00    -0.011 C 
ATOM     12  C   UNL     1       0.917   1.652   0.648  1.00  0.00     0.013 C 
ATOM     13  C   UNL     1      -0.869  -0.159   0.770  1.00  0.00     0.098 C 
BRANCH  13  14
ATOM     14  C   UNL     1      -0.911  -1.376   1.637  1.00  0.00     0.228 C 
ATOM     15  O   UNL     1      -0.902  -1.190   2.854  1.00  0.00    -0.274 OA
ATOM     16  N   UNL     1      -1.229  -2.637   1.190  1.00  0.00    -0.325 N 
ATOM     17  H   UNL     1      -1.818  -3.155   1.784  1.00  0.00     0.169 HD
BRANCH  16  18
ATOM     18  C   UNL     1      -0.843  -3.292   0.020  1.00  0.00     0.050 A 
ATOM     19  C   UNL     1      -1.846  -3.819  -0.801  1.00  0.00     0.027 A 
ATOM     20  C   UNL     1       0.505  -3.583  -0.290  1.00  0.00     0.023 A 
ATOM     21  C   UNL     1      -1.524  -4.426  -2.013  1.00  0.00     0.004 A 
ATOM     22  C   UNL     1       0.798  -4.125  -1.544  1.00  0.00     0.047 A 
ATOM     23  C   UNL     1       1.746  -3.514   0.411  1.00  0.00     0.030 A 
ATOM     24  C   UNL     1      -0.197  -4.530  -2.439  1.00  0.00     0.027 A 
ATOM     25  N   UNL     1       2.169  -4.133  -1.673  1.00  0.00    -0.361 N 
ATOM     26  C   UNL     1       2.755  -3.813  -0.478  1.00  0.00     0.083 A 
ATOM     27  H   UNL     1       2.657  -4.340  -2.503  1.00  0.00     0.166 HD
ENDBRANCH  16  18
ENDBRANCH  13  14
ENDBRANCH   6   9
ENDBRANCH   4   5
ENDBRANCH   3   4
ENDBRANCH   2   3
ENDBRANCH   1   2
BRANCH   1  28
ATOM     28  C   UNL     1      -1.410   6.719   0.303  1.00  0.00     0.021 C 
BRANCH  28  29
ATOM     29  C   UNL     1      -0.074   7.445   0.159  1.00  0.00     0.116 C 
BRANCH  29  30
ATOM     30  N   UNL     1      -0.197   8.628  -0.678  1.00  0.00    -0.352 N 
ATOM     31  C   UNL     1       0.032   9.943  -0.364  1.00  0.00     0.251 C 
ATOM     32  H   UNL     1      -0.487   8.461  -1.604  1.00  0.00     0.163 HD
ATOM     33  O   UNL     1      -0.371  10.830  -1.112  1.00  0.00    -0.269 OA
BRANCH  31  34
ATOM     34  C   UNL     1       0.764  10.290   0.873  1.00  0.00     0.039 A 
ATOM     35  C   UNL     1       0.308  11.352   1.657  1.00  0.00     0.014 A 
ATOM     36  C   UNL     1       1.921   9.593   1.236  1.00  0.00     0.014 A 
ATOM     37  C   UNL     1       0.990  11.690   2.829  1.00  0.00     0.010 A 
ATOM     38  C   UNL     1       2.557   9.885   2.439  1.00  0.00     0.010 A 
ATOM     39  C   UNL     1       2.109  10.946   3.239  1.00  0.00    -0.014 A 
BRANCH  39  40
ATOM     40  C   UNL     1       2.826  11.270   4.499  1.00  0.00     0.031 A 
ATOM     41  C   UNL     1       4.260  11.726   4.459  1.00  0.00     0.074 A 
ATOM     42  C   UNL     1       2.210  11.078   5.682  1.00  0.00     0.049 A 
ATOM     43  N   UNL     1       5.061  12.015   5.452  1.00  0.00    -0.248 NA
ATOM     44  C   UNL     1       4.887  11.849   3.132  1.00  0.00     0.031 C 
ATOM     45  C   UNL     1       0.851  10.559   5.853  1.00  0.00     0.029 A 
ATOM     46  N   UNL     1       2.656  11.270   6.965  1.00  0.00    -0.354 N 
ATOM     47  C   UNL     1       6.290  12.315   4.876  1.00  0.00     0.074 A 
ATOM     48  C   UNL     1       6.140  12.143   3.448  1.00  0.00     0.031 C 
ATOM     49  C   UNL     1       0.574  10.478   7.164  1.00  0.00     0.029 A 
ATOM     50  C   UNL     1       1.740  10.913   7.927  1.00  0.00     0.049 A 
ATOM     51  H   UNL     1       3.547  11.630   7.178  1.00  0.00     0.167 HD
ATOM     52  C   UNL     1       7.431  12.727   5.477  1.00  0.00     0.034 A 
ATOM     53  C   UNL     1       1.830  10.931   9.271  1.00  0.00     0.034 A 
ATOM     54  C   UNL     1       7.561  12.944   6.893  1.00  0.00     0.049 A 
ATOM     55  C   UNL     1       3.091  11.447   9.910  1.00  0.00     0.074 A 
ATOM     56  C   UNL     1       8.645  13.448   7.591  1.00  0.00     0.029 A 
ATOM     57  N   UNL     1       6.577  12.666   7.829  1.00  0.00    -0.354 N 
ATOM     58  N   UNL     1       4.187  11.884   9.339  1.00  0.00    -0.248 NA
ATOM     59  C   UNL     1       3.112  11.513  11.379  1.00  0.00     0.031 C 
ATOM     60  C   UNL     1       8.323  13.454   8.952  1.00  0.00     0.029 A 
ATOM     61  C   UNL     1       7.029  12.981   9.099  1.00  0.00     0.049 A 
ATOM     62  H   UNL     1       5.688  12.298   7.622  1.00  0.00     0.167 HD
ATOM     63  C   UNL     1       5.012  12.312  10.373  1.00  0.00     0.074 A 
ATOM     64  C   UNL     1       4.279  12.102  11.605  1.00  0.00     0.031 C 
ATOM     65  C   UNL     1       6.267  12.819  10.311  1.00  0.00     0.034 A 
BRANCH  52  66
ATOM     66  C   UNL     1       8.619  13.027   4.599  1.00  0.00     0.023 A 
ATOM     67  C   UNL     1       8.603  14.170   3.774  1.00  0.00     0.012 A 
ATOM     68  C   UNL     1       9.772  12.219   4.637  1.00  0.00     0.148 A 
ATOM     69  C   UNL     1       9.701  14.486   2.975  1.00  0.00     0.002 A 
ATOM     70  C   UNL     1      10.880  12.565   3.871  1.00  0.00     0.091 A 
ATOM     71  F   UNL     1       9.763  11.124   5.411  1.00  0.00    -0.205 F 
ATOM     72  C   UNL     1      10.842  13.691   3.032  1.00  0.00     0.022 A 
BRANCH  70  73
ATOM     73  S   UNL     1      12.427  11.653   3.933  1.00  0.00     0.127 S 
ATOM     74  O   UNL     1      12.444  11.012   2.619  1.00  0.00    -0.237 OA
ATOM     75  O   UNL     1      13.409  12.724   4.101  1.00  0.00    -0.237 OA
ATOM     76  O   UNL     1      12.315  10.748   5.068  1.00  0.00    -0.744 OA
ENDBRANCH  70  73
ENDBRANCH  52  66
BRANCH  53  77
ATOM     77  C   UNL     1       0.666  10.513  10.101  1.00  0.00     0.023 A 
ATOM     78  C   UNL     1      -0.046  11.483  10.834  1.00  0.00     0.012 A 
ATOM     79  C   UNL     1       0.245   9.170  10.151  1.00  0.00     0.148 A 
ATOM     80  C   UNL     1      -1.133  11.119  11.629  1.00  0.00     0.002 A 
ATOM     81  C   UNL     1      -0.873   8.823  10.900  1.00  0.00     0.091 A 
ATOM     82  F   UNL     1       0.941   8.260   9.456  1.00  0.00    -0.205 F 
ATOM     83  C   UNL     1      -1.552   9.792  11.655  1.00  0.00     0.022 A 
BRANCH  81  84
ATOM     84  S   UNL     1      -1.563   7.164  10.884  1.00  0.00     0.127 S 
ATOM     85  O   UNL     1      -1.205   6.679  12.214  1.00  0.00    -0.237 OA
ATOM     86  O   UNL     1      -2.989   7.432  10.689  1.00  0.00    -0.237 OA
ATOM     87  O   UNL     1      -0.923   6.486   9.766  1.00  0.00    -0.744 OA
ENDBRANCH  81  84
ENDBRANCH  53  77
BRANCH  65  88
ATOM     88  C   UNL     1       6.921  13.225  11.606  1.00  0.00     0.023 A 
ATOM     89  C   UNL     1       7.359  12.239  12.511  1.00  0.00     0.012 A 
ATOM     90  C   UNL     1       7.162  14.584  11.892  1.00  0.00     0.148 A 
ATOM     91  C   UNL     1       7.994  12.600  13.699  1.00  0.00     0.002 A 
ATOM     92  C   UNL     1       7.840  14.933  13.053  1.00  0.00     0.091 A 
ATOM     93  F   UNL     1       6.721  15.509  11.027  1.00  0.00    -0.205 F 
ATOM     94  C   UNL     1       8.245  13.944  13.964  1.00  0.00     0.022 A 
BRANCH  92  95
ATOM     95  S   UNL     1       8.293  16.631  13.425  1.00  0.00     0.127 S 
ATOM     96  O   UNL     1       7.338  16.971  14.479  1.00  0.00    -0.237 OA
ATOM     97  O   UNL     1       9.677  16.492  13.880  1.00  0.00    -0.237 OA
ATOM     98  O   UNL     1       8.140  17.368  12.178  1.00  0.00    -0.744 OA
ENDBRANCH  92  95
ENDBRANCH  65  88
ENDBRANCH  39  40
ENDBRANCH  31  34
ENDBRANCH  29  30
ENDBRANCH  28  29
ENDBRANCH   1  28
TORSDOF 18
