REMARK SMILES Cc1ccc([C@@]23C[C@@H]4C[C@@H](C[C@@](C(=O)N5CCC(C(=O)NCCCCCCNC(=O)c6ccc(-c7c8nc(c(-c9cccc(S(=O)(=O)[O-])c9F)c9ccc([nH]9)c(-c9cccc(S(=O)(=O)[O-])c9F)c9nc(c(-c%10cccc(S(=O)(=O)[O-])c%10F)c%10ccc7[nH]%10)C=C9)C=C8)cc6)CC5)(C4)C2)C3)cc1
REMARK SMILES IDX 25 1 24 2 23 3 22 4 21 5 19 6 20 7 18 9 13 10 14 11 15 12
REMARK SMILES IDX 16 13 95 14 17 15 94 16 12 17 6 18 7 19 97 20 98 21 8 22
REMARK SMILES IDX 10 23 9 24 96 25 11 26 5 27 1 28 2 29 3 30 100 31 4 32 99 33
REMARK SMILES IDX 26 34 27 35 28 36 29 37 30 39 31 40 32 41 93 42 33 43 92 44
REMARK SMILES IDX 34 45 35 46 36 47 86 48 37 49 91 50 85 51 87 52 38 53 90 54
REMARK SMILES IDX 84 55 83 56 39 58 71 59 51 60 70 61 52 62 55 63 69 64 88 65
REMARK SMILES IDX 53 66 54 67 68 69 89 70 56 71 40 72 41 73 49 74 42 75 44 76
REMARK SMILES IDX 50 77 43 78 45 79 46 80 47 81 48 82 72 83 73 84 81 85 74 86
REMARK SMILES IDX 76 87 82 88 75 89 77 90 78 91 79 92 80 93 57 94 58 95 66 96
REMARK SMILES IDX 59 97 61 98 67 99 60 100 62 101 63 102 64 103 65 104
REMARK H PARENT 21 8 28 38 87 57 55 68
REMARK Flexibility Score: inf
ROOT
ATOM      1  C   UNL     1     -11.771  -3.388  -4.045  1.00  0.00     0.002 C 
ENDROOT
BRANCH   1   2
ATOM      2  C   UNL     1     -10.782  -2.449  -4.755  1.00  0.00     0.002 C 
BRANCH   2   3
ATOM      3  C   UNL     1      -9.482  -2.138  -4.003  1.00  0.00     0.021 C 
BRANCH   3   4
ATOM      4  C   UNL     1      -8.722  -3.361  -3.502  1.00  0.00     0.116 C 
BRANCH   4   5
ATOM      5  N   UNL     1      -8.228  -4.188  -4.591  1.00  0.00    -0.356 N 
ATOM      6  C   UNL     1      -7.027  -4.803  -4.762  1.00  0.00     0.223 C 
ATOM      7  O   UNL     1      -6.875  -5.533  -5.744  1.00  0.00    -0.275 OA
ATOM      8  H   UNL     1      -8.868  -4.326  -5.327  1.00  0.00     0.163 HD
BRANCH   6   9
ATOM      9  C   UNL     1      -5.892  -4.608  -3.770  1.00  0.00     0.082 C 
ATOM     10  C   UNL     1      -5.796  -2.451  -0.389  1.00  0.00     0.228 C 
ATOM     11  O   UNL     1      -6.638  -2.928   0.378  1.00  0.00    -0.274 OA
ATOM     12  N   UNL     1      -5.188  -3.256  -1.358  1.00  0.00    -0.342 N 
ATOM     13  C   UNL     1      -5.357  -4.699  -1.276  1.00  0.00     0.120 C 
ATOM     14  C   UNL     1      -4.509  -2.843  -2.588  1.00  0.00     0.120 C 
ATOM     15  C   UNL     1      -6.261  -5.191  -2.392  1.00  0.00     0.035 C 
ATOM     16  C   UNL     1      -5.390  -3.154  -3.787  1.00  0.00     0.035 C 
BRANCH  10  17
ATOM     17  C   UNL     1      -5.342  -0.984  -0.221  1.00  0.00     0.051 C 
ATOM     18  C   UNL     1      -3.192   0.408   0.058  1.00  0.00    -0.003 C 
ATOM     19  C   UNL     1      -3.683   1.221  -1.178  1.00  0.00     0.015 C 
ATOM     20  C   UNL     1      -3.812  -0.997  -0.054  1.00  0.00     0.028 C 
ATOM     21  C   UNL     1      -3.774   1.048   1.344  1.00  0.00     0.015 C 
ATOM     22  C   UNL     1      -5.221   1.327  -1.216  1.00  0.00    -0.009 C 
ATOM     23  C   UNL     1      -5.316   1.084   1.280  1.00  0.00    -0.009 C 
ATOM     24  C   UNL     1      -5.731   1.958   0.086  1.00  0.00     0.007 C 
ATOM     25  C   UNL     1      -5.835  -0.071  -1.359  1.00  0.00     0.020 C 
ATOM     26  C   UNL     1      -5.884  -0.345   1.096  1.00  0.00     0.020 C 
BRANCH  18  27
ATOM     27  C   UNL     1      -1.653   0.330   0.104  1.00  0.00    -0.042 A 
ATOM     28  C   UNL     1       2.684   0.121   0.002  1.00  0.00     0.044 C 
ATOM     29  C   UNL     1       1.190   0.210   0.060  1.00  0.00    -0.051 A 
ATOM     30  C   UNL     1       0.435  -0.958   0.118  1.00  0.00     0.004 A 
ATOM     31  C   UNL     1       0.525   1.439   0.048  1.00  0.00     0.004 A 
ATOM     32  C   UNL     1      -0.960  -0.896   0.148  1.00  0.00     0.004 A 
ATOM     33  C   UNL     1      -0.876   1.497   0.073  1.00  0.00     0.004 A 
ENDBRANCH  18  27
ENDBRANCH  10  17
ENDBRANCH   6   9
ENDBRANCH   4   5
ENDBRANCH   3   4
ENDBRANCH   2   3
ENDBRANCH   1   2
BRANCH   1  34
ATOM     34  C   UNL     1     -12.061  -3.083  -2.575  1.00  0.00     0.021 C 
BRANCH  34  35
ATOM     35  C   UNL     1     -12.672  -1.714  -2.327  1.00  0.00     0.116 C 
BRANCH  35  36
ATOM     36  N   UNL     1     -14.121  -1.706  -2.325  1.00  0.00    -0.352 N 
ATOM     37  C   UNL     1     -15.002  -0.650  -2.160  1.00  0.00     0.251 C 
ATOM     38  H   UNL     1     -14.543  -2.585  -2.461  1.00  0.00     0.163 HD
ATOM     39  O   UNL     1     -16.182  -0.903  -1.984  1.00  0.00    -0.269 OA
BRANCH  37  40
ATOM     40  C   UNL     1     -14.533   0.755  -2.335  1.00  0.00     0.039 A 
ATOM     41  C   UNL     1     -15.368   1.637  -3.036  1.00  0.00     0.014 A 
ATOM     42  C   UNL     1     -13.236   1.147  -2.015  1.00  0.00     0.014 A 
ATOM     43  C   UNL     1     -14.828   2.773  -3.639  1.00  0.00     0.010 A 
ATOM     44  C   UNL     1     -12.675   2.214  -2.681  1.00  0.00     0.010 A 
ATOM     45  C   UNL     1     -13.456   2.979  -3.550  1.00  0.00    -0.014 A 
BRANCH  45  46
ATOM     46  C   UNL     1     -12.699   3.884  -4.399  1.00  0.00     0.031 A 
ATOM     47  C   UNL     1     -12.304   5.217  -3.920  1.00  0.00     0.074 A 
ATOM     48  C   UNL     1     -12.173   3.379  -5.537  1.00  0.00     0.049 A 
ATOM     49  N   UNL     1     -11.899   6.168  -4.689  1.00  0.00    -0.248 NA
ATOM     50  C   UNL     1     -12.346   5.580  -2.511  1.00  0.00     0.031 C 
ATOM     51  C   UNL     1     -11.070   3.913  -6.324  1.00  0.00     0.029 A 
ATOM     52  N   UNL     1     -12.696   2.356  -6.333  1.00  0.00    -0.354 N 
ATOM     53  C   UNL     1     -11.356   7.145  -3.880  1.00  0.00     0.074 A 
ATOM     54  C   UNL     1     -11.735   6.769  -2.537  1.00  0.00     0.031 C 
ATOM     55  C   UNL     1     -11.166   3.435  -7.575  1.00  0.00     0.029 A 
ATOM     56  C   UNL     1     -12.435   2.732  -7.660  1.00  0.00     0.049 A 
ATOM     57  H   UNL     1     -13.153   1.540  -6.026  1.00  0.00     0.167 HD
ATOM     58  C   UNL     1     -10.509   8.062  -4.430  1.00  0.00     0.034 A 
ATOM     59  C   UNL     1     -13.414   2.967  -8.584  1.00  0.00     0.034 A 
ATOM     60  C   UNL     1     -10.387   7.860  -5.881  1.00  0.00     0.049 A 
ATOM     61  C   UNL     1     -13.335   4.355  -9.193  1.00  0.00     0.074 A 
ATOM     62  C   UNL     1      -9.441   7.216  -6.664  1.00  0.00     0.029 A 
ATOM     63  N   UNL     1     -11.474   8.111  -6.708  1.00  0.00    -0.354 N 
ATOM     64  N   UNL     1     -12.561   5.307  -8.750  1.00  0.00    -0.248 NA
ATOM     65  C   UNL     1     -14.138   4.792 -10.332  1.00  0.00     0.031 C 
ATOM     66  C   UNL     1      -9.996   7.020  -7.955  1.00  0.00     0.029 A 
ATOM     67  C   UNL     1     -11.269   7.564  -7.965  1.00  0.00     0.049 A 
ATOM     68  H   UNL     1     -12.279   8.610  -6.438  1.00  0.00     0.167 HD
ATOM     69  C   UNL     1     -12.831   6.480  -9.408  1.00  0.00     0.074 A 
ATOM     70  C   UNL     1     -13.769   6.081 -10.444  1.00  0.00     0.031 C 
ATOM     71  C   UNL     1     -12.299   7.674  -8.994  1.00  0.00     0.034 A 
BRANCH  58  72
ATOM     72  C   UNL     1      -9.529   8.919  -3.643  1.00  0.00     0.023 A 
ATOM     73  C   UNL     1      -8.372   9.368  -4.324  1.00  0.00     0.012 A 
ATOM     74  C   UNL     1      -9.609   9.265  -2.276  1.00  0.00     0.148 A 
ATOM     75  C   UNL     1      -7.310  10.004  -3.673  1.00  0.00     0.002 A 
ATOM     76  C   UNL     1      -8.520   9.835  -1.608  1.00  0.00     0.091 A 
ATOM     77  F   UNL     1     -10.768   9.133  -1.625  1.00  0.00    -0.205 F 
ATOM     78  C   UNL     1      -7.364  10.200  -2.304  1.00  0.00     0.022 A 
BRANCH  76  79
ATOM     79  S   UNL     1      -8.485  10.043   0.182  1.00  0.00     0.127 S 
ATOM     80  O   UNL     1      -7.194   9.448   0.537  1.00  0.00    -0.237 OA
ATOM     81  O   UNL     1      -8.546  11.494   0.334  1.00  0.00    -0.237 OA
ATOM     82  O   UNL     1      -9.635   9.305   0.693  1.00  0.00    -0.744 OA
ENDBRANCH  76  79
ENDBRANCH  58  72
BRANCH  59  83
ATOM     83  C   UNL     1     -14.673   2.203  -8.325  1.00  0.00     0.023 A 
ATOM     84  C   UNL     1     -14.573   0.789  -8.322  1.00  0.00     0.012 A 
ATOM     85  C   UNL     1     -15.788   2.801  -7.712  1.00  0.00     0.148 A 
ATOM     86  C   UNL     1     -15.471   0.007  -7.595  1.00  0.00     0.002 A 
ATOM     87  C   UNL     1     -16.691   2.009  -7.002  1.00  0.00     0.091 A 
ATOM     88  F   UNL     1     -15.912   4.134  -7.762  1.00  0.00    -0.205 F 
ATOM     89  C   UNL     1     -16.509   0.621  -6.904  1.00  0.00     0.022 A 
BRANCH  87  90
ATOM     90  S   UNL     1     -18.049   2.747  -6.081  1.00  0.00     0.127 S 
ATOM     91  O   UNL     1     -19.111   2.754  -7.082  1.00  0.00    -0.237 OA
ATOM     92  O   UNL     1     -18.244   1.802  -4.983  1.00  0.00    -0.237 OA
ATOM     93  O   UNL     1     -17.540   4.045  -5.661  1.00  0.00    -0.744 OA
ENDBRANCH  87  90
ENDBRANCH  59  83
BRANCH  71  94
ATOM     94  C   UNL     1     -12.696   9.060  -9.482  1.00  0.00     0.023 A 
ATOM     95  C   UNL     1     -13.898   9.311 -10.168  1.00  0.00     0.012 A 
ATOM     96  C   UNL     1     -11.925  10.203  -9.128  1.00  0.00     0.148 A 
ATOM     97  C   UNL     1     -14.300  10.607 -10.520  1.00  0.00     0.002 A 
ATOM     98  C   UNL     1     -12.385  11.494  -9.378  1.00  0.00     0.091 A 
ATOM     99  F   UNL     1     -10.719  10.051  -8.561  1.00  0.00    -0.205 F 
ATOM    100  C   UNL     1     -13.559  11.701 -10.100  1.00  0.00     0.022 A 
BRANCH  98 101
ATOM    101  S   UNL     1     -11.570  12.918  -8.637  1.00  0.00     0.127 S 
ATOM    102  O   UNL     1     -10.595  13.281  -9.662  1.00  0.00    -0.237 OA
ATOM    103  O   UNL     1     -12.671  13.870  -8.481  1.00  0.00    -0.237 OA
ATOM    104  O   UNL     1     -11.032  12.422  -7.377  1.00  0.00    -0.744 OA
ENDBRANCH  98 101
ENDBRANCH  71  94
ENDBRANCH  45  46
ENDBRANCH  37  40
ENDBRANCH  35  36
ENDBRANCH  34  35
ENDBRANCH   1  34
TORSDOF 18
