REMARK SMILES CC(=O)Oc1c(Cl)cc(-c2ccccc2)cc1C(=O)NCCCCCCNC(=O)c1ccc(-c2c3nc(c(-c4cccc(S(=O)(=O)[O-])c4F)c4ccc([nH]4)c(-c4cccc(S(=O)(=O)[O-])c4F)c4nc(c(-c5cccc(S(=O)(=O)[O-])c5F)c5ccc2[nH]5)C=C4)C=C3)cc1
REMARK SMILES IDX 24 1 23 2 22 3 21 4 20 5 18 6 19 7 17 9 5 10 6 11 7 12 8 13
REMARK SMILES IDX 16 14 9 15 4 16 2 17 1 18 3 19 10 20 11 21 15 22 12 23 14 24
REMARK SMILES IDX 13 25 25 26 26 27 27 28 28 29 29 31 30 32 31 33 92 34 32 35
REMARK SMILES IDX 91 36 33 37 34 38 35 39 85 40 36 41 90 42 84 43 86 44 37 45
REMARK SMILES IDX 89 46 83 47 82 48 38 50 70 51 50 52 69 53 51 54 54 55 68 56
REMARK SMILES IDX 87 57 52 58 53 59 67 61 88 62 55 63 39 64 40 65 48 66 41 67
REMARK SMILES IDX 43 68 49 69 42 70 44 71 45 72 46 73 47 74 71 75 72 76 80 77
REMARK SMILES IDX 73 78 75 79 81 80 74 81 76 82 77 83 78 84 79 85 56 86 57 87
REMARK SMILES IDX 65 88 58 89 60 90 66 91 59 92 61 93 62 94 63 95 64 96
REMARK H PARENT 20 8 27 30 86 49 54 60
REMARK Flexibility Score: inf
ROOT
ATOM      1  C   UNL     1       4.651  -1.799  -0.474  1.00  0.00     0.002 C 
ENDROOT
BRANCH   1   2
ATOM      2  C   UNL     1       5.027  -0.810   0.631  1.00  0.00     0.002 C 
BRANCH   2   3
ATOM      3  C   UNL     1       3.909  -0.096   1.388  1.00  0.00     0.021 C 
BRANCH   3   4
ATOM      4  C   UNL     1       2.741  -0.914   1.919  1.00  0.00     0.116 C 
BRANCH   4   5
ATOM      5  N   UNL     1       3.003  -1.763   3.045  1.00  0.00    -0.352 N 
ATOM      6  C   UNL     1       2.193  -2.130   4.093  1.00  0.00     0.255 C 
ATOM      7  O   UNL     1       2.718  -2.882   4.923  1.00  0.00    -0.269 OA
ATOM      8  H   UNL     1       3.910  -2.145   3.071  1.00  0.00     0.163 HD
BRANCH   6   9
ATOM      9  C   UNL     1       0.771  -1.686   4.350  1.00  0.00     0.084 A 
ATOM     10  C   UNL     1      -0.251  -1.365   3.437  1.00  0.00     0.162 A 
ATOM     11  C   UNL     1      -1.577  -1.176   3.895  1.00  0.00     0.085 A 
ATOM     12  Cl  UNL     1      -2.913  -0.951   2.811  1.00  0.00    -0.080 Cl
ATOM     13  C   UNL     1      -1.885  -1.227   5.251  1.00  0.00     0.033 A 
ATOM     14  C   UNL     1       0.410  -1.737   5.727  1.00  0.00     0.026 A 
ATOM     15  C   UNL     1      -0.899  -1.514   6.195  1.00  0.00    -0.016 A 
BRANCH  10  16
ATOM     16  O   UNL     1      -0.051  -1.304   2.050  1.00  0.00    -0.424 OA
BRANCH  16  17
ATOM     17  C   UNL     1      -0.237  -0.009   1.546  1.00  0.00     0.308 C 
ATOM     18  C   UNL     1      -0.205  -0.027   0.048  1.00  0.00     0.139 C 
ATOM     19  O   UNL     1      -0.288   1.018   2.215  1.00  0.00    -0.252 OA
ENDBRANCH  16  17
ENDBRANCH  10  16
BRANCH  15  20
ATOM     20  C   UNL     1      -1.262  -1.630   7.617  1.00  0.00    -0.018 A 
ATOM     21  C   UNL     1      -2.301  -2.491   8.018  1.00  0.00     0.009 A 
ATOM     22  C   UNL     1      -0.626  -0.863   8.604  1.00  0.00     0.009 A 
ATOM     23  C   UNL     1      -2.703  -2.571   9.353  1.00  0.00     0.001 A 
ATOM     24  C   UNL     1      -1.028  -0.941   9.942  1.00  0.00     0.001 A 
ATOM     25  C   UNL     1      -2.068  -1.791  10.315  1.00  0.00     0.000 A 
ENDBRANCH  15  20
ENDBRANCH   6   9
ENDBRANCH   4   5
ENDBRANCH   3   4
ENDBRANCH   2   3
ENDBRANCH   1   2
BRANCH   1  26
ATOM     26  C   UNL     1       3.609  -1.371  -1.511  1.00  0.00     0.021 C 
BRANCH  26  27
ATOM     27  C   UNL     1       3.822  -0.029  -2.204  1.00  0.00     0.116 C 
BRANCH  27  28
ATOM     28  N   UNL     1       5.086   0.053  -2.914  1.00  0.00    -0.352 N 
ATOM     29  C   UNL     1       5.343   0.346  -4.231  1.00  0.00     0.251 C 
ATOM     30  H   UNL     1       5.883  -0.131  -2.366  1.00  0.00     0.163 HD
ATOM     31  O   UNL     1       6.489   0.228  -4.661  1.00  0.00    -0.269 OA
BRANCH  29  32
ATOM     32  C   UNL     1       4.259   0.782  -5.144  1.00  0.00     0.039 A 
ATOM     33  C   UNL     1       4.213   0.240  -6.433  1.00  0.00     0.014 A 
ATOM     34  C   UNL     1       3.317   1.741  -4.761  1.00  0.00     0.014 A 
ATOM     35  C   UNL     1       3.193   0.613  -7.314  1.00  0.00     0.010 A 
ATOM     36  C   UNL     1       2.265   2.067  -5.619  1.00  0.00     0.010 A 
ATOM     37  C   UNL     1       2.192   1.508  -6.904  1.00  0.00    -0.014 A 
BRANCH  37  38
ATOM     38  C   UNL     1       1.053   1.852  -7.798  1.00  0.00     0.031 A 
ATOM     39  C   UNL     1       0.865   3.262  -8.291  1.00  0.00     0.074 A 
ATOM     40  C   UNL     1       0.136   0.910  -8.097  1.00  0.00     0.049 A 
ATOM     41  N   UNL     1      -0.100   3.758  -9.022  1.00  0.00    -0.248 NA
ATOM     42  C   UNL     1       1.882   4.249  -7.892  1.00  0.00     0.031 C 
ATOM     43  C   UNL     1       0.165  -0.476  -7.625  1.00  0.00     0.029 A 
ATOM     44  N   UNL     1      -1.014   0.982  -8.843  1.00  0.00    -0.354 N 
ATOM     45  C   UNL     1       0.172   5.115  -9.145  1.00  0.00     0.074 A 
ATOM     46  C   UNL     1       1.379   5.371  -8.388  1.00  0.00     0.031 C 
ATOM     47  C   UNL     1      -0.916  -1.122  -8.091  1.00  0.00     0.029 A 
ATOM     48  C   UNL     1      -1.730  -0.193  -8.868  1.00  0.00     0.049 A 
ATOM     49  H   UNL     1      -1.300   1.797  -9.316  1.00  0.00     0.167 HD
ATOM     50  C   UNL     1      -0.503   6.059  -9.844  1.00  0.00     0.034 A 
ATOM     51  C   UNL     1      -2.913  -0.488  -9.443  1.00  0.00     0.034 A 
ATOM     52  C   UNL     1      -1.679   5.795 -10.631  1.00  0.00     0.049 A 
ATOM     53  C   UNL     1      -3.627   0.570 -10.239  1.00  0.00     0.074 A 
ATOM     54  C   UNL     1      -2.383   6.665 -11.444  1.00  0.00     0.029 A 
ATOM     55  N   UNL     1      -2.329   4.572 -10.698  1.00  0.00    -0.354 N 
ATOM     56  N   UNL     1      -3.268   1.809 -10.473  1.00  0.00    -0.248 NA
ATOM     57  C   UNL     1      -4.892   0.181 -10.880  1.00  0.00     0.031 C 
ATOM     58  C   UNL     1      -3.471   5.974 -11.988  1.00  0.00     0.029 A 
ATOM     59  C   UNL     1      -3.432   4.667 -11.530  1.00  0.00     0.049 A 
ATOM     60  H   UNL     1      -2.048   3.756 -10.224  1.00  0.00     0.167 HD
ATOM     61  C   UNL     1      -4.241   2.336 -11.314  1.00  0.00     0.074 A 
ATOM     62  C   UNL     1      -5.195   1.275 -11.566  1.00  0.00     0.031 C 
ATOM     63  C   UNL     1      -4.345   3.590 -11.818  1.00  0.00     0.034 A 
BRANCH  50  64
ATOM     64  C   UNL     1       0.046   7.462  -9.840  1.00  0.00     0.023 A 
ATOM     65  C   UNL     1       1.225   7.747 -10.558  1.00  0.00     0.012 A 
ATOM     66  C   UNL     1      -0.633   8.509  -9.185  1.00  0.00     0.148 A 
ATOM     67  C   UNL     1       1.739   9.042 -10.597  1.00  0.00     0.002 A 
ATOM     68  C   UNL     1      -0.137   9.806  -9.264  1.00  0.00     0.091 A 
ATOM     69  F   UNL     1      -1.742   8.217  -8.490  1.00  0.00    -0.205 F 
ATOM     70  C   UNL     1       1.053  10.072  -9.960  1.00  0.00     0.022 A 
BRANCH  68  71
ATOM     71  S   UNL     1      -0.989  11.214  -8.541  1.00  0.00     0.127 S 
ATOM     72  O   UNL     1      -0.123  11.530  -7.406  1.00  0.00    -0.237 OA
ATOM     73  O   UNL     1      -0.947  12.191  -9.630  1.00  0.00    -0.237 OA
ATOM     74  O   UNL     1      -2.323  10.743  -8.200  1.00  0.00    -0.744 OA
ENDBRANCH  68  71
ENDBRANCH  50  64
BRANCH  51  75
ATOM     75  C   UNL     1      -3.464  -1.869  -9.339  1.00  0.00     0.023 A 
ATOM     76  C   UNL     1      -3.488  -2.690 -10.484  1.00  0.00     0.012 A 
ATOM     77  C   UNL     1      -3.929  -2.385  -8.114  1.00  0.00     0.148 A 
ATOM     78  C   UNL     1      -3.993  -3.989 -10.418  1.00  0.00     0.002 A 
ATOM     79  C   UNL     1      -4.379  -3.699  -8.043  1.00  0.00     0.091 A 
ATOM     80  F   UNL     1      -3.911  -1.585  -7.040  1.00  0.00    -0.205 F 
ATOM     81  C   UNL     1      -4.428  -4.497  -9.197  1.00  0.00     0.022 A 
BRANCH  79  82
ATOM     82  S   UNL     1      -4.828  -4.475  -6.486  1.00  0.00     0.127 S 
ATOM     83  O   UNL     1      -6.282  -4.565  -6.606  1.00  0.00    -0.237 OA
ATOM     84  O   UNL     1      -4.123  -5.756  -6.573  1.00  0.00    -0.237 OA
ATOM     85  O   UNL     1      -4.329  -3.588  -5.448  1.00  0.00    -0.744 OA
ENDBRANCH  79  82
ENDBRANCH  51  75
BRANCH  63  86
ATOM     86  C   UNL     1      -5.513   3.888 -12.722  1.00  0.00     0.023 A 
ATOM     87  C   UNL     1      -6.805   4.016 -12.175  1.00  0.00     0.012 A 
ATOM     88  C   UNL     1      -5.319   4.116 -14.099  1.00  0.00     0.148 A 
ATOM     89  C   UNL     1      -7.890   4.339 -12.988  1.00  0.00     0.002 A 
ATOM     90  C   UNL     1      -6.397   4.484 -14.895  1.00  0.00     0.091 A 
ATOM     91  F   UNL     1      -4.085   3.970 -14.604  1.00  0.00    -0.205 F 
ATOM     92  C   UNL     1      -7.685   4.585 -14.344  1.00  0.00     0.022 A 
BRANCH  90  93
ATOM     93  S   UNL     1      -6.212   4.911 -16.630  1.00  0.00     0.127 S 
ATOM     94  O   UNL     1      -6.810   3.750 -17.288  1.00  0.00    -0.237 OA
ATOM     95  O   UNL     1      -6.996   6.142 -16.733  1.00  0.00    -0.237 OA
ATOM     96  O   UNL     1      -4.782   5.086 -16.849  1.00  0.00    -0.744 OA
ENDBRANCH  90  93
ENDBRANCH  63  86
ENDBRANCH  37  38
ENDBRANCH  29  32
ENDBRANCH  27  28
ENDBRANCH  26  27
ENDBRANCH   1  26
TORSDOF 19
