REMARK SMILES COc1cc2nc(SCC(=O)NCCCCCCNC(=O)c3ccc(-c4c5nc(c(-c6cccc(S(=O)(=O)[O-])c6F)c6ccc([nH]6)c(-c6cccc(S(=O)(=O)[O-])c6F)c6nc(c(-c7cccc(S(=O)(=O)[O-])c7F)c7ccc4[nH]7)C=C6)C=C5)cc3)nc(O)c2cc1OC
REMARK SMILES IDX 15 1 14 2 13 3 12 4 10 5 11 6 9 8 8 9 7 10 3 11 4 12 90 13
REMARK SMILES IDX 5 14 89 15 6 16 88 17 86 18 85 19 2 20 1 21 91 22 92 23
REMARK SMILES IDX 87 24 16 26 17 27 18 28 19 29 20 30 21 32 22 33 23 34 84 35
REMARK SMILES IDX 24 36 83 37 25 38 26 39 27 40 77 41 28 42 82 43 76 44 78 45
REMARK SMILES IDX 29 46 81 47 75 48 74 49 30 51 62 52 42 53 61 54 43 55 46 56
REMARK SMILES IDX 60 57 79 58 44 59 45 60 59 62 80 63 47 64 31 65 32 66 40 67
REMARK SMILES IDX 33 68 35 69 41 70 34 71 36 72 37 73 38 74 39 75 63 76 64 77
REMARK SMILES IDX 72 78 65 79 67 80 73 81 66 82 68 83 69 84 70 85 71 86 48 87
REMARK SMILES IDX 49 88 57 89 50 90 52 91 58 92 51 93 53 94 54 95 55 96 56 97
REMARK H PARENT 12 7 87 25 19 31 78 50 46 61
REMARK Flexibility Score: inf
ROOT
ATOM      1  C   UNL     1      -2.727   5.962  -6.130  1.00  0.00     0.002 C 
ENDROOT
BRANCH   1   2
ATOM      2  C   UNL     1      -3.181   4.590  -6.653  1.00  0.00     0.021 C 
BRANCH   2   3
ATOM      3  C   UNL     1      -2.986   4.391  -8.157  1.00  0.00     0.116 C 
BRANCH   3   4
ATOM      4  N   UNL     1      -1.576   4.383  -8.504  1.00  0.00    -0.355 N 
ATOM      5  C   UNL     1      -0.775   3.353  -8.902  1.00  0.00     0.230 C 
ATOM      6  O   UNL     1       0.421   3.599  -9.094  1.00  0.00    -0.274 OA
ATOM      7  H   UNL     1      -1.128   5.258  -8.441  1.00  0.00     0.163 HD
BRANCH   5   8
ATOM      8  C   UNL     1      -1.358   1.985  -9.213  1.00  0.00     0.178 C 
BRANCH   8   9
ATOM      9  S   UNL     1      -2.054   1.103  -7.787  1.00  0.00    -0.076 SA
BRANCH   9  10
ATOM     10  C   UNL     1      -0.660   0.992  -6.702  1.00  0.00     0.192 A 
ATOM     11  C   UNL     1       0.933  -0.197  -2.409  1.00  0.00     0.162 A 
ATOM     12  C   UNL     1      -0.096  -0.120  -3.355  1.00  0.00     0.079 A 
ATOM     13  C   UNL     1       2.230   0.230  -2.727  1.00  0.00     0.161 A 
ATOM     14  C   UNL     1       0.115   0.406  -4.619  1.00  0.00     0.083 A 
ATOM     15  C   UNL     1       2.455   0.757  -4.000  1.00  0.00     0.066 A 
ATOM     16  N   UNL     1      -0.905   0.485  -5.484  1.00  0.00    -0.222 NA
ATOM     17  C   UNL     1       1.399   0.842  -4.939  1.00  0.00     0.066 A 
ATOM     18  C   UNL     1       1.514   1.342  -6.228  1.00  0.00     0.223 A 
ATOM     19  N   UNL     1       0.531   1.415  -7.125  1.00  0.00    -0.187 NA
BRANCH  11  20
ATOM     20  O   UNL     1       0.585  -0.781  -1.216  1.00  0.00    -0.493 OA
ATOM     21  C   UNL     1       0.852   0.050  -0.088  1.00  0.00     0.278 C 
ENDBRANCH  11  20
BRANCH  13  22
ATOM     22  O   UNL     1       3.195   0.069  -1.772  1.00  0.00    -0.493 OA
ATOM     23  C   UNL     1       4.493   0.574  -2.054  1.00  0.00     0.278 C 
ENDBRANCH  13  22
BRANCH  18  24
ATOM     24  O   UNL     1       2.689   1.843  -6.696  1.00  0.00    -0.493 OA
ATOM     25  H   UNL     1       2.742   2.175  -7.570  1.00  0.00     0.295 HD
ENDBRANCH  18  24
ENDBRANCH   9  10
ENDBRANCH   8   9
ENDBRANCH   5   8
ENDBRANCH   3   4
ENDBRANCH   2   3
ENDBRANCH   1   2
BRANCH   1  26
ATOM     26  C   UNL     1      -3.431   7.173  -6.751  1.00  0.00     0.002 C 
BRANCH  26  27
ATOM     27  C   UNL     1      -4.958   7.159  -6.667  1.00  0.00     0.021 C 
BRANCH  27  28
ATOM     28  C   UNL     1      -5.527   7.067  -5.255  1.00  0.00     0.116 C 
BRANCH  28  29
ATOM     29  N   UNL     1      -5.248   8.249  -4.453  1.00  0.00    -0.352 N 
ATOM     30  C   UNL     1      -6.110   8.982  -3.669  1.00  0.00     0.251 C 
ATOM     31  H   UNL     1      -4.317   8.567  -4.474  1.00  0.00     0.163 HD
ATOM     32  O   UNL     1      -5.736  10.035  -3.160  1.00  0.00    -0.269 OA
BRANCH  30  33
ATOM     33  C   UNL     1      -7.501   8.512  -3.482  1.00  0.00     0.039 A 
ATOM     34  C   UNL     1      -7.762   7.178  -3.159  1.00  0.00     0.014 A 
ATOM     35  C   UNL     1      -8.557   9.406  -3.681  1.00  0.00     0.014 A 
ATOM     36  C   UNL     1      -9.069   6.703  -3.204  1.00  0.00     0.010 A 
ATOM     37  C   UNL     1      -9.875   8.940  -3.650  1.00  0.00     0.010 A 
ATOM     38  C   UNL     1     -10.139   7.574  -3.466  1.00  0.00    -0.014 A 
BRANCH  38  39
ATOM     39  C   UNL     1     -11.520   7.029  -3.556  1.00  0.00     0.031 A 
ATOM     40  C   UNL     1     -12.283   7.063  -4.854  1.00  0.00     0.074 A 
ATOM     41  C   UNL     1     -12.074   6.457  -2.470  1.00  0.00     0.049 A 
ATOM     42  N   UNL     1     -13.474   6.590  -5.117  1.00  0.00    -0.248 NA
ATOM     43  C   UNL     1     -11.633   7.712  -6.005  1.00  0.00     0.031 C 
ATOM     44  C   UNL     1     -11.446   6.376  -1.149  1.00  0.00     0.029 A 
ATOM     45  N   UNL     1     -13.277   5.818  -2.306  1.00  0.00    -0.354 N 
ATOM     46  C   UNL     1     -13.734   6.919  -6.442  1.00  0.00     0.074 A 
ATOM     47  C   UNL     1     -12.577   7.634  -6.934  1.00  0.00     0.031 C 
ATOM     48  C   UNL     1     -12.246   5.685  -0.324  1.00  0.00     0.029 A 
ATOM     49  C   UNL     1     -13.462   5.312  -1.041  1.00  0.00     0.049 A 
ATOM     50  H   UNL     1     -13.944   5.732  -3.024  1.00  0.00     0.167 HD
ATOM     51  C   UNL     1     -14.827   6.633  -7.188  1.00  0.00     0.034 A 
ATOM     52  C   UNL     1     -14.490   4.622  -0.513  1.00  0.00     0.034 A 
ATOM     53  C   UNL     1     -15.950   5.865  -6.724  1.00  0.00     0.049 A 
ATOM     54  C   UNL     1     -15.680   4.297  -1.368  1.00  0.00     0.074 A 
ATOM     55  C   UNL     1     -17.071   5.473  -7.435  1.00  0.00     0.029 A 
ATOM     56  N   UNL     1     -16.095   5.369  -5.439  1.00  0.00    -0.354 N 
ATOM     57  N   UNL     1     -15.865   4.544  -2.641  1.00  0.00    -0.248 NA
ATOM     58  C   UNL     1     -16.796   3.593  -0.721  1.00  0.00     0.031 C 
ATOM     59  C   UNL     1     -17.897   4.740  -6.577  1.00  0.00     0.029 A 
ATOM     60  C   UNL     1     -17.288   4.677  -5.334  1.00  0.00     0.049 A 
ATOM     61  H   UNL     1     -15.445   5.491  -4.710  1.00  0.00     0.167 HD
ATOM     62  C   UNL     1     -17.113   4.019  -2.952  1.00  0.00     0.074 A 
ATOM     63  C   UNL     1     -17.631   3.421  -1.738  1.00  0.00     0.031 C 
ATOM     64  C   UNL     1     -17.775   4.050  -4.133  1.00  0.00     0.034 A 
BRANCH  51  65
ATOM     65  C   UNL     1     -14.849   7.101  -8.617  1.00  0.00     0.023 A 
ATOM     66  C   UNL     1     -14.161   6.357  -9.595  1.00  0.00     0.012 A 
ATOM     67  C   UNL     1     -15.626   8.210  -9.004  1.00  0.00     0.148 A 
ATOM     68  C   UNL     1     -14.237   6.715 -10.940  1.00  0.00     0.002 A 
ATOM     69  C   UNL     1     -15.718   8.545 -10.350  1.00  0.00     0.091 A 
ATOM     70  F   UNL     1     -16.258   8.911  -8.053  1.00  0.00    -0.205 F 
ATOM     71  C   UNL     1     -15.023   7.801 -11.318  1.00  0.00     0.022 A 
BRANCH  69  72
ATOM     72  S   UNL     1     -16.745   9.893 -10.949  1.00  0.00     0.127 S 
ATOM     73  O   UNL     1     -15.736  10.851 -11.402  1.00  0.00    -0.237 OA
ATOM     74  O   UNL     1     -17.501   9.250 -12.024  1.00  0.00    -0.237 OA
ATOM     75  O   UNL     1     -17.546  10.324  -9.813  1.00  0.00    -0.744 OA
ENDBRANCH  69  72
ENDBRANCH  51  65
BRANCH  52  76
ATOM     76  C   UNL     1     -14.390   4.139   0.890  1.00  0.00     0.023 A 
ATOM     77  C   UNL     1     -14.118   2.779   1.128  1.00  0.00     0.012 A 
ATOM     78  C   UNL     1     -14.462   5.032   1.976  1.00  0.00     0.148 A 
ATOM     79  C   UNL     1     -13.917   2.315   2.428  1.00  0.00     0.002 A 
ATOM     80  C   UNL     1     -14.217   4.572   3.264  1.00  0.00     0.091 A 
ATOM     81  F   UNL     1     -14.726   6.321   1.719  1.00  0.00    -0.205 F 
ATOM     82  C   UNL     1     -13.954   3.212   3.493  1.00  0.00     0.022 A 
BRANCH  80  83
ATOM     83  S   UNL     1     -14.126   5.667   4.684  1.00  0.00     0.127 S 
ATOM     84  O   UNL     1     -15.239   5.189   5.502  1.00  0.00    -0.237 OA
ATOM     85  O   UNL     1     -12.796   5.358   5.212  1.00  0.00    -0.237 OA
ATOM     86  O   UNL     1     -14.271   7.016   4.157  1.00  0.00    -0.744 OA
ENDBRANCH  80  83
ENDBRANCH  52  76
BRANCH  64  87
ATOM     87  C   UNL     1     -19.142   3.429  -4.192  1.00  0.00     0.023 A 
ATOM     88  C   UNL     1     -20.246   4.160  -3.714  1.00  0.00     0.012 A 
ATOM     89  C   UNL     1     -19.348   2.189  -4.827  1.00  0.00     0.148 A 
ATOM     90  C   UNL     1     -21.540   3.663  -3.864  1.00  0.00     0.002 A 
ATOM     91  C   UNL     1     -20.643   1.715  -5.000  1.00  0.00     0.091 A 
ATOM     92  F   UNL     1     -18.277   1.510  -5.263  1.00  0.00    -0.205 F 
ATOM     93  C   UNL     1     -21.739   2.449  -4.516  1.00  0.00     0.022 A 
BRANCH  91  94
ATOM     94  S   UNL     1     -21.007   0.198  -5.891  1.00  0.00     0.127 S 
ATOM     95  O   UNL     1     -21.501  -0.665  -4.820  1.00  0.00    -0.237 OA
ATOM     96  O   UNL     1     -22.029   0.636  -6.843  1.00  0.00    -0.237 OA
ATOM     97  O   UNL     1     -19.753  -0.224  -6.500  1.00  0.00    -0.744 OA
ENDBRANCH  91  94
ENDBRANCH  64  87
ENDBRANCH  38  39
ENDBRANCH  30  33
ENDBRANCH  28  29
ENDBRANCH  27  28
ENDBRANCH  26  27
ENDBRANCH   1  26
TORSDOF 21
