REMARK SMILES O=C(NCCCCCCNC(=O)c1cc(Cl)cn(Cc2ccc(Cl)cc2)c1=O)c1ccc(-c2c3nc(c(-c4cccc(S(=O)(=O)[O-])c4F)c4ccc([nH]4)c(-c4cccc(S(=O)(=O)[O-])c4F)c4nc(c(-c5cccc(S(=O)(=O)[O-])c5F)c5ccc2[nH]5)C=C4)C=C3)cc1
REMARK SMILES IDX 6 1 5 2 4 3 3 4 1 5 2 6 29 8 30 9 91 10 31 11 90 12 32 13
REMARK SMILES IDX 33 14 34 15 84 16 35 17 89 18 83 19 85 20 36 21 88 22 82 23
REMARK SMILES IDX 81 24 37 26 69 27 49 28 68 29 50 30 53 31 67 32 86 33 51 34
REMARK SMILES IDX 52 35 66 37 87 38 54 39 38 40 39 41 47 42 40 43 42 44 48 45
REMARK SMILES IDX 41 46 43 47 44 48 45 49 46 50 70 51 71 52 79 53 72 54 74 55
REMARK SMILES IDX 80 56 73 57 75 58 76 59 77 60 78 61 55 62 56 63 64 64 57 65
REMARK SMILES IDX 59 66 65 67 58 68 60 69 61 70 62 71 63 72 7 73 8 74 9 75
REMARK SMILES IDX 10 76 11 77 12 79 13 80 14 81 27 82 15 83 18 84 28 85 16 86
REMARK SMILES IDX 17 87 19 88 20 89 21 90 26 91 22 92 25 93 23 94 24 95
REMARK H PARENT 3 7 85 25 53 36 10 78
REMARK Flexibility Score: inf
ROOT
ATOM      1  C   UNL     1       4.314  -2.219   3.241  1.00  0.00     0.002 C 
ENDROOT
BRANCH   1   2
ATOM      2  C   UNL     1       4.811  -0.950   2.541  1.00  0.00     0.021 C 
BRANCH   2   3
ATOM      3  C   UNL     1       4.517  -0.873   1.046  1.00  0.00     0.116 C 
BRANCH   3   4
ATOM      4  N   UNL     1       3.092  -0.920   0.771  1.00  0.00    -0.352 N 
ATOM      5  O   UNL     1       1.083  -0.151   0.130  1.00  0.00    -0.269 OA
ATOM      6  C   UNL     1       2.306  -0.048   0.064  1.00  0.00     0.251 C 
ATOM      7  H   UNL     1       2.619  -1.695   1.151  1.00  0.00     0.163 HD
BRANCH   6   8
ATOM      8  C   UNL     1       2.909   1.005  -0.783  1.00  0.00     0.039 A 
ATOM      9  C   UNL     1       2.295   2.261  -0.831  1.00  0.00     0.014 A 
ATOM     10  C   UNL     1       4.010   0.736  -1.603  1.00  0.00     0.014 A 
ATOM     11  C   UNL     1       2.781   3.245  -1.695  1.00  0.00     0.010 A 
ATOM     12  C   UNL     1       4.529   1.735  -2.423  1.00  0.00     0.010 A 
ATOM     13  C   UNL     1       3.897   2.986  -2.503  1.00  0.00    -0.014 A 
BRANCH  13  14
ATOM     14  C   UNL     1       4.360   3.962  -3.519  1.00  0.00     0.031 A 
ATOM     15  C   UNL     1       4.208   3.634  -4.979  1.00  0.00     0.074 A 
ATOM     16  C   UNL     1       4.949   5.112  -3.146  1.00  0.00     0.049 A 
ATOM     17  N   UNL     1       4.660   4.278  -6.023  1.00  0.00    -0.248 NA
ATOM     18  C   UNL     1       3.466   2.404  -5.305  1.00  0.00     0.031 C 
ATOM     19  C   UNL     1       5.166   5.544  -1.766  1.00  0.00     0.029 A 
ATOM     20  N   UNL     1       5.490   6.120  -3.904  1.00  0.00    -0.354 N 
ATOM     21  C   UNL     1       4.290   3.517  -7.124  1.00  0.00     0.074 A 
ATOM     22  C   UNL     1       3.599   2.349  -6.622  1.00  0.00     0.031 C 
ATOM     23  C   UNL     1       5.790   6.733  -1.774  1.00  0.00     0.029 A 
ATOM     24  C   UNL     1       6.046   7.130  -3.157  1.00  0.00     0.049 A 
ATOM     25  H   UNL     1       5.481   6.120  -4.888  1.00  0.00     0.167 HD
ATOM     26  C   UNL     1       4.477   3.779  -8.439  1.00  0.00     0.034 A 
ATOM     27  C   UNL     1       6.698   8.245  -3.542  1.00  0.00     0.034 A 
ATOM     28  C   UNL     1       5.113   4.963  -8.945  1.00  0.00     0.049 A 
ATOM     29  C   UNL     1       6.894   8.521  -5.006  1.00  0.00     0.074 A 
ATOM     30  C   UNL     1       5.321   5.332 -10.262  1.00  0.00     0.029 A 
ATOM     31  N   UNL     1       5.631   5.978  -8.157  1.00  0.00    -0.354 N 
ATOM     32  N   UNL     1       6.498   7.814  -6.036  1.00  0.00    -0.248 NA
ATOM     33  C   UNL     1       7.612   9.753  -5.361  1.00  0.00     0.031 C 
ATOM     34  C   UNL     1       5.961   6.577 -10.269  1.00  0.00     0.029 A 
ATOM     35  C   UNL     1       6.151   6.980  -8.957  1.00  0.00     0.049 A 
ATOM     36  H   UNL     1       5.630   5.986  -7.172  1.00  0.00     0.167 HD
ATOM     37  C   UNL     1       6.911   8.516  -7.163  1.00  0.00     0.074 A 
ATOM     38  C   UNL     1       7.568   9.717  -6.688  1.00  0.00     0.031 C 
ATOM     39  C   UNL     1       6.775   8.184  -8.470  1.00  0.00     0.034 A 
BRANCH  26  40
ATOM     40  C   UNL     1       3.920   2.786  -9.421  1.00  0.00     0.023 A 
ATOM     41  C   UNL     1       2.532   2.775  -9.668  1.00  0.00     0.012 A 
ATOM     42  C   UNL     1       4.756   1.887 -10.110  1.00  0.00     0.148 A 
ATOM     43  C   UNL     1       1.979   1.865 -10.566  1.00  0.00     0.002 A 
ATOM     44  C   UNL     1       4.200   1.003 -11.028  1.00  0.00     0.091 A 
ATOM     45  F   UNL     1       6.069   1.898  -9.839  1.00  0.00    -0.205 F 
ATOM     46  C   UNL     1       2.813   0.985 -11.252  1.00  0.00     0.022 A 
BRANCH  44  47
ATOM     47  S   UNL     1       5.192  -0.140 -11.995  1.00  0.00     0.127 S 
ATOM     48  O   UNL     1       4.846  -1.422 -11.382  1.00  0.00    -0.237 OA
ATOM     49  O   UNL     1       4.660   0.054 -13.344  1.00  0.00    -0.237 OA
ATOM     50  O   UNL     1       6.575   0.282 -11.821  1.00  0.00    -0.744 OA
ENDBRANCH  44  47
ENDBRANCH  26  40
BRANCH  27  51
ATOM     51  C   UNL     1       7.149   9.208  -2.503  1.00  0.00     0.023 A 
ATOM     52  C   UNL     1       6.391  10.373  -2.280  1.00  0.00     0.012 A 
ATOM     53  C   UNL     1       8.252   8.928  -1.674  1.00  0.00     0.148 A 
ATOM     54  C   UNL     1       6.723  11.246  -1.245  1.00  0.00     0.002 A 
ATOM     55  C   UNL     1       8.554   9.783  -0.620  1.00  0.00     0.091 A 
ATOM     56  F   UNL     1       8.949   7.808  -1.905  1.00  0.00    -0.205 F 
ATOM     57  C   UNL     1       7.796  10.947  -0.409  1.00  0.00     0.022 A 
BRANCH  55  58
ATOM     58  S   UNL     1       9.851   9.433   0.572  1.00  0.00     0.127 S 
ATOM     59  O   UNL     1      10.673  10.641   0.486  1.00  0.00    -0.237 OA
ATOM     60  O   UNL     1       9.082   9.300   1.811  1.00  0.00    -0.237 OA
ATOM     61  O   UNL     1      10.497   8.214   0.115  1.00  0.00    -0.744 OA
ENDBRANCH  55  58
ENDBRANCH  27  51
BRANCH  39  62
ATOM     62  C   UNL     1       7.360   9.119  -9.493  1.00  0.00     0.023 A 
ATOM     63  C   UNL     1       8.748   9.088  -9.733  1.00  0.00     0.012 A 
ATOM     64  C   UNL     1       6.537   9.948 -10.278  1.00  0.00     0.148 A 
ATOM     65  C   UNL     1       9.310   9.881 -10.733  1.00  0.00     0.002 A 
ATOM     66  C   UNL     1       7.100  10.713 -11.294  1.00  0.00     0.091 A 
ATOM     67  F   UNL     1       5.221   9.972 -10.020  1.00  0.00    -0.205 F 
ATOM     68  C   UNL     1       8.487  10.684 -11.519  1.00  0.00     0.022 A 
BRANCH  66  69
ATOM     69  S   UNL     1       6.112  11.722 -12.403  1.00  0.00     0.127 S 
ATOM     70  O   UNL     1       6.421  13.071 -11.934  1.00  0.00    -0.237 OA
ATOM     71  O   UNL     1       6.673  11.388 -13.713  1.00  0.00    -0.237 OA
ATOM     72  O   UNL     1       4.732  11.294 -12.212  1.00  0.00    -0.744 OA
ENDBRANCH  66  69
ENDBRANCH  39  62
ENDBRANCH  13  14
ENDBRANCH   6   8
ENDBRANCH   3   4
ENDBRANCH   2   3
ENDBRANCH   1   2
BRANCH   1  73
ATOM     73  C   UNL     1       4.821  -3.540   2.655  1.00  0.00     0.002 C 
BRANCH  73  74
ATOM     74  C   UNL     1       6.342  -3.673   2.552  1.00  0.00     0.021 C 
BRANCH  74  75
ATOM     75  C   UNL     1       7.103  -3.452   3.857  1.00  0.00     0.116 C 
BRANCH  75  76
ATOM     76  N   UNL     1       6.771  -4.444   4.868  1.00  0.00    -0.352 N 
ATOM     77  C   UNL     1       7.613  -5.191   5.641  1.00  0.00     0.256 C 
ATOM     78  H   UNL     1       5.809  -4.598   5.013  1.00  0.00     0.163 HD
ATOM     79  O   UNL     1       7.162  -6.028   6.420  1.00  0.00    -0.269 OA
BRANCH  77  80
ATOM     80  C   UNL     1       9.067  -5.054   5.427  1.00  0.00     0.106 A 
ATOM     81  C   UNL     1       9.708  -6.137   4.957  1.00  0.00     0.041 A 
ATOM     82  C   UNL     1       9.800  -3.768   5.635  1.00  0.00     0.263 A 
ATOM     83  C   UNL     1      11.093  -6.053   4.578  1.00  0.00     0.058 A 
ATOM     84  N   UNL     1      11.123  -3.748   5.176  1.00  0.00    -0.309 N 
ATOM     85  O   UNL     1       9.240  -2.799   6.141  1.00  0.00    -0.268 OA
ATOM     86  Cl  UNL     1      11.870  -7.458   3.962  1.00  0.00    -0.083 Cl
ATOM     87  C   UNL     1      11.737  -4.883   4.660  1.00  0.00     0.110 A 
BRANCH  84  88
ATOM     88  C   UNL     1      11.877  -2.496   5.265  1.00  0.00     0.161 C 
BRANCH  88  89
ATOM     89  C   UNL     1      12.750  -2.428   6.500  1.00  0.00    -0.028 A 
ATOM     90  C   UNL     1      13.960  -3.136   6.566  1.00  0.00     0.007 A 
ATOM     91  C   UNL     1      12.354  -1.663   7.608  1.00  0.00     0.007 A 
ATOM     92  C   UNL     1      14.749  -3.095   7.717  1.00  0.00     0.021 A 
ATOM     93  C   UNL     1      13.152  -1.607   8.754  1.00  0.00     0.021 A 
ATOM     94  C   UNL     1      14.342  -2.329   8.806  1.00  0.00     0.041 A 
ATOM     95  Cl  UNL     1      15.317  -2.280  10.223  1.00  0.00    -0.084 Cl
ENDBRANCH  88  89
ENDBRANCH  84  88
ENDBRANCH  77  80
ENDBRANCH  75  76
ENDBRANCH  74  75
ENDBRANCH  73  74
ENDBRANCH   1  73
TORSDOF 18
