REMARK SMILES O=C(NCCCCCCNC(=O)[C@@H]1[C@@H](C(=O)NCc2ccccc2OCc2ccccc2)[C@@H]2C=C[C@H]1C2)c1ccc(-c2c3nc(c(-c4cccc(S(=O)(=O)[O-])c4F)c4ccc([nH]4)c(-c4cccc(S(=O)(=O)[O-])c4F)c4nc(c(-c5cccc(S(=O)(=O)[O-])c5F)c5ccc2[nH]5)C=C4)C=C3)cc1
REMARK SMILES IDX 8 1 7 2 6 3 5 4 4 5 3 6 1 7 2 8 38 10 39 11 100 12 40 13
REMARK SMILES IDX 99 14 41 15 42 16 43 17 93 18 44 19 98 20 92 21 94 22 45 23
REMARK SMILES IDX 97 24 91 25 90 26 46 28 78 29 58 30 77 31 59 32 62 33 76 34
REMARK SMILES IDX 95 35 60 36 61 37 75 39 96 40 63 41 47 42 48 43 56 44 49 45
REMARK SMILES IDX 51 46 57 47 50 48 52 49 53 50 54 51 55 52 79 53 80 54 88 55
REMARK SMILES IDX 81 56 83 57 89 58 82 59 84 60 85 61 86 62 87 63 64 64 65 65
REMARK SMILES IDX 73 66 66 67 68 68 74 69 67 70 69 71 70 72 71 73 72 74 9 75
REMARK SMILES IDX 10 76 11 77 12 79 13 80 14 81 36 82 33 83 35 84 37 85 34 86
REMARK SMILES IDX 15 87 16 88 17 89 18 91 19 92 20 93 24 94 21 95 23 96 22 97
REMARK SMILES IDX 25 98 26 99 27 100 28 101 32 102 29 103 31 104 30 105
REMARK H PARENT 3 9 94 27 62 38 10 78 17 90
REMARK Flexibility Score: inf
ROOT
ATOM      1  C   UNL     1       6.062  -3.752   2.687  1.00  0.00     0.021 C 
ENDROOT
BRANCH   1   2
ATOM      2  C   UNL     1       4.535  -3.812   2.561  1.00  0.00     0.002 C 
BRANCH   2   3
ATOM      3  C   UNL     1       3.790  -2.559   3.040  1.00  0.00     0.002 C 
BRANCH   3   4
ATOM      4  C   UNL     1       4.282  -1.238   2.445  1.00  0.00     0.021 C 
BRANCH   4   5
ATOM      5  C   UNL     1       4.185  -1.147   0.925  1.00  0.00     0.116 C 
BRANCH   5   6
ATOM      6  N   UNL     1       2.804  -1.118   0.479  1.00  0.00    -0.352 N 
ATOM      7  O   UNL     1       0.885  -0.160  -0.189  1.00  0.00    -0.269 OA
ATOM      8  C   UNL     1       2.110  -0.103  -0.134  1.00  0.00     0.251 C 
ATOM      9  H   UNL     1       2.291  -1.943   0.639  1.00  0.00     0.163 HD
BRANCH   8  10
ATOM     10  C   UNL     1       2.830   1.054  -0.714  1.00  0.00     0.039 A 
ATOM     11  C   UNL     1       3.980   0.879  -1.491  1.00  0.00     0.014 A 
ATOM     12  C   UNL     1       2.303   2.336  -0.530  1.00  0.00     0.014 A 
ATOM     13  C   UNL     1       4.654   1.988  -2.003  1.00  0.00     0.010 A 
ATOM     14  C   UNL     1       2.947   3.441  -1.093  1.00  0.00     0.010 A 
ATOM     15  C   UNL     1       4.139   3.280  -1.818  1.00  0.00    -0.014 A 
BRANCH  15  16
ATOM     16  C   UNL     1       4.805   4.458  -2.433  1.00  0.00     0.031 A 
ATOM     17  C   UNL     1       5.384   5.549  -1.576  1.00  0.00     0.074 A 
ATOM     18  C   UNL     1       4.823   4.577  -3.775  1.00  0.00     0.049 A 
ATOM     19  N   UNL     1       5.918   6.687  -1.939  1.00  0.00    -0.248 NA
ATOM     20  C   UNL     1       5.348   5.341  -0.120  1.00  0.00     0.031 C 
ATOM     21  C   UNL     1       4.258   3.606  -4.713  1.00  0.00     0.029 A 
ATOM     22  N   UNL     1       5.301   5.580  -4.581  1.00  0.00    -0.354 N 
ATOM     23  C   UNL     1       6.240   7.351  -0.761  1.00  0.00     0.074 A 
ATOM     24  C   UNL     1       5.838   6.488   0.330  1.00  0.00     0.031 C 
ATOM     25  C   UNL     1       4.409   4.064  -5.964  1.00  0.00     0.029 A 
ATOM     26  C   UNL     1       5.035   5.381  -5.915  1.00  0.00     0.049 A 
ATOM     27  H   UNL     1       5.787   6.364  -4.237  1.00  0.00     0.167 HD
ATOM     28  C   UNL     1       6.824   8.564  -0.604  1.00  0.00     0.034 A 
ATOM     29  C   UNL     1       5.239   6.180  -6.981  1.00  0.00     0.034 A 
ATOM     30  C   UNL     1       7.243   9.407  -1.692  1.00  0.00     0.049 A 
ATOM     31  C   UNL     1       5.898   7.515  -6.783  1.00  0.00     0.074 A 
ATOM     32  C   UNL     1       7.907  10.620  -1.634  1.00  0.00     0.029 A 
ATOM     33  N   UNL     1       7.025   9.137  -3.035  1.00  0.00    -0.354 N 
ATOM     34  N   UNL     1       6.314   8.069  -5.670  1.00  0.00    -0.248 NA
ATOM     35  C   UNL     1       6.146   8.322  -7.986  1.00  0.00     0.031 C 
ATOM     36  C   UNL     1       8.068  11.095  -2.940  1.00  0.00     0.029 A 
ATOM     37  C   UNL     1       7.532  10.163  -3.814  1.00  0.00     0.049 A 
ATOM     38  H   UNL     1       6.575   8.333  -3.383  1.00  0.00     0.167 HD
ATOM     39  C   UNL     1       6.906   9.271  -6.041  1.00  0.00     0.074 A 
ATOM     40  C   UNL     1       6.803   9.360  -7.483  1.00  0.00     0.031 C 
ATOM     41  C   UNL     1       7.476  10.216  -5.254  1.00  0.00     0.034 A 
BRANCH  28  42
ATOM     42  C   UNL     1       7.070   9.043   0.804  1.00  0.00     0.023 A 
ATOM     43  C   UNL     1       8.076   8.437   1.583  1.00  0.00     0.012 A 
ATOM     44  C   UNL     1       6.342  10.124   1.339  1.00  0.00     0.148 A 
ATOM     45  C   UNL     1       8.326   8.870   2.886  1.00  0.00     0.002 A 
ATOM     46  C   UNL     1       6.626  10.579   2.623  1.00  0.00     0.091 A 
ATOM     47  F   UNL     1       5.374  10.678   0.594  1.00  0.00    -0.205 F 
ATOM     48  C   UNL     1       7.608   9.945   3.401  1.00  0.00     0.022 A 
BRANCH  46  49
ATOM     49  S   UNL     1       5.806  12.008   3.339  1.00  0.00     0.127 S 
ATOM     50  O   UNL     1       4.857  11.376   4.254  1.00  0.00    -0.237 OA
ATOM     51  O   UNL     1       6.913  12.705   3.997  1.00  0.00    -0.237 OA
ATOM     52  O   UNL     1       5.220  12.731   2.220  1.00  0.00    -0.744 OA
ENDBRANCH  46  49
ENDBRANCH  28  42
BRANCH  29  53
ATOM     53  C   UNL     1       4.844   5.702  -8.335  1.00  0.00     0.023 A 
ATOM     54  C   UNL     1       5.841   5.330  -9.256  1.00  0.00     0.012 A 
ATOM     55  C   UNL     1       3.488   5.543  -8.685  1.00  0.00     0.148 A 
ATOM     56  C   UNL     1       5.496   4.823 -10.509  1.00  0.00     0.002 A 
ATOM     57  C   UNL     1       3.152   4.985  -9.912  1.00  0.00     0.091 A 
ATOM     58  F   UNL     1       2.557   5.911  -7.794  1.00  0.00    -0.205 F 
ATOM     59  C   UNL     1       4.154   4.638 -10.832  1.00  0.00     0.022 A 
BRANCH  57  60
ATOM     60  S   UNL     1       1.460   4.581 -10.359  1.00  0.00     0.127 S 
ATOM     61  O   UNL     1       1.212   5.511 -11.459  1.00  0.00    -0.237 OA
ATOM     62  O   UNL     1       1.583   3.177 -10.755  1.00  0.00    -0.237 OA
ATOM     63  O   UNL     1       0.669   4.801  -9.158  1.00  0.00    -0.744 OA
ENDBRANCH  57  60
ENDBRANCH  29  53
BRANCH  41  64
ATOM     64  C   UNL     1       8.089  11.416  -5.925  1.00  0.00     0.023 A 
ATOM     65  C   UNL     1       7.263  12.425  -6.457  1.00  0.00     0.012 A 
ATOM     66  C   UNL     1       9.488  11.588  -5.938  1.00  0.00     0.148 A 
ATOM     67  C   UNL     1       7.821  13.578  -7.010  1.00  0.00     0.002 A 
ATOM     68  C   UNL     1      10.034  12.759  -6.446  1.00  0.00     0.091 A 
ATOM     69  F   UNL     1      10.256  10.605  -5.445  1.00  0.00    -0.205 F 
ATOM     70  C   UNL     1       9.203  13.751  -6.991  1.00  0.00     0.022 A 
BRANCH  68  71
ATOM     71  S   UNL     1      11.795  13.111  -6.375  1.00  0.00     0.127 S 
ATOM     72  O   UNL     1      12.177  13.006  -7.782  1.00  0.00    -0.237 OA
ATOM     73  O   UNL     1      11.817  14.472  -5.836  1.00  0.00    -0.237 OA
ATOM     74  O   UNL     1      12.372  12.103  -5.496  1.00  0.00    -0.744 OA
ENDBRANCH  68  71
ENDBRANCH  41  64
ENDBRANCH  15  16
ENDBRANCH   8  10
ENDBRANCH   5   6
ENDBRANCH   4   5
ENDBRANCH   3   4
ENDBRANCH   2   3
ENDBRANCH   1   2
BRANCH   1  75
ATOM     75  C   UNL     1       6.561  -3.587   4.125  1.00  0.00     0.116 C 
BRANCH  75  76
ATOM     76  N   UNL     1       6.485  -4.842   4.840  1.00  0.00    -0.356 N 
ATOM     77  C   UNL     1       7.411  -5.785   5.138  1.00  0.00     0.224 C 
ATOM     78  H   UNL     1       5.584  -5.052   5.175  1.00  0.00     0.163 HD
ATOM     79  O   UNL     1       6.978  -6.791   5.716  1.00  0.00    -0.275 OA
BRANCH  77  80
ATOM     80  C   UNL     1       8.915  -5.600   4.936  1.00  0.00     0.098 C 
ATOM     81  C   UNL     1       9.478  -4.875   3.666  1.00  0.00     0.098 C 
ATOM     82  C   UNL     1       9.604  -6.999   4.836  1.00  0.00     0.025 C 
ATOM     83  C   UNL     1      10.453  -5.928   3.071  1.00  0.00     0.025 C 
ATOM     84  C   UNL     1       9.099  -7.708   3.594  1.00  0.00    -0.027 C 
ATOM     85  C   UNL     1      10.995  -6.635   4.319  1.00  0.00     0.017 C 
ATOM     86  C   UNL     1       9.605  -7.063   2.532  1.00  0.00    -0.027 C 
BRANCH  81  87
ATOM     87  C   UNL     1      10.227  -3.610   4.092  1.00  0.00     0.224 C 
ATOM     88  O   UNL     1      11.050  -3.616   5.009  1.00  0.00    -0.275 OA
ATOM     89  N   UNL     1       9.969  -2.412   3.502  1.00  0.00    -0.352 N 
ATOM     90  H   UNL     1      10.161  -1.618   4.053  1.00  0.00     0.163 HD
BRANCH  89  91
ATOM     91  C   UNL     1       9.452  -2.140   2.177  1.00  0.00     0.155 C 
BRANCH  91  92
ATOM     92  C   UNL     1       8.576  -0.927   2.001  1.00  0.00     0.013 A 
ATOM     93  C   UNL     1       8.224  -0.165   3.142  1.00  0.00     0.009 A 
ATOM     94  C   UNL     1       8.121  -0.481   0.742  1.00  0.00     0.124 A 
ATOM     95  C   UNL     1       7.482   1.014   3.046  1.00  0.00     0.001 A 
ATOM     96  C   UNL     1       7.384   0.718   0.672  1.00  0.00     0.047 A 
ATOM     97  C   UNL     1       7.067   1.462   1.805  1.00  0.00     0.004 A 
BRANCH  94  98
ATOM     98  O   UNL     1       8.253  -1.013  -0.510  1.00  0.00    -0.489 OA
BRANCH  98  99
ATOM     99  C   UNL     1       9.039  -2.144  -0.878  1.00  0.00     0.265 C 
BRANCH  99 100
ATOM    100  C   UNL     1      10.527  -1.890  -0.829  1.00  0.00    -0.011 A 
ATOM    101  C   UNL     1      11.400  -2.872  -0.331  1.00  0.00     0.007 A 
ATOM    102  C   UNL     1      11.049  -0.644  -1.202  1.00  0.00     0.007 A 
ATOM    103  C   UNL     1      12.732  -2.555  -0.062  1.00  0.00     0.000 A 
ATOM    104  C   UNL     1      12.389  -0.343  -0.967  1.00  0.00     0.000 A 
ATOM    105  C   UNL     1      13.221  -1.286  -0.365  1.00  0.00     0.000 A 
ENDBRANCH  99 100
ENDBRANCH  98  99
ENDBRANCH  94  98
ENDBRANCH  91  92
ENDBRANCH  89  91
ENDBRANCH  81  87
ENDBRANCH  77  80
ENDBRANCH  75  76
ENDBRANCH   1  75
TORSDOF 22
