REMARK SMILES CCCC(=O)Nc1cccc(C(=O)N[C@@H](C(=O)NCCCCCCNC(=O)c2ccc(-c3c4nc(c(-c5cccc(S(=O)(=O)[O-])c5F)c5ccc([nH]5)c(-c5cccc(S(=O)(=O)[O-])c5F)c5nc(c(-c6cccc(S(=O)(=O)[O-])c6F)c6ccc3[nH]6)C=C5)C=C4)cc2)C2=C(C)N=N[C@@H]2C)c1
REMARK SMILES IDX 20 1 19 2 18 3 16 4 17 5 15 7 14 8 12 9 13 10 11 12 7 13
REMARK SMILES IDX 8 14 98 15 9 16 10 17 6 18 4 19 5 20 3 22 2 23 1 24 91 25
REMARK SMILES IDX 92 26 96 27 93 28 94 29 95 30 97 31 21 32 22 33 23 34 24 35
REMARK SMILES IDX 25 36 26 37 27 39 28 40 29 41 90 42 30 43 89 44 31 45 32 46
REMARK SMILES IDX 33 47 83 48 34 49 88 50 82 51 84 52 35 53 87 54 81 55 80 56
REMARK SMILES IDX 36 58 68 59 48 60 67 61 49 62 52 63 66 64 85 65 50 66 51 67
REMARK SMILES IDX 65 69 86 70 53 71 37 72 38 73 46 74 39 75 41 76 47 77 40 78
REMARK SMILES IDX 42 79 43 80 44 81 45 82 69 83 70 84 78 85 71 86 73 87 79 88
REMARK SMILES IDX 72 89 74 90 75 91 76 92 77 93 54 94 55 95 63 96 56 97 58 98
REMARK SMILES IDX 64 99 57 100 59 101 60 102 61 103 62 104
REMARK H PARENT 18 6 14 11 6 21 25 38 84 57 52 68
REMARK Flexibility Score: inf
ROOT
ATOM      1  C   UNL     1      -1.479  -2.651  -2.978  1.00  0.00     0.021 C 
ENDROOT
BRANCH   1   2
ATOM      2  C   UNL     1      -1.588  -1.430  -2.072  1.00  0.00     0.116 C 
BRANCH   2   3
ATOM      3  N   UNL     1      -2.293  -1.755  -0.855  1.00  0.00    -0.354 N 
ATOM      4  C   UNL     1      -1.817  -1.886   0.417  1.00  0.00     0.247 C 
ATOM      5  O   UNL     1      -2.650  -2.164   1.286  1.00  0.00    -0.272 OA
ATOM      6  H   UNL     1      -3.261  -1.904  -0.958  1.00  0.00     0.163 HD
BRANCH   4   7
ATOM      7  C   UNL     1      -0.329  -1.526   0.750  1.00  0.00     0.202 C 
BRANCH   7   8
ATOM      8  N   UNL     1       0.621  -2.276  -0.079  1.00  0.00    -0.337 N 
ATOM      9  C   UNL     1       1.577  -2.023  -1.035  1.00  0.00     0.252 C 
ATOM     10  O   UNL     1       2.083  -3.031  -1.537  1.00  0.00    -0.269 OA
ATOM     11  H   UNL     1       0.554  -3.242   0.101  1.00  0.00     0.165 HD
BRANCH   9  12
ATOM     12  C   UNL     1       2.050  -0.686  -1.528  1.00  0.00     0.041 A 
ATOM     13  C   UNL     1       2.007   1.748  -1.679  1.00  0.00     0.041 A 
ATOM     14  C   UNL     1       3.079   1.759  -2.555  1.00  0.00     0.026 A 
ATOM     15  C   UNL     1       1.462   0.539  -1.228  1.00  0.00     0.040 A 
ATOM     16  C   UNL     1       3.676   0.547  -2.892  1.00  0.00     0.003 A 
ATOM     17  C   UNL     1       3.175  -0.659  -2.373  1.00  0.00     0.014 A 
BRANCH  13  18
ATOM     18  N   UNL     1       1.421   2.946  -1.254  1.00  0.00    -0.326 N 
ATOM     19  C   UNL     1       1.163   3.255   0.061  1.00  0.00     0.224 C 
ATOM     20  O   UNL     1       0.180   3.925   0.375  1.00  0.00    -0.275 OA
ATOM     21  H   UNL     1       1.179   3.609  -1.940  1.00  0.00     0.169 HD
BRANCH  19  22
ATOM     22  C   UNL     1       2.215   2.837   1.089  1.00  0.00     0.100 C 
BRANCH  22  23
ATOM     23  C   UNL     1       1.912   1.564   1.870  1.00  0.00     0.006 C 
ATOM     24  C   UNL     1       2.945   0.454   1.701  1.00  0.00     0.004 C 
ENDBRANCH  22  23
ENDBRANCH  19  22
ENDBRANCH  13  18
ENDBRANCH   9  12
ENDBRANCH   7   8
BRANCH   7  25
ATOM     25  C   UNL     1      -0.084  -1.768   2.209  1.00  0.00     0.011 C 
ATOM     26  C   UNL     1      -0.412  -0.980   3.247  1.00  0.00     0.064 C 
ATOM     27  C   UNL     1       0.319  -3.063   2.833  1.00  0.00     0.156 C 
ATOM     28  C   UNL     1      -1.061   0.364   3.249  1.00  0.00     0.069 C 
ATOM     29  N   UNL     1      -0.228  -1.598   4.457  1.00  0.00    -0.160 NA
ATOM     30  N   UNL     1       0.140  -2.790   4.287  1.00  0.00    -0.181 NA
ATOM     31  C   UNL     1       1.768  -3.487   2.637  1.00  0.00     0.040 C 
ENDBRANCH   7  25
ENDBRANCH   4   7
ENDBRANCH   2   3
ENDBRANCH   1   2
BRANCH   1  32
ATOM     32  C   UNL     1      -2.757  -2.883  -3.787  1.00  0.00     0.002 C 
BRANCH  32  33
ATOM     33  C   UNL     1      -3.118  -1.726  -4.728  1.00  0.00     0.002 C 
BRANCH  33  34
ATOM     34  C   UNL     1      -2.029  -1.370  -5.744  1.00  0.00     0.021 C 
BRANCH  34  35
ATOM     35  C   UNL     1      -1.642  -2.523  -6.664  1.00  0.00     0.116 C 
BRANCH  35  36
ATOM     36  N   UNL     1      -2.801  -3.039  -7.379  1.00  0.00    -0.352 N 
ATOM     37  C   UNL     1      -3.002  -3.163  -8.729  1.00  0.00     0.251 C 
ATOM     38  H   UNL     1      -3.546  -3.343  -6.812  1.00  0.00     0.163 HD
ATOM     39  O   UNL     1      -4.128  -3.369  -9.169  1.00  0.00    -0.269 OA
BRANCH  37  40
ATOM     40  C   UNL     1      -1.850  -3.049  -9.643  1.00  0.00     0.039 A 
ATOM     41  C   UNL     1      -1.980  -2.295 -10.811  1.00  0.00     0.014 A 
ATOM     42  C   UNL     1      -0.648  -3.697  -9.345  1.00  0.00     0.014 A 
ATOM     43  C   UNL     1      -0.883  -2.157 -11.663  1.00  0.00     0.010 A 
ATOM     44  C   UNL     1       0.462  -3.497 -10.155  1.00  0.00     0.010 A 
ATOM     45  C   UNL     1       0.352  -2.736 -11.328  1.00  0.00    -0.014 A 
BRANCH  45  46
ATOM     46  C   UNL     1       1.544  -2.558 -12.192  1.00  0.00     0.031 A 
ATOM     47  C   UNL     1       2.184  -3.750 -12.849  1.00  0.00     0.074 A 
ATOM     48  C   UNL     1       2.099  -1.337 -12.308  1.00  0.00     0.049 A 
ATOM     49  N   UNL     1       3.260  -3.802 -13.590  1.00  0.00    -0.248 NA
ATOM     50  C   UNL     1       1.549  -5.060 -12.622  1.00  0.00     0.031 C 
ATOM     51  C   UNL     1       1.614  -0.121 -11.650  1.00  0.00     0.029 A 
ATOM     52  N   UNL     1       3.209  -0.920 -12.998  1.00  0.00    -0.354 N 
ATOM     53  C   UNL     1       3.453  -5.146 -13.885  1.00  0.00     0.074 A 
ATOM     54  C   UNL     1       2.402  -5.881 -13.216  1.00  0.00     0.031 C 
ATOM     55  C   UNL     1       2.420   0.903 -11.971  1.00  0.00     0.029 A 
ATOM     56  C   UNL     1       3.494   0.414 -12.830  1.00  0.00     0.049 A 
ATOM     57  H   UNL     1       3.751  -1.520 -13.561  1.00  0.00     0.167 HD
ATOM     58  C   UNL     1       4.401  -5.714 -14.667  1.00  0.00     0.034 A 
ATOM     59  C   UNL     1       4.510   1.158 -13.308  1.00  0.00     0.034 A 
ATOM     60  C   UNL     1       5.415  -4.971 -15.365  1.00  0.00     0.049 A 
ATOM     61  C   UNL     1       5.524   0.510 -14.211  1.00  0.00     0.074 A 
ATOM     62  C   UNL     1       6.364  -5.440 -16.256  1.00  0.00     0.029 A 
ATOM     63  N   UNL     1       5.619  -3.606 -15.243  1.00  0.00    -0.354 N 
ATOM     64  N   UNL     1       5.593  -0.736 -14.612  1.00  0.00    -0.248 NA
ATOM     65  C   UNL     1       6.577   1.377 -14.758  1.00  0.00     0.031 C 
ATOM     66  C   UNL     1       7.159  -4.360 -16.653  1.00  0.00     0.029 A 
ATOM     67  C   UNL     1       6.685  -3.214 -16.034  1.00  0.00     0.049 A 
ATOM     68  H   UNL     1       5.083  -3.003 -14.678  1.00  0.00     0.167 HD
ATOM     69  C   UNL     1       6.673  -0.796 -15.486  1.00  0.00     0.074 A 
ATOM     70  C   UNL     1       7.215   0.545 -15.570  1.00  0.00     0.031 C 
ATOM     71  C   UNL     1       7.179  -1.866 -16.147  1.00  0.00     0.034 A 
BRANCH  58  72
ATOM     72  C   UNL     1       4.355  -7.209 -14.851  1.00  0.00     0.023 A 
ATOM     73  C   UNL     1       3.321  -7.785 -15.617  1.00  0.00     0.012 A 
ATOM     74  C   UNL     1       5.363  -8.036 -14.318  1.00  0.00     0.148 A 
ATOM     75  C   UNL     1       3.270  -9.164 -15.821  1.00  0.00     0.002 A 
ATOM     76  C   UNL     1       5.331  -9.404 -14.565  1.00  0.00     0.091 A 
ATOM     77  F   UNL     1       6.326  -7.474 -13.575  1.00  0.00    -0.205 F 
ATOM     78  C   UNL     1       4.280  -9.970 -15.304  1.00  0.00     0.022 A 
BRANCH  76  79
ATOM     79  S   UNL     1       6.627 -10.518 -14.013  1.00  0.00     0.127 S 
ATOM     80  O   UNL     1       5.940 -11.275 -12.967  1.00  0.00    -0.237 OA
ATOM     81  O   UNL     1       6.914 -11.281 -15.228  1.00  0.00    -0.237 OA
ATOM     82  O   UNL     1       7.719  -9.670 -13.556  1.00  0.00    -0.744 OA
ENDBRANCH  76  79
ENDBRANCH  58  72
BRANCH  59  83
ATOM     83  C   UNL     1       4.577   2.614 -12.995  1.00  0.00     0.023 A 
ATOM     84  C   UNL     1       4.333   3.552 -14.017  1.00  0.00     0.012 A 
ATOM     85  C   UNL     1       4.848   3.072 -11.692  1.00  0.00     0.148 A 
ATOM     86  C   UNL     1       4.392   4.921 -13.754  1.00  0.00     0.002 A 
ATOM     87  C   UNL     1       4.849   4.436 -11.424  1.00  0.00     0.091 A 
ATOM     88  F   UNL     1       5.085   2.164 -10.735  1.00  0.00    -0.205 F 
ATOM     89  C   UNL     1       4.640   5.363 -12.457  1.00  0.00     0.022 A 
BRANCH  87  90
ATOM     90  S   UNL     1       5.026   5.090  -9.760  1.00  0.00     0.127 S 
ATOM     91  O   UNL     1       6.357   5.687  -9.811  1.00  0.00    -0.237 OA
ATOM     92  O   UNL     1       3.921   6.048  -9.692  1.00  0.00    -0.237 OA
ATOM     93  O   UNL     1       4.879   3.946  -8.868  1.00  0.00    -0.744 OA
ENDBRANCH  87  90
ENDBRANCH  59  83
BRANCH  71  94
ATOM     94  C   UNL     1       8.359  -1.632 -17.054  1.00  0.00     0.023 A 
ATOM     95  C   UNL     1       9.629  -1.374 -16.502  1.00  0.00     0.012 A 
ATOM     96  C   UNL     1       8.222  -1.747 -18.451  1.00  0.00     0.148 A 
ATOM     97  C   UNL     1      10.739  -1.200 -17.328  1.00  0.00     0.002 A 
ATOM     98  C   UNL     1       9.341  -1.624 -19.266  1.00  0.00     0.091 A 
ATOM     99  F   UNL     1       7.002  -1.976 -18.958  1.00  0.00    -0.205 F 
ATOM    100  C   UNL     1      10.597  -1.337 -18.707  1.00  0.00     0.022 A 
BRANCH  98 101
ATOM    101  S   UNL     1       9.272  -1.883 -21.042  1.00  0.00     0.127 S 
ATOM    102  O   UNL     1       9.434  -0.520 -21.548  1.00  0.00    -0.237 OA
ATOM    103  O   UNL     1      10.421  -2.759 -21.272  1.00  0.00    -0.237 OA
ATOM    104  O   UNL     1       7.979  -2.499 -21.308  1.00  0.00    -0.744 OA
ENDBRANCH  98 101
ENDBRANCH  71  94
ENDBRANCH  45  46
ENDBRANCH  37  40
ENDBRANCH  35  36
ENDBRANCH  34  35
ENDBRANCH  33  34
ENDBRANCH  32  33
ENDBRANCH   1  32
TORSDOF 22
