REMARK SMILES COC(=O)c1ccc2c(c1)=N[C@H](c1cn(CCC(=O)NCCCCCCNC(=O)c3ccc(-c4c5nc(c(-c6cccc(S(=O)(=O)[O-])c6F)c6ccc([nH]6)c(-c6cccc(S(=O)(=O)[O-])c6F)c6nc(c(-c7cccc(S(=O)(=O)[O-])c7F)c7ccc4[nH]7)C=C6)C=C5)cc3)c3ccccc13)N=2
REMARK SMILES IDX 22 1 21 2 20 3 18 4 19 5 17 7 16 8 15 9 13 10 14 11 98 12
REMARK SMILES IDX 93 13 97 14 94 15 96 16 95 17 12 18 5 19 6 20 10 21 7 22
REMARK SMILES IDX 9 23 8 24 11 25 99 26 3 27 4 28 2 29 1 30 23 31 24 32 25 33
REMARK SMILES IDX 26 34 27 35 28 36 29 38 30 39 31 40 92 41 32 42 91 43 33 44
REMARK SMILES IDX 34 45 35 46 85 47 36 48 90 49 84 50 86 51 37 52 89 53 83 54
REMARK SMILES IDX 82 55 38 57 70 58 50 59 69 60 51 61 54 62 68 63 87 64 52 65
REMARK SMILES IDX 53 66 67 68 88 69 55 70 39 71 40 72 48 73 41 74 43 75 49 76
REMARK SMILES IDX 42 77 44 78 45 79 46 80 47 81 71 82 72 83 80 84 73 85 75 86
REMARK SMILES IDX 81 87 74 88 76 89 77 90 78 91 79 92 56 93 57 94 65 95 58 96
REMARK SMILES IDX 60 97 66 98 59 99 61 100 62 101 63 102 64 103
REMARK H PARENT 20 6 27 37 86 56 54 67
REMARK Flexibility Score: inf
ROOT
ATOM      1  C   UNL     1      -2.669  -9.244  -5.870  1.00  0.00     0.021 C 
ENDROOT
BRANCH   1   2
ATOM      2  C   UNL     1      -2.022 -10.189  -6.905  1.00  0.00     0.116 C 
BRANCH   2   3
ATOM      3  N   UNL     1      -2.020  -9.722  -8.286  1.00  0.00    -0.356 N 
ATOM      4  C   UNL     1      -1.022  -9.493  -9.189  1.00  0.00     0.221 C 
ATOM      5  O   UNL     1      -1.353  -9.217 -10.347  1.00  0.00    -0.275 OA
ATOM      6  H   UNL     1      -2.919  -9.534  -8.639  1.00  0.00     0.163 HD
BRANCH   4   7
ATOM      7  C   UNL     1       0.447  -9.643  -8.838  1.00  0.00     0.122 C 
BRANCH   7   8
ATOM      8  C   UNL     1       1.301  -8.425  -9.278  1.00  0.00     0.132 C 
BRANCH   8   9
ATOM      9  N   UNL     1       1.349  -7.314  -8.311  1.00  0.00    -0.347 N 
ATOM     10  C   UNL     1       0.453  -7.177  -6.293  1.00  0.00     0.024 A 
ATOM     11  C   UNL     1       1.604  -7.569  -6.983  1.00  0.00     0.094 A 
ATOM     12  C   UNL     1      -0.480  -6.810  -7.340  1.00  0.00     0.007 A 
ATOM     13  C   UNL     1       0.414  -6.301  -8.272  1.00  0.00     0.048 A 
ATOM     14  C   UNL     1      -1.783  -6.321  -7.474  1.00  0.00     0.011 A 
ATOM     15  C   UNL     1       0.341  -4.940  -8.605  1.00  0.00     0.027 A 
ATOM     16  C   UNL     1      -1.993  -5.044  -7.977  1.00  0.00     0.001 A 
ATOM     17  C   UNL     1      -0.893  -4.302  -8.373  1.00  0.00     0.002 A 
BRANCH  10  18
ATOM     18  C   UNL     1       0.413  -7.095  -4.792  1.00  0.00     0.255 C 
ATOM     19  C   UNL     1       0.792  -3.341  -2.295  1.00  0.00     0.062 A 
ATOM     20  C   UNL     1      -0.578  -3.719  -1.975  1.00  0.00     0.018 A 
ATOM     21  C   UNL     1       1.573  -4.100  -3.084  1.00  0.00     0.046 A 
ATOM     22  C   UNL     1      -1.208  -4.753  -2.548  1.00  0.00     0.031 A 
ATOM     23  C   UNL     1       0.984  -5.309  -3.671  1.00  0.00     0.087 A 
ATOM     24  C   UNL     1      -0.454  -5.582  -3.496  1.00  0.00     0.086 A 
ATOM     25  N   UNL     1       1.558  -6.219  -4.373  1.00  0.00    -0.252 NA
ATOM     26  N   UNL     1      -0.848  -6.580  -4.207  1.00  0.00    -0.252 NA
BRANCH  19  27
ATOM     27  C   UNL     1       1.371  -2.063  -1.797  1.00  0.00     0.337 C 
ATOM     28  O   UNL     1       2.322  -1.482  -2.329  1.00  0.00    -0.246 OA
BRANCH  27  29
ATOM     29  O   UNL     1       0.697  -1.631  -0.708  1.00  0.00    -0.465 OA
ATOM     30  C   UNL     1       1.101  -0.354  -0.211  1.00  0.00     0.282 C 
ENDBRANCH  27  29
ENDBRANCH  19  27
ENDBRANCH  10  18
ENDBRANCH   8   9
ENDBRANCH   7   8
ENDBRANCH   4   7
ENDBRANCH   2   3
ENDBRANCH   1   2
BRANCH   1  31
ATOM     31  C   UNL     1      -4.001  -8.572  -6.255  1.00  0.00     0.002 C 
BRANCH  31  32
ATOM     32  C   UNL     1      -5.087  -8.542  -5.184  1.00  0.00     0.002 C 
BRANCH  32  33
ATOM     33  C   UNL     1      -4.661  -7.993  -3.827  1.00  0.00     0.021 C 
BRANCH  33  34
ATOM     34  C   UNL     1      -3.989  -6.619  -3.835  1.00  0.00     0.116 C 
BRANCH  34  35
ATOM     35  N   UNL     1      -4.827  -5.426  -3.856  1.00  0.00    -0.352 N 
ATOM     36  C   UNL     1      -5.617  -4.827  -2.904  1.00  0.00     0.251 C 
ATOM     37  H   UNL     1      -4.826  -4.958  -4.722  1.00  0.00     0.163 HD
ATOM     38  O   UNL     1      -6.054  -3.697  -3.110  1.00  0.00    -0.269 OA
BRANCH  36  39
ATOM     39  C   UNL     1      -6.052  -5.573  -1.710  1.00  0.00     0.039 A 
ATOM     40  C   UNL     1      -5.221  -6.478  -1.061  1.00  0.00     0.014 A 
ATOM     41  C   UNL     1      -7.399  -5.457  -1.340  1.00  0.00     0.014 A 
ATOM     42  C   UNL     1      -5.790  -7.467  -0.291  1.00  0.00     0.010 A 
ATOM     43  C   UNL     1      -7.951  -6.377  -0.463  1.00  0.00     0.010 A 
ATOM     44  C   UNL     1      -7.165  -7.440  -0.025  1.00  0.00    -0.014 A 
BRANCH  44  45
ATOM     45  C   UNL     1      -7.670  -8.479   0.863  1.00  0.00     0.031 A 
ATOM     46  C   UNL     1      -6.866  -8.610   2.113  1.00  0.00     0.074 A 
ATOM     47  C   UNL     1      -8.774  -9.210   0.616  1.00  0.00     0.049 A 
ATOM     48  N   UNL     1      -6.184  -9.634   2.510  1.00  0.00    -0.248 NA
ATOM     49  C   UNL     1      -6.616  -7.384   2.892  1.00  0.00     0.031 C 
ATOM     50  C   UNL     1      -9.755  -9.036  -0.457  1.00  0.00     0.029 A 
ATOM     51  N   UNL     1      -9.332 -10.190   1.380  1.00  0.00    -0.354 N 
ATOM     52  C   UNL     1      -5.596  -9.245   3.711  1.00  0.00     0.074 A 
ATOM     53  C   UNL     1      -5.735  -7.816   3.793  1.00  0.00     0.031 C 
ATOM     54  C   UNL     1     -10.900  -9.665  -0.111  1.00  0.00     0.029 A 
ATOM     55  C   UNL     1     -10.690 -10.378   1.135  1.00  0.00     0.049 A 
ATOM     56  H   UNL     1      -8.825 -10.714   2.041  1.00  0.00     0.167 HD
ATOM     57  C   UNL     1      -5.253 -10.151   4.664  1.00  0.00     0.034 A 
ATOM     58  C   UNL     1     -11.580 -10.976   1.968  1.00  0.00     0.034 A 
ATOM     59  C   UNL     1      -5.138 -11.477   4.124  1.00  0.00     0.049 A 
ATOM     60  C   UNL     1     -10.792 -11.841   2.882  1.00  0.00     0.074 A 
ATOM     61  C   UNL     1      -4.351 -12.061   3.151  1.00  0.00     0.029 A 
ATOM     62  N   UNL     1      -6.194 -12.331   4.327  1.00  0.00    -0.354 N 
ATOM     63  N   UNL     1     -10.124 -12.887   2.481  1.00  0.00    -0.248 NA
ATOM     64  C   UNL     1     -10.380 -11.284   4.162  1.00  0.00     0.031 C 
ATOM     65  C   UNL     1      -5.218 -12.972   2.484  1.00  0.00     0.029 A 
ATOM     66  C   UNL     1      -6.456 -12.938   3.129  1.00  0.00     0.049 A 
ATOM     67  H   UNL     1      -6.672 -12.479   5.175  1.00  0.00     0.167 HD
ATOM     68  C   UNL     1      -8.942 -12.838   3.208  1.00  0.00     0.074 A 
ATOM     69  C   UNL     1      -9.198 -11.892   4.294  1.00  0.00     0.031 C 
ATOM     70  C   UNL     1      -7.777 -13.329   2.696  1.00  0.00     0.034 A 
BRANCH  57  71
ATOM     71  C   UNL     1      -5.399  -9.903   6.144  1.00  0.00     0.023 A 
ATOM     72  C   UNL     1      -4.864 -10.866   7.027  1.00  0.00     0.012 A 
ATOM     73  C   UNL     1      -6.277  -8.941   6.696  1.00  0.00     0.148 A 
ATOM     74  C   UNL     1      -5.223 -10.896   8.379  1.00  0.00     0.002 A 
ATOM     75  C   UNL     1      -6.574  -8.932   8.052  1.00  0.00     0.091 A 
ATOM     76  F   UNL     1      -6.947  -8.108   5.896  1.00  0.00    -0.205 F 
ATOM     77  C   UNL     1      -6.073  -9.925   8.894  1.00  0.00     0.022 A 
BRANCH  75  78
ATOM     78  S   UNL     1      -7.654  -7.684   8.762  1.00  0.00     0.127 S 
ATOM     79  O   UNL     1      -8.871  -8.454   9.000  1.00  0.00    -0.237 OA
ATOM     80  O   UNL     1      -6.915  -7.300   9.965  1.00  0.00    -0.237 OA
ATOM     81  O   UNL     1      -7.748  -6.630   7.760  1.00  0.00    -0.744 OA
ENDBRANCH  75  78
ENDBRANCH  57  71
BRANCH  58  82
ATOM     82  C   UNL     1     -13.004 -10.631   2.234  1.00  0.00     0.023 A 
ATOM     83  C   UNL     1     -13.789 -11.495   3.029  1.00  0.00     0.012 A 
ATOM     84  C   UNL     1     -13.531  -9.350   1.951  1.00  0.00     0.148 A 
ATOM     85  C   UNL     1     -15.022 -11.084   3.556  1.00  0.00     0.002 A 
ATOM     86  C   UNL     1     -14.767  -8.954   2.457  1.00  0.00     0.091 A 
ATOM     87  F   UNL     1     -12.786  -8.471   1.271  1.00  0.00    -0.205 F 
ATOM     88  C   UNL     1     -15.509  -9.811   3.275  1.00  0.00     0.022 A 
BRANCH  86  89
ATOM     89  S   UNL     1     -15.446  -7.322   2.119  1.00  0.00     0.127 S 
ATOM     90  O   UNL     1     -16.855  -7.621   1.859  1.00  0.00    -0.237 OA
ATOM     91  O   UNL     1     -15.190  -6.620   3.373  1.00  0.00    -0.237 OA
ATOM     92  O   UNL     1     -14.720  -6.829   0.954  1.00  0.00    -0.744 OA
ENDBRANCH  86  89
ENDBRANCH  58  82
BRANCH  70  93
ATOM     93  C   UNL     1      -7.827 -14.120   1.416  1.00  0.00     0.023 A 
ATOM     94  C   UNL     1      -8.122 -13.514   0.176  1.00  0.00     0.012 A 
ATOM     95  C   UNL     1      -7.308 -15.425   1.435  1.00  0.00     0.148 A 
ATOM     96  C   UNL     1      -7.892 -14.196  -1.022  1.00  0.00     0.002 A 
ATOM     97  C   UNL     1      -7.041 -16.081   0.242  1.00  0.00     0.091 A 
ATOM     98  F   UNL     1      -7.022 -15.971   2.626  1.00  0.00    -0.205 F 
ATOM     99  C   UNL     1      -7.334 -15.472  -0.990  1.00  0.00     0.022 A 
BRANCH  97 100
ATOM    100  S   UNL     1      -6.202 -17.666   0.204  1.00  0.00     0.127 S 
ATOM    101  O   UNL     1      -7.236 -18.546  -0.337  1.00  0.00    -0.237 OA
ATOM    102  O   UNL     1      -5.085 -17.403  -0.705  1.00  0.00    -0.237 OA
ATOM    103  O   UNL     1      -5.803 -17.950   1.578  1.00  0.00    -0.744 OA
ENDBRANCH  97 100
ENDBRANCH  70  93
ENDBRANCH  44  45
ENDBRANCH  36  39
ENDBRANCH  34  35
ENDBRANCH  33  34
ENDBRANCH  32  33
ENDBRANCH  31  32
ENDBRANCH   1  31
TORSDOF 21
