REMARK SMILES Cc1cc(C(=O)N[C@@H](C)C(=O)NCCCCCCNC(=O)c2ccc(-c3c4nc(c(-c5cccc(S(=O)(=O)[O-])c5F)c5ccc([nH]5)c(-c5cccc(S(=O)(=O)[O-])c5F)c5nc(c(-c6cccc(S(=O)(=O)[O-])c6F)c6ccc3[nH]6)C=C5)C=C4)cc2)cc(C)c1OC(F)F
REMARK SMILES IDX 15 1 14 2 13 3 12 4 10 5 11 6 8 8 9 9 7 10 5 11 6 12 4 14
REMARK SMILES IDX 1 15 2 16 3 17 88 18 86 19 85 20 87 21 89 22 90 23 91 24
REMARK SMILES IDX 92 25 16 26 17 27 18 28 19 29 20 30 21 32 22 33 23 34 84 35
REMARK SMILES IDX 24 36 83 37 25 38 26 39 27 40 77 41 28 42 82 43 76 44 78 45
REMARK SMILES IDX 29 46 81 47 75 48 74 49 30 51 62 52 42 53 61 54 43 55 46 56
REMARK SMILES IDX 60 57 79 58 44 59 45 60 59 62 80 63 47 64 31 65 32 66 40 67
REMARK SMILES IDX 33 68 35 69 41 70 34 71 36 72 37 73 38 74 39 75 63 76 64 77
REMARK SMILES IDX 72 78 65 79 67 80 73 81 66 82 68 83 69 84 70 85 71 86 48 87
REMARK SMILES IDX 49 88 57 89 50 90 52 91 58 92 51 93 53 94 54 95 55 96 56 97
REMARK H PARENT 12 7 7 13 19 31 78 50 46 61
REMARK Flexibility Score: inf
ROOT
ATOM      1  C   UNL     1      -8.122  -0.041  -2.533  1.00  0.00     0.002 C 
ENDROOT
BRANCH   1   2
ATOM      2  C   UNL     1      -7.179   0.538  -1.476  1.00  0.00     0.021 C 
BRANCH   2   3
ATOM      3  C   UNL     1      -6.632  -0.467  -0.468  1.00  0.00     0.116 C 
BRANCH   3   4
ATOM      4  N   UNL     1      -5.737  -1.438  -1.069  1.00  0.00    -0.354 N 
ATOM      5  C   UNL     1      -4.525  -1.903  -0.646  1.00  0.00     0.242 C 
ATOM      6  O   UNL     1      -4.010  -2.827  -1.282  1.00  0.00    -0.273 OA
ATOM      7  H   UNL     1      -6.054  -1.823  -1.918  1.00  0.00     0.163 HD
BRANCH   5   8
ATOM      8  C   UNL     1      -3.809  -1.302   0.584  1.00  0.00     0.168 C 
ATOM      9  C   UNL     1      -4.569  -1.529   1.885  1.00  0.00     0.041 C 
BRANCH   8  10
ATOM     10  N   UNL     1      -3.497   0.102   0.312  1.00  0.00    -0.341 N 
ATOM     11  C   UNL     1      -2.381   0.728  -0.186  1.00  0.00     0.251 C 
ATOM     12  O   UNL     1      -2.483   1.920  -0.478  1.00  0.00    -0.269 OA
ATOM     13  H   UNL     1      -4.232   0.720   0.528  1.00  0.00     0.164 HD
BRANCH  11  14
ATOM     14  C   UNL     1      -1.045   0.079  -0.278  1.00  0.00     0.040 A 
ATOM     15  C   UNL     1       2.443   1.416   0.272  1.00  0.00     0.048 C 
ATOM     16  C   UNL     1       1.394   0.368   0.025  1.00  0.00    -0.008 A 
ATOM     17  C   UNL     1       0.077   0.886  -0.059  1.00  0.00     0.021 A 
ATOM     18  C   UNL     1       1.560  -1.026  -0.033  1.00  0.00     0.131 A 
ATOM     19  C   UNL     1       0.438  -1.835  -0.347  1.00  0.00    -0.008 A 
ATOM     20  C   UNL     1      -0.833  -1.264  -0.534  1.00  0.00     0.021 A 
ATOM     21  C   UNL     1       0.510  -3.343  -0.392  1.00  0.00     0.048 C 
BRANCH  18  22
ATOM     22  O   UNL     1       2.661  -1.768   0.275  1.00  0.00    -0.434 OA
BRANCH  22  23
ATOM     23  C   UNL     1       3.981  -1.321   0.054  1.00  0.00     0.542 C 
ATOM     24  F   UNL     1       4.080  -0.646  -1.113  1.00  0.00    -0.167 F 
ATOM     25  F   UNL     1       4.369  -0.524   1.075  1.00  0.00    -0.167 F 
ENDBRANCH  22  23
ENDBRANCH  18  22
ENDBRANCH  11  14
ENDBRANCH   8  10
ENDBRANCH   5   8
ENDBRANCH   3   4
ENDBRANCH   2   3
ENDBRANCH   1   2
BRANCH   1  26
ATOM     26  C   UNL     1      -9.304  -0.854  -1.995  1.00  0.00     0.002 C 
BRANCH  26  27
ATOM     27  C   UNL     1     -10.169  -0.161  -0.937  1.00  0.00     0.021 C 
BRANCH  27  28
ATOM     28  C   UNL     1     -10.745   1.194  -1.336  1.00  0.00     0.116 C 
BRANCH  28  29
ATOM     29  N   UNL     1     -11.582   1.117  -2.519  1.00  0.00    -0.352 N 
ATOM     30  C   UNL     1     -12.828   1.643  -2.751  1.00  0.00     0.251 C 
ATOM     31  H   UNL     1     -11.197   0.609  -3.269  1.00  0.00     0.163 HD
ATOM     32  O   UNL     1     -13.430   1.327  -3.774  1.00  0.00    -0.269 OA
BRANCH  30  33
ATOM     33  C   UNL     1     -13.459   2.566  -1.778  1.00  0.00     0.039 A 
ATOM     34  C   UNL     1     -14.826   2.428  -1.525  1.00  0.00     0.014 A 
ATOM     35  C   UNL     1     -12.737   3.586  -1.150  1.00  0.00     0.014 A 
ATOM     36  C   UNL     1     -15.458   3.281  -0.617  1.00  0.00     0.010 A 
ATOM     37  C   UNL     1     -13.355   4.394  -0.193  1.00  0.00     0.010 A 
ATOM     38  C   UNL     1     -14.724   4.259   0.076  1.00  0.00    -0.014 A 
BRANCH  38  39
ATOM     39  C   UNL     1     -15.389   5.117   1.092  1.00  0.00     0.031 A 
ATOM     40  C   UNL     1     -15.511   6.605   0.892  1.00  0.00     0.074 A 
ATOM     41  C   UNL     1     -15.850   4.555   2.228  1.00  0.00     0.049 A 
ATOM     42  N   UNL     1     -16.122   7.487   1.643  1.00  0.00    -0.248 NA
ATOM     43  C   UNL     1     -14.845   7.186  -0.285  1.00  0.00     0.031 C 
ATOM     44  C   UNL     1     -15.704   3.143   2.591  1.00  0.00     0.029 A 
ATOM     45  N   UNL     1     -16.524   5.101   3.292  1.00  0.00    -0.354 N 
ATOM     46  C   UNL     1     -15.887   8.723   1.052  1.00  0.00     0.074 A 
ATOM     47  C   UNL     1     -15.056   8.483  -0.107  1.00  0.00     0.031 C 
ATOM     48  C   UNL     1     -16.285   2.932   3.783  1.00  0.00     0.029 A 
ATOM     49  C   UNL     1     -16.834   4.191   4.276  1.00  0.00     0.049 A 
ATOM     50  H   UNL     1     -16.763   6.054   3.346  1.00  0.00     0.167 HD
ATOM     51  C   UNL     1     -16.345   9.942   1.424  1.00  0.00     0.034 A 
ATOM     52  C   UNL     1     -17.498   4.349   5.438  1.00  0.00     0.034 A 
ATOM     53  C   UNL     1     -17.221  10.170   2.542  1.00  0.00     0.049 A 
ATOM     54  C   UNL     1     -18.066   5.701   5.777  1.00  0.00     0.074 A 
ATOM     55  C   UNL     1     -17.842  11.348   2.922  1.00  0.00     0.029 A 
ATOM     56  N   UNL     1     -17.594   9.207   3.466  1.00  0.00    -0.354 N 
ATOM     57  N   UNL     1     -18.015   6.815   5.088  1.00  0.00    -0.248 NA
ATOM     58  C   UNL     1     -18.823   5.806   7.033  1.00  0.00     0.031 C 
ATOM     59  C   UNL     1     -18.571  11.101   4.090  1.00  0.00     0.029 A 
ATOM     60  C   UNL     1     -18.421   9.766   4.425  1.00  0.00     0.049 A 
ATOM     61  H   UNL     1     -17.311   8.264   3.443  1.00  0.00     0.167 HD
ATOM     62  C   UNL     1     -18.760   7.742   5.809  1.00  0.00     0.074 A 
ATOM     63  C   UNL     1     -19.280   7.049   6.969  1.00  0.00     0.031 C 
ATOM     64  C   UNL     1     -18.976   9.055   5.546  1.00  0.00     0.034 A 
BRANCH  51  65
ATOM     65  C   UNL     1     -15.964  11.132   0.581  1.00  0.00     0.023 A 
ATOM     66  C   UNL     1     -16.562  11.309  -0.682  1.00  0.00     0.012 A 
ATOM     67  C   UNL     1     -15.095  12.123   1.080  1.00  0.00     0.148 A 
ATOM     68  C   UNL     1     -16.287  12.442  -1.446  1.00  0.00     0.002 A 
ATOM     69  C   UNL     1     -14.857  13.269   0.330  1.00  0.00     0.091 A 
ATOM     70  F   UNL     1     -14.521  11.927   2.276  1.00  0.00    -0.205 F 
ATOM     71  C   UNL     1     -15.445  13.427  -0.936  1.00  0.00     0.022 A 
BRANCH  69  72
ATOM     72  S   UNL     1     -13.853  14.633   0.930  1.00  0.00     0.127 S 
ATOM     73  O   UNL     1     -12.693  14.557   0.043  1.00  0.00    -0.237 OA
ATOM     74  O   UNL     1     -14.725  15.783   0.696  1.00  0.00    -0.237 OA
ATOM     75  O   UNL     1     -13.583  14.348   2.333  1.00  0.00    -0.744 OA
ENDBRANCH  69  72
ENDBRANCH  51  65
BRANCH  52  76
ATOM     76  C   UNL     1     -17.740   3.179   6.330  1.00  0.00     0.023 A 
ATOM     77  C   UNL     1     -19.051   2.684   6.480  1.00  0.00     0.012 A 
ATOM     78  C   UNL     1     -16.689   2.553   7.026  1.00  0.00     0.148 A 
ATOM     79  C   UNL     1     -19.316   1.617   7.339  1.00  0.00     0.002 A 
ATOM     80  C   UNL     1     -16.951   1.453   7.835  1.00  0.00     0.091 A 
ATOM     81  F   UNL     1     -15.450   3.046   6.886  1.00  0.00    -0.205 F 
ATOM     82  C   UNL     1     -18.266   0.996   8.009  1.00  0.00     0.022 A 
BRANCH  80  83
ATOM     83  S   UNL     1     -15.634   0.517   8.618  1.00  0.00     0.127 S 
ATOM     84  O   UNL     1     -15.676   1.024   9.987  1.00  0.00    -0.237 OA
ATOM     85  O   UNL     1     -16.096  -0.863   8.457  1.00  0.00    -0.237 OA
ATOM     86  O   UNL     1     -14.434   0.833   7.854  1.00  0.00    -0.744 OA
ENDBRANCH  80  83
ENDBRANCH  52  76
BRANCH  64  87
ATOM     87  C   UNL     1     -19.830   9.825   6.520  1.00  0.00     0.023 A 
ATOM     88  C   UNL     1     -19.324  10.132   7.799  1.00  0.00     0.012 A 
ATOM     89  C   UNL     1     -21.111  10.282   6.157  1.00  0.00     0.148 A 
ATOM     90  C   UNL     1     -20.097  10.843   8.716  1.00  0.00     0.002 A 
ATOM     91  C   UNL     1     -21.856  11.034   7.059  1.00  0.00     0.091 A 
ATOM     92  F   UNL     1     -21.587   9.964   4.944  1.00  0.00    -0.205 F 
ATOM     93  C   UNL     1     -21.357  11.303   8.343  1.00  0.00     0.022 A 
BRANCH  91  94
ATOM     94  S   UNL     1     -23.447  11.744   6.621  1.00  0.00     0.127 S 
ATOM     95  O   UNL     1     -24.376  10.806   7.248  1.00  0.00    -0.237 OA
ATOM     96  O   UNL     1     -23.390  13.062   7.255  1.00  0.00    -0.237 OA
ATOM     97  O   UNL     1     -23.474  11.781   5.165  1.00  0.00    -0.744 OA
ENDBRANCH  91  94
ENDBRANCH  64  87
ENDBRANCH  38  39
ENDBRANCH  30  33
ENDBRANCH  28  29
ENDBRANCH  27  28
ENDBRANCH  26  27
ENDBRANCH   1  26
TORSDOF 20
