REMARK SMILES COc1ccc(-n2c(=O)[nH]c3cc(C(=O)NCCCCCCNC(=O)c4ccc(-c5c6nc(c(-c7cccc(S(=O)(=O)[O-])c7F)c7ccc([nH]7)c(-c7cccc(S(=O)(=O)[O-])c7F)c7nc(c(-c8cccc(S(=O)(=O)[O-])c8F)c8ccc5[nH]8)C=C7)C=C6)cc4)ccc3c2=O)cc1
REMARK SMILES IDX 20 1 19 2 18 3 17 4 16 5 14 6 15 7 13 9 7 10 8 11 92 12 9 13
REMARK SMILES IDX 10 14 91 15 93 16 11 17 90 19 12 20 89 21 6 22 3 23 4 24
REMARK SMILES IDX 95 25 5 26 94 27 2 28 1 29 21 30 22 31 23 32 24 33 25 35
REMARK SMILES IDX 26 36 27 37 88 38 28 39 87 40 29 41 30 42 31 43 81 44 32 45
REMARK SMILES IDX 86 46 80 47 82 48 33 49 85 50 79 51 78 52 34 54 66 55 46 56
REMARK SMILES IDX 65 57 47 58 50 59 64 60 83 61 48 62 49 63 63 65 84 66 51 67
REMARK SMILES IDX 35 68 36 69 44 70 37 71 39 72 45 73 38 74 40 75 41 76 42 77
REMARK SMILES IDX 43 78 67 79 68 80 76 81 69 82 71 83 77 84 70 85 72 86 73 87
REMARK SMILES IDX 74 88 75 89 52 90 53 91 61 92 54 93 56 94 62 95 55 96 57 97
REMARK SMILES IDX 58 98 59 99 60 100
REMARK H PARENT 16 8 10 18 23 34 82 53 50 64
REMARK Flexibility Score: inf
ROOT
ATOM      1  C   UNL     1       0.162  14.997  -7.526  1.00  0.00     0.002 C 
ENDROOT
BRANCH   1   2
ATOM      2  C   UNL     1       1.155  15.111  -6.367  1.00  0.00     0.002 C 
BRANCH   2   3
ATOM      3  C   UNL     1       0.964  14.114  -5.221  1.00  0.00     0.021 C 
BRANCH   3   4
ATOM      4  C   UNL     1       0.921  12.645  -5.624  1.00  0.00     0.116 C 
BRANCH   4   5
ATOM      5  N   UNL     1       2.160  12.193  -6.228  1.00  0.00    -0.352 N 
ATOM      6  C   UNL     1       2.881  11.046  -6.031  1.00  0.00     0.251 C 
ATOM      7  O   UNL     1       3.986  10.938  -6.561  1.00  0.00    -0.269 OA
ATOM      8  H   UNL     1       2.547  12.814  -6.888  1.00  0.00     0.163 HD
BRANCH   6   9
ATOM      9  C   UNL     1       2.379   9.930  -5.187  1.00  0.00     0.041 A 
ATOM     10  N   UNL     1       2.183   5.598  -2.626  1.00  0.00    -0.228 N 
ATOM     11  C   UNL     1       3.535   5.969  -2.636  1.00  0.00     0.333 A 
ATOM     12  C   UNL     1       1.192   6.566  -2.860  1.00  0.00     0.268 A 
ATOM     13  O   UNL     1       4.495   5.334  -2.202  1.00  0.00    -0.247 OA
ATOM     14  N   UNL     1       3.845   7.179  -3.208  1.00  0.00    -0.306 N 
ATOM     15  C   UNL     1       1.575   7.733  -3.665  1.00  0.00     0.064 A 
ATOM     16  O   UNL     1       0.044   6.564  -2.418  1.00  0.00    -0.268 OA
ATOM     17  C   UNL     1       2.919   8.024  -3.797  1.00  0.00     0.056 A 
ATOM     18  H   UNL     1       4.787   7.464  -3.198  1.00  0.00     0.171 HD
ATOM     19  C   UNL     1       0.615   8.519  -4.303  1.00  0.00     0.017 A 
ATOM     20  C   UNL     1       3.333   9.135  -4.530  1.00  0.00     0.040 A 
ATOM     21  C   UNL     1       1.024   9.587  -5.102  1.00  0.00     0.015 A 
BRANCH  10  22
ATOM     22  C   UNL     1       1.763   4.249  -2.263  1.00  0.00     0.054 A 
ATOM     23  C   UNL     1       0.880   1.623  -1.575  1.00  0.00     0.119 A 
ATOM     24  C   UNL     1       0.010   2.518  -2.176  1.00  0.00     0.048 A 
ATOM     25  C   UNL     1       2.201   1.999  -1.375  1.00  0.00     0.048 A 
ATOM     26  C   UNL     1       0.447   3.806  -2.515  1.00  0.00     0.031 A 
ATOM     27  C   UNL     1       2.632   3.293  -1.713  1.00  0.00     0.031 A 
BRANCH  23  28
ATOM     28  O   UNL     1       0.380   0.390  -1.266  1.00  0.00    -0.497 OA
ATOM     29  C   UNL     1       0.798  -0.084   0.012  1.00  0.00     0.278 C 
ENDBRANCH  23  28
ENDBRANCH  10  22
ENDBRANCH   6   9
ENDBRANCH   4   5
ENDBRANCH   3   4
ENDBRANCH   2   3
ENDBRANCH   1   2
BRANCH   1  30
ATOM     30  C   UNL     1      -1.318  15.010  -7.140  1.00  0.00     0.021 C 
BRANCH  30  31
ATOM     31  C   UNL     1      -1.754  16.177  -6.262  1.00  0.00     0.116 C 
BRANCH  31  32
ATOM     32  N   UNL     1      -1.512  17.466  -6.887  1.00  0.00    -0.352 N 
ATOM     33  C   UNL     1      -2.378  18.515  -7.081  1.00  0.00     0.251 C 
ATOM     34  H   UNL     1      -0.596  17.608  -7.220  1.00  0.00     0.163 HD
ATOM     35  O   UNL     1      -2.042  19.465  -7.777  1.00  0.00    -0.269 OA
BRANCH  33  36
ATOM     36  C   UNL     1      -3.723  18.482  -6.465  1.00  0.00     0.039 A 
ATOM     37  C   UNL     1      -4.825  18.851  -7.238  1.00  0.00     0.014 A 
ATOM     38  C   UNL     1      -3.896  18.089  -5.135  1.00  0.00     0.014 A 
ATOM     39  C   UNL     1      -6.108  18.777  -6.692  1.00  0.00     0.010 A 
ATOM     40  C   UNL     1      -5.181  17.938  -4.620  1.00  0.00     0.010 A 
ATOM     41  C   UNL     1      -6.300  18.292  -5.388  1.00  0.00    -0.014 A 
BRANCH  41  42
ATOM     42  C   UNL     1      -7.663  18.139  -4.820  1.00  0.00     0.031 A 
ATOM     43  C   UNL     1      -8.072  18.911  -3.596  1.00  0.00     0.074 A 
ATOM     44  C   UNL     1      -8.509  17.238  -5.356  1.00  0.00     0.049 A 
ATOM     45  N   UNL     1      -9.201  18.876  -2.937  1.00  0.00    -0.248 NA
ATOM     46  C   UNL     1      -7.068  19.819  -3.018  1.00  0.00     0.031 C 
ATOM     47  C   UNL     1      -8.200  16.360  -6.487  1.00  0.00     0.029 A 
ATOM     48  N   UNL     1      -9.788  16.887  -5.002  1.00  0.00    -0.354 N 
ATOM     49  C   UNL     1      -9.034  19.726  -1.850  1.00  0.00     0.074 A 
ATOM     50  C   UNL     1      -7.678  20.228  -1.915  1.00  0.00     0.031 C 
ATOM     51  C   UNL     1      -9.257  15.571  -6.731  1.00  0.00     0.029 A 
ATOM     52  C   UNL     1     -10.305  15.861  -5.757  1.00  0.00     0.049 A 
ATOM     53  H   UNL     1     -10.287  17.329  -4.277  1.00  0.00     0.167 HD
ATOM     54  C   UNL     1      -9.932  20.079  -0.899  1.00  0.00     0.034 A 
ATOM     55  C   UNL     1     -11.482  15.212  -5.667  1.00  0.00     0.034 A 
ATOM     56  C   UNL     1     -11.285  19.593  -0.851  1.00  0.00     0.049 A 
ATOM     57  C   UNL     1     -12.481  15.643  -4.630  1.00  0.00     0.074 A 
ATOM     58  C   UNL     1     -12.302  19.960   0.012  1.00  0.00     0.029 A 
ATOM     59  N   UNL     1     -11.805  18.616  -1.688  1.00  0.00    -0.354 N 
ATOM     60  N   UNL     1     -12.366  16.573  -3.713  1.00  0.00    -0.248 NA
ATOM     61  C   UNL     1     -13.785  14.966  -4.640  1.00  0.00     0.031 C 
ATOM     62  C   UNL     1     -13.424  19.176  -0.276  1.00  0.00     0.029 A 
ATOM     63  C   UNL     1     -13.122  18.352  -1.349  1.00  0.00     0.049 A 
ATOM     64  H   UNL     1     -11.311  18.175  -2.416  1.00  0.00     0.167 HD
ATOM     65  C   UNL     1     -13.589  16.613  -3.054  1.00  0.00     0.074 A 
ATOM     66  C   UNL     1     -14.437  15.627  -3.692  1.00  0.00     0.031 C 
ATOM     67  C   UNL     1     -13.970  17.390  -2.009  1.00  0.00     0.034 A 
BRANCH  54  68
ATOM     68  C   UNL     1      -9.477  21.064   0.149  1.00  0.00     0.023 A 
ATOM     69  C   UNL     1      -9.193  22.398  -0.216  1.00  0.00     0.012 A 
ATOM     70  C   UNL     1      -9.345  20.679   1.498  1.00  0.00     0.148 A 
ATOM     71  C   UNL     1      -8.729  23.312   0.728  1.00  0.00     0.002 A 
ATOM     72  C   UNL     1      -8.932  21.611   2.443  1.00  0.00     0.091 A 
ATOM     73  F   UNL     1      -9.599  19.405   1.828  1.00  0.00    -0.205 F 
ATOM     74  C   UNL     1      -8.606  22.921   2.058  1.00  0.00     0.022 A 
BRANCH  72  75
ATOM     75  S   UNL     1      -8.826  21.226   4.194  1.00  0.00     0.127 S 
ATOM     76  O   UNL     1      -7.380  21.142   4.390  1.00  0.00    -0.237 OA
ATOM     77  O   UNL     1      -9.456  22.396   4.806  1.00  0.00    -0.237 OA
ATOM     78  O   UNL     1      -9.559  19.981   4.375  1.00  0.00    -0.744 OA
ENDBRANCH  72  75
ENDBRANCH  54  68
BRANCH  55  79
ATOM     79  C   UNL     1     -11.781  14.113  -6.626  1.00  0.00     0.023 A 
ATOM     80  C   UNL     1     -12.725  14.314  -7.650  1.00  0.00     0.012 A 
ATOM     81  C   UNL     1     -11.075  12.895  -6.568  1.00  0.00     0.148 A 
ATOM     82  C   UNL     1     -12.974  13.315  -8.592  1.00  0.00     0.002 A 
ATOM     83  C   UNL     1     -11.284  11.928  -7.543  1.00  0.00     0.091 A 
ATOM     84  F   UNL     1     -10.185  12.726  -5.581  1.00  0.00    -0.205 F 
ATOM     85  C   UNL     1     -12.245  12.128  -8.546  1.00  0.00     0.022 A 
BRANCH  83  86
ATOM     86  S   UNL     1     -10.292  10.434  -7.649  1.00  0.00     0.127 S 
ATOM     87  O   UNL     1     -11.286   9.396  -7.393  1.00  0.00    -0.237 OA
ATOM     88  O   UNL     1      -9.806  10.498  -9.028  1.00  0.00    -0.237 OA
ATOM     89  O   UNL     1      -9.254  10.574  -6.637  1.00  0.00    -0.744 OA
ENDBRANCH  83  86
ENDBRANCH  55  79
BRANCH  67  90
ATOM     90  C   UNL     1     -15.380  17.234  -1.499  1.00  0.00     0.023 A 
ATOM     91  C   UNL     1     -15.751  16.073  -0.792  1.00  0.00     0.012 A 
ATOM     92  C   UNL     1     -16.318  18.273  -1.661  1.00  0.00     0.148 A 
ATOM     93  C   UNL     1     -17.043  15.935  -0.284  1.00  0.00     0.002 A 
ATOM     94  C   UNL     1     -17.586  18.151  -1.107  1.00  0.00     0.091 A 
ATOM     95  F   UNL     1     -15.952  19.362  -2.353  1.00  0.00    -0.205 F 
ATOM     96  C   UNL     1     -17.955  16.977  -0.430  1.00  0.00     0.022 A 
BRANCH  94  97
ATOM     97  S   UNL     1     -18.794  19.480  -1.159  1.00  0.00     0.127 S 
ATOM     98  O   UNL     1     -19.785  18.945  -2.091  1.00  0.00    -0.237 OA
ATOM     99  O   UNL     1     -19.238  19.549   0.233  1.00  0.00    -0.237 OA
ATOM    100  O   UNL     1     -18.076  20.659  -1.624  1.00  0.00    -0.744 OA
ENDBRANCH  94  97
ENDBRANCH  67  90
ENDBRANCH  41  42
ENDBRANCH  33  36
ENDBRANCH  31  32
ENDBRANCH  30  31
ENDBRANCH   1  30
TORSDOF 18
