REMARK SMILES C[C@]([NH2+]Cc1nc(-c2ccsc2)no1)(C(=O)NCCCCCCNC(=O)c1ccc(-c2c3nc(c(-c4cccc(S(=O)(=O)[O-])c4F)c4ccc([nH]4)c(-c4cccc(S(=O)(=O)[O-])c4F)c4nc(c(-c5cccc(S(=O)(=O)[O-])c5F)c5ccc2[nH]5)C=C4)C=C3)cc1)C(F)(F)F
REMARK SMILES IDX 20 1 19 2 18 3 17 4 15 5 16 6 2 8 1 9 90 10 91 11 92 12
REMARK SMILES IDX 93 13 3 14 4 17 5 18 6 19 14 20 7 21 13 22 8 23 9 24 12 25
REMARK SMILES IDX 10 26 11 27 21 28 22 29 23 30 24 31 25 32 26 34 27 35 28 36
REMARK SMILES IDX 89 37 29 38 88 39 30 40 31 41 32 42 82 43 33 44 87 45 81 46
REMARK SMILES IDX 83 47 34 48 86 49 80 50 79 51 35 53 67 54 47 55 66 56 48 57
REMARK SMILES IDX 51 58 65 59 84 60 49 61 50 62 64 64 85 65 52 66 36 67 37 68
REMARK SMILES IDX 45 69 38 70 40 71 46 72 39 73 41 74 42 75 43 76 44 77 68 78
REMARK SMILES IDX 69 79 77 80 70 81 72 82 78 83 71 84 73 85 74 86 75 87 76 88
REMARK SMILES IDX 53 89 54 90 62 91 55 92 57 93 63 94 56 95 58 96 59 97 60 98
REMARK SMILES IDX 61 99
REMARK H PARENT 17 7 3 15 3 16 24 33 83 52 51 63
REMARK Flexibility Score: inf
ROOT
ATOM      1  C   UNL     1      -2.955  -2.625   0.695  1.00  0.00     0.002 C 
ENDROOT
BRANCH   1   2
ATOM      2  C   UNL     1      -1.444  -2.363   0.621  1.00  0.00     0.021 C 
BRANCH   2   3
ATOM      3  C   UNL     1      -0.944  -2.023  -0.781  1.00  0.00     0.116 C 
BRANCH   3   4
ATOM      4  N   UNL     1      -1.431  -0.722  -1.202  1.00  0.00    -0.350 N 
ATOM      5  C   UNL     1      -0.794   0.459  -1.466  1.00  0.00     0.290 C 
ATOM      6  O   UNL     1      -1.535   1.412  -1.723  1.00  0.00    -0.267 OA
ATOM      7  H   UNL     1      -2.408  -0.681  -1.320  1.00  0.00     0.163 HD
BRANCH   5   8
ATOM      8  C   UNL     1       0.754   0.577  -1.448  1.00  0.00     0.268 C 
ATOM      9  C   UNL     1       1.358  -0.436  -2.452  1.00  0.00     0.101 C 
BRANCH   8  10
ATOM     10  C   UNL     1       1.054   2.014  -1.977  1.00  0.00     0.453 C 
ATOM     11  F   UNL     1       0.629   2.989  -1.143  1.00  0.00    -0.164 F 
ATOM     12  F   UNL     1       2.402   2.187  -2.101  1.00  0.00    -0.164 F 
ATOM     13  F   UNL     1       0.541   2.243  -3.207  1.00  0.00    -0.164 F 
ENDBRANCH   8  10
BRANCH   8  14
ATOM     14  N   UNL     1       1.209   0.287  -0.037  1.00  0.00    -0.318 N 
ATOM     15  H   UNL     1       1.179  -0.723   0.105  1.00  0.00     0.347 HD
ATOM     16  H   UNL     1       0.578   0.799   0.579  1.00  0.00     0.347 HD
BRANCH  14  17
ATOM     17  C   UNL     1       2.568   0.754   0.281  1.00  0.00     0.363 C 
BRANCH  17  18
ATOM     18  C   UNL     1       2.981   0.314   1.648  1.00  0.00     0.282 A 
ATOM     19  N   UNL     1       3.854  -0.601   2.011  1.00  0.00    -0.186 NA
ATOM     20  O   UNL     1       2.328   0.891   2.699  1.00  0.00    -0.333 OA
ATOM     21  C   UNL     1       3.701  -0.609   3.376  1.00  0.00     0.203 A 
ATOM     22  N   UNL     1       2.801   0.262   3.851  1.00  0.00    -0.057 NA
BRANCH  21  23
ATOM     23  C   UNL     1       4.464  -1.530   4.216  1.00  0.00     0.033 A 
ATOM     24  C   UNL     1       5.813  -1.902   3.936  1.00  0.00     0.024 A 
ATOM     25  C   UNL     1       3.989  -2.134   5.361  1.00  0.00     0.077 A 
ATOM     26  C   UNL     1       6.320  -2.760   4.889  1.00  0.00     0.065 A 
ATOM     27  S   UNL     1       5.166  -3.136   6.096  1.00  0.00    -0.152 S 
ENDBRANCH  21  23
ENDBRANCH  17  18
ENDBRANCH  14  17
ENDBRANCH   8  14
ENDBRANCH   5   8
ENDBRANCH   3   4
ENDBRANCH   2   3
ENDBRANCH   1   2
BRANCH   1  28
ATOM     28  C   UNL     1      -3.465  -3.737  -0.228  1.00  0.00     0.002 C 
BRANCH  28  29
ATOM     29  C   UNL     1      -2.759  -5.086  -0.067  1.00  0.00     0.021 C 
BRANCH  29  30
ATOM     30  C   UNL     1      -2.842  -5.681   1.335  1.00  0.00     0.116 C 
BRANCH  30  31
ATOM     31  N   UNL     1      -4.215  -5.966   1.724  1.00  0.00    -0.352 N 
ATOM     32  C   UNL     1      -4.762  -7.139   2.176  1.00  0.00     0.251 C 
ATOM     33  H   UNL     1      -4.840  -5.208   1.653  1.00  0.00     0.163 HD
ATOM     34  O   UNL     1      -5.984  -7.253   2.261  1.00  0.00    -0.269 OA
BRANCH  32  35
ATOM     35  C   UNL     1      -3.884  -8.270   2.543  1.00  0.00     0.039 A 
ATOM     36  C   UNL     1      -4.226  -9.557   2.120  1.00  0.00     0.014 A 
ATOM     37  C   UNL     1      -2.729  -8.063   3.304  1.00  0.00     0.014 A 
ATOM     38  C   UNL     1      -3.378 -10.627   2.412  1.00  0.00     0.010 A 
ATOM     39  C   UNL     1      -1.848  -9.118   3.526  1.00  0.00     0.010 A 
ATOM     40  C   UNL     1      -2.165 -10.412   3.087  1.00  0.00    -0.014 A 
BRANCH  40  41
ATOM     41  C   UNL     1      -1.210 -11.526   3.321  1.00  0.00     0.031 A 
ATOM     42  C   UNL     1      -0.850 -11.945   4.721  1.00  0.00     0.074 A 
ATOM     43  C   UNL     1      -0.606 -12.111   2.268  1.00  0.00     0.049 A 
ATOM     44  N   UNL     1      -0.017 -12.874   5.113  1.00  0.00    -0.248 NA
ATOM     45  C   UNL     1      -1.489 -11.210   5.824  1.00  0.00     0.031 C 
ATOM     46  C   UNL     1      -0.809 -11.741   0.865  1.00  0.00     0.029 A 
ATOM     47  N   UNL     1       0.318 -13.125   2.212  1.00  0.00    -0.354 N 
ATOM     48  C   UNL     1      -0.005 -12.814   6.502  1.00  0.00     0.074 A 
ATOM     49  C   UNL     1      -0.888 -11.733   6.883  1.00  0.00     0.031 C 
ATOM     50  C   UNL     1      -0.042 -12.522   0.088  1.00  0.00     0.029 A 
ATOM     51  C   UNL     1       0.733 -13.423   0.935  1.00  0.00     0.049 A 
ATOM     52  H   UNL     1       0.652 -13.594   3.010  1.00  0.00     0.167 HD
ATOM     53  C   UNL     1       0.657 -13.603   7.381  1.00  0.00     0.034 A 
ATOM     54  C   UNL     1       1.641 -14.316   0.494  1.00  0.00     0.034 A 
ATOM     55  C   UNL     1       1.511 -14.696   6.998  1.00  0.00     0.049 A 
ATOM     56  C   UNL     1       2.342 -15.199   1.489  1.00  0.00     0.074 A 
ATOM     57  C   UNL     1       2.155 -15.610   7.813  1.00  0.00     0.029 A 
ATOM     58  N   UNL     1       1.853 -15.014   5.693  1.00  0.00    -0.354 N 
ATOM     59  N   UNL     1       2.215 -15.235   2.794  1.00  0.00    -0.248 NA
ATOM     60  C   UNL     1       3.284 -16.189   0.950  1.00  0.00     0.031 C 
ATOM     61  C   UNL     1       2.917 -16.458   7.002  1.00  0.00     0.029 A 
ATOM     62  C   UNL     1       2.714 -16.099   5.679  1.00  0.00     0.049 A 
ATOM     63  H   UNL     1       1.531 -14.540   4.893  1.00  0.00     0.167 HD
ATOM     64  C   UNL     1       3.033 -16.271   3.228  1.00  0.00     0.074 A 
ATOM     65  C   UNL     1       3.633 -16.852   2.045  1.00  0.00     0.031 C 
ATOM     66  C   UNL     1       3.274 -16.696   4.493  1.00  0.00     0.034 A 
BRANCH  53  67
ATOM     67  C   UNL     1       0.454 -13.337   8.851  1.00  0.00     0.023 A 
ATOM     68  C   UNL     1      -0.792 -13.622   9.448  1.00  0.00     0.012 A 
ATOM     69  C   UNL     1       1.508 -12.858   9.654  1.00  0.00     0.148 A 
ATOM     70  C   UNL     1      -0.999 -13.396  10.808  1.00  0.00     0.002 A 
ATOM     71  C   UNL     1       1.309 -12.682  11.018  1.00  0.00     0.091 A 
ATOM     72  F   UNL     1       2.679 -12.574   9.068  1.00  0.00    -0.205 F 
ATOM     73  C   UNL     1       0.054 -12.937  11.594  1.00  0.00     0.022 A 
BRANCH  71  74
ATOM     74  S   UNL     1       2.624 -12.174  12.132  1.00  0.00     0.127 S 
ATOM     75  O   UNL     1       2.203 -10.820  12.487  1.00  0.00    -0.237 OA
ATOM     76  O   UNL     1       2.505 -13.152  13.213  1.00  0.00    -0.237 OA
ATOM     77  O   UNL     1       3.858 -12.264  11.364  1.00  0.00    -0.744 OA
ENDBRANCH  71  74
ENDBRANCH  53  67
BRANCH  54  78
ATOM     78  C   UNL     1       1.893 -14.457  -0.968  1.00  0.00     0.023 A 
ATOM     79  C   UNL     1       1.469 -15.623  -1.636  1.00  0.00     0.012 A 
ATOM     80  C   UNL     1       2.520 -13.433  -1.704  1.00  0.00     0.148 A 
ATOM     81  C   UNL     1       1.694 -15.780  -3.004  1.00  0.00     0.002 A 
ATOM     82  C   UNL     1       2.689 -13.571  -3.076  1.00  0.00     0.091 A 
ATOM     83  F   UNL     1       2.923 -12.336  -1.048  1.00  0.00    -0.205 F 
ATOM     84  C   UNL     1       2.294 -14.751  -3.725  1.00  0.00     0.022 A 
BRANCH  82  85
ATOM     85  S   UNL     1       3.329 -12.246  -4.107  1.00  0.00     0.127 S 
ATOM     86  O   UNL     1       4.615 -12.792  -4.533  1.00  0.00    -0.237 OA
ATOM     87  O   UNL     1       2.313 -12.167  -5.158  1.00  0.00    -0.237 OA
ATOM     88  O   UNL     1       3.395 -11.073  -3.247  1.00  0.00    -0.744 OA
ENDBRANCH  82  85
ENDBRANCH  54  78
BRANCH  66  89
ATOM     89  C   UNL     1       4.201 -17.871   4.671  1.00  0.00     0.023 A 
ATOM     90  C   UNL     1       5.582 -17.721   4.437  1.00  0.00     0.012 A 
ATOM     91  C   UNL     1       3.709 -19.107   5.135  1.00  0.00     0.148 A 
ATOM     92  C   UNL     1       6.454 -18.794   4.626  1.00  0.00     0.002 A 
ATOM     93  C   UNL     1       4.590 -20.155   5.373  1.00  0.00     0.091 A 
ATOM     94  F   UNL     1       2.389 -19.236   5.336  1.00  0.00    -0.205 F 
ATOM     95  C   UNL     1       5.960 -20.005   5.105  1.00  0.00     0.022 A 
BRANCH  93  96
ATOM     96  S   UNL     1       4.061 -21.718   6.081  1.00  0.00     0.127 S 
ATOM     97  O   UNL     1       4.195 -22.623   4.940  1.00  0.00    -0.237 OA
ATOM     98  O   UNL     1       5.046 -21.926   7.143  1.00  0.00    -0.237 OA
ATOM     99  O   UNL     1       2.699 -21.507   6.552  1.00  0.00    -0.744 OA
ENDBRANCH  93  96
ENDBRANCH  66  89
ENDBRANCH  40  41
ENDBRANCH  32  35
ENDBRANCH  30  31
ENDBRANCH  29  30
ENDBRANCH  28  29
ENDBRANCH   1  28
TORSDOF 21
