REMARK SMILES Cc1cc2cc(-c3ccc([C@@H](C)C(=O)NCCCCCCNC(=O)c4ccc(-c5c6nc(c(-c7cccc(S(=O)(=O)[O-])c7F)c7ccc([nH]7)c(-c7cccc(S(=O)(=O)[O-])c7F)c7nc(c(-c8cccc(S(=O)(=O)[O-])c8F)c8ccc5[nH]8)C=C7)C=C6)cc4)cc3)ccc2[nH]1
REMARK SMILES IDX 19 1 18 2 17 3 16 4 15 5 13 6 14 7 11 9 12 10 10 11 7 12
REMARK SMILES IDX 8 13 89 14 9 15 88 16 6 17 1 18 2 19 3 20 93 21 4 22 92 23
REMARK SMILES IDX 5 25 91 26 90 27 20 28 21 29 22 30 23 31 24 33 25 34 26 35
REMARK SMILES IDX 87 36 27 37 86 38 28 39 29 40 30 41 80 42 31 43 85 44 79 45
REMARK SMILES IDX 81 46 32 47 84 48 78 49 77 50 33 52 65 53 45 54 64 55 46 56
REMARK SMILES IDX 49 57 63 58 82 59 47 60 48 61 62 63 83 64 50 65 34 66 35 67
REMARK SMILES IDX 43 68 36 69 38 70 44 71 37 72 39 73 40 74 41 75 42 76 66 77
REMARK SMILES IDX 67 78 75 79 68 80 70 81 76 82 69 83 71 84 72 85 73 86 74 87
REMARK SMILES IDX 51 88 52 89 60 90 53 91 55 92 61 93 54 94 56 95 57 96 58 97
REMARK SMILES IDX 59 98
REMARK H PARENT 15 8 93 24 22 32 81 51 49 62
REMARK Flexibility Score: inf
ROOT
ATOM      1  C   UNL     1       6.201  -4.525  -6.053  1.00  0.00     0.002 C 
ENDROOT
BRANCH   1   2
ATOM      2  C   UNL     1       6.240  -3.280  -5.157  1.00  0.00     0.002 C 
BRANCH   2   3
ATOM      3  C   UNL     1       5.901  -3.531  -3.684  1.00  0.00     0.021 C 
BRANCH   3   4
ATOM      4  C   UNL     1       6.883  -4.465  -2.974  1.00  0.00     0.116 C 
BRANCH   4   5
ATOM      5  N   UNL     1       7.999  -3.738  -2.404  1.00  0.00    -0.356 N 
ATOM      6  C   UNL     1       8.267  -3.342  -1.129  1.00  0.00     0.227 C 
ATOM      7  O   UNL     1       9.282  -2.652  -0.971  1.00  0.00    -0.274 OA
ATOM      8  H   UNL     1       8.690  -3.483  -3.057  1.00  0.00     0.163 HD
BRANCH   6   9
ATOM      9  C   UNL     1       7.404  -3.720   0.085  1.00  0.00     0.105 C 
ATOM     10  C   UNL     1       7.307  -5.228   0.331  1.00  0.00     0.023 C 
BRANCH   9  11
ATOM     11  C   UNL     1       6.095  -2.952   0.164  1.00  0.00    -0.036 A 
ATOM     12  C   UNL     1       3.697  -1.401   0.231  1.00  0.00    -0.018 A 
ATOM     13  C   UNL     1       3.768  -2.627  -0.447  1.00  0.00     0.009 A 
ATOM     14  C   UNL     1       4.855  -0.971   0.892  1.00  0.00     0.009 A 
ATOM     15  C   UNL     1       4.925  -3.406  -0.444  1.00  0.00     0.005 A 
ATOM     16  C   UNL     1       6.040  -1.724   0.843  1.00  0.00     0.005 A 
BRANCH  12  17
ATOM     17  C   UNL     1       2.431  -0.637   0.238  1.00  0.00    -0.018 A 
ATOM     18  C   UNL     1      -3.636   0.190  -0.047  1.00  0.00     0.064 C 
ATOM     19  C   UNL     1      -2.162   0.060   0.045  1.00  0.00     0.013 A 
ATOM     20  C   UNL     1      -1.374  -1.063   0.170  1.00  0.00     0.031 A 
ATOM     21  N   UNL     1      -1.321   1.147   0.002  1.00  0.00    -0.359 N 
ATOM     22  C   UNL     1      -0.021  -0.643   0.200  1.00  0.00     0.000 A 
ATOM     23  C   UNL     1      -0.007   0.743   0.090  1.00  0.00     0.046 A 
ATOM     24  H   UNL     1      -1.617   2.083  -0.081  1.00  0.00     0.166 HD
ATOM     25  C   UNL     1       1.202  -1.327   0.296  1.00  0.00     0.019 A 
ATOM     26  C   UNL     1       1.184   1.478   0.071  1.00  0.00     0.027 A 
ATOM     27  C   UNL     1       2.393   0.764   0.139  1.00  0.00     0.011 A 
ENDBRANCH  12  17
ENDBRANCH   9  11
ENDBRANCH   6   9
ENDBRANCH   4   5
ENDBRANCH   3   4
ENDBRANCH   2   3
ENDBRANCH   1   2
BRANCH   1  28
ATOM     28  C   UNL     1       4.884  -5.308  -6.034  1.00  0.00     0.021 C 
BRANCH  28  29
ATOM     29  C   UNL     1       3.663  -4.512  -6.487  1.00  0.00     0.116 C 
BRANCH  29  30
ATOM     30  N   UNL     1       3.796  -4.061  -7.865  1.00  0.00    -0.352 N 
ATOM     31  C   UNL     1       3.010  -4.342  -8.955  1.00  0.00     0.251 C 
ATOM     32  H   UNL     1       4.561  -3.468  -8.041  1.00  0.00     0.163 HD
ATOM     33  O   UNL     1       3.412  -4.074 -10.083  1.00  0.00    -0.269 OA
BRANCH  31  34
ATOM     34  C   UNL     1       1.684  -4.969  -8.770  1.00  0.00     0.039 A 
ATOM     35  C   UNL     1       1.293  -6.001  -9.627  1.00  0.00     0.014 A 
ATOM     36  C   UNL     1       0.816  -4.519  -7.771  1.00  0.00     0.014 A 
ATOM     37  C   UNL     1       0.051  -6.615  -9.450  1.00  0.00     0.010 A 
ATOM     38  C   UNL     1      -0.390  -5.178  -7.551  1.00  0.00     0.010 A 
ATOM     39  C   UNL     1      -0.791  -6.226  -8.395  1.00  0.00    -0.014 A 
BRANCH  39  40
ATOM     40  C   UNL     1      -2.092  -6.900  -8.155  1.00  0.00     0.031 A 
ATOM     41  C   UNL     1      -3.378  -6.126  -8.271  1.00  0.00     0.074 A 
ATOM     42  C   UNL     1      -2.111  -8.186  -7.753  1.00  0.00     0.049 A 
ATOM     43  N   UNL     1      -4.603  -6.523  -8.040  1.00  0.00    -0.248 NA
ATOM     44  C   UNL     1      -3.273  -4.713  -8.672  1.00  0.00     0.031 C 
ATOM     45  C   UNL     1      -0.928  -9.021  -7.533  1.00  0.00     0.029 A 
ATOM     46  N   UNL     1      -3.161  -9.008  -7.430  1.00  0.00    -0.354 N 
ATOM     47  C   UNL     1      -5.408  -5.407  -8.236  1.00  0.00     0.074 A 
ATOM     48  C   UNL     1      -4.530  -4.306  -8.568  1.00  0.00     0.031 C 
ATOM     49  C   UNL     1      -1.318 -10.236  -7.117  1.00  0.00     0.029 A 
ATOM     50  C   UNL     1      -2.773 -10.260  -7.010  1.00  0.00     0.049 A 
ATOM     51  H   UNL     1      -4.103  -8.729  -7.494  1.00  0.00     0.167 HD
ATOM     52  C   UNL     1      -6.758  -5.312  -8.177  1.00  0.00     0.034 A 
ATOM     53  C   UNL     1      -3.507 -11.305  -6.581  1.00  0.00     0.034 A 
ATOM     54  C   UNL     1      -7.630  -6.418  -7.886  1.00  0.00     0.049 A 
ATOM     55  C   UNL     1      -5.007 -11.182  -6.555  1.00  0.00     0.074 A 
ATOM     56  C   UNL     1      -9.013  -6.445  -7.878  1.00  0.00     0.029 A 
ATOM     57  N   UNL     1      -7.204  -7.694  -7.548  1.00  0.00    -0.354 N 
ATOM     58  N   UNL     1      -5.758 -10.161  -6.891  1.00  0.00    -0.248 NA
ATOM     59  C   UNL     1      -5.763 -12.368  -6.127  1.00  0.00     0.031 C 
ATOM     60  C   UNL     1      -9.424  -7.732  -7.515  1.00  0.00     0.029 A 
ATOM     61  C   UNL     1      -8.296  -8.514  -7.324  1.00  0.00     0.049 A 
ATOM     62  H   UNL     1      -6.263  -7.974  -7.479  1.00  0.00     0.167 HD
ATOM     63  C   UNL     1      -7.072 -10.593  -6.754  1.00  0.00     0.074 A 
ATOM     64  C   UNL     1      -7.014 -11.975  -6.323  1.00  0.00     0.031 C 
ATOM     65  C   UNL     1      -8.223  -9.904  -6.952  1.00  0.00     0.034 A 
BRANCH  52  66
ATOM     66  C   UNL     1      -7.381  -3.975  -8.490  1.00  0.00     0.023 A 
ATOM     67  C   UNL     1      -7.364  -3.497  -9.817  1.00  0.00     0.012 A 
ATOM     68  C   UNL     1      -8.029  -3.220  -7.493  1.00  0.00     0.148 A 
ATOM     69  C   UNL     1      -7.949  -2.274 -10.140  1.00  0.00     0.002 A 
ATOM     70  C   UNL     1      -8.650  -2.023  -7.832  1.00  0.00     0.091 A 
ATOM     71  F   UNL     1      -8.020  -3.680  -6.234  1.00  0.00    -0.205 F 
ATOM     72  C   UNL     1      -8.600  -1.543  -9.151  1.00  0.00     0.022 A 
BRANCH  70  73
ATOM     73  S   UNL     1      -9.582  -1.044  -6.648  1.00  0.00     0.127 S 
ATOM     74  O   UNL     1      -8.712   0.119  -6.477  1.00  0.00    -0.237 OA
ATOM     75  O   UNL     1     -10.821  -0.776  -7.378  1.00  0.00    -0.237 OA
ATOM     76  O   UNL     1      -9.741  -1.883  -5.469  1.00  0.00    -0.744 OA
ENDBRANCH  70  73
ENDBRANCH  52  66
BRANCH  53  77
ATOM     77  C   UNL     1      -2.839 -12.584  -6.208  1.00  0.00     0.023 A 
ATOM     78  C   UNL     1      -3.003 -13.715  -7.033  1.00  0.00     0.012 A 
ATOM     79  C   UNL     1      -2.029 -12.685  -5.060  1.00  0.00     0.148 A 
ATOM     80  C   UNL     1      -2.405 -14.931  -6.702  1.00  0.00     0.002 A 
ATOM     81  C   UNL     1      -1.390 -13.884  -4.767  1.00  0.00     0.091 A 
ATOM     82  F   UNL     1      -1.893 -11.602  -4.282  1.00  0.00    -0.205 F 
ATOM     83  C   UNL     1      -1.591 -15.013  -5.575  1.00  0.00     0.022 A 
BRANCH  81  84
ATOM     84  S   UNL     1      -0.222 -14.044  -3.412  1.00  0.00     0.127 S 
ATOM     85  O   UNL     1      -0.976 -14.857  -2.461  1.00  0.00    -0.237 OA
ATOM     86  O   UNL     1       0.898 -14.730  -4.057  1.00  0.00    -0.237 OA
ATOM     87  O   UNL     1       0.075 -12.683  -2.987  1.00  0.00    -0.744 OA
ENDBRANCH  81  84
ENDBRANCH  53  77
BRANCH  65  88
ATOM     88  C   UNL     1      -9.522 -10.639  -6.748  1.00  0.00     0.023 A 
ATOM     89  C   UNL     1      -9.946 -10.969  -5.446  1.00  0.00     0.012 A 
ATOM     90  C   UNL     1     -10.356 -10.937  -7.844  1.00  0.00     0.148 A 
ATOM     91  C   UNL     1     -11.165 -11.614  -5.240  1.00  0.00     0.002 A 
ATOM     92  C   UNL     1     -11.592 -11.534  -7.627  1.00  0.00     0.091 A 
ATOM     93  F   UNL     1      -9.926 -10.632  -9.077  1.00  0.00    -0.205 F 
ATOM     94  C   UNL     1     -11.992 -11.884  -6.327  1.00  0.00     0.022 A 
BRANCH  92  95
ATOM     95  S   UNL     1     -12.765 -11.830  -8.955  1.00  0.00     0.127 S 
ATOM     96  O   UNL     1     -12.698 -13.284  -9.092  1.00  0.00    -0.237 OA
ATOM     97  O   UNL     1     -14.015 -11.328  -8.383  1.00  0.00    -0.237 OA
ATOM     98  O   UNL     1     -12.277 -11.071 -10.098  1.00  0.00    -0.744 OA
ENDBRANCH  92  95
ENDBRANCH  65  88
ENDBRANCH  39  40
ENDBRANCH  31  34
ENDBRANCH  29  30
ENDBRANCH  28  29
ENDBRANCH   1  28
TORSDOF 18
