REMARK SMILES CC(C)Oc1ccc(/C=C(\NC(=O)c2ccccc2)C(=O)NCCCCCCNC(=O)c2ccc(-c3c4nc(c(-c5cccc(S(=O)(=O)[O-])c5F)c5ccc([nH]5)c(-c5cccc(S(=O)(=O)[O-])c5F)c5nc(c(-c6cccc(S(=O)(=O)[O-])c6F)c6ccc3[nH]6)C=C5)C=C4)cc2)cc1
REMARK SMILES IDX 25 1 24 2 23 3 22 4 20 5 21 6 10 8 9 9 8 10 5 11 6 12 96 13
REMARK SMILES IDX 7 14 95 15 4 16 2 17 1 18 3 19 11 20 12 21 13 23 14 24 15 25
REMARK SMILES IDX 19 26 16 27 18 28 17 29 26 30 27 31 28 32 29 33 30 34 31 36
REMARK SMILES IDX 32 37 33 38 94 39 34 40 93 41 35 42 36 43 37 44 87 45 38 46
REMARK SMILES IDX 92 47 86 48 88 49 39 50 91 51 85 52 84 53 40 55 72 56 52 57
REMARK SMILES IDX 71 58 53 59 56 60 70 61 89 62 54 63 55 64 69 66 90 67 57 68
REMARK SMILES IDX 41 69 42 70 50 71 43 72 45 73 51 74 44 75 46 76 47 77 48 78
REMARK SMILES IDX 49 79 73 80 74 81 82 82 75 83 77 84 83 85 76 86 78 87 79 88
REMARK SMILES IDX 80 89 81 90 58 91 59 92 67 93 60 94 62 95 68 96 61 97 63 98
REMARK SMILES IDX 64 99 65 100 66 101
REMARK H PARENT 22 7 11 22 29 35 88 54 56 65
REMARK Flexibility Score: inf
ROOT
ATOM      1  C   UNL     1      -7.152   9.421  -0.772  1.00  0.00     0.002 C 
ENDROOT
BRANCH   1   2
ATOM      2  C   UNL     1      -6.111   8.584  -0.012  1.00  0.00     0.021 C 
BRANCH   2   3
ATOM      3  C   UNL     1      -5.938   7.116  -0.427  1.00  0.00     0.116 C 
BRANCH   3   4
ATOM      4  N   UNL     1      -5.622   6.944  -1.836  1.00  0.00    -0.351 N 
ATOM      5  C   UNL     1      -5.184   5.826  -2.494  1.00  0.00     0.267 C 
ATOM      6  O   UNL     1      -4.896   5.895  -3.689  1.00  0.00    -0.268 OA
ATOM      7  H   UNL     1      -5.739   7.745  -2.396  1.00  0.00     0.163 HD
BRANCH   5   8
ATOM      8  C   UNL     1      -4.954   4.561  -1.717  1.00  0.00     0.107 C 
ATOM      9  C   UNL     1      -3.656   4.204  -1.673  1.00  0.00     0.040 C 
BRANCH   9  10
ATOM     10  C   UNL     1      -3.029   3.070  -0.980  1.00  0.00    -0.023 A 
ATOM     11  C   UNL     1      -1.535   1.101   0.342  1.00  0.00     0.119 A 
ATOM     12  C   UNL     1      -2.438   1.888   1.054  1.00  0.00     0.047 A 
ATOM     13  C   UNL     1      -1.428   1.237  -1.038  1.00  0.00     0.047 A 
ATOM     14  C   UNL     1      -3.170   2.882   0.400  1.00  0.00     0.012 A 
ATOM     15  C   UNL     1      -2.163   2.230  -1.695  1.00  0.00     0.012 A 
BRANCH  11  16
ATOM     16  O   UNL     1      -0.823   0.160   1.025  1.00  0.00    -0.491 OA
BRANCH  16  17
ATOM     17  C   UNL     1       0.575   0.439   1.236  1.00  0.00     0.167 C 
ATOM     18  C   UNL     1       1.430  -0.126   0.105  1.00  0.00     0.052 C 
ATOM     19  C   UNL     1       0.930   1.896   1.547  1.00  0.00     0.052 C 
ENDBRANCH  16  17
ENDBRANCH  11  16
ENDBRANCH   9  10
BRANCH   8  20
ATOM     20  N   UNL     1      -5.963   3.855  -1.100  1.00  0.00    -0.317 N 
ATOM     21  C   UNL     1      -7.332   3.910  -1.248  1.00  0.00     0.255 C 
ATOM     22  H   UNL     1      -5.652   3.196  -0.438  1.00  0.00     0.170 HD
ATOM     23  O   UNL     1      -8.071   3.374  -0.428  1.00  0.00    -0.269 OA
BRANCH  21  24
ATOM     24  C   UNL     1      -7.930   4.566  -2.422  1.00  0.00     0.040 A 
ATOM     25  C   UNL     1      -8.745   5.678  -2.228  1.00  0.00     0.014 A 
ATOM     26  C   UNL     1      -7.689   4.082  -3.709  1.00  0.00     0.014 A 
ATOM     27  C   UNL     1      -9.205   6.401  -3.328  1.00  0.00     0.001 A 
ATOM     28  C   UNL     1      -8.189   4.782  -4.808  1.00  0.00     0.001 A 
ATOM     29  C   UNL     1      -8.915   5.960  -4.618  1.00  0.00     0.000 A 
ENDBRANCH  21  24
ENDBRANCH   8  20
ENDBRANCH   5   8
ENDBRANCH   3   4
ENDBRANCH   2   3
ENDBRANCH   1   2
BRANCH   1  30
ATOM     30  C   UNL     1      -8.617   9.003  -0.653  1.00  0.00     0.002 C 
BRANCH  30  31
ATOM     31  C   UNL     1      -9.182   8.841   0.752  1.00  0.00     0.021 C 
BRANCH  31  32
ATOM     32  C   UNL     1      -9.190  10.123   1.572  1.00  0.00     0.116 C 
BRANCH  32  33
ATOM     33  N   UNL     1     -10.027  11.163   0.979  1.00  0.00    -0.352 N 
ATOM     34  C   UNL     1     -11.174  11.757   1.461  1.00  0.00     0.251 C 
ATOM     35  H   UNL     1      -9.726  11.489   0.100  1.00  0.00     0.163 HD
ATOM     36  O   UNL     1     -11.846  12.481   0.742  1.00  0.00    -0.269 OA
BRANCH  34  37
ATOM     37  C   UNL     1     -11.588  11.493   2.855  1.00  0.00     0.039 A 
ATOM     38  C   UNL     1     -12.919  11.171   3.135  1.00  0.00     0.014 A 
ATOM     39  C   UNL     1     -10.638  11.515   3.875  1.00  0.00     0.014 A 
ATOM     40  C   UNL     1     -13.272  10.768   4.427  1.00  0.00     0.010 A 
ATOM     41  C   UNL     1     -10.966  11.009   5.123  1.00  0.00     0.010 A 
ATOM     42  C   UNL     1     -12.285  10.631   5.416  1.00  0.00    -0.014 A 
BRANCH  42  43
ATOM     43  C   UNL     1     -12.572  10.086   6.768  1.00  0.00     0.031 A 
ATOM     44  C   UNL     1     -12.227  10.907   7.982  1.00  0.00     0.074 A 
ATOM     45  C   UNL     1     -12.979   8.808   6.903  1.00  0.00     0.049 A 
ATOM     46  N   UNL     1     -12.191  10.551   9.238  1.00  0.00    -0.248 NA
ATOM     47  C   UNL     1     -11.812  12.302   7.743  1.00  0.00     0.031 C 
ATOM     48  C   UNL     1     -13.254   7.881   5.802  1.00  0.00     0.029 A 
ATOM     49  N   UNL     1     -13.188   8.051   8.030  1.00  0.00    -0.354 N 
ATOM     50  C   UNL     1     -11.684  11.647   9.927  1.00  0.00     0.074 A 
ATOM     51  C   UNL     1     -11.395  12.669   8.945  1.00  0.00     0.031 C 
ATOM     52  C   UNL     1     -13.596   6.684   6.306  1.00  0.00     0.029 A 
ATOM     53  C   UNL     1     -13.528   6.744   7.761  1.00  0.00     0.049 A 
ATOM     54  H   UNL     1     -13.104   8.409   8.943  1.00  0.00     0.167 HD
ATOM     55  C   UNL     1     -11.509  11.804  11.260  1.00  0.00     0.034 A 
ATOM     56  C   UNL     1     -13.743   5.708   8.595  1.00  0.00     0.034 A 
ATOM     57  C   UNL     1     -11.888  10.818  12.232  1.00  0.00     0.049 A 
ATOM     58  C   UNL     1     -13.621   5.932  10.078  1.00  0.00     0.074 A 
ATOM     59  C   UNL     1     -11.885  10.923  13.611  1.00  0.00     0.029 A 
ATOM     60  N   UNL     1     -12.348   9.546  11.926  1.00  0.00    -0.354 N 
ATOM     61  N   UNL     1     -13.298   7.029  10.721  1.00  0.00    -0.248 NA
ATOM     62  C   UNL     1     -13.916   4.788  10.952  1.00  0.00     0.031 C 
ATOM     63  C   UNL     1     -12.334   9.708  14.139  1.00  0.00     0.029 A 
ATOM     64  C   UNL     1     -12.626   8.852  13.089  1.00  0.00     0.049 A 
ATOM     65  H   UNL     1     -12.460   9.190  11.015  1.00  0.00     0.167 HD
ATOM     66  C   UNL     1     -13.376   6.715  12.073  1.00  0.00     0.074 A 
ATOM     67  C   UNL     1     -13.801   5.332  12.156  1.00  0.00     0.031 C 
ATOM     68  C   UNL     1     -13.099   7.493  13.148  1.00  0.00     0.034 A 
BRANCH  55  69
ATOM     69  C   UNL     1     -10.953  13.117  11.744  1.00  0.00     0.023 A 
ATOM     70  C   UNL     1     -11.749  14.279  11.666  1.00  0.00     0.012 A 
ATOM     71  C   UNL     1      -9.666  13.200  12.312  1.00  0.00     0.148 A 
ATOM     72  C   UNL     1     -11.261  15.508  12.106  1.00  0.00     0.002 A 
ATOM     73  C   UNL     1      -9.203  14.421  12.789  1.00  0.00     0.091 A 
ATOM     74  F   UNL     1      -8.914  12.091  12.357  1.00  0.00    -0.205 F 
ATOM     75  C   UNL     1      -9.993  15.577  12.676  1.00  0.00     0.022 A 
BRANCH  73  76
ATOM     76  S   UNL     1      -7.614  14.602  13.609  1.00  0.00     0.127 S 
ATOM     77  O   UNL     1      -6.841  15.322  12.598  1.00  0.00    -0.237 OA
ATOM     78  O   UNL     1      -7.964  15.396  14.787  1.00  0.00    -0.237 OA
ATOM     79  O   UNL     1      -7.158  13.251  13.902  1.00  0.00    -0.744 OA
ENDBRANCH  73  76
ENDBRANCH  55  69
BRANCH  56  80
ATOM     80  C   UNL     1     -14.165   4.386   8.051  1.00  0.00     0.023 A 
ATOM     81  C   UNL     1     -15.493   3.958   8.247  1.00  0.00     0.012 A 
ATOM     82  C   UNL     1     -13.284   3.571   7.314  1.00  0.00     0.148 A 
ATOM     83  C   UNL     1     -15.930   2.733   7.743  1.00  0.00     0.002 A 
ATOM     84  C   UNL     1     -13.740   2.373   6.772  1.00  0.00     0.091 A 
ATOM     85  F   UNL     1     -12.021   3.988   7.149  1.00  0.00    -0.205 F 
ATOM     86  C   UNL     1     -15.057   1.946   6.997  1.00  0.00     0.022 A 
BRANCH  84  87
ATOM     87  S   UNL     1     -12.723   1.355   5.696  1.00  0.00     0.127 S 
ATOM     88  O   UNL     1     -12.418   0.219   6.561  1.00  0.00    -0.237 OA
ATOM     89  O   UNL     1     -13.645   1.063   4.597  1.00  0.00    -0.237 OA
ATOM     90  O   UNL     1     -11.591   2.193   5.325  1.00  0.00    -0.744 OA
ENDBRANCH  84  87
ENDBRANCH  56  80
BRANCH  68  91
ATOM     91  C   UNL     1     -13.261   6.880  14.512  1.00  0.00     0.023 A 
ATOM     92  C   UNL     1     -12.294   5.969  14.980  1.00  0.00     0.012 A 
ATOM     93  C   UNL     1     -14.307   7.284  15.364  1.00  0.00     0.148 A 
ATOM     94  C   UNL     1     -12.378   5.451  16.271  1.00  0.00     0.002 A 
ATOM     95  C   UNL     1     -14.358   6.799  16.665  1.00  0.00     0.091 A 
ATOM     96  F   UNL     1     -15.223   8.140  14.890  1.00  0.00    -0.205 F 
ATOM     97  C   UNL     1     -13.400   5.876  17.117  1.00  0.00     0.022 A 
BRANCH  95  98
ATOM     98  S   UNL     1     -15.579   7.361  17.856  1.00  0.00     0.127 S 
ATOM     99  O   UNL     1     -16.424   6.176  17.998  1.00  0.00    -0.237 OA
ATOM    100  O   UNL     1     -14.754   7.666  19.025  1.00  0.00    -0.237 OA
ATOM    101  O   UNL     1     -16.226   8.519  17.254  1.00  0.00    -0.744 OA
ENDBRANCH  95  98
ENDBRANCH  68  91
ENDBRANCH  42  43
ENDBRANCH  34  37
ENDBRANCH  32  33
ENDBRANCH  31  32
ENDBRANCH  30  31
ENDBRANCH   1  30
TORSDOF 21
