REMARK SMILES C[C@@]12CC[C@@H]3c4ccc(O)cc4/C(=N\OCC(=O)NCCCCCCNC(=O)c4ccc(-c5c6nc(c(-c7cccc(S(=O)(=O)[O-])c7F)c7ccc([nH]7)c(-c7cccc(S(=O)(=O)[O-])c7F)c7nc(c(-c8cccc(S(=O)(=O)[O-])c8F)c8ccc5[nH]8)C=C7)C=C6)cc4)C[C@H]3[C@@H]1C[C@H](O)[C@@H]2O
REMARK SMILES IDX 22 1 21 2 20 3 19 4 17 5 18 6 16 8 15 9 14 10 1 11 2 12 3 13
REMARK SMILES IDX 94 14 98 15 4 16 93 17 95 18 96 19 5 20 92 21 6 22 13 23
REMARK SMILES IDX 7 24 12 25 8 26 11 27 9 28 99 29 97 31 10 33 23 35 24 36
REMARK SMILES IDX 25 37 26 38 27 39 28 41 29 42 30 43 91 44 31 45 90 46 32 47
REMARK SMILES IDX 33 48 34 49 84 50 35 51 89 52 83 53 85 54 36 55 88 56 82 57
REMARK SMILES IDX 81 58 37 60 69 61 49 62 68 63 50 64 53 65 67 66 86 67 51 68
REMARK SMILES IDX 52 69 66 71 87 72 54 73 38 74 39 75 47 76 40 77 42 78 48 79
REMARK SMILES IDX 41 80 43 81 44 82 45 83 46 84 70 85 71 86 79 87 72 88 74 89
REMARK SMILES IDX 80 90 73 91 75 92 76 93 77 94 78 95 55 96 56 97 64 98 57 99
REMARK SMILES IDX 59 100 65 101 58 102 60 103 61 104 62 105 63 106
REMARK H PARENT 19 7 99 30 97 32 10 34 26 40 85 59 53 70
REMARK Flexibility Score: inf
ROOT
ATOM      1  C   UNL     1      -3.649   5.232  -1.105  1.00  0.00     0.002 C 
ENDROOT
BRANCH   1   2
ATOM      2  C   UNL     1      -3.679   3.841  -1.740  1.00  0.00     0.021 C 
BRANCH   2   3
ATOM      3  C   UNL     1      -5.071   3.338  -2.116  1.00  0.00     0.116 C 
BRANCH   3   4
ATOM      4  N   UNL     1      -5.662   4.147  -3.164  1.00  0.00    -0.353 N 
ATOM      5  C   UNL     1      -5.857   3.825  -4.478  1.00  0.00     0.260 C 
ATOM      6  O   UNL     1      -6.283   4.698  -5.239  1.00  0.00    -0.271 OA
ATOM      7  H   UNL     1      -5.963   5.045  -2.894  1.00  0.00     0.163 HD
BRANCH   5   8
ATOM      8  C   UNL     1      -5.617   2.391  -4.951  1.00  0.00     0.363 C 
BRANCH   8   9
ATOM      9  O   UNL     1      -4.349   2.077  -5.496  1.00  0.00    -0.385 OA
BRANCH   9  10
ATOM     10  N   UNL     1      -3.308   2.291  -4.579  1.00  0.00    -0.090 NA
ATOM     11  C   UNL     1       0.699  -0.908   0.483  1.00  0.00     0.014 C 
ATOM     12  C   UNL     1       0.445  -1.162  -1.028  1.00  0.00    -0.001 C 
ATOM     13  C   UNL     1      -0.734  -2.130  -1.089  1.00  0.00     0.010 C 
ATOM     14  C   UNL     1       0.204   0.189  -1.760  1.00  0.00     0.004 C 
ATOM     15  C   UNL     1       1.728  -1.680  -1.718  1.00  0.00     0.149 C 
ATOM     16  C   UNL     1      -1.306  -2.330  -2.466  1.00  0.00     0.009 C 
ATOM     17  C   UNL     1      -0.626   0.084  -3.098  1.00  0.00     0.006 C 
ATOM     18  C   UNL     1       1.665   0.729  -1.958  1.00  0.00     0.039 C 
ATOM     19  C   UNL     1       2.634  -0.450  -1.700  1.00  0.00     0.144 C 
ATOM     20  C   UNL     1      -1.740  -1.003  -3.077  1.00  0.00     0.024 C 
ATOM     21  C   UNL     1      -1.332   1.420  -3.455  1.00  0.00     0.065 C 
ATOM     22  C   UNL     1      -2.296  -1.159  -4.487  1.00  0.00    -0.035 A 
ATOM     23  C   UNL     1      -2.466   1.296  -4.499  1.00  0.00     0.088 C 
ATOM     24  C   UNL     1      -2.567  -2.407  -5.074  1.00  0.00     0.008 A 
ATOM     25  C   UNL     1      -2.580   0.000  -5.224  1.00  0.00     0.006 A 
ATOM     26  C   UNL     1      -3.071  -2.499  -6.370  1.00  0.00     0.046 A 
ATOM     27  C   UNL     1      -3.033  -0.092  -6.546  1.00  0.00     0.056 A 
ATOM     28  C   UNL     1      -3.283  -1.341  -7.102  1.00  0.00     0.116 A 
BRANCH  15  29
ATOM     29  O   UNL     1       1.527  -2.041  -3.091  1.00  0.00    -0.390 OA
ATOM     30  H   UNL     1       1.189  -1.275  -3.581  1.00  0.00     0.211 HD
ENDBRANCH  15  29
BRANCH  19  31
ATOM     31  O   UNL     1       3.622  -0.556  -2.721  1.00  0.00    -0.390 OA
ATOM     32  H   UNL     1       3.187  -0.667  -3.581  1.00  0.00     0.211 HD
ENDBRANCH  19  31
BRANCH  28  33
ATOM     33  O   UNL     1      -3.763  -1.397  -8.377  1.00  0.00    -0.508 OA
ATOM     34  H   UNL     1      -3.940  -2.226  -8.775  1.00  0.00     0.293 HD
ENDBRANCH  28  33
ENDBRANCH   9  10
ENDBRANCH   8   9
ENDBRANCH   5   8
ENDBRANCH   3   4
ENDBRANCH   2   3
ENDBRANCH   1   2
BRANCH   1  35
ATOM     35  C   UNL     1      -4.445   5.368   0.194  1.00  0.00     0.002 C 
BRANCH  35  36
ATOM     36  C   UNL     1      -4.076   4.365   1.286  1.00  0.00     0.021 C 
BRANCH  36  37
ATOM     37  C   UNL     1      -2.602   4.354   1.674  1.00  0.00     0.116 C 
BRANCH  37  38
ATOM     38  N   UNL     1      -2.159   5.619   2.245  1.00  0.00    -0.352 N 
ATOM     39  C   UNL     1      -1.546   5.862   3.452  1.00  0.00     0.251 C 
ATOM     40  H   UNL     1      -2.322   6.414   1.687  1.00  0.00     0.163 HD
ATOM     41  O   UNL     1      -1.382   7.015   3.841  1.00  0.00    -0.269 OA
BRANCH  39  42
ATOM     42  C   UNL     1      -1.123   4.720   4.291  1.00  0.00     0.039 A 
ATOM     43  C   UNL     1      -0.458   3.635   3.717  1.00  0.00     0.014 A 
ATOM     44  C   UNL     1      -1.451   4.705   5.649  1.00  0.00     0.014 A 
ATOM     45  C   UNL     1      -0.313   2.461   4.444  1.00  0.00     0.010 A 
ATOM     46  C   UNL     1      -1.208   3.554   6.406  1.00  0.00     0.010 A 
ATOM     47  C   UNL     1      -0.699   2.398   5.794  1.00  0.00    -0.014 A 
BRANCH  47  48
ATOM     48  C   UNL     1      -0.577   1.107   6.524  1.00  0.00     0.031 A 
ATOM     49  C   UNL     1      -1.793   0.408   7.079  1.00  0.00     0.074 A 
ATOM     50  C   UNL     1       0.635   0.527   6.633  1.00  0.00     0.049 A 
ATOM     51  N   UNL     1      -1.866  -0.752   7.679  1.00  0.00    -0.248 NA
ATOM     52  C   UNL     1      -3.092   1.090   6.948  1.00  0.00     0.031 C 
ATOM     53  C   UNL     1       1.893   1.110   6.160  1.00  0.00     0.029 A 
ATOM     54  N   UNL     1       1.009  -0.685   7.158  1.00  0.00    -0.354 N 
ATOM     55  C   UNL     1      -3.199  -0.920   8.034  1.00  0.00     0.074 A 
ATOM     56  C   UNL     1      -3.906   0.259   7.587  1.00  0.00     0.031 C 
ATOM     57  C   UNL     1       2.889   0.239   6.372  1.00  0.00     0.029 A 
ATOM     58  C   UNL     1       2.355  -0.940   7.046  1.00  0.00     0.049 A 
ATOM     59  H   UNL     1       0.374  -1.312   7.574  1.00  0.00     0.167 HD
ATOM     60  C   UNL     1      -3.787  -1.970   8.654  1.00  0.00     0.034 A 
ATOM     61  C   UNL     1       3.088  -1.997   7.447  1.00  0.00     0.034 A 
ATOM     62  C   UNL     1      -3.098  -3.167   9.049  1.00  0.00     0.049 A 
ATOM     63  C   UNL     1       2.411  -3.150   8.126  1.00  0.00     0.074 A 
ATOM     64  C   UNL     1      -3.630  -4.308   9.625  1.00  0.00     0.029 A 
ATOM     65  N   UNL     1      -1.737  -3.381   8.916  1.00  0.00    -0.354 N 
ATOM     66  N   UNL     1       1.135  -3.324   8.364  1.00  0.00    -0.248 NA
ATOM     67  C   UNL     1       3.266  -4.257   8.579  1.00  0.00     0.031 C 
ATOM     68  C   UNL     1      -2.587  -5.206   9.857  1.00  0.00     0.029 A 
ATOM     69  C   UNL     1      -1.409  -4.632   9.407  1.00  0.00     0.049 A 
ATOM     70  H   UNL     1      -1.098  -2.739   8.529  1.00  0.00     0.167 HD
ATOM     71  C   UNL     1       1.030  -4.563   8.981  1.00  0.00     0.074 A 
ATOM     72  C   UNL     1       2.369  -5.106   9.068  1.00  0.00     0.031 C 
ATOM     73  C   UNL     1      -0.080  -5.184   9.446  1.00  0.00     0.034 A 
BRANCH  60  74
ATOM     74  C   UNL     1      -5.268  -1.913   8.909  1.00  0.00     0.023 A 
ATOM     75  C   UNL     1      -6.161  -2.184   7.854  1.00  0.00     0.012 A 
ATOM     76  C   UNL     1      -5.768  -1.722  10.213  1.00  0.00     0.148 A 
ATOM     77  C   UNL     1      -7.533  -2.260   8.091  1.00  0.00     0.002 A 
ATOM     78  C   UNL     1      -7.133  -1.829  10.447  1.00  0.00     0.091 A 
ATOM     79  F   UNL     1      -4.896  -1.460  11.197  1.00  0.00    -0.205 F 
ATOM     80  C   UNL     1      -8.017  -2.094   9.387  1.00  0.00     0.022 A 
BRANCH  78  81
ATOM     81  S   UNL     1      -7.856  -1.690  12.085  1.00  0.00     0.127 S 
ATOM     82  O   UNL     1      -8.677  -0.488  11.942  1.00  0.00    -0.237 OA
ATOM     83  O   UNL     1      -8.613  -2.937  12.192  1.00  0.00    -0.237 OA
ATOM     84  O   UNL     1      -6.739  -1.569  13.011  1.00  0.00    -0.744 OA
ENDBRANCH  78  81
ENDBRANCH  60  74
BRANCH  61  85
ATOM     85  C   UNL     1       4.549  -2.009   7.169  1.00  0.00     0.023 A 
ATOM     86  C   UNL     1       5.050  -2.825   6.138  1.00  0.00     0.012 A 
ATOM     87  C   UNL     1       5.424  -1.147   7.859  1.00  0.00     0.148 A 
ATOM     88  C   UNL     1       6.402  -2.784   5.798  1.00  0.00     0.002 A 
ATOM     89  C   UNL     1       6.760  -1.081   7.488  1.00  0.00     0.091 A 
ATOM     90  F   UNL     1       4.917  -0.381   8.834  1.00  0.00    -0.205 F 
ATOM     91  C   UNL     1       7.254  -1.905   6.464  1.00  0.00     0.022 A 
BRANCH  89  92
ATOM     92  S   UNL     1       7.909   0.095   8.210  1.00  0.00     0.127 S 
ATOM     93  O   UNL     1       8.884  -0.792   8.840  1.00  0.00    -0.237 OA
ATOM     94  O   UNL     1       8.393   0.802   7.025  1.00  0.00    -0.237 OA
ATOM     95  O   UNL     1       7.122   0.909   9.125  1.00  0.00    -0.744 OA
ENDBRANCH  89  92
ENDBRANCH  61  85
BRANCH  73  96
ATOM     96  C   UNL     1       0.070  -6.535  10.083  1.00  0.00     0.023 A 
ATOM     97  C   UNL     1       0.495  -6.624  11.422  1.00  0.00     0.012 A 
ATOM     98  C   UNL     1      -0.368  -7.693   9.411  1.00  0.00     0.148 A 
ATOM     99  C   UNL     1       0.478  -7.849  12.086  1.00  0.00     0.002 A 
ATOM    100  C   UNL     1      -0.414  -8.904  10.089  1.00  0.00     0.091 A 
ATOM    101  F   UNL     1      -0.765  -7.576   8.135  1.00  0.00    -0.205 F 
ATOM    102  C   UNL     1       0.011  -8.984  11.426  1.00  0.00     0.022 A 
BRANCH 100 103
ATOM    103  S   UNL     1      -1.069 -10.405   9.351  1.00  0.00     0.127 S 
ATOM    104  O   UNL     1       0.106 -11.275   9.352  1.00  0.00    -0.237 OA
ATOM    105  O   UNL     1      -2.113 -10.784  10.303  1.00  0.00    -0.237 OA
ATOM    106  O   UNL     1      -1.554 -10.029   8.029  1.00  0.00    -0.744 OA
ENDBRANCH 100 103
ENDBRANCH  73  96
ENDBRANCH  47  48
ENDBRANCH  39  42
ENDBRANCH  37  38
ENDBRANCH  36  37
ENDBRANCH  35  36
ENDBRANCH   1  35
TORSDOF 21
