REMARK SMILES Cc1nonc1-c1noc(CCC(=O)NCCCCCCNC(=O)c2ccc(-c3c4nc(c(-c5cccc(S(=O)(=O)[O-])c5F)c5ccc([nH]5)c(-c5cccc(S(=O)(=O)[O-])c5F)c5nc(c(-c6cccc(S(=O)(=O)[O-])c6F)c6ccc3[nH]6)C=C5)C=C4)cc2)n1
REMARK SMILES IDX 18 1 17 2 16 3 15 4 13 5 14 6 12 8 11 9 10 10 7 11 8 12
REMARK SMILES IDX 88 13 9 14 6 15 1 16 2 17 3 18 4 19 5 20 19 21 20 22 21 23
REMARK SMILES IDX 22 24 23 25 24 27 25 28 26 29 87 30 27 31 86 32 28 33 29 34
REMARK SMILES IDX 30 35 80 36 31 37 85 38 79 39 81 40 32 41 84 42 78 43 77 44
REMARK SMILES IDX 33 46 65 47 45 48 64 49 46 50 49 51 63 52 82 53 47 54 48 55
REMARK SMILES IDX 62 57 83 58 50 59 34 60 35 61 43 62 36 63 38 64 44 65 37 66
REMARK SMILES IDX 39 67 40 68 41 69 42 70 66 71 67 72 75 73 68 74 70 75 76 76
REMARK SMILES IDX 69 77 71 78 72 79 73 80 74 81 51 82 52 83 60 84 53 85 55 86
REMARK SMILES IDX 61 87 54 88 56 89 57 90 58 91 59 92
REMARK H PARENT 15 7 22 26 81 45 49 56
REMARK Flexibility Score: inf
ROOT
ATOM      1  C   UNL     1      -1.370   5.014   2.885  1.00  0.00     0.002 C 
ENDROOT
BRANCH   1   2
ATOM      2  C   UNL     1      -0.599   4.729   1.592  1.00  0.00     0.021 C 
BRANCH   2   3
ATOM      3  C   UNL     1      -1.126   5.491   0.376  1.00  0.00     0.116 C 
BRANCH   3   4
ATOM      4  N   UNL     1      -0.467   6.780   0.259  1.00  0.00    -0.356 N 
ATOM      5  C   UNL     1       0.351   7.253  -0.718  1.00  0.00     0.220 C 
ATOM      6  O   UNL     1       0.883   8.354  -0.562  1.00  0.00    -0.275 OA
ATOM      7  H   UNL     1      -0.639   7.406   0.999  1.00  0.00     0.163 HD
BRANCH   5   8
ATOM      8  C   UNL     1       0.620   6.440  -1.964  1.00  0.00     0.110 C 
BRANCH   8   9
ATOM      9  C   UNL     1       1.934   5.675  -1.856  1.00  0.00     0.110 C 
BRANCH   9  10
ATOM     10  C   UNL     1       1.781   4.356  -1.199  1.00  0.00     0.227 A 
ATOM     11  C   UNL     1       1.302   2.420  -0.555  1.00  0.00     0.226 A 
ATOM     12  N   UNL     1       2.348   2.753   0.216  1.00  0.00    -0.055 NA
ATOM     13  N   UNL     1       0.919   3.397  -1.444  1.00  0.00    -0.190 NA
ATOM     14  O   UNL     1       2.670   4.043  -0.213  1.00  0.00    -0.339 OA
BRANCH  11  15
ATOM     15  C   UNL     1       0.546   1.176  -0.440  1.00  0.00     0.178 A 
ATOM     16  C   UNL     1       2.446  -0.569   0.069  1.00  0.00     0.073 C 
ATOM     17  C   UNL     1       1.061  -0.098  -0.142  1.00  0.00     0.113 A 
ATOM     18  N   UNL     1       0.050  -0.970  -0.085  1.00  0.00    -0.054 NA
ATOM     19  O   UNL     1      -1.090  -0.234  -0.386  1.00  0.00    -0.244 OA
ATOM     20  N   UNL     1      -0.780   1.109  -0.586  1.00  0.00    -0.046 NA
ENDBRANCH  11  15
ENDBRANCH   9  10
ENDBRANCH   8   9
ENDBRANCH   5   8
ENDBRANCH   3   4
ENDBRANCH   2   3
ENDBRANCH   1   2
BRANCH   1  21
ATOM     21  C   UNL     1      -2.824   4.527   2.894  1.00  0.00     0.002 C 
BRANCH  21  22
ATOM     22  C   UNL     1      -3.039   3.062   2.497  1.00  0.00     0.021 C 
BRANCH  22  23
ATOM     23  C   UNL     1      -2.233   2.041   3.297  1.00  0.00     0.116 C 
BRANCH  23  24
ATOM     24  N   UNL     1      -2.560   2.073   4.714  1.00  0.00    -0.352 N 
ATOM     25  C   UNL     1      -3.016   1.069   5.529  1.00  0.00     0.251 C 
ATOM     26  H   UNL     1      -2.436   2.946   5.153  1.00  0.00     0.163 HD
ATOM     27  O   UNL     1      -3.414   1.339   6.662  1.00  0.00    -0.269 OA
BRANCH  25  28
ATOM     28  C   UNL     1      -3.045  -0.331   5.053  1.00  0.00     0.039 A 
ATOM     29  C   UNL     1      -4.179  -1.107   5.311  1.00  0.00     0.014 A 
ATOM     30  C   UNL     1      -1.950  -0.890   4.387  1.00  0.00     0.014 A 
ATOM     31  C   UNL     1      -4.237  -2.427   4.857  1.00  0.00     0.010 A 
ATOM     32  C   UNL     1      -2.031  -2.188   3.886  1.00  0.00     0.010 A 
ATOM     33  C   UNL     1      -3.171  -2.972   4.123  1.00  0.00    -0.014 A 
BRANCH  33  34
ATOM     34  C   UNL     1      -3.232  -4.356   3.589  1.00  0.00     0.031 A 
ATOM     35  C   UNL     1      -2.302  -5.413   4.116  1.00  0.00     0.074 A 
ATOM     36  C   UNL     1      -4.065  -4.638   2.570  1.00  0.00     0.049 A 
ATOM     37  N   UNL     1      -2.169  -6.658   3.737  1.00  0.00    -0.248 NA
ATOM     38  C   UNL     1      -1.384  -5.015   5.197  1.00  0.00     0.031 C 
ATOM     39  C   UNL     1      -4.963  -3.679   1.923  1.00  0.00     0.029 A 
ATOM     40  N   UNL     1      -4.271  -5.806   1.879  1.00  0.00    -0.354 N 
ATOM     41  C   UNL     1      -1.135  -7.181   4.503  1.00  0.00     0.074 A 
ATOM     42  C   UNL     1      -0.657  -6.112   5.353  1.00  0.00     0.031 C 
ATOM     43  C   UNL     1      -5.620  -4.296   0.927  1.00  0.00     0.029 A 
ATOM     44  C   UNL     1      -5.178  -5.686   0.852  1.00  0.00     0.049 A 
ATOM     45  H   UNL     1      -3.814  -6.649   2.097  1.00  0.00     0.167 HD
ATOM     46  C   UNL     1      -0.645  -8.444   4.519  1.00  0.00     0.034 A 
ATOM     47  C   UNL     1      -5.604  -6.592  -0.050  1.00  0.00     0.034 A 
ATOM     48  C   UNL     1      -1.157  -9.518   3.711  1.00  0.00     0.049 A 
ATOM     49  C   UNL     1      -5.083  -8.001   0.025  1.00  0.00     0.074 A 
ATOM     50  C   UNL     1      -0.790 -10.853   3.721  1.00  0.00     0.029 A 
ATOM     51  N   UNL     1      -2.146  -9.383   2.750  1.00  0.00    -0.354 N 
ATOM     52  N   UNL     1      -4.221  -8.518   0.868  1.00  0.00    -0.248 NA
ATOM     53  C   UNL     1      -5.620  -8.963  -0.950  1.00  0.00     0.031 C 
ATOM     54  C   UNL     1      -1.555 -11.523   2.760  1.00  0.00     0.029 A 
ATOM     55  C   UNL     1      -2.402 -10.607   2.157  1.00  0.00     0.049 A 
ATOM     56  H   UNL     1      -2.600  -8.539   2.522  1.00  0.00     0.167 HD
ATOM     57  C   UNL     1      -4.136  -9.868   0.547  1.00  0.00     0.074 A 
ATOM     58  C   UNL     1      -5.050 -10.094  -0.554  1.00  0.00     0.031 C 
ATOM     59  C   UNL     1      -3.358 -10.829   1.103  1.00  0.00     0.034 A 
BRANCH  46  60
ATOM     60  C   UNL     1       0.459  -8.750   5.496  1.00  0.00     0.023 A 
ATOM     61  C   UNL     1       0.151  -8.862   6.867  1.00  0.00     0.012 A 
ATOM     62  C   UNL     1       1.779  -8.977   5.062  1.00  0.00     0.148 A 
ATOM     63  C   UNL     1       1.146  -9.164   7.796  1.00  0.00     0.002 A 
ATOM     64  C   UNL     1       2.759  -9.314   5.991  1.00  0.00     0.091 A 
ATOM     65  F   UNL     1       2.060  -8.841   3.759  1.00  0.00    -0.205 F 
ATOM     66  C   UNL     1       2.446  -9.400   7.358  1.00  0.00     0.022 A 
BRANCH  64  67
ATOM     67  S   UNL     1       4.446  -9.701   5.509  1.00  0.00     0.127 S 
ATOM     68  O   UNL     1       5.142  -8.461   5.845  1.00  0.00    -0.237 OA
ATOM     69  O   UNL     1       4.769 -10.835   6.377  1.00  0.00    -0.237 OA
ATOM     70  O   UNL     1       4.386 -10.029   4.090  1.00  0.00    -0.744 OA
ENDBRANCH  64  67
ENDBRANCH  46  60
BRANCH  47  71
ATOM     71  C   UNL     1      -6.649  -6.212  -1.041  1.00  0.00     0.023 A 
ATOM     72  C   UNL     1      -7.957  -6.710  -0.881  1.00  0.00     0.012 A 
ATOM     73  C   UNL     1      -6.375  -5.331  -2.105  1.00  0.00     0.148 A 
ATOM     74  C   UNL     1      -8.968  -6.357  -1.774  1.00  0.00     0.002 A 
ATOM     75  C   UNL     1      -7.399  -4.944  -2.963  1.00  0.00     0.091 A 
ATOM     76  F   UNL     1      -5.121  -4.880  -2.251  1.00  0.00    -0.205 F 
ATOM     77  C   UNL     1      -8.692  -5.466  -2.808  1.00  0.00     0.022 A 
BRANCH  75  78
ATOM     78  S   UNL     1      -7.162  -3.704  -4.242  1.00  0.00     0.127 S 
ATOM     79  O   UNL     1      -7.125  -4.522  -5.450  1.00  0.00    -0.237 OA
ATOM     80  O   UNL     1      -8.361  -2.878  -4.094  1.00  0.00    -0.237 OA
ATOM     81  O   UNL     1      -5.922  -3.021  -3.896  1.00  0.00    -0.744 OA
ENDBRANCH  75  78
ENDBRANCH  47  71
BRANCH  59  82
ATOM     82  C   UNL     1      -3.470 -12.225   0.548  1.00  0.00     0.023 A 
ATOM     83  C   UNL     1      -2.876 -12.526  -0.693  1.00  0.00     0.012 A 
ATOM     84  C   UNL     1      -4.087 -13.251   1.288  1.00  0.00     0.148 A 
ATOM     85  C   UNL     1      -2.915 -13.824  -1.200  1.00  0.00     0.002 A 
ATOM     86  C   UNL     1      -4.087 -14.551   0.795  1.00  0.00     0.091 A 
ATOM     87  F   UNL     1      -4.667 -12.941   2.457  1.00  0.00    -0.205 F 
ATOM     88  C   UNL     1      -3.509 -14.838  -0.452  1.00  0.00     0.022 A 
BRANCH  86  89
ATOM     89  S   UNL     1      -4.753 -15.930   1.736  1.00  0.00     0.127 S 
ATOM     90  O   UNL     1      -6.050 -16.132   1.094  1.00  0.00    -0.237 OA
ATOM     91  O   UNL     1      -3.775 -16.988   1.481  1.00  0.00    -0.237 OA
ATOM     92  O   UNL     1      -4.798 -15.478   3.120  1.00  0.00    -0.744 OA
ENDBRANCH  86  89
ENDBRANCH  59  82
ENDBRANCH  33  34
ENDBRANCH  25  28
ENDBRANCH  23  24
ENDBRANCH  22  23
ENDBRANCH  21  22
ENDBRANCH   1  21
TORSDOF 19
