REMARK SMILES Cc1cccc(C(=O)NCCCCCCNC(=O)c2ccc(-c3c4nc(c(-c5cccc(S(=O)(=O)[O-])c5F)c5ccc([nH]5)c(-c5cccc(S(=O)(=O)[O-])c5F)c5nc(c(-c6cccc(S(=O)(=O)[O-])c6F)c6ccc3[nH]6)C=C5)C=C4)cc2)c1OC[C@@H]1C[C@H]2CC[C@@H]1C2
REMARK SMILES IDX 12 1 11 2 10 3 9 4 7 5 8 6 6 8 1 9 2 10 3 11 82 12 4 13 5 14
REMARK SMILES IDX 83 15 84 16 85 17 86 18 90 19 87 20 89 21 91 22 88 23 13 24
REMARK SMILES IDX 14 25 15 26 16 27 17 28 18 30 19 31 20 32 81 33 21 34 80 35
REMARK SMILES IDX 22 36 23 37 24 38 74 39 25 40 79 41 73 42 75 43 26 44 78 45
REMARK SMILES IDX 72 46 71 47 27 49 59 50 39 51 58 52 40 53 43 54 57 55 76 56
REMARK SMILES IDX 41 57 42 58 56 60 77 61 44 62 28 63 29 64 37 65 30 66 32 67
REMARK SMILES IDX 38 68 31 69 33 70 34 71 35 72 36 73 60 74 61 75 69 76 62 77
REMARK SMILES IDX 64 78 70 79 63 80 65 81 66 82 67 83 68 84 45 85 46 86 54 87
REMARK SMILES IDX 47 88 49 89 55 90 48 91 50 92 51 93 52 94 53 95
REMARK H PARENT 9 7 16 29 75 48 43 59
REMARK Flexibility Score: inf
ROOT
ATOM      1  C   UNL     1       0.068   6.256  -0.901  1.00  0.00     0.002 C 
ENDROOT
BRANCH   1   2
ATOM      2  C   UNL     1       0.525   4.800  -0.735  1.00  0.00     0.021 C 
BRANCH   2   3
ATOM      3  C   UNL     1      -0.053   4.092   0.495  1.00  0.00     0.116 C 
BRANCH   3   4
ATOM      4  N   UNL     1      -1.334   3.527   0.177  1.00  0.00    -0.352 N 
ATOM      5  C   UNL     1      -1.741   2.259  -0.109  1.00  0.00     0.255 C 
ATOM      6  O   UNL     1      -2.937   2.159  -0.416  1.00  0.00    -0.269 OA
ATOM      7  H   UNL     1      -2.063   4.188   0.162  1.00  0.00     0.163 HD
BRANCH   5   8
ATOM      8  C   UNL     1      -0.934   0.996  -0.013  1.00  0.00     0.082 A 
ATOM      9  C   UNL     1       1.946  -1.042  -1.495  1.00  0.00     0.048 C 
ATOM     10  C   UNL     1       0.786  -0.608  -0.636  1.00  0.00    -0.008 A 
ATOM     11  C   UNL     1      -0.057  -1.660  -0.220  1.00  0.00     0.007 A 
ATOM     12  C   UNL     1       0.400   0.738  -0.423  1.00  0.00     0.134 A 
ATOM     13  C   UNL     1      -1.309  -1.407   0.309  1.00  0.00     0.001 A 
ATOM     14  C   UNL     1      -1.751  -0.095   0.376  1.00  0.00     0.018 A 
BRANCH  12  15
ATOM     15  O   UNL     1       1.224   1.780  -0.733  1.00  0.00    -0.492 OA
BRANCH  15  16
ATOM     16  C   UNL     1       2.581   1.854  -0.220  1.00  0.00     0.233 C 
BRANCH  16  17
ATOM     17  C   UNL     1       2.873   1.359   1.220  1.00  0.00     0.030 C 
ATOM     18  C   UNL     1       3.802   2.330   2.013  1.00  0.00     0.011 C 
ATOM     19  C   UNL     1       3.733   0.062   1.258  1.00  0.00    -0.004 C 
ATOM     20  C   UNL     1       4.977   1.444   2.469  1.00  0.00    -0.010 C 
ATOM     21  C   UNL     1       3.648  -0.547   2.668  1.00  0.00     0.004 C 
ATOM     22  C   UNL     1       5.176   0.573   1.237  1.00  0.00     0.007 C 
ATOM     23  C   UNL     1       4.487   0.422   3.508  1.00  0.00     0.004 C 
ENDBRANCH  16  17
ENDBRANCH  15  16
ENDBRANCH  12  15
ENDBRANCH   5   8
ENDBRANCH   3   4
ENDBRANCH   2   3
ENDBRANCH   1   2
BRANCH   1  24
ATOM     24  C   UNL     1       0.324   7.181   0.300  1.00  0.00     0.002 C 
BRANCH  24  25
ATOM     25  C   UNL     1       1.659   6.984   1.022  1.00  0.00     0.021 C 
BRANCH  25  26
ATOM     26  C   UNL     1       2.868   7.395   0.196  1.00  0.00     0.116 C 
BRANCH  26  27
ATOM     27  N   UNL     1       3.469   8.631   0.670  1.00  0.00    -0.352 N 
ATOM     28  C   UNL     1       4.621   9.263   0.250  1.00  0.00     0.251 C 
ATOM     29  H   UNL     1       2.982   9.084   1.396  1.00  0.00     0.163 HD
ATOM     30  O   UNL     1       5.108  10.156   0.941  1.00  0.00    -0.269 OA
BRANCH  28  31
ATOM     31  C   UNL     1       5.159   8.952  -1.092  1.00  0.00     0.039 A 
ATOM     32  C   UNL     1       5.318  10.027  -1.975  1.00  0.00     0.014 A 
ATOM     33  C   UNL     1       5.220   7.640  -1.552  1.00  0.00     0.014 A 
ATOM     34  C   UNL     1       5.272   9.800  -3.346  1.00  0.00     0.010 A 
ATOM     35  C   UNL     1       5.096   7.415  -2.905  1.00  0.00     0.010 A 
ATOM     36  C   UNL     1       5.048   8.501  -3.787  1.00  0.00    -0.014 A 
BRANCH  36  37
ATOM     37  C   UNL     1       4.700   8.153  -5.151  1.00  0.00     0.031 A 
ATOM     38  C   UNL     1       5.753   7.791  -6.107  1.00  0.00     0.074 A 
ATOM     39  C   UNL     1       3.397   7.981  -5.462  1.00  0.00     0.049 A 
ATOM     40  N   UNL     1       5.580   7.775  -7.382  1.00  0.00    -0.248 NA
ATOM     41  C   UNL     1       7.101   7.426  -5.691  1.00  0.00     0.031 C 
ATOM     42  C   UNL     1       2.849   7.252  -6.598  1.00  0.00     0.029 A 
ATOM     43  N   UNL     1       2.287   8.611  -4.892  1.00  0.00    -0.354 N 
ATOM     44  C   UNL     1       6.667   7.137  -7.931  1.00  0.00     0.074 A 
ATOM     45  C   UNL     1       7.620   7.012  -6.851  1.00  0.00     0.031 C 
ATOM     46  C   UNL     1       1.594   7.673  -6.814  1.00  0.00     0.029 A 
ATOM     47  C   UNL     1       1.367   8.808  -5.938  1.00  0.00     0.049 A 
ATOM     48  H   UNL     1       2.172   8.866  -3.948  1.00  0.00     0.167 HD
ATOM     49  C   UNL     1       6.571   6.641  -9.195  1.00  0.00     0.034 A 
ATOM     50  C   UNL     1       0.925  10.039  -6.329  1.00  0.00     0.034 A 
ATOM     51  C   UNL     1       5.252   6.925  -9.779  1.00  0.00     0.049 A 
ATOM     52  C   UNL     1       1.257  10.364  -7.781  1.00  0.00     0.074 A 
ATOM     53  C   UNL     1       4.087   6.189  -9.934  1.00  0.00     0.029 A 
ATOM     54  N   UNL     1       4.905   8.241 -10.038  1.00  0.00    -0.354 N 
ATOM     55  N   UNL     1       1.815   9.543  -8.629  1.00  0.00    -0.248 NA
ATOM     56  C   UNL     1       1.072  11.695  -8.353  1.00  0.00     0.031 C 
ATOM     57  C   UNL     1       3.035   7.082 -10.292  1.00  0.00     0.029 A 
ATOM     58  C   UNL     1       3.564   8.357 -10.376  1.00  0.00     0.049 A 
ATOM     59  H   UNL     1       5.531   8.999  -9.988  1.00  0.00     0.167 HD
ATOM     60  C   UNL     1       2.228  10.235  -9.745  1.00  0.00     0.074 A 
ATOM     61  C   UNL     1       1.695  11.572  -9.537  1.00  0.00     0.031 C 
ATOM     62  C   UNL     1       3.044   9.680 -10.702  1.00  0.00     0.034 A 
BRANCH  49  63
ATOM     63  C   UNL     1       7.546   5.638  -9.781  1.00  0.00     0.023 A 
ATOM     64  C   UNL     1       7.044   4.725 -10.734  1.00  0.00     0.012 A 
ATOM     65  C   UNL     1       8.908   5.489  -9.431  1.00  0.00     0.148 A 
ATOM     66  C   UNL     1       7.802   3.660 -11.227  1.00  0.00     0.002 A 
ATOM     67  C   UNL     1       9.645   4.381  -9.864  1.00  0.00     0.091 A 
ATOM     68  F   UNL     1       9.522   6.455  -8.738  1.00  0.00    -0.205 F 
ATOM     69  C   UNL     1       9.091   3.463 -10.761  1.00  0.00     0.022 A 
BRANCH  67  70
ATOM     70  S   UNL     1      11.282   3.993  -9.219  1.00  0.00     0.127 S 
ATOM     71  O   UNL     1      11.147   2.576  -8.868  1.00  0.00    -0.237 OA
ATOM     72  O   UNL     1      12.147   4.251 -10.367  1.00  0.00    -0.237 OA
ATOM     73  O   UNL     1      11.476   4.867  -8.068  1.00  0.00    -0.744 OA
ENDBRANCH  67  70
ENDBRANCH  49  63
BRANCH  50  74
ATOM     74  C   UNL     1       0.875  11.025  -5.206  1.00  0.00     0.023 A 
ATOM     75  C   UNL     1      -0.020  10.743  -4.145  1.00  0.00     0.012 A 
ATOM     76  C   UNL     1       1.917  11.942  -4.986  1.00  0.00     0.148 A 
ATOM     77  C   UNL     1       0.203  11.250  -2.864  1.00  0.00     0.002 A 
ATOM     78  C   UNL     1       2.131  12.447  -3.705  1.00  0.00     0.091 A 
ATOM     79  F   UNL     1       2.736  12.241  -6.002  1.00  0.00    -0.205 F 
ATOM     80  C   UNL     1       1.301  12.072  -2.637  1.00  0.00     0.022 A 
BRANCH  78  81
ATOM     81  S   UNL     1       3.555  13.478  -3.337  1.00  0.00     0.127 S 
ATOM     82  O   UNL     1       2.987  14.816  -3.467  1.00  0.00    -0.237 OA
ATOM     83  O   UNL     1       3.887  13.080  -1.970  1.00  0.00    -0.237 OA
ATOM     84  O   UNL     1       4.553  13.098  -4.327  1.00  0.00    -0.744 OA
ENDBRANCH  78  81
ENDBRANCH  50  74
BRANCH  62  85
ATOM     85  C   UNL     1       3.528  10.363 -11.985  1.00  0.00     0.023 A 
ATOM     86  C   UNL     1       2.896  11.499 -12.520  1.00  0.00     0.012 A 
ATOM     87  C   UNL     1       4.610   9.844 -12.754  1.00  0.00     0.148 A 
ATOM     88  C   UNL     1       3.399  12.178 -13.640  1.00  0.00     0.002 A 
ATOM     89  C   UNL     1       5.114  10.519 -13.863  1.00  0.00     0.091 A 
ATOM     90  F   UNL     1       5.122   8.642 -12.472  1.00  0.00    -0.205 F 
ATOM     91  C   UNL     1       4.529  11.707 -14.292  1.00  0.00     0.022 A 
BRANCH  89  92
ATOM     92  S   UNL     1       6.533   9.904 -14.785  1.00  0.00     0.127 S 
ATOM     93  O   UNL     1       5.890   9.338 -15.970  1.00  0.00    -0.237 OA
ATOM     94  O   UNL     1       7.292  11.131 -15.030  1.00  0.00    -0.237 OA
ATOM     95  O   UNL     1       7.196   8.952 -13.906  1.00  0.00    -0.744 OA
ENDBRANCH  89  92
ENDBRANCH  62  85
ENDBRANCH  36  37
ENDBRANCH  28  31
ENDBRANCH  26  27
ENDBRANCH  25  26
ENDBRANCH  24  25
ENDBRANCH   1  24
TORSDOF 19
