REMARK SMILES O=C(C[C@H]1CN(C(=O)c2c(F)cccc2Cl)CCO1)NCCCCCCNC(=O)c1ccc(-c2c3nc(c(-c4cccc(S(=O)(=O)[O-])c4F)c4ccc([nH]4)c(-c4cccc(S(=O)(=O)[O-])c4F)c4nc(c(-c5cccc(S(=O)(=O)[O-])c5F)c5ccc2[nH]5)C=C4)C=C3)cc1
REMARK SMILES IDX 23 1 22 2 21 3 20 4 1 5 2 6 3 8 4 9 5 10 19 11 6 12 18 13
REMARK SMILES IDX 17 14 7 15 8 16 9 17 10 18 15 19 11 20 12 21 14 22 16 23
REMARK SMILES IDX 13 24 24 25 25 26 26 27 27 28 28 29 29 31 30 32 31 33 92 34
REMARK SMILES IDX 32 35 91 36 33 37 34 38 35 39 85 40 36 41 90 42 84 43 86 44
REMARK SMILES IDX 37 45 89 46 83 47 82 48 38 50 70 51 50 52 69 53 51 54 54 55
REMARK SMILES IDX 68 56 87 57 52 58 53 59 67 61 88 62 55 63 39 64 40 65 48 66
REMARK SMILES IDX 41 67 43 68 49 69 42 70 44 71 45 72 46 73 47 74 71 75 72 76
REMARK SMILES IDX 80 77 73 78 75 79 81 80 74 81 76 82 77 83 78 84 79 85 56 86
REMARK SMILES IDX 57 87 65 88 58 89 60 90 66 91 59 92 61 93 62 94 63 95 64 96
REMARK H PARENT 20 7 27 30 86 49 54 60
REMARK Flexibility Score: inf
ROOT
ATOM      1  C   UNL     1       4.687   1.782  -3.419  1.00  0.00     0.002 C 
ENDROOT
BRANCH   1   2
ATOM      2  C   UNL     1       5.796   2.589  -2.724  1.00  0.00     0.021 C 
BRANCH   2   3
ATOM      3  C   UNL     1       5.416   3.159  -1.354  1.00  0.00     0.116 C 
BRANCH   3   4
ATOM      4  N   UNL     1       4.999   2.095  -0.463  1.00  0.00    -0.356 N 
ATOM      5  O   UNL     1       6.602   2.425   1.154  1.00  0.00    -0.275 OA
ATOM      6  C   UNL     1       5.688   1.760   0.680  1.00  0.00     0.222 C 
ATOM      7  H   UNL     1       4.184   1.589  -0.686  1.00  0.00     0.163 HD
BRANCH   6   8
ATOM      8  C   UNL     1       5.318   0.400   1.219  1.00  0.00     0.133 C 
BRANCH   8   9
ATOM      9  C   UNL     1       3.921   0.318   1.838  1.00  0.00     0.147 C 
ATOM     10  C   UNL     1       3.431  -1.148   1.890  1.00  0.00     0.152 C 
ATOM     11  O   UNL     1       3.845   0.914   3.146  1.00  0.00    -0.374 OA
ATOM     12  N   UNL     1       4.169  -1.906   2.905  1.00  0.00    -0.334 N 
ATOM     13  C   UNL     1       4.565   0.189   4.157  1.00  0.00     0.182 C 
ATOM     14  C   UNL     1       4.138  -1.281   4.228  1.00  0.00     0.148 C 
BRANCH  12  15
ATOM     15  C   UNL     1       4.831  -3.115   2.733  1.00  0.00     0.258 C 
ATOM     16  O   UNL     1       5.441  -3.694   3.629  1.00  0.00    -0.269 OA
BRANCH  15  17
ATOM     17  C   UNL     1       4.798  -3.771   1.419  1.00  0.00     0.094 A 
ATOM     18  C   UNL     1       5.632  -3.303   0.405  1.00  0.00     0.137 A 
ATOM     19  C   UNL     1       3.998  -4.891   1.186  1.00  0.00     0.056 A 
ATOM     20  F   UNL     1       6.457  -2.270   0.621  1.00  0.00    -0.206 F 
ATOM     21  C   UNL     1       5.625  -3.889  -0.858  1.00  0.00     0.040 A 
ATOM     22  C   UNL     1       4.008  -5.501  -0.076  1.00  0.00     0.021 A 
ATOM     23  Cl  UNL     1       2.964  -5.561   2.395  1.00  0.00    -0.083 Cl
ATOM     24  C   UNL     1       4.809  -4.992  -1.101  1.00  0.00     0.005 A 
ENDBRANCH  15  17
ENDBRANCH  12  15
ENDBRANCH   8   9
ENDBRANCH   6   8
ENDBRANCH   3   4
ENDBRANCH   2   3
ENDBRANCH   1   2
BRANCH   1  25
ATOM     25  C   UNL     1       3.354   2.515  -3.598  1.00  0.00     0.002 C 
BRANCH  25  26
ATOM     26  C   UNL     1       3.438   3.839  -4.358  1.00  0.00     0.021 C 
BRANCH  26  27
ATOM     27  C   UNL     1       4.005   3.735  -5.769  1.00  0.00     0.116 C 
BRANCH  27  28
ATOM     28  N   UNL     1       3.148   2.963  -6.658  1.00  0.00    -0.352 N 
ATOM     29  C   UNL     1       2.711   3.282  -7.922  1.00  0.00     0.251 C 
ATOM     30  H   UNL     1       2.840   2.096  -6.307  1.00  0.00     0.163 HD
ATOM     31  O   UNL     1       1.864   2.586  -8.476  1.00  0.00    -0.269 OA
BRANCH  29  32
ATOM     32  C   UNL     1       3.249   4.482  -8.599  1.00  0.00     0.039 A 
ATOM     33  C   UNL     1       2.363   5.381  -9.199  1.00  0.00     0.014 A 
ATOM     34  C   UNL     1       4.624   4.728  -8.623  1.00  0.00     0.014 A 
ATOM     35  C   UNL     1       2.852   6.562  -9.767  1.00  0.00     0.010 A 
ATOM     36  C   UNL     1       5.102   5.933  -9.130  1.00  0.00     0.010 A 
ATOM     37  C   UNL     1       4.223   6.862  -9.710  1.00  0.00    -0.014 A 
BRANCH  37  38
ATOM     38  C   UNL     1       4.770   8.138 -10.241  1.00  0.00     0.031 A 
ATOM     39  C   UNL     1       5.758   8.114 -11.377  1.00  0.00     0.074 A 
ATOM     40  C   UNL     1       4.472   9.303  -9.630  1.00  0.00     0.049 A 
ATOM     41  N   UNL     1       6.442   9.100 -11.896  1.00  0.00    -0.248 NA
ATOM     42  C   UNL     1       6.037   6.804 -11.992  1.00  0.00     0.031 C 
ATOM     43  C   UNL     1       3.585   9.452  -8.474  1.00  0.00     0.029 A 
ATOM     44  N   UNL     1       4.916  10.580  -9.871  1.00  0.00    -0.354 N 
ATOM     45  C   UNL     1       7.269   8.526 -12.855  1.00  0.00     0.074 A 
ATOM     46  C   UNL     1       7.012   7.103 -12.839  1.00  0.00     0.031 C 
ATOM     47  C   UNL     1       3.559  10.742  -8.101  1.00  0.00     0.029 A 
ATOM     48  C   UNL     1       4.449  11.508  -8.968  1.00  0.00     0.049 A 
ATOM     49  H   UNL     1       5.513  10.810 -10.620  1.00  0.00     0.167 HD
ATOM     50  C   UNL     1       8.145   9.132 -13.690  1.00  0.00     0.034 A 
ATOM     51  C   UNL     1       4.719  12.823  -8.843  1.00  0.00     0.034 A 
ATOM     52  C   UNL     1       8.345  10.554 -13.754  1.00  0.00     0.049 A 
ATOM     53  C   UNL     1       5.654  13.476  -9.827  1.00  0.00     0.074 A 
ATOM     54  C   UNL     1       9.128  11.271 -14.642  1.00  0.00     0.029 A 
ATOM     55  N   UNL     1       7.762  11.475 -12.899  1.00  0.00    -0.354 N 
ATOM     56  N   UNL     1       6.294  12.940 -10.837  1.00  0.00    -0.248 NA
ATOM     57  C   UNL     1       5.877  14.923  -9.677  1.00  0.00     0.031 C 
ATOM     58  C   UNL     1       9.031  12.626 -14.314  1.00  0.00     0.029 A 
ATOM     59  C   UNL     1       8.171  12.753 -13.235  1.00  0.00     0.049 A 
ATOM     60  H   UNL     1       7.148  11.253 -12.163  1.00  0.00     0.167 HD
ATOM     61  C   UNL     1       6.954  13.988 -11.469  1.00  0.00     0.074 A 
ATOM     62  C   UNL     1       6.626  15.193 -10.738  1.00  0.00     0.031 C 
ATOM     63  C   UNL     1       7.772  13.953 -12.550  1.00  0.00     0.034 A 
BRANCH  50  64
ATOM     64  C   UNL     1       8.919   8.274 -14.654  1.00  0.00     0.023 A 
ATOM     65  C   UNL     1       8.265   7.727 -15.776  1.00  0.00     0.012 A 
ATOM     66  C   UNL     1      10.308   8.095 -14.505  1.00  0.00     0.148 A 
ATOM     67  C   UNL     1       8.978   6.996 -16.725  1.00  0.00     0.002 A 
ATOM     68  C   UNL     1      11.020   7.402 -15.477  1.00  0.00     0.091 A 
ATOM     69  F   UNL     1      10.906   8.609 -13.421  1.00  0.00    -0.205 F 
ATOM     70  C   UNL     1      10.355   6.845 -16.582  1.00  0.00     0.022 A 
BRANCH  68  71
ATOM     71  S   UNL     1      12.806   7.218 -15.429  1.00  0.00     0.127 S 
ATOM     72  O   UNL     1      12.948   5.782 -15.195  1.00  0.00    -0.237 OA
ATOM     73  O   UNL     1      13.195   7.660 -16.769  1.00  0.00    -0.237 OA
ATOM     74  O   UNL     1      13.271   8.073 -14.346  1.00  0.00    -0.744 OA
ENDBRANCH  68  71
ENDBRANCH  50  64
BRANCH  51  75
ATOM     75  C   UNL     1       4.053  13.633  -7.783  1.00  0.00     0.023 A 
ATOM     76  C   UNL     1       3.099  14.602  -8.153  1.00  0.00     0.012 A 
ATOM     77  C   UNL     1       4.357  13.459  -6.420  1.00  0.00     0.148 A 
ATOM     78  C   UNL     1       2.493  15.411  -7.192  1.00  0.00     0.002 A 
ATOM     79  C   UNL     1       3.708  14.231  -5.461  1.00  0.00     0.091 A 
ATOM     80  F   UNL     1       5.279  12.545  -6.083  1.00  0.00    -0.205 F 
ATOM     81  C   UNL     1       2.791  15.220  -5.846  1.00  0.00     0.022 A 
BRANCH  79  82
ATOM     82  S   UNL     1       3.940  13.954  -3.701  1.00  0.00     0.127 S 
ATOM     83  O   UNL     1       4.851  15.038  -3.345  1.00  0.00    -0.237 OA
ATOM     84  O   UNL     1       2.578  14.099  -3.184  1.00  0.00    -0.237 OA
ATOM     85  O   UNL     1       4.476  12.604  -3.593  1.00  0.00    -0.744 OA
ENDBRANCH  79  82
ENDBRANCH  51  75
BRANCH  63  86
ATOM     86  C   UNL     1       8.328  15.256 -13.058  1.00  0.00     0.023 A 
ATOM     87  C   UNL     1       9.358  15.904 -12.351  1.00  0.00     0.012 A 
ATOM     88  C   UNL     1       7.896  15.782 -14.293  1.00  0.00     0.148 A 
ATOM     89  C   UNL     1       9.935  17.070 -12.852  1.00  0.00     0.002 A 
ATOM     90  C   UNL     1       8.509  16.917 -14.809  1.00  0.00     0.091 A 
ATOM     91  F   UNL     1       6.901  15.159 -14.940  1.00  0.00    -0.205 F 
ATOM     92  C   UNL     1       9.521  17.568 -14.086  1.00  0.00     0.022 A 
BRANCH  90  93
ATOM     93  S   UNL     1       8.109  17.569 -16.435  1.00  0.00     0.127 S 
ATOM     94  O   UNL     1       7.366  18.781 -16.095  1.00  0.00    -0.237 OA
ATOM     95  O   UNL     1       9.434  17.806 -17.009  1.00  0.00    -0.237 OA
ATOM     96  O   UNL     1       7.339  16.530 -17.106  1.00  0.00    -0.744 OA
ENDBRANCH  90  93
ENDBRANCH  63  86
ENDBRANCH  37  38
ENDBRANCH  29  32
ENDBRANCH  27  28
ENDBRANCH  26  27
ENDBRANCH  25  26
ENDBRANCH   1  25
TORSDOF 19
