REMARK SMILES CCc1cc(C(=O)c2[nH]c3cc(Cl)ccc3c2CC(=O)NCCCCCCNC(=O)c2ccc(-c3c4nc(c(-c5cccc(S(=O)(=O)[O-])c5F)c5ccc([nH]5)c(-c5cccc(S(=O)(=O)[O-])c5F)c5nc(c(-c6cccc(S(=O)(=O)[O-])c6F)c6ccc3[nH]6)C=C5)C=C4)cc2)ncc1Cl
REMARK SMILES IDX 24 1 23 2 22 3 21 4 19 5 20 6 18 8 17 9 8 10 9 11 10 12
REMARK SMILES IDX 16 14 11 15 15 16 12 17 14 18 13 19 6 20 7 21 5 22 3 23 4 24
REMARK SMILES IDX 96 25 95 26 97 27 94 28 2 29 1 30 25 31 26 32 27 33 28 34
REMARK SMILES IDX 29 35 30 37 31 38 32 39 93 40 33 41 92 42 34 43 35 44 36 45
REMARK SMILES IDX 86 46 37 47 91 48 85 49 87 50 38 51 90 52 84 53 83 54 39 56
REMARK SMILES IDX 71 57 51 58 70 59 52 60 55 61 69 62 88 63 53 64 54 65 68 67
REMARK SMILES IDX 89 68 56 69 40 70 41 71 49 72 42 73 44 74 50 75 43 76 45 77
REMARK SMILES IDX 46 78 47 79 48 80 72 81 73 82 81 83 74 84 76 85 82 86 75 87
REMARK SMILES IDX 77 88 78 89 79 90 80 91 57 92 58 93 66 94 59 95 61 96 67 97
REMARK SMILES IDX 60 98 62 99 63 100 64 101 65 102
REMARK H PARENT 21 7 9 13 28 36 87 55 55 66
REMARK Flexibility Score: inf
ROOT
ATOM      1  C   UNL     1       2.569  10.733  -3.518  1.00  0.00     0.002 C 
ENDROOT
BRANCH   1   2
ATOM      2  C   UNL     1       1.535  10.152  -2.545  1.00  0.00     0.021 C 
BRANCH   2   3
ATOM      3  C   UNL     1       0.097  10.157  -3.065  1.00  0.00     0.116 C 
BRANCH   3   4
ATOM      4  N   UNL     1      -0.099   9.215  -4.148  1.00  0.00    -0.356 N 
ATOM      5  C   UNL     1      -0.730   8.004  -4.141  1.00  0.00     0.224 C 
ATOM      6  O   UNL     1      -0.861   7.407  -5.214  1.00  0.00    -0.275 OA
ATOM      7  H   UNL     1       0.277   9.487  -5.016  1.00  0.00     0.163 HD
BRANCH   5   8
ATOM      8  C   UNL     1      -1.374   7.465  -2.875  1.00  0.00     0.138 C 
BRANCH   8   9
ATOM      9  C   UNL     1      -0.451   7.236  -1.710  1.00  0.00    -0.002 A 
ATOM     10  C   UNL     1       0.682   6.427  -1.663  1.00  0.00     0.093 A 
ATOM     11  N   UNL     1       1.245   6.582  -0.416  1.00  0.00    -0.351 N 
ATOM     12  C   UNL     1       0.471   7.397   0.372  1.00  0.00     0.048 A 
ATOM     13  H   UNL     1       2.089   6.165  -0.129  1.00  0.00     0.167 HD
ATOM     14  C   UNL     1      -0.608   7.815  -0.404  1.00  0.00     0.004 A 
ATOM     15  C   UNL     1       0.659   7.812   1.697  1.00  0.00     0.047 A 
ATOM     16  C   UNL     1      -1.553   8.689   0.177  1.00  0.00     0.012 A 
ATOM     17  C   UNL     1      -0.289   8.683   2.240  1.00  0.00     0.043 A 
ATOM     18  C   UNL     1      -1.380   9.120   1.498  1.00  0.00     0.021 A 
ATOM     19  Cl  UNL     1      -0.097   9.225   3.863  1.00  0.00    -0.084 Cl
BRANCH  10  20
ATOM     20  C   UNL     1       1.302   5.653  -2.725  1.00  0.00     0.227 C 
ATOM     21  O   UNL     1       1.793   6.209  -3.703  1.00  0.00    -0.285 OA
BRANCH  20  22
ATOM     22  C   UNL     1       1.365   4.147  -2.607  1.00  0.00     0.113 A 
ATOM     23  C   UNL     1       0.962   2.035  -1.440  1.00  0.00    -0.026 A 
ATOM     24  C   UNL     1       0.867   3.448  -1.505  1.00  0.00     0.037 A 
ATOM     25  C   UNL     1       1.506   1.382  -2.553  1.00  0.00     0.062 A 
ATOM     26  C   UNL     1       1.979   2.157  -3.609  1.00  0.00     0.132 A 
ATOM     27  Cl  UNL     1       1.600  -0.325  -2.745  1.00  0.00    -0.082 Cl
ATOM     28  N   UNL     1       1.938   3.507  -3.653  1.00  0.00    -0.251 NA
BRANCH  23  29
ATOM     29  C   UNL     1       0.393   1.387  -0.193  1.00  0.00     0.034 C 
ATOM     30  C   UNL     1       0.963   0.061   0.293  1.00  0.00     0.009 C 
ENDBRANCH  23  29
ENDBRANCH  20  22
ENDBRANCH  10  20
ENDBRANCH   8   9
ENDBRANCH   5   8
ENDBRANCH   3   4
ENDBRANCH   2   3
ENDBRANCH   1   2
BRANCH   1  31
ATOM     31  C   UNL     1       2.313  12.172  -3.976  1.00  0.00     0.002 C 
BRANCH  31  32
ATOM     32  C   UNL     1       2.126  13.203  -2.858  1.00  0.00     0.021 C 
BRANCH  32  33
ATOM     33  C   UNL     1       3.311  13.358  -1.906  1.00  0.00     0.116 C 
BRANCH  33  34
ATOM     34  N   UNL     1       4.501  13.848  -2.581  1.00  0.00    -0.352 N 
ATOM     35  C   UNL     1       5.360  14.858  -2.226  1.00  0.00     0.251 C 
ATOM     36  H   UNL     1       4.726  13.384  -3.420  1.00  0.00     0.163 HD
ATOM     37  O   UNL     1       6.219  15.227  -3.023  1.00  0.00    -0.269 OA
BRANCH  35  38
ATOM     38  C   UNL     1       5.255  15.516  -0.902  1.00  0.00     0.039 A 
ATOM     39  C   UNL     1       5.421  16.904  -0.830  1.00  0.00     0.014 A 
ATOM     40  C   UNL     1       5.052  14.780   0.269  1.00  0.00     0.014 A 
ATOM     41  C   UNL     1       5.343  17.555   0.405  1.00  0.00     0.010 A 
ATOM     42  C   UNL     1       4.920  15.436   1.493  1.00  0.00     0.010 A 
ATOM     43  C   UNL     1       5.075  16.828   1.575  1.00  0.00    -0.014 A 
BRANCH  43  44
ATOM     44  C   UNL     1       4.963  17.508   2.891  1.00  0.00     0.031 A 
ATOM     45  C   UNL     1       5.984  17.256   3.968  1.00  0.00     0.074 A 
ATOM     46  C   UNL     1       3.902  18.299   3.144  1.00  0.00     0.049 A 
ATOM     47  N   UNL     1       6.035  17.739   5.183  1.00  0.00    -0.248 NA
ATOM     48  C   UNL     1       7.077  16.324   3.647  1.00  0.00     0.031 C 
ATOM     49  C   UNL     1       2.803  18.560   2.212  1.00  0.00     0.029 A 
ATOM     50  N   UNL     1       3.561  19.010   4.268  1.00  0.00    -0.354 N 
ATOM     51  C   UNL     1       7.141  17.146   5.782  1.00  0.00     0.074 A 
ATOM     52  C   UNL     1       7.716  16.246   4.806  1.00  0.00     0.031 C 
ATOM     53  C   UNL     1       1.912  19.375   2.801  1.00  0.00     0.029 A 
ATOM     54  C   UNL     1       2.368  19.684   4.154  1.00  0.00     0.049 A 
ATOM     55  H   UNL     1       4.119  19.035   5.079  1.00  0.00     0.167 HD
ATOM     56  C   UNL     1       7.651  17.355   7.019  1.00  0.00     0.034 A 
ATOM     57  C   UNL     1       1.719  20.470   5.035  1.00  0.00     0.034 A 
ATOM     58  C   UNL     1       7.115  18.294   7.966  1.00  0.00     0.049 A 
ATOM     59  C   UNL     1       2.347  20.744   6.375  1.00  0.00     0.074 A 
ATOM     60  C   UNL     1       7.612  18.641   9.210  1.00  0.00     0.029 A 
ATOM     61  N   UNL     1       5.965  19.043   7.772  1.00  0.00    -0.354 N 
ATOM     62  N   UNL     1       3.481  20.300   6.860  1.00  0.00    -0.248 NA
ATOM     63  C   UNL     1       1.628  21.660   7.273  1.00  0.00     0.031 C 
ATOM     64  C   UNL     1       6.761  19.602   9.768  1.00  0.00     0.029 A 
ATOM     65  C   UNL     1       5.737  19.853   8.870  1.00  0.00     0.049 A 
ATOM     66  H   UNL     1       5.394  19.003   6.971  1.00  0.00     0.167 HD
ATOM     67  C   UNL     1       3.630  20.908   8.101  1.00  0.00     0.074 A 
ATOM     68  C   UNL     1       2.478  21.767   8.287  1.00  0.00     0.031 C 
ATOM     69  C   UNL     1       4.622  20.754   9.012  1.00  0.00     0.034 A 
BRANCH  56  70
ATOM     70  C   UNL     1       8.904  16.607   7.390  1.00  0.00     0.023 A 
ATOM     71  C   UNL     1      10.134  17.012   6.833  1.00  0.00     0.012 A 
ATOM     72  C   UNL     1       8.881  15.550   8.320  1.00  0.00     0.148 A 
ATOM     73  C   UNL     1      11.318  16.358   7.173  1.00  0.00     0.002 A 
ATOM     74  C   UNL     1      10.071  14.927   8.682  1.00  0.00     0.091 A 
ATOM     75  F   UNL     1       7.699  15.161   8.821  1.00  0.00    -0.205 F 
ATOM     76  C   UNL     1      11.288  15.324   8.103  1.00  0.00     0.022 A 
BRANCH  74  77
ATOM     77  S   UNL     1      10.135  13.629   9.924  1.00  0.00     0.127 S 
ATOM     78  O   UNL     1      10.228  12.429   9.094  1.00  0.00    -0.237 OA
ATOM     79  O   UNL     1      11.357  13.957  10.659  1.00  0.00    -0.237 OA
ATOM     80  O   UNL     1       8.911  13.768  10.701  1.00  0.00    -0.744 OA
ENDBRANCH  74  77
ENDBRANCH  56  70
BRANCH  57  81
ATOM     81  C   UNL     1       0.451  21.139   4.632  1.00  0.00     0.023 A 
ATOM     82  C   UNL     1       0.460  22.523   4.373  1.00  0.00     0.012 A 
ATOM     83  C   UNL     1      -0.744  20.415   4.456  1.00  0.00     0.148 A 
ATOM     84  C   UNL     1      -0.703  23.180   3.969  1.00  0.00     0.002 A 
ATOM     85  C   UNL     1      -1.887  21.067   4.005  1.00  0.00     0.091 A 
ATOM     86  F   UNL     1      -0.739  19.102   4.725  1.00  0.00    -0.205 F 
ATOM     87  C   UNL     1      -1.872  22.451   3.774  1.00  0.00     0.022 A 
BRANCH  85  88
ATOM     88  S   UNL     1      -3.395  20.174   3.604  1.00  0.00     0.127 S 
ATOM     89  O   UNL     1      -4.219  20.432   4.783  1.00  0.00    -0.237 OA
ATOM     90  O   UNL     1      -3.839  20.850   2.384  1.00  0.00    -0.237 OA
ATOM     91  O   UNL     1      -2.981  18.794   3.401  1.00  0.00    -0.744 OA
ENDBRANCH  85  88
ENDBRANCH  57  81
BRANCH  69  92
ATOM     92  C   UNL     1       4.528  21.546  10.289  1.00  0.00     0.023 A 
ATOM     93  C   UNL     1       3.623  21.141  11.289  1.00  0.00     0.012 A 
ATOM     94  C   UNL     1       5.388  22.635  10.531  1.00  0.00     0.148 A 
ATOM     95  C   UNL     1       3.561  21.822  12.505  1.00  0.00     0.002 A 
ATOM     96  C   UNL     1       5.347  23.284  11.760  1.00  0.00     0.091 A 
ATOM     97  F   UNL     1       6.225  23.021   9.557  1.00  0.00    -0.205 F 
ATOM     98  C   UNL     1       4.429  22.884  12.745  1.00  0.00     0.022 A 
BRANCH  96  99
ATOM     99  S   UNL     1       6.492  24.605  12.175  1.00  0.00     0.127 S 
ATOM    100  O   UNL     1       5.678  25.794  11.938  1.00  0.00    -0.237 OA
ATOM    101  O   UNL     1       6.786  24.339  13.585  1.00  0.00    -0.237 OA
ATOM    102  O   UNL     1       7.632  24.430  11.285  1.00  0.00    -0.744 OA
ENDBRANCH  96  99
ENDBRANCH  69  92
ENDBRANCH  43  44
ENDBRANCH  35  38
ENDBRANCH  33  34
ENDBRANCH  32  33
ENDBRANCH  31  32
ENDBRANCH   1  31
TORSDOF 20
