REMARK SMILES CCC[C@H](Cc1ccn(-c2ccccc2)n1)C(=O)NCCCCCCNC(=O)c1ccc(-c2c3nc(c(-c4cccc(S(=O)(=O)[O-])c4F)c4ccc([nH]4)c(-c4cccc(S(=O)(=O)[O-])c4F)c4nc(c(-c5cccc(S(=O)(=O)[O-])c5F)c5ccc2[nH]5)C=C4)C=C3)cc1
REMARK SMILES IDX 22 1 21 2 20 3 19 4 17 5 18 6 4 8 3 9 2 10 1 11 5 12 6 13
REMARK SMILES IDX 7 14 16 15 8 16 9 17 10 18 11 19 15 20 12 21 14 22 13 23
REMARK SMILES IDX 23 24 24 25 25 26 26 27 27 28 28 30 29 31 30 32 91 33 31 34
REMARK SMILES IDX 90 35 32 36 33 37 34 38 84 39 35 40 89 41 83 42 85 43 36 44
REMARK SMILES IDX 88 45 82 46 81 47 37 49 69 50 49 51 68 52 50 53 53 54 67 55
REMARK SMILES IDX 86 56 51 57 52 58 66 60 87 61 54 62 38 63 39 64 47 65 40 66
REMARK SMILES IDX 42 67 48 68 41 69 43 70 44 71 45 72 46 73 70 74 71 75 79 76
REMARK SMILES IDX 72 77 74 78 80 79 73 80 75 81 76 82 77 83 78 84 55 85 56 86
REMARK SMILES IDX 64 87 57 88 59 89 65 90 58 91 60 92 61 93 62 94 63 95
REMARK H PARENT 19 7 26 29 85 48 53 59
REMARK Flexibility Score: inf
ROOT
ATOM      1  C   UNL     1       1.313   7.788  -0.933  1.00  0.00     0.002 C 
ENDROOT
BRANCH   1   2
ATOM      2  C   UNL     1       1.277   6.522  -0.076  1.00  0.00     0.021 C 
BRANCH   2   3
ATOM      3  C   UNL     1       0.544   5.359  -0.722  1.00  0.00     0.116 C 
BRANCH   3   4
ATOM      4  N   UNL     1       1.242   4.777  -1.849  1.00  0.00    -0.356 N 
ATOM      5  C   UNL     1       1.213   3.517  -2.361  1.00  0.00     0.223 C 
ATOM      6  O   UNL     1       1.641   3.371  -3.512  1.00  0.00    -0.275 OA
ATOM      7  H   UNL     1       1.840   5.398  -2.326  1.00  0.00     0.163 HD
BRANCH   5   8
ATOM      8  C   UNL     1       0.648   2.323  -1.600  1.00  0.00     0.084 C 
BRANCH   8   9
ATOM      9  C   UNL     1      -0.877   2.110  -1.787  1.00  0.00     0.013 C 
BRANCH   9  10
ATOM     10  C   UNL     1      -1.863   3.185  -1.328  1.00  0.00    -0.003 C 
ATOM     11  C   UNL     1      -2.175   4.221  -2.405  1.00  0.00     0.004 C 
ENDBRANCH   9  10
ENDBRANCH   8   9
BRANCH   8  12
ATOM     12  C   UNL     1       1.262   2.176  -0.193  1.00  0.00     0.071 C 
BRANCH  12  13
ATOM     13  C   UNL     1       0.866   0.928   0.513  1.00  0.00     0.064 A 
ATOM     14  C   UNL     1      -0.042   0.809   1.586  1.00  0.00     0.046 A 
ATOM     15  N   UNL     1       1.379  -0.253   0.156  1.00  0.00    -0.173 NA
ATOM     16  C   UNL     1      -0.143  -0.541   1.805  1.00  0.00     0.115 A 
ATOM     17  N   UNL     1       0.736  -1.148   0.940  1.00  0.00    -0.241 N 
BRANCH  17  18
ATOM     18  C   UNL     1       0.950  -2.533   0.775  1.00  0.00     0.065 A 
ATOM     19  C   UNL     1      -0.112  -3.430   0.940  1.00  0.00     0.028 A 
ATOM     20  C   UNL     1       2.226  -2.994   0.434  1.00  0.00     0.028 A 
ATOM     21  C   UNL     1       0.108  -4.793   0.751  1.00  0.00     0.002 A 
ATOM     22  C   UNL     1       2.449  -4.363   0.302  1.00  0.00     0.002 A 
ATOM     23  C   UNL     1       1.389  -5.260   0.450  1.00  0.00     0.000 A 
ENDBRANCH  17  18
ENDBRANCH  12  13
ENDBRANCH   8  12
ENDBRANCH   5   8
ENDBRANCH   3   4
ENDBRANCH   2   3
ENDBRANCH   1   2
BRANCH   1  24
ATOM     24  C   UNL     1      -0.023   8.241  -1.546  1.00  0.00     0.002 C 
BRANCH  24  25
ATOM     25  C   UNL     1      -1.228   8.374  -0.602  1.00  0.00     0.021 C 
BRANCH  25  26
ATOM     26  C   UNL     1      -1.040   9.380   0.519  1.00  0.00     0.116 C 
BRANCH  26  27
ATOM     27  N   UNL     1      -0.816  10.740   0.019  1.00  0.00    -0.352 N 
ATOM     28  C   UNL     1      -0.471  11.867   0.730  1.00  0.00     0.251 C 
ATOM     29  H   UNL     1      -0.926  10.863  -0.952  1.00  0.00     0.163 HD
ATOM     30  O   UNL     1      -0.654  12.994   0.258  1.00  0.00    -0.269 OA
BRANCH  28  31
ATOM     31  C   UNL     1       0.135  11.709   2.058  1.00  0.00     0.039 A 
ATOM     32  C   UNL     1      -0.194  12.542   3.134  1.00  0.00     0.014 A 
ATOM     33  C   UNL     1       1.038  10.664   2.214  1.00  0.00     0.014 A 
ATOM     34  C   UNL     1       0.347  12.265   4.386  1.00  0.00     0.010 A 
ATOM     35  C   UNL     1       1.406  10.275   3.468  1.00  0.00     0.010 A 
ATOM     36  C   UNL     1       1.141  11.122   4.539  1.00  0.00    -0.014 A 
BRANCH  36  37
ATOM     37  C   UNL     1       1.668  10.706   5.829  1.00  0.00     0.031 A 
ATOM     38  C   UNL     1       0.629  10.264   6.800  1.00  0.00     0.074 A 
ATOM     39  C   UNL     1       2.986  10.428   5.956  1.00  0.00     0.049 A 
ATOM     40  N   UNL     1       0.329  10.784   7.944  1.00  0.00    -0.248 NA
ATOM     41  C   UNL     1      -0.302   9.203   6.373  1.00  0.00     0.031 C 
ATOM     42  C   UNL     1       4.011  10.460   4.899  1.00  0.00     0.029 A 
ATOM     43  N   UNL     1       3.650   9.849   6.989  1.00  0.00    -0.354 N 
ATOM     44  C   UNL     1      -0.650   9.949   8.484  1.00  0.00     0.074 A 
ATOM     45  C   UNL     1      -1.172   9.187   7.384  1.00  0.00     0.031 C 
ATOM     46  C   UNL     1       5.040   9.660   5.251  1.00  0.00     0.029 A 
ATOM     47  C   UNL     1       4.824   9.200   6.609  1.00  0.00     0.049 A 
ATOM     48  H   UNL     1       3.332   9.884   7.920  1.00  0.00     0.167 HD
ATOM     49  C   UNL     1      -0.732   9.726   9.827  1.00  0.00     0.034 A 
ATOM     50  C   UNL     1       5.509   8.275   7.327  1.00  0.00     0.034 A 
ATOM     51  C   UNL     1       0.052  10.692  10.559  1.00  0.00     0.049 A 
ATOM     52  C   UNL     1       5.043   8.383   8.731  1.00  0.00     0.074 A 
ATOM     53  C   UNL     1       0.098  12.071  10.619  1.00  0.00     0.029 A 
ATOM     54  N   UNL     1       1.248  10.255  11.078  1.00  0.00    -0.354 N 
ATOM     55  N   UNL     1       5.234   9.438   9.475  1.00  0.00    -0.248 NA
ATOM     56  C   UNL     1       3.953   7.513   9.141  1.00  0.00     0.031 C 
ATOM     57  C   UNL     1       1.488  12.383  10.684  1.00  0.00     0.029 A 
ATOM     58  C   UNL     1       2.198  11.183  10.749  1.00  0.00     0.049 A 
ATOM     59  H   UNL     1       1.394   9.428  11.592  1.00  0.00     0.167 HD
ATOM     60  C   UNL     1       4.027   9.609  10.140  1.00  0.00     0.074 A 
ATOM     61  C   UNL     1       3.315   8.341   9.972  1.00  0.00     0.031 C 
ATOM     62  C   UNL     1       3.582  10.852  10.492  1.00  0.00     0.034 A 
BRANCH  49  63
ATOM     63  C   UNL     1      -1.162   8.422  10.482  1.00  0.00     0.023 A 
ATOM     64  C   UNL     1      -1.248   8.421  11.895  1.00  0.00     0.012 A 
ATOM     65  C   UNL     1      -1.203   7.159   9.847  1.00  0.00     0.148 A 
ATOM     66  C   UNL     1      -1.278   7.232  12.633  1.00  0.00     0.002 A 
ATOM     67  C   UNL     1      -1.315   5.983  10.581  1.00  0.00     0.091 A 
ATOM     68  F   UNL     1      -1.006   7.054   8.532  1.00  0.00    -0.205 F 
ATOM     69  C   UNL     1      -1.313   6.011  11.975  1.00  0.00     0.022 A 
BRANCH  67  70
ATOM     70  S   UNL     1      -1.413   4.376   9.776  1.00  0.00     0.127 S 
ATOM     71  O   UNL     1      -0.093   3.825  10.065  1.00  0.00    -0.237 OA
ATOM     72  O   UNL     1      -2.521   3.749  10.498  1.00  0.00    -0.237 OA
ATOM     73  O   UNL     1      -1.699   4.654   8.374  1.00  0.00    -0.744 OA
ENDBRANCH  67  70
ENDBRANCH  49  63
BRANCH  50  74
ATOM     74  C   UNL     1       6.301   7.115   6.847  1.00  0.00     0.023 A 
ATOM     75  C   UNL     1       7.253   6.516   7.696  1.00  0.00     0.012 A 
ATOM     76  C   UNL     1       5.946   6.430   5.662  1.00  0.00     0.148 A 
ATOM     77  C   UNL     1       7.816   5.270   7.386  1.00  0.00     0.002 A 
ATOM     78  C   UNL     1       6.518   5.200   5.350  1.00  0.00     0.091 A 
ATOM     79  F   UNL     1       4.977   6.938   4.888  1.00  0.00    -0.205 F 
ATOM     80  C   UNL     1       7.447   4.611   6.216  1.00  0.00     0.022 A 
BRANCH  78  81
ATOM     81  S   UNL     1       6.071   4.290   3.864  1.00  0.00     0.127 S 
ATOM     82  O   UNL     1       7.382   3.926   3.326  1.00  0.00    -0.237 OA
ATOM     83  O   UNL     1       5.300   3.178   4.412  1.00  0.00    -0.237 OA
ATOM     84  O   UNL     1       5.323   5.228   3.034  1.00  0.00    -0.744 OA
ENDBRANCH  78  81
ENDBRANCH  50  74
BRANCH  62  85
ATOM     85  C   UNL     1       4.523  12.022  10.366  1.00  0.00     0.023 A 
ATOM     86  C   UNL     1       5.032  12.461   9.125  1.00  0.00     0.012 A 
ATOM     87  C   UNL     1       4.729  12.819  11.503  1.00  0.00     0.148 A 
ATOM     88  C   UNL     1       5.739  13.663   9.026  1.00  0.00     0.002 A 
ATOM     89  C   UNL     1       5.390  14.035  11.392  1.00  0.00     0.091 A 
ATOM     90  F   UNL     1       4.236  12.389  12.674  1.00  0.00    -0.205 F 
ATOM     91  C   UNL     1       5.904  14.458  10.157  1.00  0.00     0.022 A 
BRANCH  89  92
ATOM     92  S   UNL     1       5.512  15.158  12.786  1.00  0.00     0.127 S 
ATOM     93  O   UNL     1       6.907  14.992  13.188  1.00  0.00    -0.237 OA
ATOM     94  O   UNL     1       5.199  16.452  12.177  1.00  0.00    -0.237 OA
ATOM     95  O   UNL     1       4.521  14.703  13.754  1.00  0.00    -0.744 OA
ENDBRANCH  89  92
ENDBRANCH  62  85
ENDBRANCH  36  37
ENDBRANCH  28  31
ENDBRANCH  26  27
ENDBRANCH  25  26
ENDBRANCH  24  25
ENDBRANCH   1  24
TORSDOF 21
