REMARK SMILES N#C/C(=C\c1ccc(-c2cc(C(F)(F)F)ccc2Cl)o1)C(=O)NCCCCCCNC(=O)c1ccc(-c2c3nc(c(-c4cccc(S(=O)(=O)[O-])c4F)c4ccc([nH]4)c(-c4cccc(S(=O)(=O)[O-])c4F)c4nc(c(-c5cccc(S(=O)(=O)[O-])c5F)c5ccc2[nH]5)C=C4)C=C3)cc1
REMARK SMILES IDX 26 1 25 2 24 3 23 4 21 5 22 6 3 8 4 9 2 10 1 11 5 12 6 13
REMARK SMILES IDX 20 14 7 15 8 16 9 17 10 18 18 19 11 20 17 21 19 22 16 23
REMARK SMILES IDX 12 24 13 25 14 26 15 27 27 28 28 29 29 30 30 31 31 32 32 34
REMARK SMILES IDX 33 35 34 36 95 37 35 38 94 39 36 40 37 41 38 42 88 43 39 44
REMARK SMILES IDX 93 45 87 46 89 47 40 48 92 49 86 50 85 51 41 53 73 54 53 55
REMARK SMILES IDX 72 56 54 57 57 58 71 59 90 60 55 61 56 62 70 64 91 65 58 66
REMARK SMILES IDX 42 67 43 68 51 69 44 70 46 71 52 72 45 73 47 74 48 75 49 76
REMARK SMILES IDX 50 77 74 78 75 79 83 80 76 81 78 82 84 83 77 84 79 85 80 86
REMARK SMILES IDX 81 87 82 88 59 89 60 90 68 91 61 92 63 93 69 94 62 95 64 96
REMARK SMILES IDX 65 97 66 98 67 99
REMARK H PARENT 23 7 30 33 89 52 57 63
REMARK Flexibility Score: inf
ROOT
ATOM      1  C   UNL     1       8.887  -0.536   2.041  1.00  0.00     0.002 C 
ENDROOT
BRANCH   1   2
ATOM      2  C   UNL     1       7.871   0.394   1.386  1.00  0.00     0.021 C 
BRANCH   2   3
ATOM      3  C   UNL     1       7.011  -0.241   0.303  1.00  0.00     0.116 C 
BRANCH   3   4
ATOM      4  N   UNL     1       5.957  -1.099   0.825  1.00  0.00    -0.351 N 
ATOM      5  C   UNL     1       4.596  -1.091   0.703  1.00  0.00     0.262 C 
ATOM      6  O   UNL     1       3.968  -1.978   1.283  1.00  0.00    -0.268 OA
ATOM      7  H   UNL     1       6.294  -1.838   1.381  1.00  0.00     0.163 HD
BRANCH   5   8
ATOM      8  C   UNL     1       3.862  -0.040  -0.043  1.00  0.00     0.120 C 
ATOM      9  C   UNL     1       4.342   0.693  -1.082  1.00  0.00     0.072 C 
BRANCH   8  10
ATOM     10  C   UNL     1       2.342  -0.040  -0.043  1.00  0.00     0.105 C 
ATOM     11  N   UNL     1       1.081  -0.040  -0.043  1.00  0.00    -0.192 NA
ENDBRANCH   8  10
BRANCH   9  12
ATOM     12  C   UNL     1       3.608   1.744  -1.742  1.00  0.00     0.129 A 
ATOM     13  C   UNL     1       2.680   2.654  -1.236  1.00  0.00     0.051 A 
ATOM     14  O   UNL     1       3.783   2.054  -3.078  1.00  0.00    -0.457 OA
ATOM     15  C   UNL     1       2.252   3.488  -2.290  1.00  0.00     0.051 A 
ATOM     16  C   UNL     1       2.981   3.115  -3.393  1.00  0.00     0.136 A 
BRANCH  16  17
ATOM     17  C   UNL     1       3.056   3.623  -4.758  1.00  0.00     0.036 A 
ATOM     18  C   UNL     1       2.904   2.729  -5.834  1.00  0.00     0.026 A 
ATOM     19  C   UNL     1       3.219   4.991  -5.045  1.00  0.00     0.052 A 
ATOM     20  C   UNL     1       2.893   3.181  -7.169  1.00  0.00     0.056 A 
ATOM     21  C   UNL     1       3.232   5.445  -6.369  1.00  0.00     0.022 A 
ATOM     22  Cl  UNL     1       3.421   6.190  -3.811  1.00  0.00    -0.084 Cl
ATOM     23  C   UNL     1       3.067   4.547  -7.423  1.00  0.00     0.014 A 
BRANCH  20  24
ATOM     24  C   UNL     1       2.672   2.203  -8.298  1.00  0.00     0.416 C 
ATOM     25  F   UNL     1       3.632   1.246  -8.376  1.00  0.00    -0.166 F 
ATOM     26  F   UNL     1       1.490   1.532  -8.162  1.00  0.00    -0.166 F 
ATOM     27  F   UNL     1       2.612   2.790  -9.526  1.00  0.00    -0.166 F 
ENDBRANCH  20  24
ENDBRANCH  16  17
ENDBRANCH   9  12
ENDBRANCH   5   8
ENDBRANCH   3   4
ENDBRANCH   2   3
ENDBRANCH   1   2
BRANCH   1  28
ATOM     28  C   UNL     1       9.826  -1.278   1.084  1.00  0.00     0.002 C 
BRANCH  28  29
ATOM     29  C   UNL     1      10.528  -0.418   0.028  1.00  0.00     0.021 C 
BRANCH  29  30
ATOM     30  C   UNL     1      11.364   0.730   0.580  1.00  0.00     0.116 C 
BRANCH  30  31
ATOM     31  N   UNL     1      12.461   0.259   1.411  1.00  0.00    -0.352 N 
ATOM     32  C   UNL     1      13.800   0.560   1.321  1.00  0.00     0.251 C 
ATOM     33  H   UNL     1      12.211  -0.358   2.137  1.00  0.00     0.163 HD
ATOM     34  O   UNL     1      14.622  -0.061   1.978  1.00  0.00    -0.269 OA
BRANCH  32  35
ATOM     35  C   UNL     1      14.232   1.637   0.405  1.00  0.00     0.039 A 
ATOM     36  C   UNL     1      15.275   1.395  -0.493  1.00  0.00     0.014 A 
ATOM     37  C   UNL     1      13.588   2.877   0.428  1.00  0.00     0.014 A 
ATOM     38  C   UNL     1      15.635   2.381  -1.415  1.00  0.00     0.010 A 
ATOM     39  C   UNL     1      13.903   3.831  -0.532  1.00  0.00     0.010 A 
ATOM     40  C   UNL     1      14.931   3.595  -1.459  1.00  0.00    -0.014 A 
BRANCH  40  41
ATOM     41  C   UNL     1      15.235   4.649  -2.459  1.00  0.00     0.031 A 
ATOM     42  C   UNL     1      15.704   5.999  -1.994  1.00  0.00     0.074 A 
ATOM     43  C   UNL     1      14.944   4.442  -3.757  1.00  0.00     0.049 A 
ATOM     44  N   UNL     1      15.847   7.104  -2.676  1.00  0.00    -0.248 NA
ATOM     45  C   UNL     1      16.012   6.131  -0.560  1.00  0.00     0.031 C 
ATOM     46  C   UNL     1      14.409   3.200  -4.316  1.00  0.00     0.029 A 
ATOM     47  N   UNL     1      15.006   5.293  -4.833  1.00  0.00    -0.354 N 
ATOM     48  C   UNL     1      16.201   8.076  -1.749  1.00  0.00     0.074 A 
ATOM     49  C   UNL     1      16.232   7.433  -0.453  1.00  0.00     0.031 C 
ATOM     50  C   UNL     1      14.165   3.377  -5.624  1.00  0.00     0.029 A 
ATOM     51  C   UNL     1      14.494   4.751  -5.989  1.00  0.00     0.049 A 
ATOM     52  H   UNL     1      15.380   6.202  -4.782  1.00  0.00     0.167 HD
ATOM     53  C   UNL     1      16.496   9.381  -1.960  1.00  0.00     0.034 A 
ATOM     54  C   UNL     1      14.288   5.305  -7.200  1.00  0.00     0.034 A 
ATOM     55  C   UNL     1      16.518   9.997  -3.258  1.00  0.00     0.049 A 
ATOM     56  C   UNL     1      14.689   6.736  -7.430  1.00  0.00     0.074 A 
ATOM     57  C   UNL     1      16.914  11.279  -3.595  1.00  0.00     0.029 A 
ATOM     58  N   UNL     1      16.123   9.377  -4.434  1.00  0.00    -0.354 N 
ATOM     59  N   UNL     1      15.178   7.600  -6.573  1.00  0.00    -0.248 NA
ATOM     60  C   UNL     1      14.547   7.260  -8.796  1.00  0.00     0.031 C 
ATOM     61  C   UNL     1      16.740  11.439  -4.974  1.00  0.00     0.029 A 
ATOM     62  C   UNL     1      16.258  10.250  -5.498  1.00  0.00     0.049 A 
ATOM     63  H   UNL     1      15.795   8.451  -4.500  1.00  0.00     0.167 HD
ATOM     64  C   UNL     1      15.437   8.756  -7.301  1.00  0.00     0.074 A 
ATOM     65  C   UNL     1      15.059   8.479  -8.672  1.00  0.00     0.031 C 
ATOM     66  C   UNL     1      15.932   9.941  -6.868  1.00  0.00     0.034 A 
BRANCH  53  67
ATOM     67  C   UNL     1      16.860  10.213  -0.758  1.00  0.00     0.023 A 
ATOM     68  C   UNL     1      18.086   9.990  -0.100  1.00  0.00     0.012 A 
ATOM     69  C   UNL     1      16.003  11.230  -0.294  1.00  0.00     0.148 A 
ATOM     70  C   UNL     1      18.433  10.730   1.030  1.00  0.00     0.002 A 
ATOM     71  C   UNL     1      16.377  11.996   0.805  1.00  0.00     0.091 A 
ATOM     72  F   UNL     1      14.828  11.414  -0.914  1.00  0.00    -0.205 F 
ATOM     73  C   UNL     1      17.583  11.738   1.476  1.00  0.00     0.022 A 
BRANCH  71  74
ATOM     74  S   UNL     1      15.379  13.367   1.397  1.00  0.00     0.127 S 
ATOM     75  O   UNL     1      14.704  12.768   2.547  1.00  0.00    -0.237 OA
ATOM     76  O   UNL     1      16.393  14.367   1.740  1.00  0.00    -0.237 OA
ATOM     77  O   UNL     1      14.521  13.741   0.281  1.00  0.00    -0.744 OA
ENDBRANCH  71  74
ENDBRANCH  53  67
BRANCH  54  78
ATOM     78  C   UNL     1      13.723   4.469  -8.296  1.00  0.00     0.023 A 
ATOM     79  C   UNL     1      14.567   4.030  -9.334  1.00  0.00     0.012 A 
ATOM     80  C   UNL     1      12.382   4.040  -8.270  1.00  0.00     0.148 A 
ATOM     81  C   UNL     1      14.081   3.190 -10.336  1.00  0.00     0.002 A 
ATOM     82  C   UNL     1      11.918   3.161  -9.241  1.00  0.00     0.091 A 
ATOM     83  F   UNL     1      11.596   4.475  -7.274  1.00  0.00    -0.205 F 
ATOM     84  C   UNL     1      12.762   2.746 -10.283  1.00  0.00     0.022 A 
BRANCH  82  85
ATOM     85  S   UNL     1      10.280   2.426  -9.178  1.00  0.00     0.127 S 
ATOM     86  O   UNL     1       9.641   3.017 -10.351  1.00  0.00    -0.237 OA
ATOM     87  O   UNL     1      10.587   1.000  -9.294  1.00  0.00    -0.237 OA
ATOM     88  O   UNL     1       9.718   2.818  -7.892  1.00  0.00    -0.744 OA
ENDBRANCH  82  85
ENDBRANCH  54  78
BRANCH  66  89
ATOM     89  C   UNL     1      16.142  11.032  -7.886  1.00  0.00     0.023 A 
ATOM     90  C   UNL     1      15.036  11.743  -8.389  1.00  0.00     0.012 A 
ATOM     91  C   UNL     1      17.445  11.422  -8.255  1.00  0.00     0.148 A 
ATOM     92  C   UNL     1      15.223  12.816  -9.260  1.00  0.00     0.002 A 
ATOM     93  C   UNL     1      17.625  12.520  -9.086  1.00  0.00     0.091 A 
ATOM     94  F   UNL     1      18.482  10.718  -7.779  1.00  0.00    -0.205 F 
ATOM     95  C   UNL     1      16.515  13.213  -9.597  1.00  0.00     0.022 A 
BRANCH  93  96
ATOM     96  S   UNL     1      19.253  13.163  -9.493  1.00  0.00     0.127 S 
ATOM     97  O   UNL     1      19.382  12.779 -10.898  1.00  0.00    -0.237 OA
ATOM     98  O   UNL     1      19.085  14.599  -9.266  1.00  0.00    -0.237 OA
ATOM     99  O   UNL     1      20.181  12.511  -8.580  1.00  0.00    -0.744 OA
ENDBRANCH  93  96
ENDBRANCH  66  89
ENDBRANCH  40  41
ENDBRANCH  32  35
ENDBRANCH  30  31
ENDBRANCH  29  30
ENDBRANCH  28  29
ENDBRANCH   1  28
TORSDOF 20
