REMARK SMILES COCCn1cc(NC(=O)N[C@H]2C=C[C@H](C(=O)NCCCCCCNC(=O)c3ccc(-c4c5nc(c(-c6cccc(S(=O)(=O)[O-])c6F)c6ccc([nH]6)c(-c6cccc(S(=O)(=O)[O-])c6F)c6nc(c(-c7cccc(S(=O)(=O)[O-])c7F)c7ccc4[nH]7)C=C6)C=C5)cc3)C2)cn1
REMARK SMILES IDX 20 1 19 2 18 3 16 4 17 5 15 7 12 8 13 9 91 10 14 11 11 12
REMARK SMILES IDX 8 13 9 14 10 16 7 18 5 19 6 20 93 21 92 22 4 23 3 24 2 25
REMARK SMILES IDX 1 26 21 27 22 28 23 29 24 30 25 31 26 32 27 34 28 35 29 36
REMARK SMILES IDX 90 37 30 38 89 39 31 40 32 41 33 42 83 43 34 44 88 45 82 46
REMARK SMILES IDX 84 47 35 48 87 49 81 50 80 51 36 53 68 54 48 55 67 56 49 57
REMARK SMILES IDX 52 58 66 59 85 60 50 61 51 62 65 64 86 65 53 66 37 67 38 68
REMARK SMILES IDX 46 69 39 70 41 71 47 72 40 73 42 74 43 75 44 76 45 77 69 78
REMARK SMILES IDX 70 79 78 80 71 81 73 82 79 83 72 84 74 85 75 86 76 87 77 88
REMARK SMILES IDX 54 89 55 90 63 91 56 92 58 93 64 94 57 95 59 96 60 97 61 98
REMARK SMILES IDX 62 99
REMARK H PARENT 18 6 8 15 11 17 25 33 84 52 52 63
REMARK Flexibility Score: inf
ROOT
ATOM      1  C   UNL     1      -2.261  -2.057   1.554  1.00  0.00     0.021 C 
ENDROOT
BRANCH   1   2
ATOM      2  C   UNL     1      -1.204  -2.439   2.603  1.00  0.00     0.116 C 
BRANCH   2   3
ATOM      3  N   UNL     1      -0.457  -3.676   2.343  1.00  0.00    -0.356 N 
ATOM      4  C   UNL     1       0.638  -4.001   3.120  1.00  0.00     0.227 C 
ATOM      5  O   UNL     1       0.826  -3.450   4.211  1.00  0.00    -0.274 OA
ATOM      6  H   UNL     1      -0.736  -4.275   1.613  1.00  0.00     0.163 HD
BRANCH   4   7
ATOM      7  C   UNL     1       1.707  -5.000   2.586  1.00  0.00     0.103 C 
ATOM      8  C   UNL     1       1.546  -5.294   0.180  1.00  0.00     0.107 C 
ATOM      9  C   UNL     1       1.281  -6.585   0.911  1.00  0.00    -0.006 C 
ATOM     10  C   UNL     1       2.365  -4.587   1.265  1.00  0.00     0.047 C 
ATOM     11  C   UNL     1       1.298  -6.397   2.242  1.00  0.00    -0.016 C 
BRANCH   8  12
ATOM     12  N   UNL     1       2.182  -5.538  -1.098  1.00  0.00    -0.332 N 
ATOM     13  N   UNL     1       2.845  -3.420  -1.974  1.00  0.00    -0.305 N 
ATOM     14  C   UNL     1       2.685  -4.756  -2.079  1.00  0.00     0.319 C 
ATOM     15  H   UNL     1       3.505  -3.032  -2.594  1.00  0.00     0.171 HD
ATOM     16  O   UNL     1       3.154  -5.323  -3.070  1.00  0.00    -0.248 OA
ATOM     17  H   UNL     1       2.268  -6.498  -1.299  1.00  0.00     0.165 HD
BRANCH  13  18
ATOM     18  C   UNL     1       2.238  -2.519  -1.143  1.00  0.00     0.081 A 
ATOM     19  N   UNL     1       2.007  -1.087   0.474  1.00  0.00    -0.268 N 
ATOM     20  C   UNL     1       2.897  -1.508  -0.477  1.00  0.00     0.135 A 
ATOM     21  N   UNL     1       0.760  -1.540   0.261  1.00  0.00    -0.179 NA
ATOM     22  C   UNL     1       0.898  -2.413  -0.737  1.00  0.00     0.161 A 
BRANCH  19  23
ATOM     23  C   UNL     1       2.294  -0.404   1.715  1.00  0.00     0.172 C 
BRANCH  23  24
ATOM     24  C   UNL     1       2.334   1.117   1.637  1.00  0.00     0.183 C 
BRANCH  24  25
ATOM     25  O   UNL     1       1.249   1.754   0.969  1.00  0.00    -0.383 OA
ATOM     26  C   UNL     1       1.293   1.648  -0.452  1.00  0.00     0.194 C 
ENDBRANCH  24  25
ENDBRANCH  23  24
ENDBRANCH  19  23
ENDBRANCH  13  18
ENDBRANCH   8  12
ENDBRANCH   4   7
ENDBRANCH   2   3
ENDBRANCH   1   2
BRANCH   1  27
ATOM     27  C   UNL     1      -3.150  -0.859   1.962  1.00  0.00     0.002 C 
BRANCH  27  28
ATOM     28  C   UNL     1      -2.464   0.479   2.290  1.00  0.00     0.002 C 
BRANCH  28  29
ATOM     29  C   UNL     1      -1.840   1.261   1.129  1.00  0.00     0.021 C 
BRANCH  29  30
ATOM     30  C   UNL     1      -2.801   1.821   0.090  1.00  0.00     0.116 C 
BRANCH  30  31
ATOM     31  N   UNL     1      -3.794   2.760   0.634  1.00  0.00    -0.352 N 
ATOM     32  C   UNL     1      -4.904   3.311   0.001  1.00  0.00     0.251 C 
ATOM     33  H   UNL     1      -3.655   3.035   1.569  1.00  0.00     0.163 HD
ATOM     34  O   UNL     1      -5.455   4.305   0.425  1.00  0.00    -0.269 OA
BRANCH  32  35
ATOM     35  C   UNL     1      -5.401   2.634  -1.213  1.00  0.00     0.039 A 
ATOM     36  C   UNL     1      -5.776   3.332  -2.366  1.00  0.00     0.014 A 
ATOM     37  C   UNL     1      -5.394   1.248  -1.187  1.00  0.00     0.014 A 
ATOM     38  C   UNL     1      -6.046   2.606  -3.526  1.00  0.00     0.010 A 
ATOM     39  C   UNL     1      -5.426   0.565  -2.368  1.00  0.00     0.010 A 
ATOM     40  C   UNL     1      -5.844   1.219  -3.520  1.00  0.00    -0.014 A 
BRANCH  40  41
ATOM     41  C   UNL     1      -5.999   0.404  -4.716  1.00  0.00     0.031 A 
ATOM     42  C   UNL     1      -5.117   0.777  -5.858  1.00  0.00     0.074 A 
ATOM     43  C   UNL     1      -6.683  -0.762  -4.676  1.00  0.00     0.049 A 
ATOM     44  N   UNL     1      -5.467   1.233  -7.016  1.00  0.00    -0.248 NA
ATOM     45  C   UNL     1      -3.662   0.769  -5.641  1.00  0.00     0.031 C 
ATOM     46  C   UNL     1      -7.284  -1.424  -3.504  1.00  0.00     0.029 A 
ATOM     47  N   UNL     1      -6.835  -1.699  -5.646  1.00  0.00    -0.354 N 
ATOM     48  C   UNL     1      -4.286   1.349  -7.752  1.00  0.00     0.074 A 
ATOM     49  C   UNL     1      -3.213   1.258  -6.799  1.00  0.00     0.031 C 
ATOM     50  C   UNL     1      -7.462  -2.736  -3.767  1.00  0.00     0.029 A 
ATOM     51  C   UNL     1      -7.190  -2.958  -5.171  1.00  0.00     0.049 A 
ATOM     52  H   UNL     1      -6.707  -1.504  -6.603  1.00  0.00     0.167 HD
ATOM     53  C   UNL     1      -4.285   1.262  -9.113  1.00  0.00     0.034 A 
ATOM     54  C   UNL     1      -7.208  -4.112  -5.879  1.00  0.00     0.034 A 
ATOM     55  C   UNL     1      -5.625   1.351  -9.636  1.00  0.00     0.049 A 
ATOM     56  C   UNL     1      -7.245  -3.734  -7.309  1.00  0.00     0.074 A 
ATOM     57  C   UNL     1      -6.628   2.298  -9.611  1.00  0.00     0.029 A 
ATOM     58  N   UNL     1      -6.230   0.163  -9.971  1.00  0.00    -0.354 N 
ATOM     59  N   UNL     1      -8.240  -3.097  -7.862  1.00  0.00    -0.248 NA
ATOM     60  C   UNL     1      -5.982  -3.668  -8.024  1.00  0.00     0.031 C 
ATOM     61  C   UNL     1      -7.832   1.548  -9.460  1.00  0.00     0.029 A 
ATOM     62  C   UNL     1      -7.504   0.189  -9.473  1.00  0.00     0.049 A 
ATOM     63  H   UNL     1      -5.819  -0.574 -10.478  1.00  0.00     0.167 HD
ATOM     64  C   UNL     1      -7.633  -2.191  -8.723  1.00  0.00     0.074 A 
ATOM     65  C   UNL     1      -6.259  -2.669  -8.866  1.00  0.00     0.031 C 
ATOM     66  C   UNL     1      -8.210  -0.984  -8.998  1.00  0.00     0.034 A 
BRANCH  53  67
ATOM     67  C   UNL     1      -3.155   0.735  -9.976  1.00  0.00     0.023 A 
ATOM     68  C   UNL     1      -3.323   0.825 -11.380  1.00  0.00     0.012 A 
ATOM     69  C   UNL     1      -2.087  -0.069  -9.519  1.00  0.00     0.148 A 
ATOM     70  C   UNL     1      -2.522   0.102 -12.271  1.00  0.00     0.002 A 
ATOM     71  C   UNL     1      -1.242  -0.723 -10.411  1.00  0.00     0.091 A 
ATOM     72  F   UNL     1      -1.947  -0.324  -8.216  1.00  0.00    -0.205 F 
ATOM     73  C   UNL     1      -1.476  -0.670 -11.786  1.00  0.00     0.022 A 
BRANCH  71  74
ATOM     74  S   UNL     1       0.161  -1.693  -9.841  1.00  0.00     0.127 S 
ATOM     75  O   UNL     1      -0.318  -3.054 -10.059  1.00  0.00    -0.237 OA
ATOM     76  O   UNL     1       1.218  -1.253 -10.752  1.00  0.00    -0.237 OA
ATOM     77  O   UNL     1       0.369  -1.298  -8.454  1.00  0.00    -0.744 OA
ENDBRANCH  71  74
ENDBRANCH  53  67
BRANCH  54  78
ATOM     78  C   UNL     1      -6.923  -5.493  -5.432  1.00  0.00     0.023 A 
ATOM     79  C   UNL     1      -7.421  -6.580  -6.175  1.00  0.00     0.012 A 
ATOM     80  C   UNL     1      -5.934  -5.747  -4.453  1.00  0.00     0.148 A 
ATOM     81  C   UNL     1      -6.924  -7.874  -5.979  1.00  0.00     0.002 A 
ATOM     82  C   UNL     1      -5.444  -7.036  -4.260  1.00  0.00     0.091 A 
ATOM     83  F   UNL     1      -5.413  -4.712  -3.780  1.00  0.00    -0.205 F 
ATOM     84  C   UNL     1      -5.928  -8.100  -5.031  1.00  0.00     0.022 A 
BRANCH  82  85
ATOM     85  S   UNL     1      -4.136  -7.403  -3.079  1.00  0.00     0.127 S 
ATOM     86  O   UNL     1      -4.708  -8.524  -2.332  1.00  0.00    -0.237 OA
ATOM     87  O   UNL     1      -3.025  -7.758  -3.957  1.00  0.00    -0.237 OA
ATOM     88  O   UNL     1      -3.951  -6.191  -2.291  1.00  0.00    -0.744 OA
ENDBRANCH  82  85
ENDBRANCH  54  78
BRANCH  66  89
ATOM     89  C   UNL     1      -9.634  -0.754  -8.553  1.00  0.00     0.023 A 
ATOM     90  C   UNL     1     -10.004  -0.687  -7.192  1.00  0.00     0.012 A 
ATOM     91  C   UNL     1     -10.575  -0.390  -9.529  1.00  0.00     0.148 A 
ATOM     92  C   UNL     1     -11.287  -0.275  -6.817  1.00  0.00     0.002 A 
ATOM     93  C   UNL     1     -11.831   0.068  -9.151  1.00  0.00     0.091 A 
ATOM     94  F   UNL     1     -10.207  -0.458 -10.817  1.00  0.00    -0.205 F 
ATOM     95  C   UNL     1     -12.195   0.119  -7.797  1.00  0.00     0.022 A 
BRANCH  93  96
ATOM     96  S   UNL     1     -12.986   0.723 -10.357  1.00  0.00     0.127 S 
ATOM     97  O   UNL     1     -13.971  -0.353 -10.452  1.00  0.00    -0.237 OA
ATOM     98  O   UNL     1     -13.470   1.939  -9.702  1.00  0.00    -0.237 OA
ATOM     99  O   UNL     1     -12.208   0.969 -11.565  1.00  0.00    -0.744 OA
ENDBRANCH  93  96
ENDBRANCH  66  89
ENDBRANCH  40  41
ENDBRANCH  32  35
ENDBRANCH  30  31
ENDBRANCH  29  30
ENDBRANCH  28  29
ENDBRANCH  27  28
ENDBRANCH   1  27
TORSDOF 21
