REMARK SMILES CCCCCCNC(=O)Oc1cccc(-c2ccc([C@H](C)C(=O)NCCCCCCNC(=O)c3ccc(-c4c5nc(c(-c6cccc(S(=O)(=O)[O-])c6F)c6ccc([nH]6)c(-c6cccc(S(=O)(=O)[O-])c6F)c6nc(c(-c7cccc(S(=O)(=O)[O-])c7F)c7ccc4[nH]7)C=C6)C=C5)cc3)cc2F)c1
REMARK SMILES IDX 22 1 23 2 24 3 20 5 21 6 19 7 16 8 17 9 98 10 18 11 97 12
REMARK SMILES IDX 99 13 15 14 11 15 12 16 100 17 13 18 14 19 10 20 8 21 7 22
REMARK SMILES IDX 9 24 6 25 5 26 4 27 3 28 2 29 1 30 25 31 26 32 27 33 28 34
REMARK SMILES IDX 29 35 30 36 31 37 32 38 33 40 34 41 35 42 96 43 36 44 95 45
REMARK SMILES IDX 37 46 38 47 39 48 89 49 40 50 94 51 88 52 90 53 41 54 93 55
REMARK SMILES IDX 87 56 86 57 42 59 74 60 54 61 73 62 55 63 58 64 72 65 91 66
REMARK SMILES IDX 56 67 57 68 71 70 92 71 59 72 43 73 44 74 52 75 45 76 47 77
REMARK SMILES IDX 53 78 46 79 48 80 49 81 50 82 51 83 75 84 76 85 84 86 77 87
REMARK SMILES IDX 79 88 85 89 78 90 80 91 81 92 82 93 83 94 60 95 61 96 69 97
REMARK SMILES IDX 62 98 64 99 70 100 63 101 65 102 66 103 67 104 68 105
REMARK H PARENT 24 4 7 23 31 39 90 58 58 69
REMARK Flexibility Score: inf
ROOT
ATOM      1  C   UNL     1      -3.415  10.044 -10.175  1.00  0.00     0.227 C 
ATOM      2  O   UNL     1      -2.477   9.755 -10.924  1.00  0.00    -0.274 OA
ATOM      3  N   UNL     1      -3.358  11.233  -9.513  1.00  0.00    -0.356 N 
ATOM      4  H   UNL     1      -2.559  11.777  -9.701  1.00  0.00     0.163 HD
ENDROOT
BRANCH   1   5
ATOM      5  C   UNL     1      -4.604   9.094  -9.999  1.00  0.00     0.105 C 
ATOM      6  C   UNL     1      -4.570   8.492  -8.588  1.00  0.00     0.023 C 
BRANCH   5   7
ATOM      7  C   UNL     1      -5.936   9.691 -10.447  1.00  0.00    -0.033 A 
ATOM      8  C   UNL     1      -8.394  10.861 -11.291  1.00  0.00     0.018 A 
ATOM      9  C   UNL     1      -8.357   9.917 -10.255  1.00  0.00     0.012 A 
ATOM     10  C   UNL     1      -7.183  11.187 -11.910  1.00  0.00     0.131 A 
ATOM     11  C   UNL     1      -7.151   9.334  -9.845  1.00  0.00     0.005 A 
ATOM     12  C   UNL     1      -5.979  10.609 -11.510  1.00  0.00     0.044 A 
ATOM     13  F   UNL     1      -7.151  12.077 -12.915  1.00  0.00    -0.206 F 
BRANCH   8  14
ATOM     14  C   UNL     1      -9.669  11.435 -11.734  1.00  0.00    -0.012 A 
ATOM     15  C   UNL     1     -11.343  11.744 -13.461  1.00  0.00     0.133 A 
ATOM     16  C   UNL     1     -12.150  12.467 -12.587  1.00  0.00     0.047 A 
ATOM     17  C   UNL     1     -10.103  11.254 -13.055  1.00  0.00     0.056 A 
ATOM     18  C   UNL     1     -11.723  12.671 -11.277  1.00  0.00     0.004 A 
ATOM     19  C   UNL     1     -10.495  12.153 -10.852  1.00  0.00     0.009 A 
BRANCH  15  20
ATOM     20  O   UNL     1     -11.782  11.619 -14.788  1.00  0.00    -0.410 OA
BRANCH  20  21
ATOM     21  C   UNL     1     -11.752  10.363 -15.372  1.00  0.00     0.412 C 
ATOM     22  N   UNL     1     -12.121  10.370 -16.686  1.00  0.00    -0.321 N 
ATOM     23  H   UNL     1     -12.126   9.500 -17.148  1.00  0.00     0.167 HD
ATOM     24  O   UNL     1     -11.443   9.306 -14.822  1.00  0.00    -0.224 OA
BRANCH  22  25
ATOM     25  C   UNL     1     -12.505  11.525 -17.471  1.00  0.00     0.119 C 
BRANCH  25  26
ATOM     26  C   UNL     1     -11.594  11.717 -18.682  1.00  0.00     0.021 C 
BRANCH  26  27
ATOM     27  C   UNL     1     -11.635  10.576 -19.706  1.00  0.00     0.002 C 
BRANCH  27  28
ATOM     28  C   UNL     1     -13.012  10.282 -20.311  1.00  0.00    -0.000 C 
BRANCH  28  29
ATOM     29  C   UNL     1     -13.675  11.458 -21.032  1.00  0.00    -0.003 C 
ATOM     30  C   UNL     1     -12.887  11.945 -22.238  1.00  0.00     0.004 C 
ENDBRANCH  28  29
ENDBRANCH  27  28
ENDBRANCH  26  27
ENDBRANCH  25  26
ENDBRANCH  22  25
ENDBRANCH  20  21
ENDBRANCH  15  20
ENDBRANCH   8  14
ENDBRANCH   5   7
ENDBRANCH   1   5
BRANCH   3  31
ATOM     31  C   UNL     1      -4.295  11.821  -8.573  1.00  0.00     0.116 C 
BRANCH  31  32
ATOM     32  C   UNL     1      -3.655  11.983  -7.197  1.00  0.00     0.021 C 
BRANCH  32  33
ATOM     33  C   UNL     1      -2.497  12.987  -7.164  1.00  0.00     0.002 C 
BRANCH  33  34
ATOM     34  C   UNL     1      -2.846  14.394  -7.660  1.00  0.00     0.002 C 
BRANCH  34  35
ATOM     35  C   UNL     1      -4.037  15.051  -6.959  1.00  0.00     0.021 C 
BRANCH  35  36
ATOM     36  C   UNL     1      -3.891  15.178  -5.446  1.00  0.00     0.116 C 
BRANCH  36  37
ATOM     37  N   UNL     1      -2.760  16.015  -5.075  1.00  0.00    -0.352 N 
ATOM     38  C   UNL     1      -2.725  17.102  -4.238  1.00  0.00     0.251 C 
ATOM     39  H   UNL     1      -1.899  15.766  -5.481  1.00  0.00     0.163 HD
ATOM     40  O   UNL     1      -1.722  17.808  -4.191  1.00  0.00    -0.269 OA
BRANCH  38  41
ATOM     41  C   UNL     1      -3.904  17.427  -3.407  1.00  0.00     0.039 A 
ATOM     42  C   UNL     1      -4.330  18.755  -3.327  1.00  0.00     0.014 A 
ATOM     43  C   UNL     1      -4.584  16.425  -2.708  1.00  0.00     0.014 A 
ATOM     44  C   UNL     1      -5.473  19.069  -2.588  1.00  0.00     0.010 A 
ATOM     45  C   UNL     1      -5.765  16.730  -2.038  1.00  0.00     0.010 A 
ATOM     46  C   UNL     1      -6.217  18.055  -1.962  1.00  0.00    -0.014 A 
BRANCH  46  47
ATOM     47  C   UNL     1      -7.474  18.362  -1.233  1.00  0.00     0.031 A 
ATOM     48  C   UNL     1      -7.583  18.093   0.243  1.00  0.00     0.074 A 
ATOM     49  C   UNL     1      -8.546  18.808  -1.917  1.00  0.00     0.049 A 
ATOM     50  N   UNL     1      -8.608  18.261   1.038  1.00  0.00    -0.248 NA
ATOM     51  C   UNL     1      -6.395  17.535   0.909  1.00  0.00     0.031 C 
ATOM     52  C   UNL     1      -8.591  19.035  -3.363  1.00  0.00     0.029 A 
ATOM     53  N   UNL     1      -9.810  19.129  -1.492  1.00  0.00    -0.354 N 
ATOM     54  C   UNL     1      -8.203  17.801   2.285  1.00  0.00     0.074 A 
ATOM     55  C   UNL     1      -6.851  17.309   2.132  1.00  0.00     0.031 C 
ATOM     56  C   UNL     1      -9.815  19.469  -3.702  1.00  0.00     0.029 A 
ATOM     57  C   UNL     1     -10.651  19.521  -2.507  1.00  0.00     0.049 A 
ATOM     58  H   UNL     1     -10.089  19.083  -0.549  1.00  0.00     0.167 HD
ATOM     59  C   UNL     1      -8.880  17.813   3.458  1.00  0.00     0.034 A 
ATOM     60  C   UNL     1     -11.950  19.878  -2.481  1.00  0.00     0.034 A 
ATOM     61  C   UNL     1     -10.212  18.333   3.612  1.00  0.00     0.049 A 
ATOM     62  C   UNL     1     -12.672  19.912  -1.162  1.00  0.00     0.074 A 
ATOM     63  C   UNL     1     -10.954  18.472   4.772  1.00  0.00     0.029 A 
ATOM     64  N   UNL     1     -11.009  18.789   2.572  1.00  0.00    -0.354 N 
ATOM     65  N   UNL     1     -12.220  19.622   0.035  1.00  0.00    -0.248 NA
ATOM     66  C   UNL     1     -14.073  20.356  -1.184  1.00  0.00     0.031 C 
ATOM     67  C   UNL     1     -12.210  18.982   4.429  1.00  0.00     0.029 A 
ATOM     68  C   UNL     1     -12.239  19.195   3.060  1.00  0.00     0.049 A 
ATOM     69  H   UNL     1     -10.739  18.820   1.626  1.00  0.00     0.167 HD
ATOM     70  C   UNL     1     -13.267  19.883   0.911  1.00  0.00     0.074 A 
ATOM     71  C   UNL     1     -14.370  20.372   0.109  1.00  0.00     0.031 C 
ATOM     72  C   UNL     1     -13.315  19.721   2.257  1.00  0.00     0.034 A 
BRANCH  59  73
ATOM     73  C   UNL     1      -8.170  17.282   4.678  1.00  0.00     0.023 A 
ATOM     74  C   UNL     1      -7.083  17.999   5.221  1.00  0.00     0.012 A 
ATOM     75  C   UNL     1      -8.596  16.097   5.309  1.00  0.00     0.148 A 
ATOM     76  C   UNL     1      -6.403  17.523   6.341  1.00  0.00     0.002 A 
ATOM     77  C   UNL     1      -7.945  15.654   6.455  1.00  0.00     0.091 A 
ATOM     78  F   UNL     1      -9.617  15.415   4.769  1.00  0.00    -0.205 F 
ATOM     79  C   UNL     1      -6.840  16.357   6.963  1.00  0.00     0.022 A 
BRANCH  77  80
ATOM     80  S   UNL     1      -8.482  14.209   7.375  1.00  0.00     0.127 S 
ATOM     81  O   UNL     1      -7.430  13.246   7.053  1.00  0.00    -0.237 OA
ATOM     82  O   UNL     1      -8.460  14.696   8.755  1.00  0.00    -0.237 OA
ATOM     83  O   UNL     1      -9.808  13.882   6.870  1.00  0.00    -0.744 OA
ENDBRANCH  77  80
ENDBRANCH  59  73
BRANCH  60  84
ATOM     84  C   UNL     1     -12.626  20.304  -3.738  1.00  0.00     0.023 A 
ATOM     85  C   UNL     1     -12.963  21.660  -3.915  1.00  0.00     0.012 A 
ATOM     86  C   UNL     1     -12.898  19.387  -4.772  1.00  0.00     0.148 A 
ATOM     87  C   UNL     1     -13.584  22.091  -5.087  1.00  0.00     0.002 A 
ATOM     88  C   UNL     1     -13.467  19.833  -5.959  1.00  0.00     0.091 A 
ATOM     89  F   UNL     1     -12.575  18.101  -4.580  1.00  0.00    -0.205 F 
ATOM     90  C   UNL     1     -13.827  21.181  -6.112  1.00  0.00     0.022 A 
BRANCH  88  91
ATOM     91  S   UNL     1     -13.700  18.761  -7.382  1.00  0.00     0.127 S 
ATOM     92  O   UNL     1     -15.156  18.692  -7.471  1.00  0.00    -0.237 OA
ATOM     93  O   UNL     1     -13.052  19.530  -8.445  1.00  0.00    -0.237 OA
ATOM     94  O   UNL     1     -13.030  17.510  -7.050  1.00  0.00    -0.744 OA
ENDBRANCH  88  91
ENDBRANCH  60  84
BRANCH  72  95
ATOM     95  C   UNL     1     -14.589  20.109   2.963  1.00  0.00     0.023 A 
ATOM     96  C   UNL     1     -15.745  19.317   2.814  1.00  0.00     0.012 A 
ATOM     97  C   UNL     1     -14.620  21.220   3.829  1.00  0.00     0.148 A 
ATOM     98  C   UNL     1     -16.922  19.647   3.487  1.00  0.00     0.002 A 
ATOM     99  C   UNL     1     -15.780  21.512   4.537  1.00  0.00     0.091 A 
ATOM    100  F   UNL     1     -13.515  21.972   3.943  1.00  0.00    -0.205 F 
ATOM    101  C   UNL     1     -16.935  20.735   4.356  1.00  0.00     0.022 A 
BRANCH  99 102
ATOM    102  S   UNL     1     -15.861  22.832   5.752  1.00  0.00     0.127 S 
ATOM    103  O   UNL     1     -16.697  23.816   5.066  1.00  0.00    -0.237 OA
ATOM    104  O   UNL     1     -16.504  22.169   6.887  1.00  0.00    -0.237 OA
ATOM    105  O   UNL     1     -14.484  23.242   5.992  1.00  0.00    -0.744 OA
ENDBRANCH  99 102
ENDBRANCH  72  95
ENDBRANCH  46  47
ENDBRANCH  38  41
ENDBRANCH  36  37
ENDBRANCH  35  36
ENDBRANCH  34  35
ENDBRANCH  33  34
ENDBRANCH  32  33
ENDBRANCH  31  32
ENDBRANCH   3  31
TORSDOF 25
