REMARK SMILES Cc1cc(N2CCC[C@H](C(=O)NCCCCCCNC(=O)c3ccc(-c4c5nc(c(-c6cccc(S(=O)(=O)[O-])c6F)c6ccc([nH]6)c(-c6cccc(S(=O)(=O)[O-])c6F)c6nc(c(-c7cccc(S(=O)(=O)[O-])c7F)c7ccc4[nH]7)C=C6)C=C5)cc3)C2)nc(C(C)C)n1
REMARK SMILES IDX 16 1 15 2 14 3 13 4 12 5 10 6 11 7 9 9 5 10 6 11 85 12 7 13
REMARK SMILES IDX 8 14 4 15 1 16 2 17 3 18 91 19 87 20 86 21 88 22 89 23 90 24
REMARK SMILES IDX 17 25 18 26 19 27 20 28 21 30 22 31 23 32 84 33 24 34 83 35
REMARK SMILES IDX 25 36 26 37 27 38 77 39 28 40 82 41 76 42 78 43 29 44 81 45
REMARK SMILES IDX 75 46 74 47 30 49 62 50 42 51 61 52 43 53 46 54 60 55 79 56
REMARK SMILES IDX 44 57 45 58 59 60 80 61 47 62 31 63 32 64 40 65 33 66 35 67
REMARK SMILES IDX 41 68 34 69 36 70 37 71 38 72 39 73 63 74 64 75 72 76 65 77
REMARK SMILES IDX 67 78 73 79 66 80 68 81 69 82 70 83 71 84 48 85 49 86 57 87
REMARK SMILES IDX 50 88 52 89 58 90 51 91 53 92 54 93 55 94 56 95
REMARK H PARENT 12 8 19 29 78 48 46 59
REMARK Flexibility Score: inf
ROOT
ATOM      1  C   UNL     1       5.344   1.723   0.752  1.00  0.00     0.002 C 
ENDROOT
BRANCH   1   2
ATOM      2  C   UNL     1       6.297   0.640   0.231  1.00  0.00     0.002 C 
BRANCH   2   3
ATOM      3  C   UNL     1       5.737  -0.784   0.225  1.00  0.00     0.021 C 
BRANCH   3   4
ATOM      4  C   UNL     1       4.436  -0.939  -0.560  1.00  0.00     0.116 C 
BRANCH   4   5
ATOM      5  N   UNL     1       4.625  -1.526  -1.867  1.00  0.00    -0.356 N 
ATOM      6  C   UNL     1       3.970  -2.549  -2.470  1.00  0.00     0.224 C 
ATOM      7  O   UNL     1       4.143  -2.666  -3.691  1.00  0.00    -0.275 OA
ATOM      8  H   UNL     1       5.340  -1.117  -2.406  1.00  0.00     0.163 HD
BRANCH   6   9
ATOM      9  C   UNL     1       3.058  -3.548  -1.750  1.00  0.00     0.098 C 
ATOM     10  N   UNL     1       1.630  -2.461  -0.083  1.00  0.00    -0.356 N 
ATOM     11  C   UNL     1       1.971  -3.331   1.027  1.00  0.00     0.118 C 
ATOM     12  C   UNL     1       1.677  -2.993  -1.431  1.00  0.00     0.131 C 
ATOM     13  C   UNL     1       3.367  -3.935   0.816  1.00  0.00     0.022 C 
ATOM     14  C   UNL     1       3.688  -4.370  -0.619  1.00  0.00     0.017 C 
BRANCH  10  15
ATOM     15  C   UNL     1       0.815  -1.364   0.104  1.00  0.00     0.132 A 
ATOM     16  C   UNL     1      -2.784  -0.325   0.131  1.00  0.00     0.067 C 
ATOM     17  C   UNL     1      -1.288  -0.307   0.150  1.00  0.00     0.043 A 
ATOM     18  C   UNL     1      -0.557  -1.481   0.165  1.00  0.00     0.070 A 
ATOM     19  N   UNL     1      -0.706   0.906   0.099  1.00  0.00    -0.238 NA
ATOM     20  C   UNL     1       0.636   0.931   0.074  1.00  0.00     0.133 A 
ATOM     21  N   UNL     1       1.415  -0.164   0.066  1.00  0.00    -0.216 NA
BRANCH  20  22
ATOM     22  C   UNL     1       1.334   2.267  -0.025  1.00  0.00     0.051 C 
ATOM     23  C   UNL     1       0.953   2.997  -1.312  1.00  0.00     0.016 C 
ATOM     24  C   UNL     1       1.072   3.128   1.207  1.00  0.00     0.016 C 
ENDBRANCH  20  22
ENDBRANCH  10  15
ENDBRANCH   6   9
ENDBRANCH   4   5
ENDBRANCH   3   4
ENDBRANCH   2   3
ENDBRANCH   1   2
BRANCH   1  25
ATOM     25  C   UNL     1       4.735   1.475   2.137  1.00  0.00     0.021 C 
BRANCH  25  26
ATOM     26  C   UNL     1       5.753   1.339   3.268  1.00  0.00     0.116 C 
BRANCH  26  27
ATOM     27  N   UNL     1       6.652   2.482   3.323  1.00  0.00    -0.352 N 
ATOM     28  C   UNL     1       6.973   3.306   4.367  1.00  0.00     0.251 C 
ATOM     29  H   UNL     1       7.100   2.697   2.473  1.00  0.00     0.163 HD
ATOM     30  O   UNL     1       7.575   4.356   4.141  1.00  0.00    -0.269 OA
BRANCH  28  31
ATOM     31  C   UNL     1       6.619   2.944   5.755  1.00  0.00     0.039 A 
ATOM     32  C   UNL     1       6.222   3.958   6.632  1.00  0.00     0.014 A 
ATOM     33  C   UNL     1       6.747   1.631   6.216  1.00  0.00     0.014 A 
ATOM     34  C   UNL     1       5.935   3.652   7.963  1.00  0.00     0.010 A 
ATOM     35  C   UNL     1       6.394   1.315   7.525  1.00  0.00     0.010 A 
ATOM     36  C   UNL     1       6.010   2.325   8.418  1.00  0.00    -0.014 A 
BRANCH  36  37
ATOM     37  C   UNL     1       5.710   1.988   9.831  1.00  0.00     0.031 A 
ATOM     38  C   UNL     1       6.791   1.444  10.727  1.00  0.00     0.074 A 
ATOM     39  C   UNL     1       4.449   2.112  10.289  1.00  0.00     0.049 A 
ATOM     40  N   UNL     1       6.717   1.083  11.982  1.00  0.00    -0.248 NA
ATOM     41  C   UNL     1       8.123   1.253  10.129  1.00  0.00     0.031 C 
ATOM     42  C   UNL     1       3.301   2.545   9.490  1.00  0.00     0.029 A 
ATOM     43  N   UNL     1       3.919   1.866  11.529  1.00  0.00    -0.354 N 
ATOM     44  C   UNL     1       7.975   0.593  12.313  1.00  0.00     0.074 A 
ATOM     45  C   UNL     1       8.784   0.667  11.117  1.00  0.00     0.031 C 
ATOM     46  C   UNL     1       2.203   2.543  10.263  1.00  0.00     0.029 A 
ATOM     47  C   UNL     1       2.564   2.091  11.603  1.00  0.00     0.049 A 
ATOM     48  H   UNL     1       4.457   1.558  12.294  1.00  0.00     0.167 HD
ATOM     49  C   UNL     1       8.426   0.153  13.512  1.00  0.00     0.034 A 
ATOM     50  C   UNL     1       1.712   1.954  12.637  1.00  0.00     0.034 A 
ATOM     51  C   UNL     1       7.631   0.131  14.709  1.00  0.00     0.049 A 
ATOM     52  C   UNL     1       2.255   1.531  13.975  1.00  0.00     0.074 A 
ATOM     53  C   UNL     1       8.016  -0.209  15.994  1.00  0.00     0.029 A 
ATOM     54  N   UNL     1       6.286   0.464  14.770  1.00  0.00    -0.354 N 
ATOM     55  N   UNL     1       3.487   1.231  14.309  1.00  0.00    -0.248 NA
ATOM     56  C   UNL     1       1.299   1.472  15.090  1.00  0.00     0.031 C 
ATOM     57  C   UNL     1       6.899  -0.096  16.829  1.00  0.00     0.029 A 
ATOM     58  C   UNL     1       5.824   0.335  16.068  1.00  0.00     0.049 A 
ATOM     59  H   UNL     1       5.740   0.750  14.002  1.00  0.00     0.167 HD
ATOM     60  C   UNL     1       3.462   0.982  15.676  1.00  0.00     0.074 A 
ATOM     61  C   UNL     1       2.096   1.190  16.112  1.00  0.00     0.031 C 
ATOM     62  C   UNL     1       4.473   0.599  16.494  1.00  0.00     0.034 A 
BRANCH  49  63
ATOM     63  C   UNL     1       9.867  -0.283  13.601  1.00  0.00     0.023 A 
ATOM     64  C   UNL     1      10.890   0.685  13.530  1.00  0.00     0.012 A 
ATOM     65  C   UNL     1      10.209  -1.634  13.806  1.00  0.00     0.148 A 
ATOM     66  C   UNL     1      12.230   0.313  13.624  1.00  0.00     0.002 A 
ATOM     67  C   UNL     1      11.546  -1.992  13.944  1.00  0.00     0.091 A 
ATOM     68  F   UNL     1       9.226  -2.545  13.850  1.00  0.00    -0.205 F 
ATOM     69  C   UNL     1      12.557  -1.022  13.842  1.00  0.00     0.022 A 
BRANCH  67  70
ATOM     70  S   UNL     1      12.067  -3.674  14.304  1.00  0.00     0.127 S 
ATOM     71  O   UNL     1      12.657  -4.078  13.028  1.00  0.00    -0.237 OA
ATOM     72  O   UNL     1      13.032  -3.473  15.385  1.00  0.00    -0.237 OA
ATOM     73  O   UNL     1      10.862  -4.392  14.692  1.00  0.00    -0.744 OA
ENDBRANCH  67  70
ENDBRANCH  49  63
BRANCH  50  74
ATOM     74  C   UNL     1       0.275   2.307  12.466  1.00  0.00     0.023 A 
ATOM     75  C   UNL     1      -0.228   3.468  13.084  1.00  0.00     0.012 A 
ATOM     76  C   UNL     1      -0.584   1.525  11.670  1.00  0.00     0.148 A 
ATOM     77  C   UNL     1      -1.569   3.828  12.940  1.00  0.00     0.002 A 
ATOM     78  C   UNL     1      -1.905   1.918  11.486  1.00  0.00     0.091 A 
ATOM     79  F   UNL     1      -0.089   0.419  11.098  1.00  0.00    -0.205 F 
ATOM     80  C   UNL     1      -2.404   3.059  12.134  1.00  0.00     0.022 A 
BRANCH  78  81
ATOM     81  S   UNL     1      -3.013   1.060  10.362  1.00  0.00     0.127 S 
ATOM     82  O   UNL     1      -3.912   0.378  11.291  1.00  0.00    -0.237 OA
ATOM     83  O   UNL     1      -3.620   2.173   9.627  1.00  0.00    -0.237 OA
ATOM     84  O   UNL     1      -2.164   0.202   9.553  1.00  0.00    -0.744 OA
ENDBRANCH  78  81
ENDBRANCH  50  74
BRANCH  62  85
ATOM     85  C   UNL     1       4.152   0.409  17.953  1.00  0.00     0.023 A 
ATOM     86  C   UNL     1       3.393  -0.706  18.363  1.00  0.00     0.012 A 
ATOM     87  C   UNL     1       4.657   1.297  18.923  1.00  0.00     0.148 A 
ATOM     88  C   UNL     1       3.111  -0.913  19.713  1.00  0.00     0.002 A 
ATOM     89  C   UNL     1       4.413   1.057  20.270  1.00  0.00     0.091 A 
ATOM     90  F   UNL     1       5.360   2.363  18.513  1.00  0.00    -0.205 F 
ATOM     91  C   UNL     1       3.630  -0.040  20.666  1.00  0.00     0.022 A 
BRANCH  89  92
ATOM     92  S   UNL     1       5.124   2.075  21.568  1.00  0.00     0.127 S 
ATOM     93  O   UNL     1       3.977   2.883  21.976  1.00  0.00    -0.237 OA
ATOM     94  O   UNL     1       5.549   1.078  22.551  1.00  0.00    -0.237 OA
ATOM     95  O   UNL     1       6.219   2.807  20.944  1.00  0.00    -0.744 OA
ENDBRANCH  89  92
ENDBRANCH  62  85
ENDBRANCH  36  37
ENDBRANCH  28  31
ENDBRANCH  26  27
ENDBRANCH  25  26
ENDBRANCH   1  25
TORSDOF 18
