REMARK SMILES CCc1ccc(S(=O)(=O)N2CCC3(CC2)NC(=O)C[C@H]3C(=O)NCCCCCCNC(=O)c2ccc(-c3c4nc(c(-c5cccc(S(=O)(=O)[O-])c5F)c5ccc([nH]5)c(-c5cccc(S(=O)(=O)[O-])c5F)c5nc(c(-c6cccc(S(=O)(=O)[O-])c6F)c6ccc3[nH]6)C=C5)C=C4)cc2)s1
REMARK SMILES IDX 26 1 25 2 24 3 23 4 21 5 22 6 20 8 10 9 11 10 15 11 12 12
REMARK SMILES IDX 14 13 13 14 16 15 17 16 19 18 18 19 7 20 8 21 9 22 6 23 3 24
REMARK SMILES IDX 4 25 96 26 5 27 2 28 1 29 27 30 28 31 29 32 30 33 31 34
REMARK SMILES IDX 32 36 33 37 34 38 95 39 35 40 94 41 36 42 37 43 38 44 88 45
REMARK SMILES IDX 39 46 93 47 87 48 89 49 40 50 92 51 86 52 85 53 41 55 73 56
REMARK SMILES IDX 53 57 72 58 54 59 57 60 71 61 90 62 55 63 56 64 70 66 91 67
REMARK SMILES IDX 58 68 42 69 43 70 51 71 44 72 46 73 52 74 45 75 47 76 48 77
REMARK SMILES IDX 49 78 50 79 74 80 75 81 83 82 76 83 78 84 84 85 77 86 79 87
REMARK SMILES IDX 80 88 81 89 82 90 59 91 60 92 68 93 61 94 63 95 69 96 62 97
REMARK SMILES IDX 64 98 65 99 66 100 67 101
REMARK H PARENT 23 7 16 17 30 35 89 54 57 65
REMARK Flexibility Score: inf
ROOT
ATOM      1  C   UNL     1       7.535   1.020  -4.939  1.00  0.00     0.002 C 
ENDROOT
BRANCH   1   2
ATOM      2  C   UNL     1       6.021   1.163  -5.083  1.00  0.00     0.021 C 
BRANCH   2   3
ATOM      3  C   UNL     1       5.570   1.969  -6.306  1.00  0.00     0.116 C 
BRANCH   3   4
ATOM      4  N   UNL     1       5.739   1.253  -7.565  1.00  0.00    -0.356 N 
ATOM      5  C   UNL     1       4.897   0.717  -8.486  1.00  0.00     0.226 C 
ATOM      6  O   UNL     1       5.436   0.155  -9.449  1.00  0.00    -0.275 OA
ATOM      7  H   UNL     1       6.686   1.128  -7.803  1.00  0.00     0.163 HD
BRANCH   5   8
ATOM      8  C   UNL     1       3.362   0.750  -8.440  1.00  0.00     0.113 C 
ATOM      9  N   UNL     1       1.677  -2.477  -6.491  1.00  0.00    -0.197 NA
ATOM     10  C   UNL     1       0.925  -1.790  -7.537  1.00  0.00     0.105 C 
ATOM     11  C   UNL     1       3.116  -2.292  -6.608  1.00  0.00     0.105 C 
ATOM     12  C   UNL     1       1.178  -0.286  -7.512  1.00  0.00     0.046 C 
ATOM     13  C   UNL     1       3.469  -0.832  -6.388  1.00  0.00     0.046 C 
ATOM     14  C   UNL     1       2.634   0.208  -7.186  1.00  0.00     0.055 C 
ATOM     15  N   UNL     1       2.457   1.467  -6.457  1.00  0.00    -0.350 N 
ATOM     16  C   UNL     1       2.433   2.586  -7.257  1.00  0.00     0.221 C 
ATOM     17  H   UNL     1       2.362   1.509  -5.478  1.00  0.00     0.164 HD
ATOM     18  C   UNL     1       2.850   2.187  -8.637  1.00  0.00     0.116 C 
ATOM     19  O   UNL     1       2.138   3.702  -6.875  1.00  0.00    -0.275 OA
BRANCH   9  20
ATOM     20  S   UNL     1       0.968  -3.086  -5.070  1.00  0.00     0.252 S 
ATOM     21  O   UNL     1       1.899  -4.010  -4.481  1.00  0.00    -0.206 OA
ATOM     22  O   UNL     1      -0.397  -3.459  -5.391  1.00  0.00    -0.206 OA
BRANCH  20  23
ATOM     23  C   UNL     1       0.809  -1.764  -3.877  1.00  0.00     0.135 A 
ATOM     24  C   UNL     1       0.349  -0.481  -1.802  1.00  0.00     0.006 A 
ATOM     25  C   UNL     1       0.884   0.312  -2.790  1.00  0.00     0.017 A 
ATOM     26  S   UNL     1       0.196  -2.120  -2.316  1.00  0.00    -0.127 S 
ATOM     27  C   UNL     1       1.083  -0.422  -3.971  1.00  0.00     0.034 A 
BRANCH  24  28
ATOM     28  C   UNL     1      -0.087  -0.005  -0.451  1.00  0.00     0.043 C 
ATOM     29  C   UNL     1       0.922  -0.330   0.634  1.00  0.00     0.010 C 
ENDBRANCH  24  28
ENDBRANCH  20  23
ENDBRANCH   9  20
ENDBRANCH   5   8
ENDBRANCH   3   4
ENDBRANCH   2   3
ENDBRANCH   1   2
BRANCH   1  30
ATOM     30  C   UNL     1       8.293   2.345  -4.848  1.00  0.00     0.002 C 
BRANCH  30  31
ATOM     31  C   UNL     1       7.795   3.304  -3.760  1.00  0.00     0.021 C 
BRANCH  31  32
ATOM     32  C   UNL     1       7.812   2.733  -2.344  1.00  0.00     0.116 C 
BRANCH  32  33
ATOM     33  N   UNL     1       9.141   2.294  -1.956  1.00  0.00    -0.352 N 
ATOM     34  C   UNL     1       9.929   2.696  -0.910  1.00  0.00     0.251 C 
ATOM     35  H   UNL     1       9.537   1.602  -2.534  1.00  0.00     0.163 HD
ATOM     36  O   UNL     1      11.118   2.388  -0.898  1.00  0.00    -0.269 OA
BRANCH  34  37
ATOM     37  C   UNL     1       9.360   3.494   0.198  1.00  0.00     0.039 A 
ATOM     38  C   UNL     1      10.126   4.532   0.735  1.00  0.00     0.014 A 
ATOM     39  C   UNL     1       8.107   3.195   0.743  1.00  0.00     0.014 A 
ATOM     40  C   UNL     1       9.623   5.287   1.796  1.00  0.00     0.010 A 
ATOM     41  C   UNL     1       7.577   3.996   1.754  1.00  0.00     0.010 A 
ATOM     42  C   UNL     1       8.335   5.039   2.302  1.00  0.00    -0.014 A 
BRANCH  42  43
ATOM     43  C   UNL     1       7.784   5.884   3.393  1.00  0.00     0.031 A 
ATOM     44  C   UNL     1       7.469   5.298   4.743  1.00  0.00     0.074 A 
ATOM     45  C   UNL     1       7.533   7.185   3.151  1.00  0.00     0.049 A 
ATOM     46  N   UNL     1       7.045   5.904   5.823  1.00  0.00    -0.248 NA
ATOM     47  C   UNL     1       7.626   3.843   4.898  1.00  0.00     0.031 C 
ATOM     48  C   UNL     1       7.700   7.849   1.856  1.00  0.00     0.029 A 
ATOM     49  N   UNL     1       7.076   8.180   3.977  1.00  0.00    -0.354 N 
ATOM     50  C   UNL     1       6.865   4.908   6.775  1.00  0.00     0.074 A 
ATOM     51  C   UNL     1       7.184   3.651   6.133  1.00  0.00     0.031 C 
ATOM     52  C   UNL     1       7.368   9.144   1.980  1.00  0.00     0.029 A 
ATOM     53  C   UNL     1       6.951   9.399   3.354  1.00  0.00     0.049 A 
ATOM     54  H   UNL     1       6.858   8.034   4.926  1.00  0.00     0.167 HD
ATOM     55  C   UNL     1       6.500   5.029   8.075  1.00  0.00     0.034 A 
ATOM     56  C   UNL     1       6.555  10.593   3.838  1.00  0.00     0.034 A 
ATOM     57  C   UNL     1       6.214   6.284   8.718  1.00  0.00     0.049 A 
ATOM     58  C   UNL     1       6.226  10.713   5.300  1.00  0.00     0.074 A 
ATOM     59  C   UNL     1       5.912   6.523  10.048  1.00  0.00     0.029 A 
ATOM     60  N   UNL     1       6.187   7.514   8.078  1.00  0.00    -0.354 N 
ATOM     61  N   UNL     1       6.228   9.786   6.226  1.00  0.00    -0.248 NA
ATOM     62  C   UNL     1       5.888  12.056   5.794  1.00  0.00     0.031 C 
ATOM     63  C   UNL     1       5.683   7.894  10.206  1.00  0.00     0.029 A 
ATOM     64  C   UNL     1       5.871   8.514   8.982  1.00  0.00     0.049 A 
ATOM     65  H   UNL     1       6.366   7.655   7.120  1.00  0.00     0.167 HD
ATOM     66  C   UNL     1       5.925  10.435   7.417  1.00  0.00     0.074 A 
ATOM     67  C   UNL     1       5.777  11.841   7.098  1.00  0.00     0.031 C 
ATOM     68  C   UNL     1       5.766   9.915   8.660  1.00  0.00     0.034 A 
BRANCH  55  69
ATOM     69  C   UNL     1       6.446   3.771   8.906  1.00  0.00     0.023 A 
ATOM     70  C   UNL     1       7.646   3.117   9.253  1.00  0.00     0.012 A 
ATOM     71  C   UNL     1       5.222   3.268   9.391  1.00  0.00     0.148 A 
ATOM     72  C   UNL     1       7.628   1.964  10.037  1.00  0.00     0.002 A 
ATOM     73  C   UNL     1       5.216   2.145  10.210  1.00  0.00     0.091 A 
ATOM     74  F   UNL     1       4.089   3.889   9.034  1.00  0.00    -0.205 F 
ATOM     75  C   UNL     1       6.416   1.485  10.524  1.00  0.00     0.022 A 
BRANCH  73  76
ATOM     76  S   UNL     1       3.716   1.495  10.954  1.00  0.00     0.127 S 
ATOM     77  O   UNL     1       3.530   0.253  10.205  1.00  0.00    -0.237 OA
ATOM     78  O   UNL     1       4.118   1.311  12.349  1.00  0.00    -0.237 OA
ATOM     79  O   UNL     1       2.692   2.510  10.746  1.00  0.00    -0.744 OA
ENDBRANCH  73  76
ENDBRANCH  55  69
BRANCH  56  80
ATOM     80  C   UNL     1       6.533  11.783   2.943  1.00  0.00     0.023 A 
ATOM     81  C   UNL     1       7.486  12.805   3.120  1.00  0.00     0.012 A 
ATOM     82  C   UNL     1       5.598  11.890   1.896  1.00  0.00     0.148 A 
ATOM     83  C   UNL     1       7.487  13.928   2.292  1.00  0.00     0.002 A 
ATOM     84  C   UNL     1       5.641  12.983   1.038  1.00  0.00     0.091 A 
ATOM     85  F   UNL     1       4.693  10.912   1.751  1.00  0.00    -0.205 F 
ATOM     86  C   UNL     1       6.573  14.012   1.246  1.00  0.00     0.022 A 
BRANCH  84  87
ATOM     87  S   UNL     1       4.596  13.102  -0.417  1.00  0.00     0.127 S 
ATOM     88  O   UNL     1       3.664  14.158  -0.030  1.00  0.00    -0.237 OA
ATOM     89  O   UNL     1       5.560  13.478  -1.452  1.00  0.00    -0.237 OA
ATOM     90  O   UNL     1       4.017  11.777  -0.593  1.00  0.00    -0.744 OA
ENDBRANCH  84  87
ENDBRANCH  56  80
BRANCH  68  91
ATOM     91  C   UNL     1       5.441  10.876   9.774  1.00  0.00     0.023 A 
ATOM     92  C   UNL     1       4.175  11.493   9.823  1.00  0.00     0.012 A 
ATOM     93  C   UNL     1       6.378  11.142  10.793  1.00  0.00     0.148 A 
ATOM     94  C   UNL     1       3.864  12.397  10.838  1.00  0.00     0.002 A 
ATOM     95  C   UNL     1       6.042  12.005  11.830  1.00  0.00     0.091 A 
ATOM     96  F   UNL     1       7.585  10.564  10.722  1.00  0.00    -0.205 F 
ATOM     97  C   UNL     1       4.793  12.645  11.846  1.00  0.00     0.022 A 
BRANCH  95  98
ATOM     98  S   UNL     1       7.144  12.304  13.216  1.00  0.00     0.127 S 
ATOM     99  O   UNL     1       7.705  13.610  12.876  1.00  0.00    -0.237 OA
ATOM    100  O   UNL     1       6.223  12.314  14.353  1.00  0.00    -0.237 OA
ATOM    101  O   UNL     1       8.086  11.193  13.219  1.00  0.00    -0.744 OA
ENDBRANCH  95  98
ENDBRANCH  68  91
ENDBRANCH  42  43
ENDBRANCH  34  37
ENDBRANCH  32  33
ENDBRANCH  31  32
ENDBRANCH  30  31
ENDBRANCH   1  30
TORSDOF 19
