REMARK SMILES CC(=O)Nc1cccc(-c2ccc(F)c(C(=O)NCCCCCCNC(=O)c3ccc(-c4c5nc(c(-c6cccc(S(=O)(=O)[O-])c6F)c6ccc([nH]6)c(-c6cccc(S(=O)(=O)[O-])c6F)c6nc(c(-c7cccc(S(=O)(=O)[O-])c7F)c7ccc4[nH]7)C=C6)C=C5)cc3)c2)c1
REMARK SMILES IDX 22 1 21 2 20 3 19 4 18 5 16 6 17 7 15 9 10 10 11 11 91 12
REMARK SMILES IDX 12 13 13 14 14 15 9 16 5 17 6 18 92 19 7 20 8 21 4 22 1 23
REMARK SMILES IDX 2 24 3 25 23 27 24 28 25 29 26 30 27 32 28 33 29 34 90 35
REMARK SMILES IDX 30 36 89 37 31 38 32 39 33 40 83 41 34 42 88 43 82 44 84 45
REMARK SMILES IDX 35 46 87 47 81 48 80 49 36 51 68 52 48 53 67 54 49 55 52 56
REMARK SMILES IDX 66 57 85 58 50 59 51 60 65 62 86 63 53 64 37 65 38 66 46 67
REMARK SMILES IDX 39 68 41 69 47 70 40 71 42 72 43 73 44 74 45 75 69 76 70 77
REMARK SMILES IDX 78 78 71 79 73 80 79 81 72 82 74 83 75 84 76 85 77 86 54 87
REMARK SMILES IDX 55 88 63 89 56 90 58 91 64 92 57 93 59 94 60 95 61 96 62 97
REMARK H PARENT 18 8 4 26 25 31 84 50 52 61
REMARK Flexibility Score: inf
ROOT
ATOM      1  C   UNL     1       7.064  -3.593   4.043  1.00  0.00     0.002 C 
ENDROOT
BRANCH   1   2
ATOM      2  C   UNL     1       7.889  -4.150   2.881  1.00  0.00     0.002 C 
BRANCH   2   3
ATOM      3  C   UNL     1       7.236  -4.109   1.502  1.00  0.00     0.021 C 
BRANCH   3   4
ATOM      4  C   UNL     1       6.727  -2.755   1.024  1.00  0.00     0.116 C 
BRANCH   4   5
ATOM      5  N   UNL     1       7.763  -1.755   0.804  1.00  0.00    -0.352 N 
ATOM      6  C   UNL     1       7.944  -0.810  -0.190  1.00  0.00     0.254 C 
ATOM      7  O   UNL     1       8.909  -0.055  -0.092  1.00  0.00    -0.269 OA
ATOM      8  H   UNL     1       8.468  -1.752   1.491  1.00  0.00     0.163 HD
BRANCH   6   9
ATOM      9  C   UNL     1       7.040  -0.707  -1.369  1.00  0.00     0.076 A 
ATOM     10  C   UNL     1       4.906  -1.245  -2.450  1.00  0.00    -0.017 A 
ATOM     11  C   UNL     1       5.435  -0.831  -3.677  1.00  0.00     0.012 A 
ATOM     12  C   UNL     1       5.692  -1.057  -1.297  1.00  0.00     0.025 A 
ATOM     13  C   UNL     1       6.732  -0.314  -3.744  1.00  0.00     0.041 A 
ATOM     14  C   UNL     1       7.538  -0.290  -2.603  1.00  0.00     0.135 A 
ATOM     15  F   UNL     1       8.807   0.117  -2.748  1.00  0.00    -0.206 F 
BRANCH  10  16
ATOM     16  C   UNL     1       3.634  -1.984  -2.331  1.00  0.00    -0.016 A 
ATOM     17  C   UNL     1       1.639  -2.517  -1.009  1.00  0.00     0.041 A 
ATOM     18  C   UNL     1       1.430  -3.656  -1.784  1.00  0.00     0.026 A 
ATOM     19  C   UNL     1       2.741  -1.703  -1.284  1.00  0.00     0.034 A 
ATOM     20  C   UNL     1       2.274  -3.934  -2.861  1.00  0.00     0.003 A 
ATOM     21  C   UNL     1       3.364  -3.102  -3.135  1.00  0.00     0.009 A 
BRANCH  17  22
ATOM     22  N   UNL     1       0.805  -2.293   0.098  1.00  0.00    -0.326 N 
ATOM     23  C   UNL     1       0.837   0.193   0.185  1.00  0.00     0.114 C 
ATOM     24  C   UNL     1       0.594  -1.152   0.821  1.00  0.00     0.221 C 
ATOM     25  O   UNL     1       0.180  -1.228   1.975  1.00  0.00    -0.275 OA
ATOM     26  H   UNL     1       0.293  -3.079   0.399  1.00  0.00     0.169 HD
ENDBRANCH  17  22
ENDBRANCH  10  16
ENDBRANCH   6   9
ENDBRANCH   4   5
ENDBRANCH   3   4
ENDBRANCH   2   3
ENDBRANCH   1   2
BRANCH   1  27
ATOM     27  C   UNL     1       5.644  -4.144   4.197  1.00  0.00     0.021 C 
BRANCH  27  28
ATOM     28  C   UNL     1       5.524  -5.663   4.277  1.00  0.00     0.116 C 
BRANCH  28  29
ATOM     29  N   UNL     1       6.253  -6.226   5.401  1.00  0.00    -0.352 N 
ATOM     30  C   UNL     1       5.813  -7.065   6.396  1.00  0.00     0.251 C 
ATOM     31  H   UNL     1       7.201  -5.967   5.459  1.00  0.00     0.163 HD
ATOM     32  O   UNL     1       6.538  -7.306   7.356  1.00  0.00    -0.269 OA
BRANCH  30  33
ATOM     33  C   UNL     1       4.461  -7.665   6.321  1.00  0.00     0.039 A 
ATOM     34  C   UNL     1       3.665  -7.681   7.469  1.00  0.00     0.014 A 
ATOM     35  C   UNL     1       3.983  -8.221   5.131  1.00  0.00     0.014 A 
ATOM     36  C   UNL     1       2.370  -8.201   7.409  1.00  0.00     0.010 A 
ATOM     37  C   UNL     1       2.666  -8.670   5.054  1.00  0.00     0.010 A 
ATOM     38  C   UNL     1       1.847  -8.671   6.193  1.00  0.00    -0.014 A 
BRANCH  38  39
ATOM     39  C   UNL     1       0.446  -9.160   6.094  1.00  0.00     0.031 A 
ATOM     40  C   UNL     1       0.164 -10.589   5.710  1.00  0.00     0.074 A 
ATOM     41  C   UNL     1      -0.575  -8.299   6.277  1.00  0.00     0.049 A 
ATOM     42  N   UNL     1      -0.988 -11.180   5.522  1.00  0.00    -0.248 NA
ATOM     43  C   UNL     1       1.327 -11.462   5.484  1.00  0.00     0.031 C 
ATOM     44  C   UNL     1      -0.435  -6.873   6.584  1.00  0.00     0.029 A 
ATOM     45  N   UNL     1      -1.933  -8.489   6.209  1.00  0.00    -0.354 N 
ATOM     46  C   UNL     1      -0.690 -12.480   5.129  1.00  0.00     0.074 A 
ATOM     47  C   UNL     1       0.751 -12.580   5.066  1.00  0.00     0.031 C 
ATOM     48  C   UNL     1      -1.655  -6.322   6.687  1.00  0.00     0.029 A 
ATOM     49  C   UNL     1      -2.663  -7.342   6.419  1.00  0.00     0.049 A 
ATOM     50  H   UNL     1      -2.345  -9.365   6.027  1.00  0.00     0.167 HD
ATOM     51  C   UNL     1      -1.536 -13.507   4.873  1.00  0.00     0.034 A 
ATOM     52  C   UNL     1      -3.994  -7.133   6.388  1.00  0.00     0.034 A 
ATOM     53  C   UNL     1      -2.968 -13.413   4.967  1.00  0.00     0.049 A 
ATOM     54  C   UNL     1      -4.911  -8.294   6.109  1.00  0.00     0.074 A 
ATOM     55  C   UNL     1      -3.909 -14.414   4.796  1.00  0.00     0.029 A 
ATOM     56  N   UNL     1      -3.669 -12.250   5.247  1.00  0.00    -0.354 N 
ATOM     57  N   UNL     1      -4.609  -9.549   5.880  1.00  0.00    -0.248 NA
ATOM     58  C   UNL     1      -6.354  -8.015   6.118  1.00  0.00     0.031 C 
ATOM     59  C   UNL     1      -5.180 -13.849   4.943  1.00  0.00     0.029 A 
ATOM     60  C   UNL     1      -5.030 -12.505   5.243  1.00  0.00     0.049 A 
ATOM     61  H   UNL     1      -3.260 -11.373   5.423  1.00  0.00     0.167 HD
ATOM     62  C   UNL     1      -5.823 -10.216   5.761  1.00  0.00     0.074 A 
ATOM     63  C   UNL     1      -6.864  -9.229   5.963  1.00  0.00     0.031 C 
ATOM     64  C   UNL     1      -6.055 -11.525   5.498  1.00  0.00     0.034 A 
BRANCH  51  65
ATOM     65  C   UNL     1      -0.931 -14.840   4.513  1.00  0.00     0.023 A 
ATOM     66  C   UNL     1      -0.244 -15.582   5.496  1.00  0.00     0.012 A 
ATOM     67  C   UNL     1      -1.091 -15.386   3.224  1.00  0.00     0.148 A 
ATOM     68  C   UNL     1       0.307 -16.826   5.193  1.00  0.00     0.002 A 
ATOM     69  C   UNL     1      -0.580 -16.648   2.943  1.00  0.00     0.091 A 
ATOM     70  F   UNL     1      -1.731 -14.660   2.296  1.00  0.00    -0.205 F 
ATOM     71  C   UNL     1       0.130 -17.363   3.922  1.00  0.00     0.022 A 
BRANCH  69  72
ATOM     72  S   UNL     1      -0.823 -17.464   1.361  1.00  0.00     0.127 S 
ATOM     73  O   UNL     1       0.534 -17.459   0.816  1.00  0.00    -0.237 OA
ATOM     74  O   UNL     1      -1.311 -18.782   1.768  1.00  0.00    -0.237 OA
ATOM     75  O   UNL     1      -1.790 -16.654   0.634  1.00  0.00    -0.744 OA
ENDBRANCH  69  72
ENDBRANCH  51  65
BRANCH  52  76
ATOM     76  C   UNL     1      -4.550  -5.780   6.674  1.00  0.00     0.023 A 
ATOM     77  C   UNL     1      -5.284  -5.568   7.858  1.00  0.00     0.012 A 
ATOM     78  C   UNL     1      -4.361  -4.707   5.783  1.00  0.00     0.148 A 
ATOM     79  C   UNL     1      -5.853  -4.324   8.130  1.00  0.00     0.002 A 
ATOM     80  C   UNL     1      -4.885  -3.457   6.085  1.00  0.00     0.091 A 
ATOM     81  F   UNL     1      -3.666  -4.933   4.659  1.00  0.00    -0.205 F 
ATOM     82  C   UNL     1      -5.647  -3.267   7.248  1.00  0.00     0.022 A 
BRANCH  80  83
ATOM     83  S   UNL     1      -4.583  -2.010   5.066  1.00  0.00     0.127 S 
ATOM     84  O   UNL     1      -5.919  -1.729   4.544  1.00  0.00    -0.237 OA
ATOM     85  O   UNL     1      -4.091  -1.048   6.052  1.00  0.00    -0.237 OA
ATOM     86  O   UNL     1      -3.599  -2.429   4.077  1.00  0.00    -0.744 OA
ENDBRANCH  80  83
ENDBRANCH  52  76
BRANCH  64  87
ATOM     87  C   UNL     1      -7.489 -11.987   5.461  1.00  0.00     0.023 A 
ATOM     88  C   UNL     1      -8.326 -11.609   4.393  1.00  0.00     0.012 A 
ATOM     89  C   UNL     1      -7.985 -12.854   6.455  1.00  0.00     0.148 A 
ATOM     90  C   UNL     1      -9.646 -12.057   4.334  1.00  0.00     0.002 A 
ATOM     91  C   UNL     1      -9.284 -13.340   6.361  1.00  0.00     0.091 A 
ATOM     92  F   UNL     1      -7.178 -13.189   7.472  1.00  0.00    -0.205 F 
ATOM     93  C   UNL     1     -10.120 -12.930   5.310  1.00  0.00     0.022 A 
BRANCH  91  94
ATOM     94  S   UNL     1      -9.948 -14.546   7.514  1.00  0.00     0.127 S 
ATOM     95  O   UNL     1     -10.925 -13.746   8.251  1.00  0.00    -0.237 OA
ATOM     96  O   UNL     1     -10.530 -15.543   6.615  1.00  0.00    -0.237 OA
ATOM     97  O   UNL     1      -8.816 -15.023   8.295  1.00  0.00    -0.744 OA
ENDBRANCH  91  94
ENDBRANCH  64  87
ENDBRANCH  38  39
ENDBRANCH  30  33
ENDBRANCH  28  29
ENDBRANCH  27  28
ENDBRANCH   1  27
TORSDOF 18
