REMARK SMILES COc1cccc(-n2cc(C(=O)NCCCCCCNC(=O)c3ccc(-c4c5nc(c(-c6cccc(S(=O)(=O)[O-])c6F)c6ccc([nH]6)c(-c6cccc(S(=O)(=O)[O-])c6F)c6nc(c(-c7cccc(S(=O)(=O)[O-])c7F)c7ccc4[nH]7)C=C6)C=C5)cc3)c3c2[C@H](c2cc(OC)c(OC)c(OC)c2)CC(=O)N3)c1
REMARK SMILES IDX 17 1 16 2 15 3 14 4 13 5 11 6 12 7 10 9 8 10 9 11 87 12
REMARK SMILES IDX 86 13 88 14 104 15 101 16 102 17 103 19 7 20 3 21 4 22
REMARK SMILES IDX 105 23 5 24 6 25 2 26 1 27 89 28 90 29 100 30 91 31 97 32
REMARK SMILES IDX 94 33 92 34 93 35 98 36 99 37 95 38 96 39 18 40 19 41 20 42
REMARK SMILES IDX 21 43 22 45 23 46 24 47 85 48 25 49 84 50 26 51 27 52 28 53
REMARK SMILES IDX 78 54 29 55 83 56 77 57 79 58 30 59 82 60 76 61 75 62 31 64
REMARK SMILES IDX 63 65 43 66 62 67 44 68 47 69 61 70 80 71 45 72 46 73 60 75
REMARK SMILES IDX 81 76 48 77 32 78 33 79 41 80 34 81 36 82 42 83 35 84 37 85
REMARK SMILES IDX 38 86 39 87 40 88 64 89 65 90 73 91 66 92 68 93 74 94 67 95
REMARK SMILES IDX 69 96 70 97 71 98 72 99 49 100 50 101 58 102 51 103 53 104
REMARK SMILES IDX 59 105 52 106 54 107 55 108 56 109 57 110
REMARK H PARENT 13 8 104 18 20 44 79 63 47 74
REMARK Flexibility Score: inf
ROOT
ATOM      1  C   UNL     1      11.837   3.078   5.549  1.00  0.00     0.002 C 
ENDROOT
BRANCH   1   2
ATOM      2  C   UNL     1      11.050   1.998   4.788  1.00  0.00     0.002 C 
BRANCH   2   3
ATOM      3  C   UNL     1       9.531   2.065   4.961  1.00  0.00     0.021 C 
BRANCH   3   4
ATOM      4  C   UNL     1       8.922   3.396   4.508  1.00  0.00     0.116 C 
BRANCH   4   5
ATOM      5  N   UNL     1       8.566   3.326   3.116  1.00  0.00    -0.352 N 
ATOM      6  C   UNL     1       7.383   3.095   2.474  1.00  0.00     0.254 C 
ATOM      7  O   UNL     1       7.450   3.145   1.240  1.00  0.00    -0.269 OA
ATOM      8  H   UNL     1       9.324   3.475   2.506  1.00  0.00     0.163 HD
BRANCH   6   9
ATOM      9  C   UNL     1       6.093   2.905   3.149  1.00  0.00     0.081 A 
ATOM     10  N   UNL     1       3.819   2.886   3.172  1.00  0.00    -0.317 N 
ATOM     11  C   UNL     1       4.934   3.043   2.393  1.00  0.00     0.107 A 
ATOM     12  C   UNL     1       4.224   2.668   4.471  1.00  0.00     0.055 A 
ATOM     13  C   UNL     1       5.605   2.527   4.439  1.00  0.00     0.076 A 
ATOM     14  C   UNL     1       3.360   2.396   5.692  1.00  0.00     0.078 C 
ATOM     15  N   UNL     1       6.236   2.072   5.572  1.00  0.00    -0.324 N 
ATOM     16  C   UNL     1       4.095   1.344   6.548  1.00  0.00     0.115 C 
ATOM     17  C   UNL     1       5.574   1.654   6.695  1.00  0.00     0.225 C 
ATOM     18  H   UNL     1       7.220   2.045   5.576  1.00  0.00     0.170 HD
ATOM     19  O   UNL     1       6.186   1.515   7.754  1.00  0.00    -0.275 OA
BRANCH  10  20
ATOM     20  C   UNL     1       2.519   2.936   2.642  1.00  0.00     0.049 A 
ATOM     21  C   UNL     1       0.791   1.966   1.272  1.00  0.00     0.120 A 
ATOM     22  C   UNL     1      -0.025   3.063   1.573  1.00  0.00     0.046 A 
ATOM     23  C   UNL     1       2.071   1.893   1.821  1.00  0.00     0.073 A 
ATOM     24  C   UNL     1       0.453   4.122   2.344  1.00  0.00     0.006 A 
ATOM     25  C   UNL     1       1.751   4.080   2.838  1.00  0.00     0.027 A 
BRANCH  21  26
ATOM     26  O   UNL     1       0.219   1.057   0.424  1.00  0.00    -0.497 OA
ATOM     27  C   UNL     1       0.995  -0.086   0.081  1.00  0.00     0.278 C 
ENDBRANCH  21  26
ENDBRANCH  10  20
BRANCH  14  28
ATOM     28  C   UNL     1       2.987   3.666   6.478  1.00  0.00    -0.031 A 
ATOM     29  C   UNL     1       1.918   4.450   6.041  1.00  0.00     0.055 A 
ATOM     30  C   UNL     1       3.650   4.112   7.632  1.00  0.00     0.055 A 
ATOM     31  C   UNL     1       1.646   5.713   6.578  1.00  0.00     0.164 A 
ATOM     32  C   UNL     1       3.300   5.312   8.290  1.00  0.00     0.164 A 
ATOM     33  C   UNL     1       2.311   6.149   7.736  1.00  0.00     0.203 A 
BRANCH  31  34
ATOM     34  O   UNL     1       0.669   6.401   5.894  1.00  0.00    -0.493 OA
ATOM     35  C   UNL     1       0.905   7.798   5.738  1.00  0.00     0.278 C 
ENDBRANCH  31  34
BRANCH  32  36
ATOM     36  O   UNL     1       3.936   5.726   9.435  1.00  0.00    -0.493 OA
ATOM     37  C   UNL     1       4.676   4.753  10.169  1.00  0.00     0.278 C 
ENDBRANCH  32  36
BRANCH  33  38
ATOM     38  O   UNL     1       1.919   7.375   8.209  1.00  0.00    -0.490 OA
ATOM     39  C   UNL     1       2.126   7.686   9.576  1.00  0.00     0.278 C 
ENDBRANCH  33  38
ENDBRANCH  14  28
ENDBRANCH   6   9
ENDBRANCH   4   5
ENDBRANCH   3   4
ENDBRANCH   2   3
ENDBRANCH   1   2
BRANCH   1  40
ATOM     40  C   UNL     1      11.508   3.231   7.044  1.00  0.00     0.021 C 
BRANCH  40  41
ATOM     41  C   UNL     1      12.014   2.071   7.884  1.00  0.00     0.116 C 
BRANCH  41  42
ATOM     42  N   UNL     1      13.482   2.011   7.888  1.00  0.00    -0.352 N 
ATOM     43  C   UNL     1      14.324   1.055   8.432  1.00  0.00     0.251 C 
ATOM     44  H   UNL     1      13.934   2.760   7.438  1.00  0.00     0.163 HD
ATOM     45  O   UNL     1      15.496   1.299   8.651  1.00  0.00    -0.269 OA
BRANCH  43  46
ATOM     46  C   UNL     1      13.762  -0.275   8.721  1.00  0.00     0.039 A 
ATOM     47  C   UNL     1      14.123  -1.015   9.851  1.00  0.00     0.014 A 
ATOM     48  C   UNL     1      12.814  -0.752   7.828  1.00  0.00     0.014 A 
ATOM     49  C   UNL     1      13.464  -2.218  10.090  1.00  0.00     0.010 A 
ATOM     50  C   UNL     1      11.996  -1.770   8.207  1.00  0.00     0.010 A 
ATOM     51  C   UNL     1      12.396  -2.579   9.257  1.00  0.00    -0.014 A 
BRANCH  51  52
ATOM     52  C   UNL     1      11.607  -3.779   9.469  1.00  0.00     0.031 A 
ATOM     53  C   UNL     1      10.946  -3.841  10.793  1.00  0.00     0.074 A 
ATOM     54  C   UNL     1      11.301  -4.611   8.447  1.00  0.00     0.049 A 
ATOM     55  N   UNL     1      11.248  -4.614  11.782  1.00  0.00    -0.248 NA
ATOM     56  C   UNL     1       9.952  -2.808  11.125  1.00  0.00     0.031 C 
ATOM     57  C   UNL     1      11.614  -4.454   7.016  1.00  0.00     0.029 A 
ATOM     58  N   UNL     1      10.490  -5.699   8.447  1.00  0.00    -0.354 N 
ATOM     59  C   UNL     1      10.290  -4.351  12.755  1.00  0.00     0.074 A 
ATOM     60  C   UNL     1       9.704  -3.084  12.407  1.00  0.00     0.031 C 
ATOM     61  C   UNL     1      10.786  -5.230   6.283  1.00  0.00     0.029 A 
ATOM     62  C   UNL     1      10.030  -6.071   7.187  1.00  0.00     0.049 A 
ATOM     63  H   UNL     1      10.248  -6.184   9.269  1.00  0.00     0.167 HD
ATOM     64  C   UNL     1       9.844  -5.338  13.581  1.00  0.00     0.034 A 
ATOM     65  C   UNL     1       9.055  -6.973   6.920  1.00  0.00     0.034 A 
ATOM     66  C   UNL     1      10.694  -6.503  13.509  1.00  0.00     0.049 A 
ATOM     67  C   UNL     1       8.929  -7.831   8.122  1.00  0.00     0.074 A 
ATOM     68  C   UNL     1      12.038  -6.749  13.704  1.00  0.00     0.029 A 
ATOM     69  N   UNL     1      10.221  -7.564  12.773  1.00  0.00    -0.354 N 
ATOM     70  N   UNL     1       9.880  -8.620   8.540  1.00  0.00    -0.248 NA
ATOM     71  C   UNL     1       7.936  -7.462   9.117  1.00  0.00     0.031 C 
ATOM     72  C   UNL     1      12.394  -7.670  12.673  1.00  0.00     0.029 A 
ATOM     73  C   UNL     1      11.237  -7.995  11.962  1.00  0.00     0.049 A 
ATOM     74  H   UNL     1       9.315  -7.946  12.820  1.00  0.00     0.167 HD
ATOM     75  C   UNL     1       9.877  -8.457   9.920  1.00  0.00     0.074 A 
ATOM     76  C   UNL     1       8.592  -7.827  10.223  1.00  0.00     0.031 C 
ATOM     77  C   UNL     1      11.030  -8.566  10.647  1.00  0.00     0.034 A 
BRANCH  64  78
ATOM     78  C   UNL     1       8.441  -5.435  14.139  1.00  0.00     0.023 A 
ATOM     79  C   UNL     1       8.207  -6.437  15.108  1.00  0.00     0.012 A 
ATOM     80  C   UNL     1       7.302  -4.812  13.577  1.00  0.00     0.148 A 
ATOM     81  C   UNL     1       6.912  -6.841  15.450  1.00  0.00     0.002 A 
ATOM     82  C   UNL     1       6.018  -5.160  13.981  1.00  0.00     0.091 A 
ATOM     83  F   UNL     1       7.432  -3.976  12.545  1.00  0.00    -0.205 F 
ATOM     84  C   UNL     1       5.816  -6.198  14.891  1.00  0.00     0.022 A 
BRANCH  82  85
ATOM     85  S   UNL     1       4.568  -4.328  13.320  1.00  0.00     0.127 S 
ATOM     86  O   UNL     1       4.036  -5.344  12.418  1.00  0.00    -0.237 OA
ATOM     87  O   UNL     1       3.780  -4.096  14.531  1.00  0.00    -0.237 OA
ATOM     88  O   UNL     1       5.069  -3.110  12.695  1.00  0.00    -0.744 OA
ENDBRANCH  82  85
ENDBRANCH  64  78
BRANCH  65  89
ATOM     89  C   UNL     1       8.044  -6.977   5.837  1.00  0.00     0.023 A 
ATOM     90  C   UNL     1       7.390  -8.177   5.497  1.00  0.00     0.012 A 
ATOM     91  C   UNL     1       7.514  -5.764   5.340  1.00  0.00     0.148 A 
ATOM     92  C   UNL     1       6.224  -8.168   4.721  1.00  0.00     0.002 A 
ATOM     93  C   UNL     1       6.356  -5.760   4.567  1.00  0.00     0.091 A 
ATOM     94  F   UNL     1       8.093  -4.611   5.701  1.00  0.00    -0.205 F 
ATOM     95  C   UNL     1       5.701  -6.961   4.266  1.00  0.00     0.022 A 
BRANCH  93  96
ATOM     96  S   UNL     1       5.604  -4.237   3.969  1.00  0.00     0.127 S 
ATOM     97  O   UNL     1       5.413  -4.530   2.548  1.00  0.00    -0.237 OA
ATOM     98  O   UNL     1       4.371  -4.177   4.750  1.00  0.00    -0.237 OA
ATOM     99  O   UNL     1       6.570  -3.179   4.237  1.00  0.00    -0.744 OA
ENDBRANCH  93  96
ENDBRANCH  65  89
BRANCH  77 100
ATOM    100  C   UNL     1      12.260  -9.101   9.953  1.00  0.00     0.023 A 
ATOM    101  C   UNL     1      12.887  -8.425   8.884  1.00  0.00     0.012 A 
ATOM    102  C   UNL     1      12.897 -10.224  10.506  1.00  0.00     0.148 A 
ATOM    103  C   UNL     1      14.107  -8.871   8.366  1.00  0.00     0.002 A 
ATOM    104  C   UNL     1      14.130 -10.639  10.018  1.00  0.00     0.091 A 
ATOM    105  F   UNL     1      12.295 -10.852  11.527  1.00  0.00    -0.205 F 
ATOM    106  C   UNL     1      14.735  -9.972   8.942  1.00  0.00     0.022 A 
BRANCH 104 107
ATOM    107  S   UNL     1      15.042 -11.975  10.794  1.00  0.00     0.127 S 
ATOM    108  O   UNL     1      14.874 -13.059   9.829  1.00  0.00    -0.237 OA
ATOM    109  O   UNL     1      16.398 -11.427  10.869  1.00  0.00    -0.237 OA
ATOM    110  O   UNL     1      14.415 -12.188  12.093  1.00  0.00    -0.744 OA
ENDBRANCH 104 107
ENDBRANCH  77 100
ENDBRANCH  51  52
ENDBRANCH  43  46
ENDBRANCH  41  42
ENDBRANCH  40  41
ENDBRANCH   1  40
TORSDOF 22
