REMARK SMILES CC1(C)[C@H](C(=O)NCCCCCCNC(=O)c2ccc(-c3c4nc(c(-c5cccc(S(=O)(=O)[O-])c5F)c5ccc([nH]5)c(-c5cccc(S(=O)(=O)[O-])c5F)c5nc(c(-c6cccc(S(=O)(=O)[O-])c6F)c6ccc3[nH]6)C=C5)C=C4)cc2)[C@@H]1C(=O)Nc1ccc(Cl)c(Br)c1
REMARK SMILES IDX 11 1 10 2 9 3 8 4 7 5 5 6 6 7 4 9 1 10 2 11 3 12 80 13 81 14
REMARK SMILES IDX 82 15 83 16 84 18 85 19 91 20 86 21 89 22 87 23 90 24 88 25
REMARK SMILES IDX 12 26 13 27 14 28 15 29 16 31 17 32 18 33 79 34 19 35 78 36
REMARK SMILES IDX 20 37 21 38 22 39 72 40 23 41 77 42 71 43 73 44 24 45 76 46
REMARK SMILES IDX 70 47 69 48 25 50 57 51 37 52 56 53 38 54 41 55 55 56 74 57
REMARK SMILES IDX 39 58 40 59 54 61 75 62 42 63 26 64 27 65 35 66 28 67 30 68
REMARK SMILES IDX 36 69 29 70 31 71 32 72 33 73 34 74 58 75 59 76 67 77 60 78
REMARK SMILES IDX 62 79 68 80 61 81 63 82 64 83 65 84 66 85 43 86 44 87 52 88
REMARK SMILES IDX 45 89 47 90 53 91 46 92 48 93 49 94 50 95 51 96
REMARK H PARENT 7 8 83 17 14 30 73 49 41 60
REMARK Flexibility Score: inf
ROOT
ATOM      1  C   UNL     1      -1.751   6.046  -1.059  1.00  0.00     0.002 C 
ENDROOT
BRANCH   1   2
ATOM      2  C   UNL     1      -0.683   5.309  -1.878  1.00  0.00     0.002 C 
BRANCH   2   3
ATOM      3  C   UNL     1       0.059   4.201  -1.123  1.00  0.00     0.021 C 
BRANCH   3   4
ATOM      4  C   UNL     1      -0.867   3.106  -0.609  1.00  0.00     0.116 C 
BRANCH   4   5
ATOM      5  N   UNL     1      -1.211   2.189  -1.671  1.00  0.00    -0.356 N 
ATOM      6  C   UNL     1      -1.197   0.836  -1.813  1.00  0.00     0.224 C 
ATOM      7  O   UNL     1      -1.537   0.420  -2.923  1.00  0.00    -0.275 OA
ATOM      8  H   UNL     1      -1.530   2.651  -2.480  1.00  0.00     0.163 HD
BRANCH   6   9
ATOM      9  C   UNL     1      -0.875  -0.192  -0.792  1.00  0.00     0.098 C 
ATOM     10  C   UNL     1       1.028  -1.608   0.160  1.00  0.00     0.013 C 
ATOM     11  C   UNL     1       0.323  -0.266   0.135  1.00  0.00    -0.011 C 
ATOM     12  C   UNL     1       1.300   0.876   0.251  1.00  0.00     0.013 C 
ATOM     13  C   UNL     1      -1.124  -0.210   0.688  1.00  0.00     0.098 C 
BRANCH  13  14
ATOM     14  C   UNL     1      -1.690   0.891   1.498  1.00  0.00     0.228 C 
ATOM     15  O   UNL     1      -1.063   1.306   2.469  1.00  0.00    -0.274 OA
ATOM     16  N   UNL     1      -2.905   1.465   1.187  1.00  0.00    -0.326 N 
ATOM     17  H   UNL     1      -3.192   2.187   1.791  1.00  0.00     0.169 HD
BRANCH  16  18
ATOM     18  C   UNL     1      -3.795   1.176   0.141  1.00  0.00     0.042 A 
ATOM     19  C   UNL     1      -4.419   2.259  -0.487  1.00  0.00     0.028 A 
ATOM     20  C   UNL     1      -4.022  -0.114  -0.335  1.00  0.00     0.043 A 
ATOM     21  C   UNL     1      -5.125   2.068  -1.677  1.00  0.00     0.024 A 
ATOM     22  C   UNL     1      -4.756  -0.313  -1.511  1.00  0.00     0.038 A 
ATOM     23  C   UNL     1      -5.277   0.784  -2.205  1.00  0.00     0.055 A 
ATOM     24  Br  UNL     1      -4.970  -2.102  -2.110  1.00  0.00    -0.049 Br
ATOM     25  Cl  UNL     1      -6.106   0.632  -3.712  1.00  0.00    -0.083 Cl
ENDBRANCH  16  18
ENDBRANCH  13  14
ENDBRANCH   6   9
ENDBRANCH   4   5
ENDBRANCH   3   4
ENDBRANCH   2   3
ENDBRANCH   1   2
BRANCH   1  26
ATOM     26  C   UNL     1      -1.279   6.571   0.300  1.00  0.00     0.021 C 
BRANCH  26  27
ATOM     27  C   UNL     1      -0.047   7.466   0.238  1.00  0.00     0.116 C 
BRANCH  27  28
ATOM     28  N   UNL     1      -0.264   8.630  -0.605  1.00  0.00    -0.352 N 
ATOM     29  C   UNL     1      -0.021   9.951  -0.331  1.00  0.00     0.251 C 
ATOM     30  H   UNL     1      -0.638   8.444  -1.497  1.00  0.00     0.163 HD
ATOM     31  O   UNL     1      -0.448  10.823  -1.082  1.00  0.00    -0.269 OA
BRANCH  29  32
ATOM     32  C   UNL     1       0.745  10.315   0.878  1.00  0.00     0.039 A 
ATOM     33  C   UNL     1       0.285  11.363   1.677  1.00  0.00     0.014 A 
ATOM     34  C   UNL     1       1.913   9.626   1.219  1.00  0.00     0.014 A 
ATOM     35  C   UNL     1       0.977  11.695   2.843  1.00  0.00     0.010 A 
ATOM     36  C   UNL     1       2.556   9.907   2.421  1.00  0.00     0.010 A 
ATOM     37  C   UNL     1       2.104  10.955   3.236  1.00  0.00    -0.014 A 
BRANCH  37  38
ATOM     38  C   UNL     1       2.824  11.269   4.496  1.00  0.00     0.031 A 
ATOM     39  C   UNL     1       4.258  11.725   4.455  1.00  0.00     0.074 A 
ATOM     40  C   UNL     1       2.208  11.076   5.678  1.00  0.00     0.049 A 
ATOM     41  N   UNL     1       5.058  12.016   5.448  1.00  0.00    -0.248 NA
ATOM     42  C   UNL     1       4.886  11.844   3.128  1.00  0.00     0.031 C 
ATOM     43  C   UNL     1       0.848  10.560   5.850  1.00  0.00     0.029 A 
ATOM     44  N   UNL     1       2.653  11.270   6.962  1.00  0.00    -0.354 N 
ATOM     45  C   UNL     1       6.286  12.316   4.872  1.00  0.00     0.074 A 
ATOM     46  C   UNL     1       6.138  12.138   3.445  1.00  0.00     0.031 C 
ATOM     47  C   UNL     1       0.568  10.484   7.160  1.00  0.00     0.029 A 
ATOM     48  C   UNL     1       1.734  10.917   7.923  1.00  0.00     0.049 A 
ATOM     49  H   UNL     1       3.545  11.627   7.175  1.00  0.00     0.167 HD
ATOM     50  C   UNL     1       7.426  12.732   5.473  1.00  0.00     0.034 A 
ATOM     51  C   UNL     1       1.824  10.935   9.267  1.00  0.00     0.034 A 
ATOM     52  C   UNL     1       7.556  12.947   6.888  1.00  0.00     0.049 A 
ATOM     53  C   UNL     1       3.087  11.446   9.906  1.00  0.00     0.074 A 
ATOM     54  C   UNL     1       8.639  13.452   7.586  1.00  0.00     0.029 A 
ATOM     55  N   UNL     1       6.574  12.664   7.825  1.00  0.00    -0.354 N 
ATOM     56  N   UNL     1       4.184  11.880   9.335  1.00  0.00    -0.248 NA
ATOM     57  C   UNL     1       3.109  11.508  11.375  1.00  0.00     0.031 C 
ATOM     58  C   UNL     1       8.322  13.446   8.948  1.00  0.00     0.029 A 
ATOM     59  C   UNL     1       7.028  12.973   9.095  1.00  0.00     0.049 A 
ATOM     60  H   UNL     1       5.684  12.296   7.617  1.00  0.00     0.167 HD
ATOM     61  C   UNL     1       5.011  12.303  10.369  1.00  0.00     0.074 A 
ATOM     62  C   UNL     1       4.277  12.093  11.601  1.00  0.00     0.031 C 
ATOM     63  C   UNL     1       6.267  12.808  10.307  1.00  0.00     0.034 A 
BRANCH  50  64
ATOM     64  C   UNL     1       8.615  13.028   4.595  1.00  0.00     0.023 A 
ATOM     65  C   UNL     1       8.597  14.160   3.754  1.00  0.00     0.012 A 
ATOM     66  C   UNL     1       9.773  12.227   4.649  1.00  0.00     0.148 A 
ATOM     67  C   UNL     1       9.696  14.470   2.954  1.00  0.00     0.002 A 
ATOM     68  C   UNL     1      10.883  12.570   3.885  1.00  0.00     0.091 A 
ATOM     69  F   UNL     1       9.765  11.145   5.439  1.00  0.00    -0.205 F 
ATOM     70  C   UNL     1      10.841  13.682   3.028  1.00  0.00     0.022 A 
BRANCH  68  71
ATOM     71  S   UNL     1      12.435  11.670   3.970  1.00  0.00     0.127 S 
ATOM     72  O   UNL     1      12.478  11.033   2.654  1.00  0.00    -0.237 OA
ATOM     73  O   UNL     1      13.405  12.749   4.157  1.00  0.00    -0.237 OA
ATOM     74  O   UNL     1      12.311  10.760   5.099  1.00  0.00    -0.744 OA
ENDBRANCH  68  71
ENDBRANCH  50  64
BRANCH  51  75
ATOM     75  C   UNL     1       0.660  10.515  10.099  1.00  0.00     0.023 A 
ATOM     76  C   UNL     1      -0.043  11.480  10.847  1.00  0.00     0.012 A 
ATOM     77  C   UNL     1       0.236   9.174  10.138  1.00  0.00     0.148 A 
ATOM     78  C   UNL     1      -1.122  11.110  11.650  1.00  0.00     0.002 A 
ATOM     79  C   UNL     1      -0.876   8.821  10.894  1.00  0.00     0.091 A 
ATOM     80  F   UNL     1       0.922   8.269   9.426  1.00  0.00    -0.205 F 
ATOM     81  C   UNL     1      -1.545   9.784  11.666  1.00  0.00     0.022 A 
BRANCH  79  82
ATOM     82  S   UNL     1      -1.572   7.166  10.869  1.00  0.00     0.127 S 
ATOM     83  O   UNL     1      -1.239   6.681  12.205  1.00  0.00    -0.237 OA
ATOM     84  O   UNL     1      -2.993   7.439  10.648  1.00  0.00    -0.237 OA
ATOM     85  O   UNL     1      -0.916   6.481   9.764  1.00  0.00    -0.744 OA
ENDBRANCH  79  82
ENDBRANCH  51  75
BRANCH  63  86
ATOM     86  C   UNL     1       6.920  13.217  11.602  1.00  0.00     0.023 A 
ATOM     87  C   UNL     1       7.342  12.236  12.521  1.00  0.00     0.012 A 
ATOM     88  C   UNL     1       7.173  14.576  11.877  1.00  0.00     0.148 A 
ATOM     89  C   UNL     1       7.970  12.603  13.711  1.00  0.00     0.002 A 
ATOM     90  C   UNL     1       7.846  14.931  13.039  1.00  0.00     0.091 A 
ATOM     91  F   UNL     1       6.747  15.496  10.999  1.00  0.00    -0.205 F 
ATOM     92  C   UNL     1       8.232  13.948  13.964  1.00  0.00     0.022 A 
BRANCH  90  93
ATOM     93  S   UNL     1       8.316  16.627  13.397  1.00  0.00     0.127 S 
ATOM     94  O   UNL     1       7.381  16.975  14.466  1.00  0.00    -0.237 OA
ATOM     95  O   UNL     1       9.707  16.480  13.828  1.00  0.00    -0.237 OA
ATOM     96  O   UNL     1       8.144  17.363  12.152  1.00  0.00    -0.744 OA
ENDBRANCH  90  93
ENDBRANCH  63  86
ENDBRANCH  37  38
ENDBRANCH  29  32
ENDBRANCH  27  28
ENDBRANCH  26  27
ENDBRANCH   1  26
TORSDOF 18
