REMARK SMILES O=C(CCCc1nc(-c2ccc(Cl)c(Cl)c2)c(-c2ccccc2)o1)NCCCCCCNC(=O)c1ccc(-c2c3nc(c(-c4cccc(S(=O)(=O)[O-])c4F)c4ccc([nH]4)c(-c4cccc(S(=O)(=O)[O-])c4F)c4nc(c(-c5cccc(S(=O)(=O)[O-])c5F)c5ccc2[nH]5)C=C4)C=C3)cc1
REMARK SMILES IDX 28 1 27 2 26 3 25 4 1 5 2 6 3 8 4 9 5 10 6 11 7 12 24 13
REMARK SMILES IDX 8 14 17 15 9 16 10 17 16 18 11 19 14 20 12 21 15 22 13 23
REMARK SMILES IDX 18 24 19 25 23 26 20 27 22 28 21 29 29 30 30 31 31 32 32 33
REMARK SMILES IDX 33 34 34 36 35 37 36 38 97 39 37 40 96 41 38 42 39 43 40 44
REMARK SMILES IDX 90 45 41 46 95 47 89 48 91 49 42 50 94 51 88 52 87 53 43 55
REMARK SMILES IDX 75 56 55 57 74 58 56 59 59 60 73 61 92 62 57 63 58 64 72 66
REMARK SMILES IDX 93 67 60 68 44 69 45 70 53 71 46 72 48 73 54 74 47 75 49 76
REMARK SMILES IDX 50 77 51 78 52 79 76 80 77 81 85 82 78 83 80 84 86 85 79 86
REMARK SMILES IDX 81 87 82 88 83 89 84 90 61 91 62 92 70 93 63 94 65 95 71 96
REMARK SMILES IDX 64 97 66 98 67 99 68 100 69 101
REMARK H PARENT 25 7 32 35 91 54 59 65
REMARK Flexibility Score: inf
ROOT
ATOM      1  C   UNL     1       4.029  -3.621   1.323  1.00  0.00     0.002 C 
ENDROOT
BRANCH   1   2
ATOM      2  C   UNL     1       2.534  -3.391   1.074  1.00  0.00     0.021 C 
BRANCH   2   3
ATOM      3  C   UNL     1       2.042  -1.976   1.376  1.00  0.00     0.116 C 
BRANCH   3   4
ATOM      4  N   UNL     1       2.690  -0.995   0.530  1.00  0.00    -0.356 N 
ATOM      5  O   UNL     1       0.925   0.474   0.439  1.00  0.00    -0.275 OA
ATOM      6  C   UNL     1       2.073   0.166   0.137  1.00  0.00     0.220 C 
ATOM      7  H   UNL     1       3.610  -1.168   0.225  1.00  0.00     0.163 HD
BRANCH   6   8
ATOM      8  C   UNL     1       2.939   1.062  -0.723  1.00  0.00     0.100 C 
BRANCH   8   9
ATOM      9  C   UNL     1       3.904   1.932   0.089  1.00  0.00     0.020 C 
BRANCH   9  10
ATOM     10  C   UNL     1       5.063   1.201   0.773  1.00  0.00     0.098 C 
BRANCH  10  11
ATOM     11  C   UNL     1       5.796   0.298  -0.150  1.00  0.00     0.195 A 
ATOM     12  N   UNL     1       5.624  -1.001  -0.301  1.00  0.00    -0.213 NA
ATOM     13  O   UNL     1       6.694   0.865  -1.014  1.00  0.00    -0.440 OA
ATOM     14  C   UNL     1       6.507  -1.329  -1.299  1.00  0.00     0.117 A 
ATOM     15  C   UNL     1       7.127  -0.190  -1.773  1.00  0.00     0.162 A 
BRANCH  14  16
ATOM     16  C   UNL     1       6.737  -2.673  -1.780  1.00  0.00     0.006 A 
ATOM     17  C   UNL     1       5.688  -3.421  -2.321  1.00  0.00     0.012 A 
ATOM     18  C   UNL     1       8.026  -3.222  -1.735  1.00  0.00     0.032 A 
ATOM     19  C   UNL     1       5.934  -4.695  -2.845  1.00  0.00     0.023 A 
ATOM     20  C   UNL     1       8.272  -4.497  -2.253  1.00  0.00     0.060 A 
ATOM     21  C   UNL     1       7.225  -5.232  -2.819  1.00  0.00     0.059 A 
ATOM     22  Cl  UNL     1       9.892  -5.093  -2.178  1.00  0.00    -0.083 Cl
ATOM     23  Cl  UNL     1       7.463  -6.796  -3.513  1.00  0.00    -0.083 Cl
ENDBRANCH  14  16
BRANCH  15  24
ATOM     24  C   UNL     1       8.036   0.102  -2.862  1.00  0.00     0.020 A 
ATOM     25  C   UNL     1       9.257   0.741  -2.628  1.00  0.00     0.012 A 
ATOM     26  C   UNL     1       7.715  -0.306  -4.165  1.00  0.00     0.012 A 
ATOM     27  C   UNL     1      10.152   0.951  -3.679  1.00  0.00     0.001 A 
ATOM     28  C   UNL     1       8.606  -0.087  -5.216  1.00  0.00     0.001 A 
ATOM     29  C   UNL     1       9.827   0.536  -4.971  1.00  0.00     0.000 A 
ENDBRANCH  15  24
ENDBRANCH  10  11
ENDBRANCH   9  10
ENDBRANCH   8   9
ENDBRANCH   6   8
ENDBRANCH   3   4
ENDBRANCH   2   3
ENDBRANCH   1   2
BRANCH   1  30
ATOM     30  C   UNL     1       4.507  -3.354   2.752  1.00  0.00     0.002 C 
BRANCH  30  31
ATOM     31  C   UNL     1       3.857  -4.244   3.811  1.00  0.00     0.021 C 
BRANCH  31  32
ATOM     32  C   UNL     1       4.016  -5.739   3.563  1.00  0.00     0.116 C 
BRANCH  32  33
ATOM     33  N   UNL     1       5.410  -6.159   3.574  1.00  0.00    -0.352 N 
ATOM     34  C   UNL     1       5.973  -7.242   4.203  1.00  0.00     0.251 C 
ATOM     35  H   UNL     1       6.031  -5.592   3.063  1.00  0.00     0.163 HD
ATOM     36  O   UNL     1       7.195  -7.358   4.257  1.00  0.00    -0.269 OA
BRANCH  34  37
ATOM     37  C   UNL     1       5.099  -8.254   4.834  1.00  0.00     0.039 A 
ATOM     38  C   UNL     1       5.414  -8.722   6.111  1.00  0.00     0.014 A 
ATOM     39  C   UNL     1       3.966  -8.732   4.169  1.00  0.00     0.014 A 
ATOM     40  C   UNL     1       4.567  -9.639   6.739  1.00  0.00     0.010 A 
ATOM     41  C   UNL     1       3.081  -9.579   4.829  1.00  0.00     0.010 A 
ATOM     42  C   UNL     1       3.381 -10.057   6.113  1.00  0.00    -0.014 A 
BRANCH  42  43
ATOM     43  C   UNL     1       2.458 -11.018   6.771  1.00  0.00     0.031 A 
ATOM     44  C   UNL     1       2.187 -12.356   6.132  1.00  0.00     0.074 A 
ATOM     45  C   UNL     1       1.817 -10.669   7.905  1.00  0.00     0.049 A 
ATOM     46  N   UNL     1       1.366 -13.301   6.512  1.00  0.00    -0.248 NA
ATOM     47  C   UNL     1       2.915 -12.663   4.888  1.00  0.00     0.031 C 
ATOM     48  C   UNL     1       1.937  -9.376   8.584  1.00  0.00     0.029 A 
ATOM     49  N   UNL     1       0.913 -11.362   8.672  1.00  0.00    -0.354 N 
ATOM     50  C   UNL     1       1.461 -14.298   5.547  1.00  0.00     0.074 A 
ATOM     51  C   UNL     1       2.380 -13.824   4.537  1.00  0.00     0.031 C 
ATOM     52  C   UNL     1       1.138  -9.369   9.663  1.00  0.00     0.029 A 
ATOM     53  C   UNL     1       0.425 -10.640   9.738  1.00  0.00     0.049 A 
ATOM     54  H   UNL     1       0.641 -12.288   8.479  1.00  0.00     0.167 HD
ATOM     55  C   UNL     1       0.869 -15.515   5.521  1.00  0.00     0.034 A 
ATOM     56  C   UNL     1      -0.502 -10.963  10.661  1.00  0.00     0.034 A 
ATOM     57  C   UNL     1      -0.017 -16.000   6.543  1.00  0.00     0.049 A 
ATOM     58  C   UNL     1      -1.127 -12.333  10.620  1.00  0.00     0.074 A 
ATOM     59  C   UNL     1      -0.632 -17.237   6.633  1.00  0.00     0.029 A 
ATOM     60  N   UNL     1      -0.412 -15.275   7.656  1.00  0.00    -0.354 N 
ATOM     61  N   UNL     1      -0.927 -13.307   9.766  1.00  0.00    -0.248 NA
ATOM     62  C   UNL     1      -2.073 -12.665  11.695  1.00  0.00     0.031 C 
ATOM     63  C   UNL     1      -1.414 -17.253   7.792  1.00  0.00     0.029 A 
ATOM     64  C   UNL     1      -1.255 -16.041   8.443  1.00  0.00     0.049 A 
ATOM     65  H   UNL     1      -0.135 -14.352   7.857  1.00  0.00     0.167 HD
ATOM     66  C   UNL     1      -1.679 -14.381  10.230  1.00  0.00     0.074 A 
ATOM     67  C   UNL     1      -2.324 -13.943  11.450  1.00  0.00     0.031 C 
ATOM     68  C   UNL     1      -1.831 -15.615   9.691  1.00  0.00     0.034 A 
BRANCH  55  69
ATOM     69  C   UNL     1       1.212 -16.440   4.381  1.00  0.00     0.023 A 
ATOM     70  C   UNL     1       2.498 -17.015   4.322  1.00  0.00     0.012 A 
ATOM     71  C   UNL     1       0.249 -16.800   3.419  1.00  0.00     0.148 A 
ATOM     72  C   UNL     1       2.831 -17.910   3.307  1.00  0.00     0.002 A 
ATOM     73  C   UNL     1       0.573 -17.731   2.438  1.00  0.00     0.091 A 
ATOM     74  F   UNL     1      -0.963 -16.232   3.483  1.00  0.00    -0.205 F 
ATOM     75  C   UNL     1       1.866 -18.277   2.373  1.00  0.00     0.022 A 
BRANCH  73  76
ATOM     76  S   UNL     1      -0.618 -18.335   1.237  1.00  0.00     0.127 S 
ATOM     77  O   UNL     1      -0.059 -17.825  -0.015  1.00  0.00    -0.237 OA
ATOM     78  O   UNL     1      -0.513 -19.784   1.405  1.00  0.00    -0.237 OA
ATOM     79  O   UNL     1      -1.903 -17.765   1.618  1.00  0.00    -0.744 OA
ENDBRANCH  73  76
ENDBRANCH  55  69
BRANCH  56  80
ATOM     80  C   UNL     1      -0.874  -9.993  11.732  1.00  0.00     0.023 A 
ATOM     81  C   UNL     1      -0.546 -10.274  13.074  1.00  0.00     0.012 A 
ATOM     82  C   UNL     1      -1.569  -8.807  11.432  1.00  0.00     0.148 A 
ATOM     83  C   UNL     1      -0.954  -9.421  14.100  1.00  0.00     0.002 A 
ATOM     84  C   UNL     1      -1.919  -7.931  12.453  1.00  0.00     0.091 A 
ATOM     85  F   UNL     1      -1.881  -8.559  10.152  1.00  0.00    -0.205 F 
ATOM     86  C   UNL     1      -1.634  -8.247  13.790  1.00  0.00     0.022 A 
BRANCH  84  87
ATOM     87  S   UNL     1      -2.680  -6.337  12.128  1.00  0.00     0.127 S 
ATOM     88  O   UNL     1      -4.054  -6.566  12.565  1.00  0.00    -0.237 OA
ATOM     89  O   UNL     1      -1.899  -5.447  12.989  1.00  0.00    -0.237 OA
ATOM     90  O   UNL     1      -2.496  -6.100  10.702  1.00  0.00    -0.744 OA
ENDBRANCH  84  87
ENDBRANCH  56  80
BRANCH  68  91
ATOM     91  C   UNL     1      -2.665 -16.614  10.450  1.00  0.00     0.023 A 
ATOM     92  C   UNL     1      -4.063 -16.463  10.527  1.00  0.00     0.012 A 
ATOM     93  C   UNL     1      -2.057 -17.744  11.034  1.00  0.00     0.148 A 
ATOM     94  C   UNL     1      -4.839 -17.399  11.210  1.00  0.00     0.002 A 
ATOM     95  C   UNL     1      -2.843 -18.701  11.664  1.00  0.00     0.091 A 
ATOM     96  F   UNL     1      -0.723 -17.861  10.965  1.00  0.00    -0.205 F 
ATOM     97  C   UNL     1      -4.231 -18.522  11.767  1.00  0.00     0.022 A 
BRANCH  95  98
ATOM     98  S   UNL     1      -2.159 -20.226  12.320  1.00  0.00     0.127 S 
ATOM     99  O   UNL     1      -2.252 -19.999  13.761  1.00  0.00    -0.237 OA
ATOM    100  O   UNL     1      -3.088 -21.230  11.800  1.00  0.00    -0.237 OA
ATOM    101  O   UNL     1      -0.806 -20.322  11.788  1.00  0.00    -0.744 OA
ENDBRANCH  95  98
ENDBRANCH  68  91
ENDBRANCH  42  43
ENDBRANCH  34  37
ENDBRANCH  32  33
ENDBRANCH  31  32
ENDBRANCH  30  31
ENDBRANCH   1  30
TORSDOF 21
