REMARK SMILES CC(C)(C)C(=O)NCc1ccc(C(=O)NCCCCCCNC(=O)c2ccc(-c3c4nc(c(-c5cccc(S(=O)(=O)[O-])c5F)c5ccc([nH]5)c(-c5cccc(S(=O)(=O)[O-])c5F)c5nc(c(-c6cccc(S(=O)(=O)[O-])c6F)c6ccc3[nH]6)C=C5)C=C4)cc2)o1
REMARK SMILES IDX 18 1 17 2 16 3 15 4 13 5 14 6 12 8 9 9 10 10 88 11 11 12
REMARK SMILES IDX 8 13 7 14 5 15 6 16 2 18 1 19 3 20 4 21 19 22 20 23 21 24
REMARK SMILES IDX 22 25 23 26 24 28 25 29 26 30 87 31 27 32 86 33 28 34 29 35
REMARK SMILES IDX 30 36 80 37 31 38 85 39 79 40 81 41 32 42 84 43 78 44 77 45
REMARK SMILES IDX 33 47 65 48 45 49 64 50 46 51 49 52 63 53 82 54 47 55 48 56
REMARK SMILES IDX 62 58 83 59 50 60 34 61 35 62 43 63 36 64 38 65 44 66 37 67
REMARK SMILES IDX 39 68 40 69 41 70 42 71 66 72 67 73 75 74 68 75 70 76 76 77
REMARK SMILES IDX 69 78 71 79 72 80 73 81 74 82 51 83 52 84 60 85 53 86 55 87
REMARK SMILES IDX 61 88 54 89 56 90 57 91 58 92 59 93
REMARK H PARENT 15 7 7 17 22 27 81 46 49 57
REMARK Flexibility Score: inf
ROOT
ATOM      1  C   UNL     1      -7.516  -8.276   0.216  1.00  0.00     0.002 C 
ENDROOT
BRANCH   1   2
ATOM      2  C   UNL     1      -6.026  -8.170   0.571  1.00  0.00     0.021 C 
BRANCH   2   3
ATOM      3  C   UNL     1      -5.197  -7.463  -0.502  1.00  0.00     0.116 C 
BRANCH   3   4
ATOM      4  N   UNL     1      -5.273  -6.027  -0.344  1.00  0.00    -0.349 N 
ATOM      5  C   UNL     1      -4.375  -5.113   0.153  1.00  0.00     0.286 C 
ATOM      6  O   UNL     1      -4.746  -3.936   0.114  1.00  0.00    -0.266 OA
ATOM      7  H   UNL     1      -6.122  -5.633  -0.649  1.00  0.00     0.163 HD
BRANCH   5   8
ATOM      8  C   UNL     1      -3.077  -5.509   0.674  1.00  0.00     0.191 A 
ATOM      9  C   UNL     1      -1.018  -5.024   1.346  1.00  0.00     0.124 A 
ATOM     10  C   UNL     1      -1.149  -6.386   1.472  1.00  0.00     0.048 A 
ATOM     11  O   UNL     1      -2.171  -4.490   0.863  1.00  0.00    -0.454 OA
ATOM     12  C   UNL     1      -2.478  -6.690   1.083  1.00  0.00     0.056 A 
BRANCH   9  13
ATOM     13  C   UNL     1       0.058  -4.065   1.684  1.00  0.00     0.191 C 
BRANCH  13  14
ATOM     14  N   UNL     1       0.717  -3.619   0.477  1.00  0.00    -0.348 N 
ATOM     15  C   UNL     1       1.035  -2.382   0.019  1.00  0.00     0.225 C 
ATOM     16  O   UNL     1       1.700  -2.343  -1.022  1.00  0.00    -0.275 OA
ATOM     17  H   UNL     1       0.986  -4.350  -0.125  1.00  0.00     0.163 HD
BRANCH  15  18
ATOM     18  C   UNL     1       0.600  -1.084   0.735  1.00  0.00     0.041 C 
ATOM     19  C   UNL     1       1.154   0.121  -0.063  1.00  0.00     0.021 C 
ATOM     20  C   UNL     1       1.189  -0.981   2.149  1.00  0.00     0.021 C 
ATOM     21  C   UNL     1      -0.930  -0.954   0.737  1.00  0.00     0.021 C 
ENDBRANCH  15  18
ENDBRANCH  13  14
ENDBRANCH   9  13
ENDBRANCH   5   8
ENDBRANCH   3   4
ENDBRANCH   2   3
ENDBRANCH   1   2
BRANCH   1  22
ATOM     22  C   UNL     1      -7.823  -9.066  -1.065  1.00  0.00     0.002 C 
BRANCH  22  23
ATOM     23  C   UNL     1      -7.207 -10.466  -1.131  1.00  0.00     0.021 C 
BRANCH  23  24
ATOM     24  C   UNL     1      -7.670 -11.413  -0.027  1.00  0.00     0.116 C 
BRANCH  24  25
ATOM     25  N   UNL     1      -9.098 -11.679  -0.112  1.00  0.00    -0.352 N 
ATOM     26  C   UNL     1      -9.754 -12.880  -0.215  1.00  0.00     0.251 C 
ATOM     27  H   UNL     1      -9.677 -10.883  -0.093  1.00  0.00     0.163 HD
ATOM     28  O   UNL     1     -10.947 -12.903  -0.506  1.00  0.00    -0.269 OA
BRANCH  26  29
ATOM     29  C   UNL     1      -9.023 -14.144   0.016  1.00  0.00     0.039 A 
ATOM     30  C   UNL     1      -9.233 -15.218  -0.853  1.00  0.00     0.014 A 
ATOM     31  C   UNL     1      -8.149 -14.277   1.099  1.00  0.00     0.014 A 
ATOM     32  C   UNL     1      -8.528 -16.409  -0.664  1.00  0.00     0.010 A 
ATOM     33  C   UNL     1      -7.398 -15.440   1.246  1.00  0.00     0.010 A 
ATOM     34  C   UNL     1      -7.585 -16.521   0.371  1.00  0.00    -0.014 A 
BRANCH  34  35
ATOM     35  C   UNL     1      -6.775 -17.753   0.543  1.00  0.00     0.031 A 
ATOM     36  C   UNL     1      -6.907 -18.584   1.790  1.00  0.00     0.074 A 
ATOM     37  C   UNL     1      -5.854 -18.075  -0.387  1.00  0.00     0.049 A 
ATOM     38  N   UNL     1      -6.253 -19.663   2.134  1.00  0.00    -0.248 NA
ATOM     39  C   UNL     1      -7.882 -18.130   2.795  1.00  0.00     0.031 C 
ATOM     40  C   UNL     1      -5.571 -17.301  -1.597  1.00  0.00     0.029 A 
ATOM     41  N   UNL     1      -4.967 -19.120  -0.446  1.00  0.00    -0.354 N 
ATOM     42  C   UNL     1      -6.708 -19.996   3.404  1.00  0.00     0.074 A 
ATOM     43  C   UNL     1      -7.671 -18.986   3.785  1.00  0.00     0.031 C 
ATOM     44  C   UNL     1      -4.581 -17.898  -2.279  1.00  0.00     0.029 A 
ATOM     45  C   UNL     1      -4.142 -19.081  -1.545  1.00  0.00     0.049 A 
ATOM     46  H   UNL     1      -4.926 -19.831   0.235  1.00  0.00     0.167 HD
ATOM     47  C   UNL     1      -6.377 -21.062   4.172  1.00  0.00     0.034 A 
ATOM     48  C   UNL     1      -3.141 -19.902  -1.918  1.00  0.00     0.034 A 
ATOM     49  C   UNL     1      -5.454 -22.088   3.770  1.00  0.00     0.049 A 
ATOM     50  C   UNL     1      -2.829 -21.106  -1.073  1.00  0.00     0.074 A 
ATOM     51  C   UNL     1      -5.126 -23.259   4.432  1.00  0.00     0.029 A 
ATOM     52  N   UNL     1      -4.703 -22.065   2.605  1.00  0.00    -0.354 N 
ATOM     53  N   UNL     1      -3.392 -21.497   0.044  1.00  0.00    -0.248 NA
ATOM     54  C   UNL     1      -1.772 -22.004  -1.559  1.00  0.00     0.031 C 
ATOM     55  C   UNL     1      -4.161 -23.933   3.677  1.00  0.00     0.029 A 
ATOM     56  C   UNL     1      -3.905 -23.194   2.533  1.00  0.00     0.049 A 
ATOM     57  H   UNL     1      -4.733 -21.351   1.928  1.00  0.00     0.167 HD
ATOM     58  C   UNL     1      -2.782 -22.701   0.378  1.00  0.00     0.074 A 
ATOM     59  C   UNL     1      -1.822 -22.986  -0.668  1.00  0.00     0.031 C 
ATOM     60  C   UNL     1      -2.988 -23.491   1.461  1.00  0.00     0.034 A 
BRANCH  47  61
ATOM     61  C   UNL     1      -7.064 -21.202   5.507  1.00  0.00     0.023 A 
ATOM     62  C   UNL     1      -8.430 -21.549   5.552  1.00  0.00     0.012 A 
ATOM     63  C   UNL     1      -6.351 -21.045   6.712  1.00  0.00     0.148 A 
ATOM     64  C   UNL     1      -9.085 -21.702   6.773  1.00  0.00     0.002 A 
ATOM     65  C   UNL     1      -7.001 -21.242   7.925  1.00  0.00     0.091 A 
ATOM     66  F   UNL     1      -5.059 -20.693   6.651  1.00  0.00    -0.205 F 
ATOM     67  C   UNL     1      -8.369 -21.559   7.958  1.00  0.00     0.022 A 
BRANCH  65  68
ATOM     68  S   UNL     1      -6.148 -21.157   9.504  1.00  0.00     0.127 S 
ATOM     69  O   UNL     1      -6.647 -19.892  10.041  1.00  0.00    -0.237 OA
ATOM     70  O   UNL     1      -6.646 -22.349  10.190  1.00  0.00    -0.237 OA
ATOM     71  O   UNL     1      -4.726 -21.188   9.192  1.00  0.00    -0.744 OA
ENDBRANCH  65  68
ENDBRANCH  47  61
BRANCH  48  72
ATOM     72  C   UNL     1      -2.412 -19.647  -3.193  1.00  0.00     0.023 A 
ATOM     73  C   UNL     1      -2.618 -20.506  -4.289  1.00  0.00     0.012 A 
ATOM     74  C   UNL     1      -1.556 -18.538  -3.339  1.00  0.00     0.148 A 
ATOM     75  C   UNL     1      -1.962 -20.282  -5.500  1.00  0.00     0.002 A 
ATOM     76  C   UNL     1      -0.950 -18.289  -4.564  1.00  0.00     0.091 A 
ATOM     77  F   UNL     1      -1.366 -17.739  -2.280  1.00  0.00    -0.205 F 
ATOM     78  C   UNL     1      -1.138 -19.169  -5.642  1.00  0.00     0.022 A 
BRANCH  76  79
ATOM     79  S   UNL     1       0.017 -16.807  -4.876  1.00  0.00     0.127 S 
ATOM     80  O   UNL     1       1.371 -17.346  -4.964  1.00  0.00    -0.237 OA
ATOM     81  O   UNL     1      -0.546 -16.340  -6.143  1.00  0.00    -0.237 OA
ATOM     82  O   UNL     1      -0.242 -15.925  -3.746  1.00  0.00    -0.744 OA
ENDBRANCH  76  79
ENDBRANCH  48  72
BRANCH  60  83
ATOM     83  C   UNL     1      -2.181 -24.758   1.564  1.00  0.00     0.023 A 
ATOM     84  C   UNL     1      -0.810 -24.690   1.881  1.00  0.00     0.012 A 
ATOM     85  C   UNL     1      -2.796 -26.017   1.421  1.00  0.00     0.148 A 
ATOM     86  C   UNL     1      -0.057 -25.855   2.022  1.00  0.00     0.002 A 
ATOM     87  C   UNL     1      -2.050 -27.174   1.611  1.00  0.00     0.091 A 
ATOM     88  F   UNL     1      -4.098 -26.061   1.100  1.00  0.00    -0.205 F 
ATOM     89  C   UNL     1      -0.679 -27.095   1.900  1.00  0.00     0.022 A 
BRANCH  87  90
ATOM     90  S   UNL     1      -2.788 -28.812   1.567  1.00  0.00     0.127 S 
ATOM     91  O   UNL     1      -2.297 -29.326   0.290  1.00  0.00    -0.237 OA
ATOM     92  O   UNL     1      -2.202 -29.449   2.747  1.00  0.00    -0.237 OA
ATOM     93  O   UNL     1      -4.228 -28.604   1.647  1.00  0.00    -0.744 OA
ENDBRANCH  87  90
ENDBRANCH  60  83
ENDBRANCH  34  35
ENDBRANCH  26  29
ENDBRANCH  24  25
ENDBRANCH  23  24
ENDBRANCH  22  23
ENDBRANCH   1  22
TORSDOF 19
