REMARK SMILES CCC(CC)NC(=O)N[C@@H]1C=C[C@@H](C(=O)NCCCCCCNC(=O)c2ccc(-c3c4nc(c(-c5cccc(S(=O)(=O)[O-])c5F)c5ccc([nH]5)c(-c5cccc(S(=O)(=O)[O-])c5F)c5nc(c(-c6cccc(S(=O)(=O)[O-])c6F)c6ccc3[nH]6)C=C5)C=C4)cc2)C1
REMARK SMILES IDX 19 1 18 2 17 3 16 4 14 5 15 6 13 8 10 9 11 10 89 11 12 12
REMARK SMILES IDX 9 13 6 14 7 15 8 17 3 19 2 20 1 21 4 22 5 23 20 24 21 25
REMARK SMILES IDX 22 26 23 27 24 28 25 30 26 31 27 32 88 33 28 34 87 35 29 36
REMARK SMILES IDX 30 37 31 38 81 39 32 40 86 41 80 42 82 43 33 44 85 45 79 46
REMARK SMILES IDX 78 47 34 49 66 50 46 51 65 52 47 53 50 54 64 55 83 56 48 57
REMARK SMILES IDX 49 58 63 60 84 61 51 62 35 63 36 64 44 65 37 66 39 67 45 68
REMARK SMILES IDX 38 69 40 70 41 71 42 72 43 73 67 74 68 75 76 76 69 77 71 78
REMARK SMILES IDX 77 79 70 80 72 81 73 82 74 83 75 84 52 85 53 86 61 87 54 88
REMARK SMILES IDX 56 89 62 90 55 91 57 92 58 93 59 94 60 95
REMARK H PARENT 16 7 6 16 9 18 23 29 82 48 50 59
REMARK Flexibility Score: inf
ROOT
ATOM      1  C   UNL     1      -0.173  -2.219  -6.450  1.00  0.00     0.002 C 
ENDROOT
BRANCH   1   2
ATOM      2  C   UNL     1       0.832  -1.265  -5.793  1.00  0.00     0.021 C 
BRANCH   2   3
ATOM      3  C   UNL     1       0.767  -1.250  -4.268  1.00  0.00     0.116 C 
BRANCH   3   4
ATOM      4  N   UNL     1       1.228  -2.504  -3.705  1.00  0.00    -0.356 N 
ATOM      5  C   UNL     1       2.246  -2.801  -2.855  1.00  0.00     0.227 C 
ATOM      6  O   UNL     1       2.384  -3.991  -2.548  1.00  0.00    -0.274 OA
ATOM      7  H   UNL     1       0.706  -3.287  -3.993  1.00  0.00     0.163 HD
BRANCH   5   8
ATOM      8  C   UNL     1       3.192  -1.749  -2.266  1.00  0.00     0.103 C 
ATOM      9  C   UNL     1       3.624   0.529  -3.110  1.00  0.00     0.107 C 
ATOM     10  C   UNL     1       2.734   0.519  -1.906  1.00  0.00    -0.006 C 
ATOM     11  C   UNL     1       4.029  -0.948  -3.274  1.00  0.00     0.047 C 
ATOM     12  C   UNL     1       2.486  -0.713  -1.455  1.00  0.00    -0.016 C 
BRANCH   9  13
ATOM     13  N   UNL     1       4.713   1.430  -2.851  1.00  0.00    -0.332 N 
ATOM     14  N   UNL     1       3.841   3.586  -3.326  1.00  0.00    -0.335 N 
ATOM     15  C   UNL     1       4.825   2.764  -2.933  1.00  0.00     0.315 C 
ATOM     16  H   UNL     1       4.121   4.530  -3.315  1.00  0.00     0.165 HD
ATOM     17  O   UNL     1       5.907   3.264  -2.612  1.00  0.00    -0.249 OA
ATOM     18  H   UNL     1       5.538   0.981  -2.555  1.00  0.00     0.165 HD
BRANCH  14  19
ATOM     19  C   UNL     1       2.452   3.429  -3.767  1.00  0.00     0.083 C 
BRANCH  19  20
ATOM     20  C   UNL     1       1.499   4.178  -2.823  1.00  0.00     0.021 C 
ATOM     21  C   UNL     1       0.049   3.753  -3.021  1.00  0.00     0.006 C 
ENDBRANCH  19  20
BRANCH  19  22
ATOM     22  C   UNL     1       2.316   3.776  -5.260  1.00  0.00     0.021 C 
ATOM     23  C   UNL     1       2.421   5.257  -5.593  1.00  0.00     0.006 C 
ENDBRANCH  19  22
ENDBRANCH  14  19
ENDBRANCH   9  13
ENDBRANCH   5   8
ENDBRANCH   3   4
ENDBRANCH   2   3
ENDBRANCH   1   2
BRANCH   1  24
ATOM     24  C   UNL     1      -1.643  -1.940  -6.116  1.00  0.00     0.002 C 
BRANCH  24  25
ATOM     25  C   UNL     1      -2.124  -0.522  -6.434  1.00  0.00     0.021 C 
BRANCH  25  26
ATOM     26  C   UNL     1      -1.965  -0.107  -7.894  1.00  0.00     0.116 C 
BRANCH  26  27
ATOM     27  N   UNL     1      -2.735  -0.955  -8.792  1.00  0.00    -0.352 N 
ATOM     28  C   UNL     1      -3.667  -0.602  -9.735  1.00  0.00     0.251 C 
ATOM     29  H   UNL     1      -2.561  -1.920  -8.712  1.00  0.00     0.163 HD
ATOM     30  O   UNL     1      -4.360  -1.469 -10.265  1.00  0.00    -0.269 OA
BRANCH  28  31
ATOM     31  C   UNL     1      -3.849   0.819 -10.099  1.00  0.00     0.039 A 
ATOM     32  C   UNL     1      -5.145   1.329 -10.207  1.00  0.00     0.014 A 
ATOM     33  C   UNL     1      -2.747   1.646 -10.332  1.00  0.00     0.014 A 
ATOM     34  C   UNL     1      -5.334   2.684 -10.484  1.00  0.00     0.010 A 
ATOM     35  C   UNL     1      -2.936   3.011 -10.535  1.00  0.00     0.010 A 
ATOM     36  C   UNL     1      -4.231   3.545 -10.612  1.00  0.00    -0.014 A 
BRANCH  36  37
ATOM     37  C   UNL     1      -4.413   5.009 -10.790  1.00  0.00     0.031 A 
ATOM     38  C   UNL     1      -3.914   5.696 -12.032  1.00  0.00     0.074 A 
ATOM     39  C   UNL     1      -4.949   5.735  -9.789  1.00  0.00     0.049 A 
ATOM     40  N   UNL     1      -3.928   6.969 -12.330  1.00  0.00    -0.248 NA
ATOM     41  C   UNL     1      -3.297   4.846 -13.063  1.00  0.00     0.031 C 
ATOM     42  C   UNL     1      -5.404   5.197  -8.505  1.00  0.00     0.029 A 
ATOM     43  N   UNL     1      -5.176   7.085  -9.680  1.00  0.00    -0.354 N 
ATOM     44  C   UNL     1      -3.297   7.079 -13.563  1.00  0.00     0.074 A 
ATOM     45  C   UNL     1      -2.882   5.746 -13.944  1.00  0.00     0.031 C 
ATOM     46  C   UNL     1      -5.857   6.203  -7.741  1.00  0.00     0.029 A 
ATOM     47  C   UNL     1      -5.690   7.461  -8.461  1.00  0.00     0.049 A 
ATOM     48  H   UNL     1      -4.989   7.723 -10.406  1.00  0.00     0.167 HD
ATOM     49  C   UNL     1      -3.100   8.184 -14.321  1.00  0.00     0.034 A 
ATOM     50  C   UNL     1      -5.978   8.682  -7.969  1.00  0.00     0.034 A 
ATOM     51  C   UNL     1      -3.538   9.504 -13.953  1.00  0.00     0.049 A 
ATOM     52  C   UNL     1      -5.767   9.891  -8.839  1.00  0.00     0.074 A 
ATOM     53  C   UNL     1      -3.460  10.673 -14.690  1.00  0.00     0.029 A 
ATOM     54  N   UNL     1      -4.121   9.836 -12.740  1.00  0.00    -0.354 N 
ATOM     55  N   UNL     1      -5.308   9.954 -10.066  1.00  0.00    -0.248 NA
ATOM     56  C   UNL     1      -6.144  11.193  -8.271  1.00  0.00     0.031 C 
ATOM     57  C   UNL     1      -3.962  11.718 -13.908  1.00  0.00     0.029 A 
ATOM     58  C   UNL     1      -4.392  11.194 -12.700  1.00  0.00     0.049 A 
ATOM     59  H   UNL     1      -4.314   9.201 -12.013  1.00  0.00     0.167 HD
ATOM     60  C   UNL     1      -5.376  11.294 -10.429  1.00  0.00     0.074 A 
ATOM     61  C   UNL     1      -5.941  12.004  -9.300  1.00  0.00     0.031 C 
ATOM     62  C   UNL     1      -4.995  11.884 -11.589  1.00  0.00     0.034 A 
BRANCH  49  63
ATOM     63  C   UNL     1      -2.410   8.011 -15.650  1.00  0.00     0.023 A 
ATOM     64  C   UNL     1      -3.078   7.355 -16.705  1.00  0.00     0.012 A 
ATOM     65  C   UNL     1      -1.129   8.553 -15.877  1.00  0.00     0.148 A 
ATOM     66  C   UNL     1      -2.469   7.210 -17.951  1.00  0.00     0.002 A 
ATOM     67  C   UNL     1      -0.549   8.447 -17.135  1.00  0.00     0.091 A 
ATOM     68  F   UNL     1      -0.501   9.157 -14.857  1.00  0.00    -0.205 F 
ATOM     69  C   UNL     1      -1.212   7.765 -18.169  1.00  0.00     0.022 A 
BRANCH  67  70
ATOM     70  S   UNL     1       1.031   9.198 -17.542  1.00  0.00     0.127 S 
ATOM     71  O   UNL     1       1.881   8.021 -17.714  1.00  0.00    -0.237 OA
ATOM     72  O   UNL     1       0.721   9.913 -18.780  1.00  0.00    -0.237 OA
ATOM     73  O   UNL     1       1.372  10.054 -16.414  1.00  0.00    -0.744 OA
ENDBRANCH  67  70
ENDBRANCH  49  63
BRANCH  50  74
ATOM     74  C   UNL     1      -6.542   8.818  -6.596  1.00  0.00     0.023 A 
ATOM     75  C   UNL     1      -7.878   9.232  -6.430  1.00  0.00     0.012 A 
ATOM     76  C   UNL     1      -5.768   8.519  -5.457  1.00  0.00     0.148 A 
ATOM     77  C   UNL     1      -8.422   9.381  -5.154  1.00  0.00     0.002 A 
ATOM     78  C   UNL     1      -6.335   8.612  -4.192  1.00  0.00     0.091 A 
ATOM     79  F   UNL     1      -4.496   8.136  -5.636  1.00  0.00    -0.205 F 
ATOM     80  C   UNL     1      -7.655   9.062  -4.037  1.00  0.00     0.022 A 
BRANCH  78  81
ATOM     81  S   UNL     1      -5.466   8.092  -2.709  1.00  0.00     0.127 S 
ATOM     82  O   UNL     1      -5.240   9.366  -2.032  1.00  0.00    -0.237 OA
ATOM     83  O   UNL     1      -6.454   7.220  -2.072  1.00  0.00    -0.237 OA
ATOM     84  O   UNL     1      -4.269   7.402  -3.173  1.00  0.00    -0.744 OA
ENDBRANCH  78  81
ENDBRANCH  50  74
BRANCH  62  85
ATOM     85  C   UNL     1      -5.210  13.370 -11.720  1.00  0.00     0.023 A 
ATOM     86  C   UNL     1      -4.415  14.268 -10.981  1.00  0.00     0.012 A 
ATOM     87  C   UNL     1      -6.160  13.877 -12.630  1.00  0.00     0.148 A 
ATOM     88  C   UNL     1      -4.586  15.645 -11.117  1.00  0.00     0.002 A 
ATOM     89  C   UNL     1      -6.288  15.250 -12.801  1.00  0.00     0.091 A 
ATOM     90  F   UNL     1      -6.919  13.007 -13.312  1.00  0.00    -0.205 F 
ATOM     91  C   UNL     1      -5.513  16.136 -12.035  1.00  0.00     0.022 A 
BRANCH  89  92
ATOM     92  S   UNL     1      -7.383  15.972 -14.027  1.00  0.00     0.127 S 
ATOM     93  O   UNL     1      -8.420  16.568 -13.187  1.00  0.00    -0.237 OA
ATOM     94  O   UNL     1      -6.508  16.937 -14.693  1.00  0.00    -0.237 OA
ATOM     95  O   UNL     1      -7.824  14.870 -14.873  1.00  0.00    -0.744 OA
ENDBRANCH  89  92
ENDBRANCH  62  85
ENDBRANCH  36  37
ENDBRANCH  28  31
ENDBRANCH  26  27
ENDBRANCH  25  26
ENDBRANCH  24  25
ENDBRANCH   1  24
TORSDOF 20
