REMARK SMILES Cc1cc(CS(=O)(=O)[C@@H](C)CC(=O)NCCCCCCNC(=O)c2ccc(-c3c4nc(c(-c5cccc(S(=O)(=O)[O-])c5F)c5ccc([nH]5)c(-c5cccc(S(=O)(=O)[O-])c5F)c5nc(c(-c6cccc(S(=O)(=O)[O-])c6F)c6ccc3[nH]6)C=C5)C=C4)cc2)c2ccccc2n1
REMARK SMILES IDX 17 1 16 2 15 3 14 4 12 5 13 6 11 8 9 9 10 10 6 11 7 12 8 13
REMARK SMILES IDX 5 14 4 15 1 16 2 17 3 18 93 19 92 20 87 21 91 22 88 23 90 24
REMARK SMILES IDX 89 25 18 26 19 27 20 28 21 29 22 30 23 32 24 33 25 34 86 35
REMARK SMILES IDX 26 36 85 37 27 38 28 39 29 40 79 41 30 42 84 43 78 44 80 45
REMARK SMILES IDX 31 46 83 47 77 48 76 49 32 51 64 52 44 53 63 54 45 55 48 56
REMARK SMILES IDX 62 57 81 58 46 59 47 60 61 62 82 63 49 64 33 65 34 66 42 67
REMARK SMILES IDX 35 68 37 69 43 70 36 71 38 72 39 73 40 74 41 75 65 76 66 77
REMARK SMILES IDX 74 78 67 79 69 80 75 81 68 82 70 83 71 84 72 85 73 86 50 87
REMARK SMILES IDX 51 88 59 89 52 90 54 91 60 92 53 93 55 94 56 95 57 96 58 97
REMARK H PARENT 14 7 21 31 80 50 48 61
REMARK Flexibility Score: inf
ROOT
ATOM      1  C   UNL     1       4.829   2.666   0.728  1.00  0.00     0.002 C 
ENDROOT
BRANCH   1   2
ATOM      2  C   UNL     1       3.517   3.146   1.354  1.00  0.00     0.021 C 
BRANCH   2   3
ATOM      3  C   UNL     1       2.521   2.017   1.620  1.00  0.00     0.116 C 
BRANCH   3   4
ATOM      4  N   UNL     1       2.219   1.857   3.026  1.00  0.00    -0.356 N 
ATOM      5  C   UNL     1       1.022   1.652   3.638  1.00  0.00     0.221 C 
ATOM      6  O   UNL     1       1.013   1.394   4.842  1.00  0.00    -0.275 OA
ATOM      7  H   UNL     1       2.996   1.903   3.630  1.00  0.00     0.163 HD
BRANCH   5   8
ATOM      8  C   UNL     1      -0.271   1.724   2.848  1.00  0.00     0.119 C 
BRANCH   8   9
ATOM      9  C   UNL     1      -0.790   3.142   2.653  1.00  0.00     0.115 C 
ATOM     10  C   UNL     1      -2.213   3.311   3.203  1.00  0.00     0.025 C 
BRANCH   9  11
ATOM     11  S   UNL     1      -0.651   3.919   1.008  1.00  0.00     0.157 S 
ATOM     12  O   UNL     1       0.636   4.600   1.030  1.00  0.00    -0.228 OA
ATOM     13  O   UNL     1      -1.842   4.740   0.847  1.00  0.00    -0.228 OA
BRANCH  11  14
ATOM     14  C   UNL     1      -0.607   2.849  -0.459  1.00  0.00     0.173 C 
BRANCH  14  15
ATOM     15  C   UNL     1      -1.031   1.418  -0.277  1.00  0.00    -0.022 A 
ATOM     16  C   UNL     1      -4.191  -0.556   0.337  1.00  0.00     0.067 C 
ATOM     17  C   UNL     1      -2.749  -0.166   0.257  1.00  0.00     0.038 A 
ATOM     18  C   UNL     1      -2.372   1.143   0.002  1.00  0.00     0.029 A 
ATOM     19  N   UNL     1      -1.857  -1.177   0.353  1.00  0.00    -0.253 NA
ATOM     20  C   UNL     1      -0.588  -0.951  -0.002  1.00  0.00     0.071 A 
ATOM     21  C   UNL     1      -0.132   0.314  -0.428  1.00  0.00     0.004 A 
ATOM     22  C   UNL     1       0.300  -2.019   0.051  1.00  0.00     0.029 A 
ATOM     23  C   UNL     1       1.178   0.385  -0.964  1.00  0.00     0.010 A 
ATOM     24  C   UNL     1       1.611  -1.913  -0.407  1.00  0.00     0.002 A 
ATOM     25  C   UNL     1       2.034  -0.720  -0.964  1.00  0.00     0.001 A 
ENDBRANCH  14  15
ENDBRANCH  11  14
ENDBRANCH   9  11
ENDBRANCH   8   9
ENDBRANCH   5   8
ENDBRANCH   3   4
ENDBRANCH   2   3
ENDBRANCH   1   2
BRANCH   1  26
ATOM     26  C   UNL     1       4.699   2.038  -0.664  1.00  0.00     0.002 C 
BRANCH  26  27
ATOM     27  C   UNL     1       4.077   2.923  -1.747  1.00  0.00     0.021 C 
BRANCH  27  28
ATOM     28  C   UNL     1       4.809   4.239  -1.989  1.00  0.00     0.116 C 
BRANCH  28  29
ATOM     29  N   UNL     1       6.213   4.024  -2.311  1.00  0.00    -0.352 N 
ATOM     30  C   UNL     1       6.887   4.213  -3.491  1.00  0.00     0.251 C 
ATOM     31  H   UNL     1       6.765   3.691  -1.567  1.00  0.00     0.163 HD
ATOM     32  O   UNL     1       8.004   3.721  -3.643  1.00  0.00    -0.269 OA
BRANCH  30  33
ATOM     33  C   UNL     1       6.272   5.003  -4.577  1.00  0.00     0.039 A 
ATOM     34  C   UNL     1       6.385   4.560  -5.898  1.00  0.00     0.014 A 
ATOM     35  C   UNL     1       5.597   6.192  -4.290  1.00  0.00     0.014 A 
ATOM     36  C   UNL     1       5.758   5.272  -6.923  1.00  0.00     0.010 A 
ATOM     37  C   UNL     1       4.906   6.853  -5.298  1.00  0.00     0.010 A 
ATOM     38  C   UNL     1       4.979   6.402  -6.624  1.00  0.00    -0.014 A 
BRANCH  38  39
ATOM     39  C   UNL     1       4.203   7.118  -7.667  1.00  0.00     0.031 A 
ATOM     40  C   UNL     1       4.483   8.568  -7.954  1.00  0.00     0.074 A 
ATOM     41  C   UNL     1       3.161   6.498  -8.256  1.00  0.00     0.049 A 
ATOM     42  N   UNL     1       3.833   9.396  -8.729  1.00  0.00    -0.248 NA
ATOM     43  C   UNL     1       5.624   9.178  -7.250  1.00  0.00     0.031 C 
ATOM     44  C   UNL     1       2.740   5.120  -7.994  1.00  0.00     0.029 A 
ATOM     45  N   UNL     1       2.240   6.958  -9.164  1.00  0.00    -0.354 N 
ATOM     46  C   UNL     1       4.453  10.630  -8.573  1.00  0.00     0.074 A 
ATOM     47  C   UNL     1       5.515  10.450  -7.607  1.00  0.00     0.031 C 
ATOM     48  C   UNL     1       1.642   4.849  -8.717  1.00  0.00     0.029 A 
ATOM     49  C   UNL     1       1.259   6.041  -9.465  1.00  0.00     0.049 A 
ATOM     50  H   UNL     1       2.278   7.857  -9.562  1.00  0.00     0.167 HD
ATOM     51  C   UNL     1       4.182  11.800  -9.197  1.00  0.00     0.034 A 
ATOM     52  C   UNL     1       0.163   6.154 -10.240  1.00  0.00     0.034 A 
ATOM     53  C   UNL     1       3.157  11.957 -10.194  1.00  0.00     0.049 A 
ATOM     54  C   UNL     1      -0.093   7.454 -10.954  1.00  0.00     0.074 A 
ATOM     55  C   UNL     1       2.874  13.067 -10.969  1.00  0.00     0.029 A 
ATOM     56  N   UNL     1       2.240  10.978 -10.545  1.00  0.00    -0.354 N 
ATOM     57  N   UNL     1       0.611   8.560 -10.928  1.00  0.00    -0.248 NA
ATOM     58  C   UNL     1      -1.274   7.513 -11.826  1.00  0.00     0.031 C 
ATOM     59  C   UNL     1       1.769  12.767 -11.772  1.00  0.00     0.029 A 
ATOM     60  C   UNL     1       1.378  11.463 -11.513  1.00  0.00     0.049 A 
ATOM     61  H   UNL     1       2.208  10.071 -10.163  1.00  0.00     0.167 HD
ATOM     62  C   UNL     1      -0.027   9.438 -11.795  1.00  0.00     0.074 A 
ATOM     63  C   UNL     1      -1.159   8.725 -12.353  1.00  0.00     0.031 C 
ATOM     64  C   UNL     1       0.283  10.725 -12.089  1.00  0.00     0.034 A 
BRANCH  51  65
ATOM     65  C   UNL     1       5.042  12.991  -8.864  1.00  0.00     0.023 A 
ATOM     66  C   UNL     1       6.380  13.027  -9.307  1.00  0.00     0.012 A 
ATOM     67  C   UNL     1       4.516  14.097  -8.168  1.00  0.00     0.148 A 
ATOM     68  C   UNL     1       7.192  14.126  -9.032  1.00  0.00     0.002 A 
ATOM     69  C   UNL     1       5.319  15.209  -7.936  1.00  0.00     0.091 A 
ATOM     70  F   UNL     1       3.248  14.037  -7.736  1.00  0.00    -0.205 F 
ATOM     71  C   UNL     1       6.658  15.220  -8.356  1.00  0.00     0.022 A 
BRANCH  69  72
ATOM     72  S   UNL     1       4.701  16.698  -7.143  1.00  0.00     0.127 S 
ATOM     73  O   UNL     1       5.386  16.647  -5.848  1.00  0.00    -0.237 OA
ATOM     74  O   UNL     1       5.189  17.748  -8.043  1.00  0.00    -0.237 OA
ATOM     75  O   UNL     1       3.259  16.562  -7.093  1.00  0.00    -0.744 OA
ENDBRANCH  69  72
ENDBRANCH  51  65
BRANCH  52  76
ATOM     76  C   UNL     1      -0.742   4.984 -10.421  1.00  0.00     0.023 A 
ATOM     77  C   UNL     1      -0.776   4.324 -11.664  1.00  0.00     0.012 A 
ATOM     78  C   UNL     1      -1.532   4.494  -9.362  1.00  0.00     0.148 A 
ATOM     79  C   UNL     1      -1.600   3.215 -11.860  1.00  0.00     0.002 A 
ATOM     80  C   UNL     1      -2.308   3.354  -9.547  1.00  0.00     0.091 A 
ATOM     81  F   UNL     1      -1.496   5.141  -8.189  1.00  0.00    -0.205 F 
ATOM     82  C   UNL     1      -2.356   2.724 -10.799  1.00  0.00     0.022 A 
BRANCH  80  83
ATOM     83  S   UNL     1      -3.200   2.572  -8.197  1.00  0.00     0.127 S 
ATOM     84  O   UNL     1      -4.587   2.898  -8.527  1.00  0.00    -0.237 OA
ATOM     85  O   UNL     1      -2.841   1.164  -8.372  1.00  0.00    -0.237 OA
ATOM     86  O   UNL     1      -2.679   3.174  -6.979  1.00  0.00    -0.744 OA
ENDBRANCH  80  83
ENDBRANCH  52  76
BRANCH  64  87
ATOM     87  C   UNL     1      -0.603  11.450 -13.067  1.00  0.00     0.023 A 
ATOM     88  C   UNL     1      -1.886  11.869 -12.664  1.00  0.00     0.012 A 
ATOM     89  C   UNL     1      -0.133  11.791 -14.351  1.00  0.00     0.148 A 
ATOM     90  C   UNL     1      -2.699  12.595 -13.532  1.00  0.00     0.002 A 
ATOM     91  C   UNL     1      -0.930  12.556 -15.193  1.00  0.00     0.091 A 
ATOM     92  F   UNL     1       1.085  11.368 -14.719  1.00  0.00    -0.205 F 
ATOM     93  C   UNL     1      -2.217  12.949 -14.790  1.00  0.00     0.022 A 
BRANCH  91  94
ATOM     94  S   UNL     1      -0.361  13.140 -16.794  1.00  0.00     0.127 S 
ATOM     95  O   UNL     1      -1.185  12.352 -17.709  1.00  0.00    -0.237 OA
ATOM     96  O   UNL     1      -0.698  14.563 -16.741  1.00  0.00    -0.237 OA
ATOM     97  O   UNL     1       1.067  12.857 -16.841  1.00  0.00    -0.744 OA
ENDBRANCH  91  94
ENDBRANCH  64  87
ENDBRANCH  38  39
ENDBRANCH  30  33
ENDBRANCH  28  29
ENDBRANCH  27  28
ENDBRANCH  26  27
ENDBRANCH   1  26
TORSDOF 20
