REMARK SMILES CC(C)n1c([C@H](O)CC(=O)NCCCCCCNC(=O)c2ccc(-c3c4nc(c(-c5cccc(S(=O)(=O)[O-])c5F)c5ccc([nH]5)c(-c5cccc(S(=O)(=O)[O-])c5F)c5nc(c(-c6cccc(S(=O)(=O)[O-])c6F)c6ccc3[nH]6)C=C5)C=C4)cc2)nc2cc(Cl)ccc21
REMARK SMILES IDX 14 1 13 2 12 3 11 4 9 5 10 6 8 8 6 9 5 10 4 11 91 12 84 13
REMARK SMILES IDX 85 14 90 15 86 16 89 17 87 18 88 19 2 20 1 21 3 22 7 23
REMARK SMILES IDX 15 25 16 26 17 27 18 28 19 29 20 31 21 32 22 33 83 34 23 35
REMARK SMILES IDX 82 36 24 37 25 38 26 39 76 40 27 41 81 42 75 43 77 44 28 45
REMARK SMILES IDX 80 46 74 47 73 48 29 50 61 51 41 52 60 53 42 54 45 55 59 56
REMARK SMILES IDX 78 57 43 58 44 59 58 61 79 62 46 63 30 64 31 65 39 66 32 67
REMARK SMILES IDX 34 68 40 69 33 70 35 71 36 72 37 73 38 74 62 75 63 76 71 77
REMARK SMILES IDX 64 78 66 79 72 80 65 81 67 82 68 83 69 84 70 85 47 86 48 87
REMARK SMILES IDX 56 88 49 89 51 90 57 91 50 92 52 93 53 94 54 95 55 96
REMARK H PARENT 11 7 7 24 18 30 77 49 45 60
REMARK Flexibility Score: inf
ROOT
ATOM      1  C   UNL     1      -1.194   4.691  -0.768  1.00  0.00     0.002 C 
ENDROOT
BRANCH   1   2
ATOM      2  C   UNL     1      -1.485   3.193  -0.852  1.00  0.00     0.021 C 
BRANCH   2   3
ATOM      3  C   UNL     1      -2.042   2.783  -2.215  1.00  0.00     0.116 C 
BRANCH   3   4
ATOM      4  N   UNL     1      -0.973   2.384  -3.114  1.00  0.00    -0.356 N 
ATOM      5  C   UNL     1      -0.566   1.123  -3.454  1.00  0.00     0.223 C 
ATOM      6  O   UNL     1       0.470   0.980  -4.103  1.00  0.00    -0.275 OA
ATOM      7  H   UNL     1      -0.473   3.120  -3.535  1.00  0.00     0.163 HD
BRANCH   5   8
ATOM      8  C   UNL     1      -1.429  -0.060  -3.080  1.00  0.00     0.140 C 
BRANCH   8   9
ATOM      9  C   UNL     1      -0.961  -0.769  -1.825  1.00  0.00     0.190 C 
BRANCH   9  10
ATOM     10  C   UNL     1      -1.797  -1.964  -1.410  1.00  0.00     0.139 A 
ATOM     11  N   UNL     1      -3.164  -2.049  -1.145  1.00  0.00    -0.323 N 
ATOM     12  C   UNL     1      -3.433  -3.365  -0.784  1.00  0.00     0.069 A 
ATOM     13  N   UNL     1      -1.214  -3.125  -1.151  1.00  0.00    -0.230 NA
ATOM     14  C   UNL     1      -2.196  -3.990  -0.769  1.00  0.00     0.090 A 
ATOM     15  C   UNL     1      -4.617  -4.047  -0.458  1.00  0.00     0.030 A 
ATOM     16  C   UNL     1      -2.094  -5.337  -0.393  1.00  0.00     0.051 A 
ATOM     17  C   UNL     1      -4.506  -5.391  -0.090  1.00  0.00     0.023 A 
ATOM     18  C   UNL     1      -3.264  -6.020  -0.054  1.00  0.00     0.043 A 
ATOM     19  Cl  UNL     1      -3.171  -7.675   0.418  1.00  0.00    -0.084 Cl
BRANCH  11  20
ATOM     20  C   UNL     1      -4.226  -1.042  -1.179  1.00  0.00     0.083 C 
ATOM     21  C   UNL     1      -3.999   0.183  -0.298  1.00  0.00     0.031 C 
ATOM     22  C   UNL     1      -4.755  -0.763  -2.588  1.00  0.00     0.031 C 
ENDBRANCH  11  20
ENDBRANCH   9  10
BRANCH   9  23
ATOM     23  O   UNL     1      -0.882   0.079  -0.688  1.00  0.00    -0.385 OA
ATOM     24  H   UNL     1      -1.773   0.369  -0.438  1.00  0.00     0.211 HD
ENDBRANCH   9  23
ENDBRANCH   8   9
ENDBRANCH   5   8
ENDBRANCH   3   4
ENDBRANCH   2   3
ENDBRANCH   1   2
BRANCH   1  25
ATOM     25  C   UNL     1      -2.450   5.566  -0.677  1.00  0.00     0.002 C 
BRANCH  25  26
ATOM     26  C   UNL     1      -3.344   5.309   0.543  1.00  0.00     0.021 C 
BRANCH  26  27
ATOM     27  C   UNL     1      -2.612   5.356   1.886  1.00  0.00     0.116 C 
BRANCH  27  28
ATOM     28  N   UNL     1      -1.876   6.583   2.107  1.00  0.00    -0.352 N 
ATOM     29  C   UNL     1      -2.208   7.853   2.492  1.00  0.00     0.251 C 
ATOM     30  H   UNL     1      -0.911   6.479   1.942  1.00  0.00     0.163 HD
ATOM     31  O   UNL     1      -1.268   8.643   2.604  1.00  0.00    -0.269 OA
BRANCH  29  32
ATOM     32  C   UNL     1      -3.596   8.340   2.721  1.00  0.00     0.039 A 
ATOM     33  C   UNL     1      -4.735   7.537   2.774  1.00  0.00     0.014 A 
ATOM     34  C   UNL     1      -3.749   9.732   2.866  1.00  0.00     0.014 A 
ATOM     35  C   UNL     1      -5.999   8.108   2.857  1.00  0.00     0.010 A 
ATOM     36  C   UNL     1      -5.010  10.307   2.985  1.00  0.00     0.010 A 
ATOM     37  C   UNL     1      -6.137   9.494   2.930  1.00  0.00    -0.014 A 
BRANCH  37  38
ATOM     38  C   UNL     1      -7.491  10.028   3.017  1.00  0.00     0.031 A 
ATOM     39  C   UNL     1      -8.281   9.596   4.206  1.00  0.00     0.074 A 
ATOM     40  C   UNL     1      -7.989  10.922   2.141  1.00  0.00     0.049 A 
ATOM     41  N   UNL     1      -9.378   8.906   4.233  1.00  0.00    -0.248 NA
ATOM     42  C   UNL     1      -7.721   9.893   5.532  1.00  0.00     0.031 C 
ATOM     43  C   UNL     1      -7.272  11.651   1.093  1.00  0.00     0.029 A 
ATOM     44  N   UNL     1      -9.239  11.463   2.100  1.00  0.00    -0.354 N 
ATOM     45  C   UNL     1      -9.754   8.854   5.574  1.00  0.00     0.074 A 
ATOM     46  C   UNL     1      -8.639   9.358   6.337  1.00  0.00     0.031 C 
ATOM     47  C   UNL     1      -8.022  12.704   0.698  1.00  0.00     0.029 A 
ATOM     48  C   UNL     1      -9.312  12.638   1.359  1.00  0.00     0.049 A 
ATOM     49  H   UNL     1     -10.016  11.062   2.551  1.00  0.00     0.167 HD
ATOM     50  C   UNL     1     -11.026   8.589   5.977  1.00  0.00     0.034 A 
ATOM     51  C   UNL     1     -10.335  13.526   1.376  1.00  0.00     0.034 A 
ATOM     52  C   UNL     1     -11.839   8.026   4.941  1.00  0.00     0.049 A 
ATOM     53  C   UNL     1     -11.533  12.798   1.855  1.00  0.00     0.074 A 
ATOM     54  C   UNL     1     -11.813   6.871   4.187  1.00  0.00     0.029 A 
ATOM     55  N   UNL     1     -12.711   8.873   4.305  1.00  0.00    -0.354 N 
ATOM     56  N   UNL     1     -12.117  11.839   1.195  1.00  0.00    -0.248 NA
ATOM     57  C   UNL     1     -11.902  12.909   3.256  1.00  0.00     0.031 C 
ATOM     58  C   UNL     1     -12.304   7.255   2.904  1.00  0.00     0.029 A 
ATOM     59  C   UNL     1     -12.621   8.614   2.962  1.00  0.00     0.049 A 
ATOM     60  H   UNL     1     -13.293   9.541   4.733  1.00  0.00     0.167 HD
ATOM     61  C   UNL     1     -12.583  10.975   2.175  1.00  0.00     0.074 A 
ATOM     62  C   UNL     1     -12.545  11.750   3.410  1.00  0.00     0.031 C 
ATOM     63  C   UNL     1     -12.685   9.634   1.938  1.00  0.00     0.034 A 
BRANCH  50  64
ATOM     64  C   UNL     1     -11.621   9.135   7.246  1.00  0.00     0.023 A 
ATOM     65  C   UNL     1     -12.754   8.505   7.799  1.00  0.00     0.012 A 
ATOM     66  C   UNL     1     -11.247  10.388   7.783  1.00  0.00     0.148 A 
ATOM     67  C   UNL     1     -13.469   9.089   8.852  1.00  0.00     0.002 A 
ATOM     68  C   UNL     1     -11.909  10.925   8.879  1.00  0.00     0.091 A 
ATOM     69  F   UNL     1     -10.322  11.123   7.152  1.00  0.00    -0.205 F 
ATOM     70  C   UNL     1     -13.035  10.289   9.406  1.00  0.00     0.022 A 
BRANCH  68  71
ATOM     71  S   UNL     1     -11.341  12.437   9.661  1.00  0.00     0.127 S 
ATOM     72  O   UNL     1     -12.292  13.413   9.139  1.00  0.00    -0.237 OA
ATOM     73  O   UNL     1     -11.493  12.118  11.081  1.00  0.00    -0.237 OA
ATOM     74  O   UNL     1      -9.956  12.586   9.231  1.00  0.00    -0.744 OA
ENDBRANCH  68  71
ENDBRANCH  50  64
BRANCH  51  75
ATOM     75  C   UNL     1     -10.310  15.007   1.283  1.00  0.00     0.023 A 
ATOM     76  C   UNL     1     -11.530  15.696   1.113  1.00  0.00     0.012 A 
ATOM     77  C   UNL     1      -9.175  15.758   1.659  1.00  0.00     0.148 A 
ATOM     78  C   UNL     1     -11.633  17.065   1.380  1.00  0.00     0.002 A 
ATOM     79  C   UNL     1      -9.279  17.124   1.907  1.00  0.00     0.091 A 
ATOM     80  F   UNL     1      -8.015  15.126   1.879  1.00  0.00    -0.205 F 
ATOM     81  C   UNL     1     -10.511  17.778   1.789  1.00  0.00     0.022 A 
BRANCH  79  82
ATOM     82  S   UNL     1      -7.862  18.095   2.440  1.00  0.00     0.127 S 
ATOM     83  O   UNL     1      -8.057  19.352   1.715  1.00  0.00    -0.237 OA
ATOM     84  O   UNL     1      -8.077  18.180   3.881  1.00  0.00    -0.237 OA
ATOM     85  O   UNL     1      -6.691  17.340   2.010  1.00  0.00    -0.744 OA
ENDBRANCH  79  82
ENDBRANCH  51  75
BRANCH  63  86
ATOM     86  C   UNL     1     -12.543   9.164   0.512  1.00  0.00     0.023 A 
ATOM     87  C   UNL     1     -11.325   9.284  -0.190  1.00  0.00     0.012 A 
ATOM     88  C   UNL     1     -13.598   8.447  -0.075  1.00  0.00     0.148 A 
ATOM     89  C   UNL     1     -11.170   8.725  -1.461  1.00  0.00     0.002 A 
ATOM     90  C   UNL     1     -13.428   7.858  -1.324  1.00  0.00     0.091 A 
ATOM     91  F   UNL     1     -14.743   8.327   0.614  1.00  0.00    -0.205 F 
ATOM     92  C   UNL     1     -12.219   8.002  -2.023  1.00  0.00     0.022 A 
BRANCH  90  93
ATOM     93  S   UNL     1     -14.693   6.818  -2.059  1.00  0.00     0.127 S 
ATOM     94  O   UNL     1     -15.167   7.651  -3.166  1.00  0.00    -0.237 OA
ATOM     95  O   UNL     1     -13.922   5.640  -2.473  1.00  0.00    -0.237 OA
ATOM     96  O   UNL     1     -15.663   6.557  -1.012  1.00  0.00    -0.744 OA
ENDBRANCH  90  93
ENDBRANCH  63  86
ENDBRANCH  37  38
ENDBRANCH  29  32
ENDBRANCH  27  28
ENDBRANCH  26  27
ENDBRANCH  25  26
ENDBRANCH   1  25
TORSDOF 20
