REMARK SMILES O=C(NCCCCCCNC(=O)[C@H](F)Sc1cc2ccccc2[nH]1)c1ccc(-c2c3nc(c(-c4cccc(S(=O)(=O)[O-])c4F)c4ccc([nH]4)c(-c4cccc(S(=O)(=O)[O-])c4F)c4nc(c(-c5cccc(S(=O)(=O)[O-])c5F)c5ccc2[nH]5)C=C4)C=C3)cc1
REMARK SMILES IDX 6 1 5 2 4 3 3 4 1 5 2 6 25 8 26 9 87 10 27 11 86 12 28 13
REMARK SMILES IDX 29 14 30 15 80 16 31 17 85 18 79 19 81 20 32 21 84 22 78 23
REMARK SMILES IDX 77 24 33 26 65 27 45 28 64 29 46 30 49 31 63 32 82 33 47 34
REMARK SMILES IDX 48 35 62 37 83 38 50 39 34 40 35 41 43 42 36 43 38 44 44 45
REMARK SMILES IDX 37 46 39 47 40 48 41 49 42 50 66 51 67 52 75 53 68 54 70 55
REMARK SMILES IDX 76 56 69 57 71 58 72 59 73 60 74 61 51 62 52 63 60 64 53 65
REMARK SMILES IDX 55 66 61 67 54 68 56 69 57 70 58 71 59 72 7 73 8 74 9 75
REMARK SMILES IDX 10 76 11 77 12 79 13 80 14 81 15 82 16 83 17 84 24 85 18 86
REMARK SMILES IDX 23 87 19 89 22 90 20 91 21 92
REMARK H PARENT 3 7 81 25 49 36 10 78 24 88
REMARK Flexibility Score: inf
ROOT
ATOM      1  C   UNL     1      12.800   5.898   5.473  1.00  0.00     0.002 C 
ENDROOT
BRANCH   1   2
ATOM      2  C   UNL     1      13.930   6.927   5.470  1.00  0.00     0.021 C 
BRANCH   2   3
ATOM      3  C   UNL     1      13.981   7.822   6.701  1.00  0.00     0.116 C 
BRANCH   3   4
ATOM      4  N   UNL     1      14.309   7.084   7.910  1.00  0.00    -0.352 N 
ATOM      5  O   UNL     1      15.531   6.538   9.722  1.00  0.00    -0.269 OA
ATOM      6  C   UNL     1      15.268   7.365   8.854  1.00  0.00     0.251 C 
ATOM      7  H   UNL     1      13.773   6.275   8.074  1.00  0.00     0.163 HD
BRANCH   6   8
ATOM      8  C   UNL     1      15.994   8.655   8.798  1.00  0.00     0.039 A 
ATOM      9  C   UNL     1      15.302   9.849   8.578  1.00  0.00     0.014 A 
ATOM     10  C   UNL     1      17.380   8.670   8.977  1.00  0.00     0.014 A 
ATOM     11  C   UNL     1      16.006  11.037   8.415  1.00  0.00     0.010 A 
ATOM     12  C   UNL     1      18.078   9.878   8.891  1.00  0.00     0.010 A 
ATOM     13  C   UNL     1      17.399  11.069   8.589  1.00  0.00    -0.014 A 
BRANCH  13  14
ATOM     14  C   UNL     1      18.105  12.376   8.557  1.00  0.00     0.031 A 
ATOM     15  C   UNL     1      19.123  12.698   7.500  1.00  0.00     0.074 A 
ATOM     16  C   UNL     1      17.815  13.277   9.517  1.00  0.00     0.049 A 
ATOM     17  N   UNL     1      19.798  13.805   7.326  1.00  0.00    -0.248 NA
ATOM     18  C   UNL     1      19.433  11.649   6.515  1.00  0.00     0.031 C 
ATOM     19  C   UNL     1      16.885  13.051  10.628  1.00  0.00     0.029 A 
ATOM     20  N   UNL     1      18.271  14.553   9.723  1.00  0.00    -0.354 N 
ATOM     21  C   UNL     1      20.638  13.578   6.242  1.00  0.00     0.074 A 
ATOM     22  C   UNL     1      20.389  12.224   5.795  1.00  0.00     0.031 C 
ATOM     23  C   UNL     1      16.826  14.154  11.386  1.00  0.00     0.029 A 
ATOM     24  C   UNL     1      17.746  15.148  10.847  1.00  0.00     0.049 A 
ATOM     25  H   UNL     1      18.912  15.001   9.125  1.00  0.00     0.167 HD
ATOM     26  C   UNL     1      21.524  14.427   5.668  1.00  0.00     0.034 A 
ATOM     27  C   UNL     1      17.989  16.354  11.396  1.00  0.00     0.034 A 
ATOM     28  C   UNL     1      21.737  15.786   6.094  1.00  0.00     0.049 A 
ATOM     29  C   UNL     1      18.953  17.280  10.713  1.00  0.00     0.074 A 
ATOM     30  C   UNL     1      22.549  16.748   5.519  1.00  0.00     0.029 A 
ATOM     31  N   UNL     1      21.147  16.373   7.202  1.00  0.00    -0.354 N 
ATOM     32  N   UNL     1      19.616  17.101   9.597  1.00  0.00    -0.248 NA
ATOM     33  C   UNL     1      19.181  18.585  11.348  1.00  0.00     0.031 C 
ATOM     34  C   UNL     1      22.466  17.911   6.292  1.00  0.00     0.029 A 
ATOM     35  C   UNL     1      21.588  17.679   7.338  1.00  0.00     0.049 A 
ATOM     36  H   UNL     1      20.508  15.927   7.804  1.00  0.00     0.167 HD
ATOM     37  C   UNL     1      20.326  18.275   9.385  1.00  0.00     0.074 A 
ATOM     38  C   UNL     1      19.983  19.172  10.470  1.00  0.00     0.031 C 
ATOM     39  C   UNL     1      21.201  18.576   8.395  1.00  0.00     0.034 A 
BRANCH  26  40
ATOM     40  C   UNL     1      22.310  13.941   4.478  1.00  0.00     0.023 A 
ATOM     41  C   UNL     1      21.681  13.857   3.220  1.00  0.00     0.012 A 
ATOM     42  C   UNL     1      23.691  13.680   4.580  1.00  0.00     0.148 A 
ATOM     43  C   UNL     1      22.410  13.509   2.083  1.00  0.00     0.002 A 
ATOM     44  C   UNL     1      24.419  13.367   3.437  1.00  0.00     0.091 A 
ATOM     45  F   UNL     1      24.266  13.749   5.789  1.00  0.00    -0.205 F 
ATOM     46  C   UNL     1      23.779  13.276   2.190  1.00  0.00     0.022 A 
BRANCH  44  47
ATOM     47  S   UNL     1      26.199  13.121   3.454  1.00  0.00     0.127 S 
ATOM     48  O   UNL     1      26.299  11.688   3.182  1.00  0.00    -0.237 OA
ATOM     49  O   UNL     1      26.639  13.982   2.356  1.00  0.00    -0.237 OA
ATOM     50  O   UNL     1      26.651  13.538   4.774  1.00  0.00    -0.744 OA
ENDBRANCH  44  47
ENDBRANCH  26  40
BRANCH  27  51
ATOM     51  C   UNL     1      17.275  16.759  12.638  1.00  0.00     0.023 A 
ATOM     52  C   UNL     1      16.312  17.784  12.583  1.00  0.00     0.012 A 
ATOM     53  C   UNL     1      17.514  16.107  13.863  1.00  0.00     0.148 A 
ATOM     54  C   UNL     1      15.620  18.171  13.731  1.00  0.00     0.002 A 
ATOM     55  C   UNL     1      16.777  16.455  14.989  1.00  0.00     0.091 A 
ATOM     56  F   UNL     1      18.450  15.148  13.904  1.00  0.00    -0.205 F 
ATOM     57  C   UNL     1      15.842  17.499  14.930  1.00  0.00     0.022 A 
BRANCH  55  58
ATOM     58  S   UNL     1      16.905  15.527  16.521  1.00  0.00     0.127 S 
ATOM     59  O   UNL     1      17.813  16.362  17.303  1.00  0.00    -0.237 OA
ATOM     60  O   UNL     1      15.520  15.513  16.993  1.00  0.00    -0.237 OA
ATOM     61  O   UNL     1      17.411  14.217  16.130  1.00  0.00    -0.744 OA
ENDBRANCH  55  58
ENDBRANCH  27  51
BRANCH  39  62
ATOM     62  C   UNL     1      21.841  19.937   8.431  1.00  0.00     0.023 A 
ATOM     63  C   UNL     1      22.842  20.208   9.386  1.00  0.00     0.012 A 
ATOM     64  C   UNL     1      21.497  20.924   7.489  1.00  0.00     0.148 A 
ATOM     65  C   UNL     1      23.467  21.453   9.422  1.00  0.00     0.002 A 
ATOM     66  C   UNL     1      22.156  22.148   7.502  1.00  0.00     0.091 A 
ATOM     67  F   UNL     1      20.527  20.654   6.603  1.00  0.00    -0.205 F 
ATOM     68  C   UNL     1      23.133  22.418   8.475  1.00  0.00     0.022 A 
BRANCH  66  69
ATOM     69  S   UNL     1      21.851  23.413   6.265  1.00  0.00     0.127 S 
ATOM     70  O   UNL     1      21.044  24.375   7.014  1.00  0.00    -0.237 OA
ATOM     71  O   UNL     1      23.204  23.871   5.944  1.00  0.00    -0.237 OA
ATOM     72  O   UNL     1      21.169  22.740   5.167  1.00  0.00    -0.744 OA
ENDBRANCH  66  69
ENDBRANCH  39  62
ENDBRANCH  13  14
ENDBRANCH   6   8
ENDBRANCH   3   4
ENDBRANCH   2   3
ENDBRANCH   1   2
BRANCH   1  73
ATOM     73  C   UNL     1      11.387   6.481   5.593  1.00  0.00     0.002 C 
BRANCH  73  74
ATOM     74  C   UNL     1      11.007   7.522   4.529  1.00  0.00     0.021 C 
BRANCH  74  75
ATOM     75  C   UNL     1      11.158   7.043   3.085  1.00  0.00     0.116 C 
BRANCH  75  76
ATOM     76  N   UNL     1      10.361   5.856   2.844  1.00  0.00    -0.353 N 
ATOM     77  C   UNL     1       9.261   5.665   2.056  1.00  0.00     0.265 C 
ATOM     78  H   UNL     1      10.663   5.054   3.328  1.00  0.00     0.163 HD
ATOM     79  O   UNL     1       8.753   4.539   2.095  1.00  0.00    -0.271 OA
BRANCH  77  80
ATOM     80  C   UNL     1       8.739   6.783   1.143  1.00  0.00     0.319 C 
ATOM     81  F   UNL     1       7.377   6.788   1.053  1.00  0.00    -0.224 F 
BRANCH  80  82
ATOM     82  S   UNL     1       9.467   6.574  -0.520  1.00  0.00    -0.061 SA
BRANCH  82  83
ATOM     83  C   UNL     1       8.563   5.232  -1.137  1.00  0.00     0.076 A 
ATOM     84  C   UNL     1       7.459   5.176  -1.952  1.00  0.00     0.043 A 
ATOM     85  N   UNL     1       8.936   3.955  -0.828  1.00  0.00    -0.350 N 
ATOM     86  C   UNL     1       7.147   3.800  -2.149  1.00  0.00     0.001 A 
ATOM     87  C   UNL     1       8.094   3.055  -1.442  1.00  0.00     0.046 A 
ATOM     88  H   UNL     1       9.696   3.713  -0.251  1.00  0.00     0.167 HD
ATOM     89  C   UNL     1       6.145   3.114  -2.862  1.00  0.00     0.010 A 
ATOM     90  C   UNL     1       8.091   1.655  -1.416  1.00  0.00     0.027 A 
ATOM     91  C   UNL     1       6.129   1.714  -2.849  1.00  0.00     0.001 A 
ATOM     92  C   UNL     1       7.091   0.998  -2.138  1.00  0.00     0.002 A 
ENDBRANCH  82  83
ENDBRANCH  80  82
ENDBRANCH  77  80
ENDBRANCH  75  76
ENDBRANCH  74  75
ENDBRANCH  73  74
ENDBRANCH   1  73
TORSDOF 18
