REMARK SMILES O=C(NCCCCCCNC(=O)[C@H]1[C@H]2CC[C@H](CC2)[C@@H]1C(=O)Nc1sc2c(c1C(=O)N1CCCCC1)CCCC2)c1ccc(-c2c3nc(c(-c4cccc(S(=O)(=O)[O-])c4F)c4ccc([nH]4)c(-c4cccc(S(=O)(=O)[O-])c4F)c4nc(c(-c5cccc(S(=O)(=O)[O-])c5F)c5ccc2[nH]5)C=C4)C=C3)cc1
REMARK SMILES IDX 6 1 5 2 4 3 3 4 1 5 2 6 41 8 42 9 103 10 43 11 102 12 44 13
REMARK SMILES IDX 45 14 46 15 96 16 47 17 101 18 95 19 97 20 48 21 100 22
REMARK SMILES IDX 94 23 93 24 49 26 81 27 61 28 80 29 62 30 65 31 79 32 98 33
REMARK SMILES IDX 63 34 64 35 78 37 99 38 66 39 50 40 51 41 59 42 52 43 54 44
REMARK SMILES IDX 60 45 53 46 55 47 56 48 57 49 58 50 82 51 83 52 91 53 84 54
REMARK SMILES IDX 86 55 92 56 85 57 87 58 88 59 89 60 90 61 67 62 68 63 76 64
REMARK SMILES IDX 69 65 71 66 77 67 70 68 72 69 73 70 74 71 75 72 7 73 8 74
REMARK SMILES IDX 9 75 10 76 11 77 12 79 13 80 14 81 20 82 15 83 19 84 17 85
REMARK SMILES IDX 16 86 18 87 21 88 22 89 23 90 24 92 25 93 28 94 26 95 27 96
REMARK SMILES IDX 40 97 37 98 39 99 38 100 29 101 30 102 31 103 32 104 36 105
REMARK SMILES IDX 33 106 35 107 34 108
REMARK H PARENT 3 7 97 25 65 36 10 78 23 91
REMARK Flexibility Score: inf
ROOT
ATOM      1  C   UNL     1       3.678   1.238  -3.700  1.00  0.00     0.002 C 
ENDROOT
BRANCH   1   2
ATOM      2  C   UNL     1       4.275   0.201  -2.749  1.00  0.00     0.021 C 
BRANCH   2   3
ATOM      3  C   UNL     1       4.163   0.539  -1.268  1.00  0.00     0.116 C 
BRANCH   3   4
ATOM      4  N   UNL     1       2.787   0.595  -0.808  1.00  0.00    -0.352 N 
ATOM      5  O   UNL     1       0.962  -0.062   0.342  1.00  0.00    -0.269 OA
ATOM      6  C   UNL     1       2.181  -0.117   0.200  1.00  0.00     0.251 C 
ATOM      7  H   UNL     1       2.206   1.231  -1.285  1.00  0.00     0.163 HD
BRANCH   6   8
ATOM      8  C   UNL     1       3.003  -0.964   1.093  1.00  0.00     0.039 A 
ATOM      9  C   UNL     1       4.205  -0.481   1.613  1.00  0.00     0.014 A 
ATOM     10  C   UNL     1       2.570  -2.255   1.409  1.00  0.00     0.014 A 
ATOM     11  C   UNL     1       5.042  -1.335   2.320  1.00  0.00     0.010 A 
ATOM     12  C   UNL     1       3.370  -3.081   2.207  1.00  0.00     0.010 A 
ATOM     13  C   UNL     1       4.627  -2.638   2.645  1.00  0.00    -0.014 A 
BRANCH  13  14
ATOM     14  C   UNL     1       5.494  -3.459   3.529  1.00  0.00     0.031 A 
ATOM     15  C   UNL     1       6.116  -4.746   3.063  1.00  0.00     0.074 A 
ATOM     16  C   UNL     1       5.745  -2.997   4.771  1.00  0.00     0.049 A 
ATOM     17  N   UNL     1       6.968  -5.516   3.691  1.00  0.00    -0.248 NA
ATOM     18  C   UNL     1       5.735  -5.240   1.730  1.00  0.00     0.031 C 
ATOM     19  C   UNL     1       5.142  -1.795   5.354  1.00  0.00     0.029 A 
ATOM     20  N   UNL     1       6.575  -3.462   5.758  1.00  0.00    -0.354 N 
ATOM     21  C   UNL     1       7.203  -6.598   2.850  1.00  0.00     0.074 A 
ATOM     22  C   UNL     1       6.394  -6.391   1.667  1.00  0.00     0.031 C 
ATOM     23  C   UNL     1       5.653  -1.593   6.576  1.00  0.00     0.029 A 
ATOM     24  C   UNL     1       6.579  -2.675   6.886  1.00  0.00     0.049 A 
ATOM     25  H   UNL     1       7.116  -4.280   5.668  1.00  0.00     0.167 HD
ATOM     26  C   UNL     1       8.031  -7.654   3.040  1.00  0.00     0.034 A 
ATOM     27  C   UNL     1       7.246  -2.809   8.047  1.00  0.00     0.034 A 
ATOM     28  C   UNL     1       8.849  -7.840   4.211  1.00  0.00     0.049 A 
ATOM     29  C   UNL     1       8.196  -3.959   8.203  1.00  0.00     0.074 A 
ATOM     30  C   UNL     1       9.748  -8.859   4.481  1.00  0.00     0.029 A 
ATOM     31  N   UNL     1       8.868  -6.994   5.310  1.00  0.00    -0.354 N 
ATOM     32  N   UNL     1       8.498  -4.899   7.341  1.00  0.00    -0.248 NA
ATOM     33  C   UNL     1       8.920  -4.051   9.477  1.00  0.00     0.031 C 
ATOM     34  C   UNL     1      10.303  -8.632   5.745  1.00  0.00     0.029 A 
ATOM     35  C   UNL     1       9.764  -7.463   6.257  1.00  0.00     0.049 A 
ATOM     36  H   UNL     1       8.324  -6.179   5.403  1.00  0.00     0.167 HD
ATOM     37  C   UNL     1       9.452  -5.692   7.965  1.00  0.00     0.074 A 
ATOM     38  C   UNL     1       9.713  -5.091   9.258  1.00  0.00     0.031 C 
ATOM     39  C   UNL     1      10.038  -6.831   7.522  1.00  0.00     0.034 A 
BRANCH  26  40
ATOM     40  C   UNL     1       8.143  -8.670   1.932  1.00  0.00     0.023 A 
ATOM     41  C   UNL     1       8.865  -8.341   0.767  1.00  0.00     0.012 A 
ATOM     42  C   UNL     1       7.617  -9.970   2.073  1.00  0.00     0.148 A 
ATOM     43  C   UNL     1       9.044  -9.279  -0.249  1.00  0.00     0.002 A 
ATOM     44  C   UNL     1       7.831 -10.912   1.072  1.00  0.00     0.091 A 
ATOM     45  F   UNL     1       6.918 -10.260   3.180  1.00  0.00    -0.205 F 
ATOM     46  C   UNL     1       8.537 -10.566  -0.092  1.00  0.00     0.022 A 
BRANCH  44  47
ATOM     47  S   UNL     1       7.284 -12.619   1.208  1.00  0.00     0.127 S 
ATOM     48  O   UNL     1       6.212 -12.663   0.215  1.00  0.00    -0.237 OA
ATOM     49  O   UNL     1       8.491 -13.358   0.836  1.00  0.00    -0.237 OA
ATOM     50  O   UNL     1       6.864 -12.796   2.591  1.00  0.00    -0.744 OA
ENDBRANCH  44  47
ENDBRANCH  26  40
BRANCH  27  51
ATOM     51  C   UNL     1       7.062  -1.796   9.123  1.00  0.00     0.023 A 
ATOM     52  C   UNL     1       8.117  -0.926   9.454  1.00  0.00     0.012 A 
ATOM     53  C   UNL     1       5.825  -1.655   9.781  1.00  0.00     0.148 A 
ATOM     54  C   UNL     1       7.950   0.051  10.436  1.00  0.00     0.002 A 
ATOM     55  C   UNL     1       5.645  -0.638  10.710  1.00  0.00     0.091 A 
ATOM     56  F   UNL     1       4.836  -2.507   9.471  1.00  0.00    -0.205 F 
ATOM     57  C   UNL     1       6.711   0.205  11.053  1.00  0.00     0.022 A 
BRANCH  55  58
ATOM     58  S   UNL     1       4.031  -0.284  11.414  1.00  0.00     0.127 S 
ATOM     59  O   UNL     1       4.117  -0.948  12.711  1.00  0.00    -0.237 OA
ATOM     60  O   UNL     1       4.031   1.179  11.469  1.00  0.00    -0.237 OA
ATOM     61  O   UNL     1       3.074  -0.840  10.467  1.00  0.00    -0.744 OA
ENDBRANCH  55  58
ENDBRANCH  27  51
BRANCH  39  62
ATOM     62  C   UNL     1      11.020  -7.497   8.447  1.00  0.00     0.023 A 
ATOM     63  C   UNL     1      10.549  -8.169   9.593  1.00  0.00     0.012 A 
ATOM     64  C   UNL     1      12.400  -7.486   8.169  1.00  0.00     0.148 A 
ATOM     65  C   UNL     1      11.439  -8.786  10.470  1.00  0.00     0.002 A 
ATOM     66  C   UNL     1      13.278  -8.142   9.024  1.00  0.00     0.091 A 
ATOM     67  F   UNL     1      12.832  -6.821   7.088  1.00  0.00    -0.205 F 
ATOM     68  C   UNL     1      12.802  -8.781  10.181  1.00  0.00     0.022 A 
BRANCH  66  69
ATOM     69  S   UNL     1      15.037  -8.254   8.679  1.00  0.00     0.127 S 
ATOM     70  O   UNL     1      15.582  -7.232   9.571  1.00  0.00    -0.237 OA
ATOM     71  O   UNL     1      15.347  -9.631   9.067  1.00  0.00    -0.237 OA
ATOM     72  O   UNL     1      15.177  -7.987   7.254  1.00  0.00    -0.744 OA
ENDBRANCH  66  69
ENDBRANCH  39  62
ENDBRANCH  13  14
ENDBRANCH   6   8
ENDBRANCH   3   4
ENDBRANCH   2   3
ENDBRANCH   1   2
BRANCH   1  73
ATOM     73  C   UNL     1       4.201   2.670  -3.541  1.00  0.00     0.002 C 
BRANCH  73  74
ATOM     74  C   UNL     1       5.720   2.823  -3.437  1.00  0.00     0.021 C 
BRANCH  74  75
ATOM     75  C   UNL     1       6.515   2.253  -4.609  1.00  0.00     0.116 C 
BRANCH  75  76
ATOM     76  N   UNL     1       6.630   3.191  -5.704  1.00  0.00    -0.356 N 
ATOM     77  C   UNL     1       7.676   3.760  -6.346  1.00  0.00     0.224 C 
ATOM     78  H   UNL     1       5.757   3.477  -6.059  1.00  0.00     0.163 HD
ATOM     79  O   UNL     1       7.362   4.539  -7.258  1.00  0.00    -0.275 OA
BRANCH  77  80
ATOM     80  C   UNL     1       9.162   3.609  -5.984  1.00  0.00     0.094 C 
ATOM     81  C   UNL     1       9.613   4.694  -4.967  1.00  0.00     0.002 C 
ATOM     82  C   UNL     1       9.733   2.211  -5.596  1.00  0.00     0.094 C 
ATOM     83  C   UNL     1       9.186   4.332  -3.539  1.00  0.00     0.005 C 
ATOM     84  C   UNL     1      11.156   4.750  -4.992  1.00  0.00     0.005 C 
ATOM     85  C   UNL     1      10.599   2.398  -4.302  1.00  0.00     0.002 C 
ATOM     86  C   UNL     1       9.758   2.971  -3.148  1.00  0.00     0.005 C 
ATOM     87  C   UNL     1      11.739   3.394  -4.581  1.00  0.00     0.005 C 
BRANCH  82  88
ATOM     88  C   UNL     1      10.555   1.579  -6.753  1.00  0.00     0.229 C 
ATOM     89  O   UNL     1      10.619   2.116  -7.864  1.00  0.00    -0.274 OA
ATOM     90  N   UNL     1      11.294   0.438  -6.575  1.00  0.00    -0.317 N 
ATOM     91  H   UNL     1      11.904   0.208  -7.313  1.00  0.00     0.170 HD
BRANCH  90  92
ATOM     92  C   UNL     1      11.302  -0.432  -5.505  1.00  0.00     0.108 A 
ATOM     93  S   UNL     1       9.817  -1.002  -4.916  1.00  0.00    -0.122 S 
ATOM     94  C   UNL     1      12.411  -0.970  -4.856  1.00  0.00     0.078 A 
ATOM     95  C   UNL     1      10.573  -1.691  -3.570  1.00  0.00     0.011 A 
ATOM     96  C   UNL     1      11.956  -1.693  -3.673  1.00  0.00    -0.019 A 
ATOM     97  C   UNL     1       9.775  -2.228  -2.421  1.00  0.00     0.047 C 
ATOM     98  C   UNL     1      12.787  -2.301  -2.579  1.00  0.00     0.037 C 
ATOM     99  C   UNL     1      10.664  -2.348  -1.179  1.00  0.00     0.006 C 
ATOM    100  C   UNL     1      11.970  -3.061  -1.523  1.00  0.00     0.005 C 
BRANCH  94 101
ATOM    101  C   UNL     1      13.777  -0.608  -5.299  1.00  0.00     0.257 C 
ATOM    102  O   UNL     1      13.971   0.031  -6.336  1.00  0.00    -0.269 OA
ATOM    103  N   UNL     1      14.833  -0.880  -4.434  1.00  0.00    -0.339 N 
ATOM    104  C   UNL     1      15.756   0.216  -4.174  1.00  0.00     0.120 C 
ATOM    105  C   UNL     1      15.478  -2.185  -4.512  1.00  0.00     0.120 C 
ATOM    106  C   UNL     1      16.481  -0.004  -2.853  1.00  0.00     0.022 C 
ATOM    107  C   UNL     1      16.252  -2.496  -3.229  1.00  0.00     0.022 C 
ATOM    108  C   UNL     1      17.193  -1.357  -2.834  1.00  0.00     0.004 C 
ENDBRANCH  94 101
ENDBRANCH  90  92
ENDBRANCH  82  88
ENDBRANCH  77  80
ENDBRANCH  75  76
ENDBRANCH  74  75
ENDBRANCH  73  74
ENDBRANCH   1  73
TORSDOF 19
