REMARK SMILES CCC(CC)(NC(=O)NC1CCC(C)(C)CC1)C(=O)NCCCCCCNC(=O)c1ccc(-c2c3nc(c(-c4cccc(S(=O)(=O)[O-])c4F)c4ccc([nH]4)c(-c4cccc(S(=O)(=O)[O-])c4F)c4nc(c(-c5cccc(S(=O)(=O)[O-])c5F)c5ccc2[nH]5)C=C4)C=C3)cc1
REMARK SMILES IDX 24 1 23 2 22 3 21 4 20 5 18 6 19 7 3 9 2 10 1 11 4 12 5 13
REMARK SMILES IDX 6 14 7 15 8 17 9 18 10 20 11 21 17 22 12 23 16 24 13 25
REMARK SMILES IDX 14 26 15 27 25 28 26 29 27 30 28 31 29 33 30 34 31 35 92 36
REMARK SMILES IDX 32 37 91 38 33 39 34 40 35 41 85 42 36 43 90 44 84 45 86 46
REMARK SMILES IDX 37 47 89 48 83 49 82 50 38 52 70 53 50 54 69 55 51 56 54 57
REMARK SMILES IDX 68 58 87 59 52 60 53 61 67 63 88 64 55 65 39 66 40 67 48 68
REMARK SMILES IDX 41 69 43 70 49 71 42 72 44 73 45 74 46 75 47 76 71 77 72 78
REMARK SMILES IDX 80 79 73 80 75 81 81 82 74 83 76 84 77 85 78 86 79 87 56 88
REMARK SMILES IDX 57 89 65 90 58 91 60 92 66 93 59 94 61 95 62 96 63 97 64 98
REMARK H PARENT 20 8 6 16 9 19 27 32 86 51 54 62
REMARK Flexibility Score: inf
ROOT
ATOM      1  C   UNL     1       4.431  -4.046   5.584  1.00  0.00     0.002 C 
ENDROOT
BRANCH   1   2
ATOM      2  C   UNL     1       3.753  -4.991   4.600  1.00  0.00     0.002 C 
BRANCH   2   3
ATOM      3  C   UNL     1       2.249  -4.840   4.365  1.00  0.00     0.021 C 
BRANCH   3   4
ATOM      4  C   UNL     1       1.543  -3.473   4.405  1.00  0.00     0.116 C 
BRANCH   4   5
ATOM      5  N   UNL     1       2.024  -2.353   3.592  1.00  0.00    -0.354 N 
ATOM      6  C   UNL     1       1.504  -1.647   2.522  1.00  0.00     0.245 C 
ATOM      7  O   UNL     1       1.852  -0.478   2.337  1.00  0.00    -0.272 OA
ATOM      8  H   UNL     1       2.912  -2.031   3.869  1.00  0.00     0.163 HD
BRANCH   6   9
ATOM      9  C   UNL     1       0.372  -2.186   1.679  1.00  0.00     0.120 C 
BRANCH   9  10
ATOM     10  C   UNL     1       0.090  -1.626   0.257  1.00  0.00     0.035 C 
ATOM     11  C   UNL     1       0.180  -0.128   0.027  1.00  0.00     0.007 C 
ENDBRANCH   9  10
BRANCH   9  12
ATOM     12  C   UNL     1      -0.826  -1.885   2.665  1.00  0.00     0.035 C 
ATOM     13  C   UNL     1      -2.256  -1.683   2.193  1.00  0.00     0.007 C 
ENDBRANCH   9  12
BRANCH   9  14
ATOM     14  N   UNL     1       0.879  -3.545   1.492  1.00  0.00    -0.324 N 
ATOM     15  C   UNL     1       2.068  -3.960   1.001  1.00  0.00     0.315 C 
ATOM     16  H   UNL     1       0.263  -4.264   1.763  1.00  0.00     0.166 HD
ATOM     17  O   UNL     1       2.071  -5.111   0.539  1.00  0.00    -0.249 OA
ATOM     18  N   UNL     1       3.261  -3.343   0.966  1.00  0.00    -0.335 N 
ATOM     19  H   UNL     1       3.811  -3.976   0.450  1.00  0.00     0.165 HD
BRANCH  18  20
ATOM     20  C   UNL     1       4.263  -2.207   1.273  1.00  0.00     0.083 C 
ATOM     21  C   UNL     1       4.162  -0.791   0.702  1.00  0.00     0.025 C 
ATOM     22  C   UNL     1       5.145  -2.260   2.530  1.00  0.00     0.025 C 
ATOM     23  C   UNL     1       4.292   0.437   1.644  1.00  0.00     0.008 C 
ATOM     24  C   UNL     1       5.077  -1.141   3.572  1.00  0.00     0.008 C 
ATOM     25  C   UNL     1       4.705   0.284   3.138  1.00  0.00    -0.035 C 
ATOM     26  C   UNL     1       3.618   0.857   4.107  1.00  0.00     0.011 C 
ATOM     27  C   UNL     1       5.928   1.190   3.423  1.00  0.00     0.011 C 
ENDBRANCH  18  20
ENDBRANCH   9  14
ENDBRANCH   6   9
ENDBRANCH   4   5
ENDBRANCH   3   4
ENDBRANCH   2   3
ENDBRANCH   1   2
BRANCH   1  28
ATOM     28  C   UNL     1       4.024  -4.142   7.043  1.00  0.00     0.021 C 
BRANCH  28  29
ATOM     29  C   UNL     1       4.347  -5.469   7.693  1.00  0.00     0.116 C 
BRANCH  29  30
ATOM     30  N   UNL     1       5.776  -5.748   7.774  1.00  0.00    -0.352 N 
ATOM     31  C   UNL     1       6.436  -6.409   8.786  1.00  0.00     0.251 C 
ATOM     32  H   UNL     1       6.329  -5.428   7.025  1.00  0.00     0.163 HD
ATOM     33  O   UNL     1       7.660  -6.489   8.801  1.00  0.00    -0.269 OA
BRANCH  31  34
ATOM     34  C   UNL     1       5.625  -6.986   9.877  1.00  0.00     0.039 A 
ATOM     35  C   UNL     1       5.926  -6.665  11.201  1.00  0.00     0.014 A 
ATOM     36  C   UNL     1       4.496  -7.748   9.566  1.00  0.00     0.014 A 
ATOM     37  C   UNL     1       5.052  -7.063  12.214  1.00  0.00     0.010 A 
ATOM     38  C   UNL     1       3.573  -8.039  10.559  1.00  0.00     0.010 A 
ATOM     39  C   UNL     1       3.853  -7.724  11.896  1.00  0.00    -0.014 A 
BRANCH  39  40
ATOM     40  C   UNL     1       2.893  -8.138  12.947  1.00  0.00     0.031 A 
ATOM     41  C   UNL     1       2.570  -9.600  13.117  1.00  0.00     0.074 A 
ATOM     42  C   UNL     1       2.260  -7.207  13.687  1.00  0.00     0.049 A 
ATOM     43  N   UNL     1       1.723 -10.168  13.933  1.00  0.00    -0.248 NA
ATOM     44  C   UNL     1       3.263 -10.547  12.223  1.00  0.00     0.031 C 
ATOM     45  C   UNL     1       2.419  -5.757  13.547  1.00  0.00     0.029 A 
ATOM     46  N   UNL     1       1.336  -7.342  14.692  1.00  0.00    -0.354 N 
ATOM     47  C   UNL     1       1.760 -11.525  13.632  1.00  0.00     0.074 A 
ATOM     48  C   UNL     1       2.662 -11.689  12.516  1.00  0.00     0.031 C 
ATOM     49  C   UNL     1       1.630  -5.138  14.441  1.00  0.00     0.029 A 
ATOM     50  C   UNL     1       0.891  -6.143  15.199  1.00  0.00     0.049 A 
ATOM     51  H   UNL     1       1.021  -8.215  15.021  1.00  0.00     0.167 HD
ATOM     52  C   UNL     1       1.139 -12.551  14.258  1.00  0.00     0.034 A 
ATOM     53  C   UNL     1      -0.011  -5.887  16.166  1.00  0.00     0.034 A 
ATOM     54  C   UNL     1       0.282 -12.385  15.398  1.00  0.00     0.049 A 
ATOM     55  C   UNL     1      -0.649  -7.048  16.882  1.00  0.00     0.074 A 
ATOM     56  C   UNL     1      -0.347 -13.357  16.152  1.00  0.00     0.029 A 
ATOM     57  N   UNL     1      -0.063 -11.161  15.950  1.00  0.00    -0.354 N 
ATOM     58  N   UNL     1      -0.486  -8.334  16.680  1.00  0.00    -0.248 NA
ATOM     59  C   UNL     1      -1.560  -6.727  17.990  1.00  0.00     0.031 C 
ATOM     60  C   UNL     1      -1.086 -12.719  17.154  1.00  0.00     0.029 A 
ATOM     61  C   UNL     1      -0.892 -11.351  17.040  1.00  0.00     0.049 A 
ATOM     62  H   UNL     1       0.239 -10.285  15.616  1.00  0.00     0.167 HD
ATOM     63  C   UNL     1      -1.238  -8.973  17.659  1.00  0.00     0.074 A 
ATOM     64  C   UNL     1      -1.838  -7.932  18.468  1.00  0.00     0.031 C 
ATOM     65  C   UNL     1      -1.428 -10.300  17.865  1.00  0.00     0.034 A 
BRANCH  52  66
ATOM     66  C   UNL     1       1.425 -13.945  13.761  1.00  0.00     0.023 A 
ATOM     67  C   UNL     1       2.707 -14.502  13.959  1.00  0.00     0.012 A 
ATOM     68  C   UNL     1       0.427 -14.717  13.139  1.00  0.00     0.148 A 
ATOM     69  C   UNL     1       3.003 -15.787  13.508  1.00  0.00     0.002 A 
ATOM     70  C   UNL     1       0.715 -16.017  12.737  1.00  0.00     0.091 A 
ATOM     71  F   UNL     1      -0.778 -14.165  12.939  1.00  0.00    -0.205 F 
ATOM     72  C   UNL     1       2.005 -16.547  12.908  1.00  0.00     0.022 A 
BRANCH  70  73
ATOM     73  S   UNL     1      -0.521 -17.111  12.028  1.00  0.00     0.127 S 
ATOM     74  O   UNL     1      -0.046 -17.238  10.650  1.00  0.00    -0.237 OA
ATOM     75  O   UNL     1      -0.364 -18.317  12.841  1.00  0.00    -0.237 OA
ATOM     76  O   UNL     1      -1.799 -16.431  12.186  1.00  0.00    -0.744 OA
ENDBRANCH  70  73
ENDBRANCH  52  66
BRANCH  53  77
ATOM     77  C   UNL     1      -0.313  -4.482  16.564  1.00  0.00     0.023 A 
ATOM     78  C   UNL     1       0.097  -4.013  17.828  1.00  0.00     0.012 A 
ATOM     79  C   UNL     1      -0.994  -3.606  15.697  1.00  0.00     0.148 A 
ATOM     80  C   UNL     1      -0.206  -2.714  18.239  1.00  0.00     0.002 A 
ATOM     81  C   UNL     1      -1.242  -2.295  16.090  1.00  0.00     0.091 A 
ATOM     82  F   UNL     1      -1.385  -4.071  14.502  1.00  0.00    -0.205 F 
ATOM     83  C   UNL     1      -0.867  -1.853  17.368  1.00  0.00     0.022 A 
BRANCH  81  84
ATOM     84  S   UNL     1      -1.969  -1.083  14.982  1.00  0.00     0.127 S 
ATOM     85  O   UNL     1      -3.314  -0.942  15.532  1.00  0.00    -0.237 OA
ATOM     86  O   UNL     1      -1.096   0.074  15.182  1.00  0.00    -0.237 OA
ATOM     87  O   UNL     1      -1.884  -1.671  13.651  1.00  0.00    -0.744 OA
ENDBRANCH  81  84
ENDBRANCH  53  77
BRANCH  65  88
ATOM     88  C   UNL     1      -2.276 -10.706  19.040  1.00  0.00     0.023 A 
ATOM     89  C   UNL     1      -3.669 -10.502  19.009  1.00  0.00     0.012 A 
ATOM     90  C   UNL     1      -1.694 -11.354  20.148  1.00  0.00     0.148 A 
ATOM     91  C   UNL     1      -4.466 -10.899  20.081  1.00  0.00     0.002 A 
ATOM     92  C   UNL     1      -2.502 -11.796  21.188  1.00  0.00     0.091 A 
ATOM     93  F   UNL     1      -0.364 -11.523  20.166  1.00  0.00    -0.205 F 
ATOM     94  C   UNL     1      -3.885 -11.556  21.164  1.00  0.00     0.022 A 
BRANCH  92  95
ATOM     95  S   UNL     1      -1.853 -12.740  22.571  1.00  0.00     0.127 S 
ATOM     96  O   UNL     1      -1.896 -11.754  23.650  1.00  0.00    -0.237 OA
ATOM     97  O   UNL     1      -2.830 -13.822  22.694  1.00  0.00    -0.237 OA
ATOM     98  O   UNL     1      -0.521 -13.173  22.171  1.00  0.00    -0.744 OA
ENDBRANCH  92  95
ENDBRANCH  65  88
ENDBRANCH  39  40
ENDBRANCH  31  34
ENDBRANCH  29  30
ENDBRANCH  28  29
ENDBRANCH   1  28
TORSDOF 20
