REMARK SMILES C[C@H](NC(=O)OCc1ccccc1)C(=O)NCC(=O)N1CCC[C@H]1C(=O)NCCCCCCNC(=O)c1ccc(-c2c3nc(c(-c4cccc(S(=O)(=O)[O-])c4F)c4ccc([nH]4)c(-c4cccc(S(=O)(=O)[O-])c4F)c4nc(c(-c5cccc(S(=O)(=O)[O-])c5F)c5ccc2[nH]5)C=C4)C=C3)cc1
REMARK SMILES IDX 28 1 27 2 25 3 26 4 24 6 20 7 21 8 22 9 23 10 18 11 19 12
REMARK SMILES IDX 17 13 16 14 14 15 15 16 2 18 1 19 3 20 4 21 5 23 6 24 7 25
REMARK SMILES IDX 8 26 9 27 13 28 10 29 12 30 11 31 29 32 30 33 31 34 32 35
REMARK SMILES IDX 33 36 34 37 35 38 36 40 37 41 38 42 99 43 39 44 98 45 40 46
REMARK SMILES IDX 41 47 42 48 92 49 43 50 97 51 91 52 93 53 44 54 96 55 90 56
REMARK SMILES IDX 89 57 45 59 77 60 57 61 76 62 58 63 61 64 75 65 94 66 59 67
REMARK SMILES IDX 60 68 74 70 95 71 62 72 46 73 47 74 55 75 48 76 50 77 56 78
REMARK SMILES IDX 49 79 51 80 52 81 53 82 54 83 78 84 79 85 87 86 80 87 82 88
REMARK SMILES IDX 88 89 81 90 83 91 84 92 85 93 86 94 63 95 64 96 72 97 65 98
REMARK SMILES IDX 67 99 73 100 66 101 68 102 69 103 70 104 71 105
REMARK H PARENT 27 5 16 17 3 22 34 39 93 58 61 69
REMARK Flexibility Score: inf
ROOT
ATOM      1  C   UNL     1      -3.364   2.040  -3.896  1.00  0.00     0.116 C 
ENDROOT
BRANCH   1   2
ATOM      2  N   UNL     1      -2.708   1.278  -4.929  1.00  0.00    -0.354 N 
ATOM      3  C   UNL     1      -1.512   0.646  -4.959  1.00  0.00     0.242 C 
ATOM      4  O   UNL     1      -1.129   0.295  -6.086  1.00  0.00    -0.273 OA
ATOM      5  H   UNL     1      -3.224   1.204  -5.764  1.00  0.00     0.163 HD
BRANCH   3   6
ATOM      6  C   UNL     1      -0.614   0.371  -3.721  1.00  0.00     0.174 C 
ATOM      7  N   UNL     1      -1.112   0.516  -2.342  1.00  0.00    -0.329 N 
ATOM      8  C   UNL     1      -1.460  -0.787  -1.815  1.00  0.00     0.120 C 
ATOM      9  C   UNL     1      -0.431  -1.708  -2.438  1.00  0.00     0.024 C 
ATOM     10  C   UNL     1      -0.193  -1.115  -3.817  1.00  0.00     0.037 C 
BRANCH   7  11
ATOM     11  C   UNL     1      -1.032   1.736  -1.712  1.00  0.00     0.242 C 
ATOM     12  O   UNL     1      -0.747   2.743  -2.376  1.00  0.00    -0.273 OA
BRANCH  11  13
ATOM     13  C   UNL     1      -1.400   1.968  -0.230  1.00  0.00     0.216 C 
BRANCH  13  14
ATOM     14  N   UNL     1      -1.638   0.894   0.704  1.00  0.00    -0.345 N 
ATOM     15  C   UNL     1      -0.787   0.195   1.498  1.00  0.00     0.242 C 
ATOM     16  O   UNL     1      -1.300  -0.641   2.250  1.00  0.00    -0.273 OA
ATOM     17  H   UNL     1      -2.581   0.622   0.778  1.00  0.00     0.164 HD
BRANCH  15  18
ATOM     18  C   UNL     1       0.742   0.405   1.514  1.00  0.00     0.171 C 
ATOM     19  C   UNL     1       1.154   1.624   2.324  1.00  0.00     0.042 C 
BRANCH  18  20
ATOM     20  N   UNL     1       1.383   0.212   0.215  1.00  0.00    -0.310 N 
ATOM     21  C   UNL     1       1.843   1.085  -0.719  1.00  0.00     0.408 C 
ATOM     22  H   UNL     1       1.504  -0.734  -0.031  1.00  0.00     0.167 HD
ATOM     23  O   UNL     1       2.187   0.675  -1.819  1.00  0.00    -0.225 OA
BRANCH  21  24
ATOM     24  O   UNL     1       1.828   2.374  -0.321  1.00  0.00    -0.445 OA
BRANCH  24  25
ATOM     25  C   UNL     1       2.071   3.350  -1.346  1.00  0.00     0.270 C 
BRANCH  25  26
ATOM     26  C   UNL     1       3.511   3.463  -1.761  1.00  0.00    -0.011 A 
ATOM     27  C   UNL     1       4.546   3.456  -0.821  1.00  0.00     0.007 A 
ATOM     28  C   UNL     1       3.819   3.604  -3.123  1.00  0.00     0.007 A 
ATOM     29  C   UNL     1       5.871   3.553  -1.243  1.00  0.00     0.000 A 
ATOM     30  C   UNL     1       5.142   3.703  -3.543  1.00  0.00     0.000 A 
ATOM     31  C   UNL     1       6.168   3.671  -2.602  1.00  0.00     0.000 A 
ENDBRANCH  25  26
ENDBRANCH  24  25
ENDBRANCH  21  24
ENDBRANCH  18  20
ENDBRANCH  15  18
ENDBRANCH  13  14
ENDBRANCH  11  13
ENDBRANCH   7  11
ENDBRANCH   3   6
ENDBRANCH   1   2
BRANCH   1  32
ATOM     32  C   UNL     1      -3.089   3.534  -4.074  1.00  0.00     0.021 C 
BRANCH  32  33
ATOM     33  C   UNL     1      -4.153   4.226  -4.929  1.00  0.00     0.002 C 
BRANCH  33  34
ATOM     34  C   UNL     1      -5.569   4.144  -4.343  1.00  0.00     0.002 C 
BRANCH  34  35
ATOM     35  C   UNL     1      -5.697   4.683  -2.915  1.00  0.00     0.021 C 
BRANCH  35  36
ATOM     36  C   UNL     1      -5.336   6.158  -2.782  1.00  0.00     0.116 C 
BRANCH  36  37
ATOM     37  N   UNL     1      -6.166   6.973  -3.656  1.00  0.00    -0.352 N 
ATOM     38  C   UNL     1      -7.091   7.928  -3.334  1.00  0.00     0.251 C 
ATOM     39  H   UNL     1      -6.043   6.814  -4.620  1.00  0.00     0.163 HD
ATOM     40  O   UNL     1      -7.935   8.262  -4.161  1.00  0.00    -0.269 OA
BRANCH  38  41
ATOM     41  C   UNL     1      -7.059   8.565  -2.002  1.00  0.00     0.039 A 
ATOM     42  C   UNL     1      -8.264   8.895  -1.380  1.00  0.00     0.014 A 
ATOM     43  C   UNL     1      -5.841   8.890  -1.396  1.00  0.00     0.014 A 
ATOM     44  C   UNL     1      -8.245   9.535  -0.141  1.00  0.00     0.010 A 
ATOM     45  C   UNL     1      -5.825   9.450  -0.123  1.00  0.00     0.010 A 
ATOM     46  C   UNL     1      -7.026   9.804   0.505  1.00  0.00    -0.014 A 
BRANCH  46  47
ATOM     47  C   UNL     1      -6.999  10.480   1.825  1.00  0.00     0.031 A 
ATOM     48  C   UNL     1      -6.350  11.831   1.971  1.00  0.00     0.074 A 
ATOM     49  C   UNL     1      -7.526   9.858   2.897  1.00  0.00     0.049 A 
ATOM     50  N   UNL     1      -6.225  12.572   3.041  1.00  0.00    -0.248 NA
ATOM     51  C   UNL     1      -5.742  12.420   0.764  1.00  0.00     0.031 C 
ATOM     52  C   UNL     1      -8.122   8.519   2.891  1.00  0.00     0.029 A 
ATOM     53  N   UNL     1      -7.638  10.263   4.202  1.00  0.00    -0.354 N 
ATOM     54  C   UNL     1      -5.515  13.700   2.643  1.00  0.00     0.074 A 
ATOM     55  C   UNL     1      -5.189  13.523   1.246  1.00  0.00     0.031 C 
ATOM     56  C   UNL     1      -8.553   8.223   4.128  1.00  0.00     0.029 A 
ATOM     57  C   UNL     1      -8.235   9.333   5.020  1.00  0.00     0.049 A 
ATOM     58  H   UNL     1      -7.319  11.138   4.524  1.00  0.00     0.167 HD
ATOM     59  C   UNL     1      -5.197  14.801   3.364  1.00  0.00     0.034 A 
ATOM     60  C   UNL     1      -8.493   9.371   6.342  1.00  0.00     0.034 A 
ATOM     61  C   UNL     1      -5.550  14.984   4.745  1.00  0.00     0.049 A 
ATOM     62  C   UNL     1      -8.127  10.609   7.116  1.00  0.00     0.074 A 
ATOM     63  C   UNL     1      -5.322  16.083   5.553  1.00  0.00     0.029 A 
ATOM     64  N   UNL     1      -6.204  14.043   5.526  1.00  0.00    -0.354 N 
ATOM     65  N   UNL     1      -7.581  11.721   6.688  1.00  0.00    -0.248 NA
ATOM     66  C   UNL     1      -8.448  10.612   8.550  1.00  0.00     0.031 C 
ATOM     67  C   UNL     1      -5.814  15.796   6.830  1.00  0.00     0.029 A 
ATOM     68  C   UNL     1      -6.383  14.533   6.807  1.00  0.00     0.049 A 
ATOM     69  H   UNL     1      -6.497  13.156   5.214  1.00  0.00     0.167 HD
ATOM     70  C   UNL     1      -7.535  12.570   7.787  1.00  0.00     0.074 A 
ATOM     71  C   UNL     1      -8.131  11.852   8.895  1.00  0.00     0.031 C 
ATOM     72  C   UNL     1      -7.032  13.826   7.880  1.00  0.00     0.034 A 
BRANCH  59  73
ATOM     73  C   UNL     1      -4.482  15.923   2.656  1.00  0.00     0.023 A 
ATOM     74  C   UNL     1      -5.177  16.693   1.700  1.00  0.00     0.012 A 
ATOM     75  C   UNL     1      -3.155  16.264   2.984  1.00  0.00     0.148 A 
ATOM     76  C   UNL     1      -4.555  17.764   1.060  1.00  0.00     0.002 A 
ATOM     77  C   UNL     1      -2.557  17.362   2.376  1.00  0.00     0.091 A 
ATOM     78  F   UNL     1      -2.505  15.511   3.883  1.00  0.00    -0.205 F 
ATOM     79  C   UNL     1      -3.251  18.105   1.406  1.00  0.00     0.022 A 
BRANCH  77  80
ATOM     80  S   UNL     1      -0.910  17.936   2.805  1.00  0.00     0.127 S 
ATOM     81  O   UNL     1      -0.177  17.684   1.565  1.00  0.00    -0.237 OA
ATOM     82  O   UNL     1      -1.146  19.349   3.098  1.00  0.00    -0.237 OA
ATOM     83  O   UNL     1      -0.488  17.137   3.947  1.00  0.00    -0.744 OA
ENDBRANCH  77  80
ENDBRANCH  59  73
BRANCH  60  84
ATOM     84  C   UNL     1      -9.175   8.229   7.014  1.00  0.00     0.023 A 
ATOM     85  C   UNL     1     -10.471   8.405   7.540  1.00  0.00     0.012 A 
ATOM     86  C   UNL     1      -8.545   6.978   7.153  1.00  0.00     0.148 A 
ATOM     87  C   UNL     1     -11.103   7.376   8.237  1.00  0.00     0.002 A 
ATOM     88  C   UNL     1      -9.205   5.937   7.796  1.00  0.00     0.091 A 
ATOM     89  F   UNL     1      -7.310   6.829   6.654  1.00  0.00    -0.205 F 
ATOM     90  C   UNL     1     -10.474   6.140   8.359  1.00  0.00     0.022 A 
BRANCH  88  91
ATOM     91  S   UNL     1      -8.522   4.279   7.884  1.00  0.00     0.127 S 
ATOM     92  O   UNL     1      -8.139   4.187   9.290  1.00  0.00    -0.237 OA
ATOM     93  O   UNL     1      -9.670   3.457   7.501  1.00  0.00    -0.237 OA
ATOM     94  O   UNL     1      -7.425   4.256   6.925  1.00  0.00    -0.744 OA
ENDBRANCH  88  91
ENDBRANCH  60  84
BRANCH  72  95
ATOM     95  C   UNL     1      -7.152  14.529   9.206  1.00  0.00     0.023 A 
ATOM     96  C   UNL     1      -6.369  14.112  10.301  1.00  0.00     0.012 A 
ATOM     97  C   UNL     1      -7.997  15.648   9.347  1.00  0.00     0.148 A 
ATOM     98  C   UNL     1      -6.456  14.771  11.526  1.00  0.00     0.002 A 
ATOM     99  C   UNL     1      -8.037  16.334  10.553  1.00  0.00     0.091 A 
ATOM    100  F   UNL     1      -8.746  16.019   8.297  1.00  0.00    -0.205 F 
ATOM    101  C   UNL     1      -7.279  15.888  11.648  1.00  0.00     0.022 A 
BRANCH  99 102
ATOM    102  S   UNL     1      -8.989  17.840  10.776  1.00  0.00     0.127 S 
ATOM    103  O   UNL     1     -10.048  17.392  11.678  1.00  0.00    -0.237 OA
ATOM    104  O   UNL     1      -8.007  18.738  11.385  1.00  0.00    -0.237 OA
ATOM    105  O   UNL     1      -9.431  18.239   9.446  1.00  0.00    -0.744 OA
ENDBRANCH  99 102
ENDBRANCH  72  95
ENDBRANCH  46  47
ENDBRANCH  38  41
ENDBRANCH  36  37
ENDBRANCH  35  36
ENDBRANCH  34  35
ENDBRANCH  33  34
ENDBRANCH  32  33
ENDBRANCH   1  32
TORSDOF 24
