REMARK SMILES O=C(NCCCCCCNC(=O)c1ccn(-c2cc(-c3ccncc3)nc(-c3ccccc3F)n2)n1)c1ccc(-c2c3nc(c(-c4cccc(S(=O)(=O)[O-])c4F)c4ccc([nH]4)c(-c4cccc(S(=O)(=O)[O-])c4F)c4nc(c(-c5cccc(S(=O)(=O)[O-])c5F)c5ccc2[nH]5)C=C4)C=C3)cc1
REMARK SMILES IDX 6 1 5 2 4 3 3 4 1 5 2 6 37 8 38 9 99 10 39 11 98 12 40 13
REMARK SMILES IDX 41 14 42 15 92 16 43 17 97 18 91 19 93 20 44 21 96 22 90 23
REMARK SMILES IDX 89 24 45 26 77 27 57 28 76 29 58 30 61 31 75 32 94 33 59 34
REMARK SMILES IDX 60 35 74 37 95 38 62 39 46 40 47 41 55 42 48 43 50 44 56 45
REMARK SMILES IDX 49 46 51 47 52 48 53 49 54 50 78 51 79 52 87 53 80 54 82 55
REMARK SMILES IDX 88 56 81 57 83 58 84 59 85 60 86 61 63 62 64 63 72 64 65 65
REMARK SMILES IDX 67 66 73 67 66 68 68 69 69 70 70 71 71 72 7 73 8 74 9 75
REMARK SMILES IDX 10 76 11 77 12 79 13 80 14 81 36 82 15 83 16 84 17 85 18 86
REMARK SMILES IDX 35 87 19 88 27 89 26 90 20 91 21 92 25 93 22 94 24 95 23 96
REMARK SMILES IDX 28 97 29 98 33 99 30 100 32 101 34 102 31 103
REMARK H PARENT 3 7 93 25 61 36 10 78
REMARK Flexibility Score: inf
ROOT
ATOM      1  C   UNL     1       4.342  -3.468  -0.503  1.00  0.00     0.002 C 
ENDROOT
BRANCH   1   2
ATOM      2  C   UNL     1       4.851  -2.244   0.265  1.00  0.00     0.021 C 
BRANCH   2   3
ATOM      3  C   UNL     1       4.696  -0.916  -0.476  1.00  0.00     0.116 C 
BRANCH   3   4
ATOM      4  N   UNL     1       3.334  -0.576  -0.821  1.00  0.00    -0.352 N 
ATOM      5  O   UNL     1       1.300   0.279  -0.817  1.00  0.00    -0.269 OA
ATOM      6  C   UNL     1       2.289  -0.014  -0.141  1.00  0.00     0.251 C 
ATOM      7  H   UNL     1       3.108  -0.800  -1.753  1.00  0.00     0.163 HD
BRANCH   6   8
ATOM      8  C   UNL     1       2.248   0.181   1.333  1.00  0.00     0.039 A 
ATOM      9  C   UNL     1       3.349   0.132   2.190  1.00  0.00     0.014 A 
ATOM     10  C   UNL     1       0.973   0.401   1.886  1.00  0.00     0.014 A 
ATOM     11  C   UNL     1       3.176   0.194   3.567  1.00  0.00     0.010 A 
ATOM     12  C   UNL     1       0.794   0.486   3.260  1.00  0.00     0.010 A 
ATOM     13  C   UNL     1       1.896   0.347   4.099  1.00  0.00    -0.014 A 
BRANCH  13  14
ATOM     14  C   UNL     1       1.779   0.582   5.535  1.00  0.00     0.031 A 
ATOM     15  C   UNL     1       2.348   1.890   5.972  1.00  0.00     0.074 A 
ATOM     16  C   UNL     1       1.077  -0.225   6.356  1.00  0.00     0.049 A 
ATOM     17  N   UNL     1       3.288   2.113   6.835  1.00  0.00    -0.248 NA
ATOM     18  C   UNL     1       1.899   3.096   5.252  1.00  0.00     0.031 C 
ATOM     19  C   UNL     1       0.238  -1.360   5.964  1.00  0.00     0.029 A 
ATOM     20  N   UNL     1       0.833  -0.108   7.696  1.00  0.00    -0.354 N 
ATOM     21  C   UNL     1       3.366   3.502   6.936  1.00  0.00     0.074 A 
ATOM     22  C   UNL     1       2.645   4.044   5.817  1.00  0.00     0.031 C 
ATOM     23  C   UNL     1      -0.609  -1.654   6.974  1.00  0.00     0.029 A 
ATOM     24  C   UNL     1      -0.297  -0.812   8.115  1.00  0.00     0.049 A 
ATOM     25  H   UNL     1       1.399   0.420   8.305  1.00  0.00     0.167 HD
ATOM     26  C   UNL     1       3.768   4.117   8.081  1.00  0.00     0.034 A 
ATOM     27  C   UNL     1      -0.986  -0.632   9.271  1.00  0.00     0.034 A 
ATOM     28  C   UNL     1       4.511   3.241   8.939  1.00  0.00     0.049 A 
ATOM     29  C   UNL     1      -0.102   0.094  10.207  1.00  0.00     0.074 A 
ATOM     30  C   UNL     1       5.655   2.483   8.806  1.00  0.00     0.029 A 
ATOM     31  N   UNL     1       3.866   2.769  10.054  1.00  0.00    -0.354 N 
ATOM     32  N   UNL     1       0.977  -0.409  10.735  1.00  0.00    -0.248 NA
ATOM     33  C   UNL     1      -0.219   1.541  10.269  1.00  0.00     0.031 C 
ATOM     34  C   UNL     1       5.397   1.300   9.555  1.00  0.00     0.029 A 
ATOM     35  C   UNL     1       4.139   1.433  10.148  1.00  0.00     0.049 A 
ATOM     36  H   UNL     1       3.309   3.296  10.672  1.00  0.00     0.167 HD
ATOM     37  C   UNL     1       1.863   0.657  10.775  1.00  0.00     0.074 A 
ATOM     38  C   UNL     1       1.039   1.847  10.589  1.00  0.00     0.031 C 
ATOM     39  C   UNL     1       3.207   0.455  10.660  1.00  0.00     0.034 A 
BRANCH  26  40
ATOM     40  C   UNL     1       3.158   5.402   8.584  1.00  0.00     0.023 A 
ATOM     41  C   UNL     1       3.803   6.082   9.639  1.00  0.00     0.012 A 
ATOM     42  C   UNL     1       1.854   5.833   8.247  1.00  0.00     0.148 A 
ATOM     43  C   UNL     1       3.176   7.130  10.323  1.00  0.00     0.002 A 
ATOM     44  C   UNL     1       1.281   6.941   8.853  1.00  0.00     0.091 A 
ATOM     45  F   UNL     1       1.093   5.086   7.439  1.00  0.00    -0.205 F 
ATOM     46  C   UNL     1       1.924   7.576   9.915  1.00  0.00     0.022 A 
BRANCH  44  47
ATOM     47  S   UNL     1      -0.288   7.604   8.286  1.00  0.00     0.127 S 
ATOM     48  O   UNL     1      -1.192   7.172   9.347  1.00  0.00    -0.237 OA
ATOM     49  O   UNL     1      -0.009   9.041   8.254  1.00  0.00    -0.237 OA
ATOM     50  O   UNL     1      -0.502   7.013   6.971  1.00  0.00    -0.744 OA
ENDBRANCH  44  47
ENDBRANCH  26  40
BRANCH  27  51
ATOM     51  C   UNL     1      -2.442  -0.757   9.546  1.00  0.00     0.023 A 
ATOM     52  C   UNL     1      -2.888  -0.809  10.885  1.00  0.00     0.012 A 
ATOM     53  C   UNL     1      -3.401  -0.515   8.539  1.00  0.00     0.148 A 
ATOM     54  C   UNL     1      -4.230  -0.576  11.212  1.00  0.00     0.002 A 
ATOM     55  C   UNL     1      -4.735  -0.291   8.868  1.00  0.00     0.091 A 
ATOM     56  F   UNL     1      -2.994  -0.405   7.269  1.00  0.00    -0.205 F 
ATOM     57  C   UNL     1      -5.151  -0.305  10.205  1.00  0.00     0.022 A 
BRANCH  55  58
ATOM     58  S   UNL     1      -5.974   0.097   7.624  1.00  0.00     0.127 S 
ATOM     59  O   UNL     1      -7.060  -0.816   7.983  1.00  0.00    -0.237 OA
ATOM     60  O   UNL     1      -6.244   1.506   7.897  1.00  0.00    -0.237 OA
ATOM     61  O   UNL     1      -5.351  -0.192   6.339  1.00  0.00    -0.744 OA
ENDBRANCH  55  58
ENDBRANCH  27  51
BRANCH  39  62
ATOM     62  C   UNL     1       3.743  -0.944  10.808  1.00  0.00     0.023 A 
ATOM     63  C   UNL     1       3.422  -1.982   9.909  1.00  0.00     0.012 A 
ATOM     64  C   UNL     1       4.769  -1.146  11.747  1.00  0.00     0.148 A 
ATOM     65  C   UNL     1       4.112  -3.197   9.951  1.00  0.00     0.002 A 
ATOM     66  C   UNL     1       5.492  -2.330  11.743  1.00  0.00     0.091 A 
ATOM     67  F   UNL     1       5.051  -0.149  12.600  1.00  0.00    -0.205 F 
ATOM     68  C   UNL     1       5.161  -3.364  10.854  1.00  0.00     0.022 A 
BRANCH  66  69
ATOM     69  S   UNL     1       6.955  -2.532  12.763  1.00  0.00     0.127 S 
ATOM     70  O   UNL     1       6.484  -3.454  13.794  1.00  0.00    -0.237 OA
ATOM     71  O   UNL     1       7.916  -3.106  11.820  1.00  0.00    -0.237 OA
ATOM     72  O   UNL     1       7.307  -1.196  13.229  1.00  0.00    -0.744 OA
ENDBRANCH  66  69
ENDBRANCH  39  62
ENDBRANCH  13  14
ENDBRANCH   6   8
ENDBRANCH   3   4
ENDBRANCH   2   3
ENDBRANCH   1   2
BRANCH   1  73
ATOM     73  C   UNL     1       4.916  -3.642  -1.912  1.00  0.00     0.002 C 
BRANCH  73  74
ATOM     74  C   UNL     1       6.447  -3.651  -1.996  1.00  0.00     0.021 C 
BRANCH  74  75
ATOM     75  C   UNL     1       7.115  -4.767  -1.195  1.00  0.00     0.116 C 
BRANCH  75  76
ATOM     76  N   UNL     1       6.805  -6.064  -1.767  1.00  0.00    -0.351 N 
ATOM     77  C   UNL     1       7.663  -6.931  -2.386  1.00  0.00     0.271 C 
ATOM     78  H   UNL     1       5.867  -6.354  -1.702  1.00  0.00     0.163 HD
ATOM     79  O   UNL     1       7.198  -7.872  -3.049  1.00  0.00    -0.267 OA
BRANCH  77  80
ATOM     80  C   UNL     1       9.100  -6.754  -2.187  1.00  0.00     0.150 A 
ATOM     81  C   UNL     1       9.790  -6.818  -0.947  1.00  0.00     0.056 A 
ATOM     82  N   UNL     1       9.953  -6.527  -3.204  1.00  0.00    -0.161 NA
ATOM     83  C   UNL     1      11.120  -6.779  -1.279  1.00  0.00     0.118 A 
ATOM     84  N   UNL     1      11.182  -6.657  -2.647  1.00  0.00    -0.222 N 
BRANCH  84  85
ATOM     85  C   UNL     1      12.366  -6.694  -3.431  1.00  0.00     0.158 A 
ATOM     86  C   UNL     1      12.376  -6.063  -4.657  1.00  0.00     0.078 A 
ATOM     87  N   UNL     1      13.434  -7.349  -2.925  1.00  0.00    -0.209 NA
ATOM     88  C   UNL     1      13.575  -6.095  -5.339  1.00  0.00     0.077 A 
ATOM     89  C   UNL     1      14.521  -7.401  -3.707  1.00  0.00     0.165 A 
ATOM     90  N   UNL     1      14.640  -6.797  -4.900  1.00  0.00    -0.228 NA
BRANCH  88  91
ATOM     91  C   UNL     1      13.801  -5.311  -6.556  1.00  0.00     0.003 A 
ATOM     92  C   UNL     1      13.664  -3.916  -6.548  1.00  0.00     0.030 A 
ATOM     93  C   UNL     1      14.207  -5.922  -7.746  1.00  0.00     0.030 A 
ATOM     94  C   UNL     1      13.927  -3.209  -7.710  1.00  0.00     0.111 A 
ATOM     95  C   UNL     1      14.436  -5.130  -8.860  1.00  0.00     0.111 A 
ATOM     96  N   UNL     1      14.302  -3.786  -8.870  1.00  0.00    -0.265 NA
ENDBRANCH  88  91
BRANCH  89  97
ATOM     97  C   UNL     1      15.606  -8.267  -3.272  1.00  0.00     0.055 A 
ATOM     98  C   UNL     1      15.415  -9.657  -3.148  1.00  0.00     0.015 A 
ATOM     99  C   UNL     1      16.864  -7.749  -2.960  1.00  0.00     0.134 A 
ATOM    100  C   UNL     1      16.458 -10.492  -2.737  1.00  0.00     0.001 A 
ATOM    101  C   UNL     1      17.907  -8.574  -2.539  1.00  0.00     0.040 A 
ATOM    102  F   UNL     1      17.092  -6.428  -3.035  1.00  0.00    -0.206 F 
ATOM    103  C   UNL     1      17.705  -9.949  -2.431  1.00  0.00     0.003 A 
ENDBRANCH  89  97
ENDBRANCH  84  85
ENDBRANCH  77  80
ENDBRANCH  75  76
ENDBRANCH  74  75
ENDBRANCH  73  74
ENDBRANCH   1  73
TORSDOF 19
