REMARK SMILES C[C@@H]1CCC[C@](CCSc2ccccc2)(C(=O)NCCCCCCNC(=O)c2ccc(-c3c4nc(c(-c5cccc(S(=O)(=O)[O-])c5F)c5ccc([nH]5)c(-c5cccc(S(=O)(=O)[O-])c5F)c5nc(c(-c6cccc(S(=O)(=O)[O-])c6F)c6ccc3[nH]6)C=C5)C=C4)cc2)C1
REMARK SMILES IDX 21 1 20 2 19 3 18 4 16 5 17 6 6 8 1 9 2 10 3 11 91 12 4 13
REMARK SMILES IDX 5 14 7 15 8 16 9 17 10 18 11 19 15 20 12 21 14 22 13 23
REMARK SMILES IDX 22 24 23 25 24 26 25 27 26 28 27 30 28 31 29 32 90 33 30 34
REMARK SMILES IDX 89 35 31 36 32 37 33 38 83 39 34 40 88 41 82 42 84 43 35 44
REMARK SMILES IDX 87 45 81 46 80 47 36 49 68 50 48 51 67 52 49 53 52 54 66 55
REMARK SMILES IDX 85 56 50 57 51 58 65 60 86 61 53 62 37 63 38 64 46 65 39 66
REMARK SMILES IDX 41 67 47 68 40 69 42 70 43 71 44 72 45 73 69 74 70 75 78 76
REMARK SMILES IDX 71 77 73 78 79 79 72 80 74 81 75 82 76 83 77 84 54 85 55 86
REMARK SMILES IDX 63 87 56 88 58 89 64 90 57 91 59 92 60 93 61 94 62 95
REMARK H PARENT 18 7 25 29 84 48 52 59
REMARK Flexibility Score: inf
ROOT
ATOM      1  C   UNL     1      -1.044   2.742   4.312  1.00  0.00     0.002 C 
ENDROOT
BRANCH   1   2
ATOM      2  C   UNL     1      -1.270   2.537   2.813  1.00  0.00     0.021 C 
BRANCH   2   3
ATOM      3  C   UNL     1      -0.718   1.211   2.297  1.00  0.00     0.116 C 
BRANCH   3   4
ATOM      4  N   UNL     1      -1.739   0.200   2.333  1.00  0.00    -0.356 N 
ATOM      5  C   UNL     1      -2.169  -0.718   1.444  1.00  0.00     0.226 C 
ATOM      6  O   UNL     1      -3.247  -1.238   1.766  1.00  0.00    -0.274 OA
ATOM      7  H   UNL     1      -2.228   0.172   3.187  1.00  0.00     0.163 HD
BRANCH   5   8
ATOM      8  C   UNL     1      -1.488  -1.073   0.087  1.00  0.00     0.050 C 
ATOM      9  C   UNL     1       2.051   0.413   0.321  1.00  0.00     0.007 C 
ATOM     10  C   UNL     1       0.884   0.005  -0.598  1.00  0.00    -0.013 C 
ATOM     11  C   UNL     1       0.145   1.207  -1.197  1.00  0.00     0.003 C 
ATOM     12  C   UNL     1       0.052  -1.118   0.046  1.00  0.00     0.020 C 
ATOM     13  C   UNL     1      -1.376   1.234  -1.083  1.00  0.00     0.001 C 
ATOM     14  C   UNL     1      -2.037  -0.133  -1.011  1.00  0.00     0.017 C 
BRANCH   8  15
ATOM     15  C   UNL     1      -2.016  -2.537  -0.245  1.00  0.00     0.028 C 
BRANCH  15  16
ATOM     16  C   UNL     1      -1.362  -3.759   0.448  1.00  0.00     0.076 C 
BRANCH  16  17
ATOM     17  S   UNL     1      -1.626  -4.027   2.241  1.00  0.00    -0.126 SA
BRANCH  17  18
ATOM     18  C   UNL     1      -0.235  -3.195   2.991  1.00  0.00     0.007 A 
ATOM     19  C   UNL     1      -0.483  -2.310   4.047  1.00  0.00     0.015 A 
ATOM     20  C   UNL     1       1.087  -3.406   2.587  1.00  0.00     0.015 A 
ATOM     21  C   UNL     1       0.559  -1.585   4.632  1.00  0.00     0.001 A 
ATOM     22  C   UNL     1       2.130  -2.676   3.167  1.00  0.00     0.001 A 
ATOM     23  C   UNL     1       1.864  -1.755   4.179  1.00  0.00     0.000 A 
ENDBRANCH  17  18
ENDBRANCH  16  17
ENDBRANCH  15  16
ENDBRANCH   8  15
ENDBRANCH   5   8
ENDBRANCH   3   4
ENDBRANCH   2   3
ENDBRANCH   1   2
BRANCH   1  24
ATOM     24  C   UNL     1       0.428   2.843   4.729  1.00  0.00     0.002 C 
BRANCH  24  25
ATOM     25  C   UNL     1       1.265   3.866   3.953  1.00  0.00     0.021 C 
BRANCH  25  26
ATOM     26  C   UNL     1       0.694   5.282   3.914  1.00  0.00     0.116 C 
BRANCH  26  27
ATOM     27  N   UNL     1       0.417   5.802   5.241  1.00  0.00    -0.352 N 
ATOM     28  C   UNL     1       0.695   7.032   5.776  1.00  0.00     0.251 C 
ATOM     29  H   UNL     1      -0.038   5.175   5.849  1.00  0.00     0.163 HD
ATOM     30  O   UNL     1       0.519   7.221   6.978  1.00  0.00    -0.269 OA
BRANCH  28  31
ATOM     31  C   UNL     1       1.218   8.121   4.924  1.00  0.00     0.039 A 
ATOM     32  C   UNL     1       2.248   8.918   5.428  1.00  0.00     0.014 A 
ATOM     33  C   UNL     1       0.680   8.386   3.660  1.00  0.00     0.014 A 
ATOM     34  C   UNL     1       2.762   9.957   4.653  1.00  0.00     0.010 A 
ATOM     35  C   UNL     1       1.237   9.385   2.862  1.00  0.00     0.010 A 
ATOM     36  C   UNL     1       2.275  10.188   3.355  1.00  0.00    -0.014 A 
BRANCH  36  37
ATOM     37  C   UNL     1       2.863  11.261   2.515  1.00  0.00     0.031 A 
ATOM     38  C   UNL     1       2.049  12.464   2.124  1.00  0.00     0.074 A 
ATOM     39  C   UNL     1       4.133  11.130   2.081  1.00  0.00     0.049 A 
ATOM     40  N   UNL     1       2.416  13.517   1.440  1.00  0.00    -0.248 NA
ATOM     41  C   UNL     1       0.635  12.482   2.535  1.00  0.00     0.031 C 
ATOM     42  C   UNL     1       4.992   9.968   2.320  1.00  0.00     0.029 A 
ATOM     43  N   UNL     1       4.918  11.976   1.340  1.00  0.00    -0.354 N 
ATOM     44  C   UNL     1       1.283  14.313   1.326  1.00  0.00     0.074 A 
ATOM     45  C   UNL     1       0.202  13.603   1.974  1.00  0.00     0.031 C 
ATOM     46  C   UNL     1       6.189  10.180   1.750  1.00  0.00     0.029 A 
ATOM     47  C   UNL     1       6.180  11.484   1.096  1.00  0.00     0.049 A 
ATOM     48  H   UNL     1       4.609  12.852   1.014  1.00  0.00     0.167 HD
ATOM     49  C   UNL     1       1.161  15.541   0.768  1.00  0.00     0.034 A 
ATOM     50  C   UNL     1       7.216  12.030   0.430  1.00  0.00     0.034 A 
ATOM     51  C   UNL     1       2.248  16.260   0.158  1.00  0.00     0.049 A 
ATOM     52  C   UNL     1       7.067  13.420  -0.128  1.00  0.00     0.074 A 
ATOM     53  C   UNL     1       2.244  17.535  -0.381  1.00  0.00     0.029 A 
ATOM     54  N   UNL     1       3.536  15.768   0.009  1.00  0.00    -0.354 N 
ATOM     55  N   UNL     1       6.032  14.224  -0.078  1.00  0.00    -0.248 NA
ATOM     56  C   UNL     1       8.245  13.997  -0.791  1.00  0.00     0.031 C 
ATOM     57  C   UNL     1       3.529  17.811  -0.863  1.00  0.00     0.029 A 
ATOM     58  C   UNL     1       4.336  16.713  -0.611  1.00  0.00     0.049 A 
ATOM     59  H   UNL     1       3.837  14.878   0.301  1.00  0.00     0.167 HD
ATOM     60  C   UNL     1       6.442  15.409  -0.676  1.00  0.00     0.074 A 
ATOM     61  C   UNL     1       7.832  15.231  -1.046  1.00  0.00     0.031 C 
ATOM     62  C   UNL     1       5.730  16.537  -0.922  1.00  0.00     0.034 A 
BRANCH  49  63
ATOM     63  C   UNL     1      -0.178  16.226   0.859  1.00  0.00     0.023 A 
ATOM     64  C   UNL     1      -0.602  16.740   2.102  1.00  0.00     0.012 A 
ATOM     65  C   UNL     1      -0.977  16.434  -0.283  1.00  0.00     0.148 A 
ATOM     66  C   UNL     1      -1.808  17.430   2.214  1.00  0.00     0.002 A 
ATOM     67  C   UNL     1      -2.160  17.157  -0.171  1.00  0.00     0.091 A 
ATOM     68  F   UNL     1      -0.566  15.923  -1.452  1.00  0.00    -0.205 F 
ATOM     69  C   UNL     1      -2.580  17.647   1.077  1.00  0.00     0.022 A 
BRANCH  67  70
ATOM     70  S   UNL     1      -3.193  17.556  -1.586  1.00  0.00     0.127 S 
ATOM     71  O   UNL     1      -4.398  16.772  -1.300  1.00  0.00    -0.237 OA
ATOM     72  O   UNL     1      -3.364  19.004  -1.440  1.00  0.00    -0.237 OA
ATOM     73  O   UNL     1      -2.449  17.144  -2.761  1.00  0.00    -0.744 OA
ENDBRANCH  67  70
ENDBRANCH  49  63
BRANCH  50  74
ATOM     74  C   UNL     1       8.511  11.300   0.326  1.00  0.00     0.023 A 
ATOM     75  C   UNL     1       9.636  11.782   1.023  1.00  0.00     0.012 A 
ATOM     76  C   UNL     1       8.634  10.130  -0.447  1.00  0.00     0.148 A 
ATOM     77  C   UNL     1      10.870  11.138   0.917  1.00  0.00     0.002 A 
ATOM     78  C   UNL     1       9.851   9.460  -0.501  1.00  0.00     0.091 A 
ATOM     79  F   UNL     1       7.559   9.691  -1.118  1.00  0.00    -0.205 F 
ATOM     80  C   UNL     1      10.975   9.972   0.163  1.00  0.00     0.022 A 
BRANCH  78  81
ATOM     81  S   UNL     1      10.023   7.879  -1.337  1.00  0.00     0.127 S 
ATOM     82  O   UNL     1      10.607   8.275  -2.615  1.00  0.00    -0.237 OA
ATOM     83  O   UNL     1      10.927   7.152  -0.445  1.00  0.00    -0.237 OA
ATOM     84  O   UNL     1       8.674   7.329  -1.390  1.00  0.00    -0.744 OA
ENDBRANCH  78  81
ENDBRANCH  50  74
BRANCH  62  85
ATOM     85  C   UNL     1       6.448  17.669  -1.608  1.00  0.00     0.023 A 
ATOM     86  C   UNL     1       6.783  17.555  -2.972  1.00  0.00     0.012 A 
ATOM     87  C   UNL     1       6.753  18.858  -0.917  1.00  0.00     0.148 A 
ATOM     88  C   UNL     1       7.450  18.589  -3.627  1.00  0.00     0.002 A 
ATOM     89  C   UNL     1       7.377  19.903  -1.589  1.00  0.00     0.091 A 
ATOM     90  F   UNL     1       6.447  18.941   0.386  1.00  0.00    -0.205 F 
ATOM     91  C   UNL     1       7.738  19.765  -2.939  1.00  0.00     0.022 A 
BRANCH  89  92
ATOM     92  S   UNL     1       7.700  21.485  -0.802  1.00  0.00     0.127 S 
ATOM     93  O   UNL     1       9.123  21.377  -0.487  1.00  0.00    -0.237 OA
ATOM     94  O   UNL     1       7.381  22.437  -1.866  1.00  0.00    -0.237 OA
ATOM     95  O   UNL     1       6.802  21.545   0.344  1.00  0.00    -0.744 OA
ENDBRANCH  89  92
ENDBRANCH  62  85
ENDBRANCH  36  37
ENDBRANCH  28  31
ENDBRANCH  26  27
ENDBRANCH  25  26
ENDBRANCH  24  25
ENDBRANCH   1  24
TORSDOF 20
