REMARK SMILES CC[C@](C)([NH2+]CCC(=O)Nc1ccccc1)C(=O)NCCCCCCNC(=O)c1ccc(-c2c3nc(c(-c4cccc(S(=O)(=O)[O-])c4F)c4ccc([nH]4)c(-c4cccc(S(=O)(=O)[O-])c4F)c4nc(c(-c5cccc(S(=O)(=O)[O-])c5F)c5ccc2[nH]5)C=C4)C=C3)cc1
REMARK SMILES IDX 21 1 20 2 19 3 17 4 18 5 3 7 4 8 2 9 1 10 5 11 6 14 7 15
REMARK SMILES IDX 8 16 9 17 10 18 11 20 12 21 16 22 13 23 15 24 14 25 22 26
REMARK SMILES IDX 23 27 24 28 25 29 26 30 27 31 28 33 29 34 30 35 91 36 31 37
REMARK SMILES IDX 90 38 32 39 33 40 34 41 84 42 35 43 89 44 83 45 85 46 36 47
REMARK SMILES IDX 88 48 82 49 81 50 37 52 69 53 49 54 68 55 50 56 53 57 67 58
REMARK SMILES IDX 86 59 51 60 52 61 66 63 87 64 54 65 38 66 39 67 47 68 40 69
REMARK SMILES IDX 42 70 48 71 41 72 43 73 44 74 45 75 46 76 70 77 71 78 79 79
REMARK SMILES IDX 72 80 74 81 80 82 73 83 75 84 76 85 77 86 78 87 55 88 56 89
REMARK SMILES IDX 64 90 57 91 59 92 65 93 58 94 60 95 61 96 62 97 63 98
REMARK H PARENT 19 6 5 12 5 13 10 19 26 32 85 51 53 62
REMARK Flexibility Score: inf
ROOT
ATOM      1  C   UNL     1       3.822  -2.592   5.288  1.00  0.00     0.021 C 
ENDROOT
BRANCH   1   2
ATOM      2  C   UNL     1       3.355  -1.235   4.766  1.00  0.00     0.116 C 
BRANCH   2   3
ATOM      3  N   UNL     1       3.850  -1.030   3.426  1.00  0.00    -0.351 N 
ATOM      4  C   UNL     1       3.225  -0.902   2.228  1.00  0.00     0.281 C 
ATOM      5  O   UNL     1       3.984  -0.960   1.250  1.00  0.00    -0.268 OA
ATOM      6  H   UNL     1       4.831  -0.971   3.370  1.00  0.00     0.163 HD
BRANCH   4   7
ATOM      7  C   UNL     1       1.687  -0.636   2.071  1.00  0.00     0.172 C 
ATOM      8  C   UNL     1       1.529  -0.212   0.573  1.00  0.00     0.090 C 
BRANCH   7   9
ATOM      9  C   UNL     1       1.221   0.560   2.940  1.00  0.00     0.075 C 
ATOM     10  C   UNL     1      -0.190   1.081   2.682  1.00  0.00     0.011 C 
ENDBRANCH   7   9
BRANCH   7  11
ATOM     11  N   UNL     1       0.888  -1.878   2.119  1.00  0.00    -0.333 N 
ATOM     12  H   UNL     1       1.341  -2.515   1.464  1.00  0.00     0.347 HD
ATOM     13  H   UNL     1      -0.043  -1.495   1.955  1.00  0.00     0.347 HD
BRANCH  11  14
ATOM     14  C   UNL     1       0.626  -2.674   3.307  1.00  0.00     0.271 C 
BRANCH  14  15
ATOM     15  C   UNL     1      -0.408  -2.194   4.319  1.00  0.00     0.161 C 
BRANCH  15  16
ATOM     16  C   UNL     1      -1.921  -2.403   4.186  1.00  0.00     0.230 C 
ATOM     17  O   UNL     1      -2.587  -2.563   5.218  1.00  0.00    -0.275 OA
ATOM     18  N   UNL     1      -2.623  -2.147   3.047  1.00  0.00    -0.326 N 
ATOM     19  H   UNL     1      -3.519  -1.769   3.198  1.00  0.00     0.169 HD
BRANCH  18  20
ATOM     20  C   UNL     1      -2.293  -2.327   1.706  1.00  0.00     0.041 A 
ATOM     21  C   UNL     1      -2.641  -1.323   0.801  1.00  0.00     0.026 A 
ATOM     22  C   UNL     1      -1.653  -3.479   1.252  1.00  0.00     0.026 A 
ATOM     23  C   UNL     1      -2.212  -1.405  -0.524  1.00  0.00     0.002 A 
ATOM     24  C   UNL     1      -1.229  -3.564  -0.075  1.00  0.00     0.002 A 
ATOM     25  C   UNL     1      -1.485  -2.514  -0.956  1.00  0.00     0.000 A 
ENDBRANCH  18  20
ENDBRANCH  15  16
ENDBRANCH  14  15
ENDBRANCH  11  14
ENDBRANCH   7  11
ENDBRANCH   4   7
ENDBRANCH   2   3
ENDBRANCH   1   2
BRANCH   1  26
ATOM     26  C   UNL     1       5.307  -2.635   5.659  1.00  0.00     0.002 C 
BRANCH  26  27
ATOM     27  C   UNL     1       5.734  -1.606   6.708  1.00  0.00     0.002 C 
BRANCH  27  28
ATOM     28  C   UNL     1       4.875  -1.589   7.976  1.00  0.00     0.021 C 
BRANCH  28  29
ATOM     29  C   UNL     1       4.743  -2.944   8.665  1.00  0.00     0.116 C 
BRANCH  29  30
ATOM     30  N   UNL     1       6.041  -3.483   9.034  1.00  0.00    -0.352 N 
ATOM     31  C   UNL     1       6.518  -3.796  10.280  1.00  0.00     0.251 C 
ATOM     32  H   UNL     1       6.662  -3.646   8.287  1.00  0.00     0.163 HD
ATOM     33  O   UNL     1       7.713  -4.005  10.451  1.00  0.00    -0.269 OA
BRANCH  31  34
ATOM     34  C   UNL     1       5.574  -3.875  11.412  1.00  0.00     0.039 A 
ATOM     35  C   UNL     1       5.898  -3.240  12.613  1.00  0.00     0.014 A 
ATOM     36  C   UNL     1       4.376  -4.585  11.282  1.00  0.00     0.014 A 
ATOM     37  C   UNL     1       4.999  -3.290  13.679  1.00  0.00     0.010 A 
ATOM     38  C   UNL     1       3.455  -4.577  12.322  1.00  0.00     0.010 A 
ATOM     39  C   UNL     1       3.766  -3.946  13.536  1.00  0.00    -0.014 A 
BRANCH  39  40
ATOM     40  C   UNL     1       2.790  -3.999  14.650  1.00  0.00     0.031 A 
ATOM     41  C   UNL     1       2.443  -5.320  15.280  1.00  0.00     0.074 A 
ATOM     42  C   UNL     1       2.155  -2.874  15.032  1.00  0.00     0.049 A 
ATOM     43  N   UNL     1       1.578  -5.580  16.225  1.00  0.00    -0.248 NA
ATOM     44  C   UNL     1       3.136  -6.511  14.760  1.00  0.00     0.031 C 
ATOM     45  C   UNL     1       2.346  -1.552  14.433  1.00  0.00     0.029 A 
ATOM     46  N   UNL     1       1.199  -2.670  15.994  1.00  0.00    -0.354 N 
ATOM     47  C   UNL     1       1.593  -6.960  16.385  1.00  0.00     0.074 A 
ATOM     48  C   UNL     1       2.530  -7.488  15.419  1.00  0.00     0.031 C 
ATOM     49  C   UNL     1       1.530  -0.674  15.038  1.00  0.00     0.029 A 
ATOM     50  C   UNL     1       0.747  -1.373  16.053  1.00  0.00     0.049 A 
ATOM     51  H   UNL     1       0.868  -3.384  16.585  1.00  0.00     0.167 HD
ATOM     52  C   UNL     1       0.914  -7.717  17.278  1.00  0.00     0.034 A 
ATOM     53  C   UNL     1      -0.194  -0.812  16.837  1.00  0.00     0.034 A 
ATOM     54  C   UNL     1       0.029  -7.178  18.275  1.00  0.00     0.049 A 
ATOM     55  C   UNL     1      -0.880  -1.662  17.872  1.00  0.00     0.074 A 
ATOM     56  C   UNL     1      -0.629  -7.846  19.292  1.00  0.00     0.029 A 
ATOM     57  N   UNL     1      -0.320  -5.841  18.381  1.00  0.00    -0.354 N 
ATOM     58  N   UNL     1      -0.724  -2.940  18.124  1.00  0.00    -0.248 NA
ATOM     59  C   UNL     1      -1.840  -0.989  18.758  1.00  0.00     0.031 C 
ATOM     60  C   UNL     1      -1.386  -6.912  20.007  1.00  0.00     0.029 A 
ATOM     61  C   UNL     1      -1.187  -5.661  19.444  1.00  0.00     0.049 A 
ATOM     62  H   UNL     1       0.001  -5.125  17.787  1.00  0.00     0.167 HD
ATOM     63  C   UNL     1      -1.539  -3.216  19.215  1.00  0.00     0.074 A 
ATOM     64  C   UNL     1      -2.171  -1.967  19.590  1.00  0.00     0.031 C 
ATOM     65  C   UNL     1      -1.760  -4.400  19.838  1.00  0.00     0.034 A 
BRANCH  52  66
ATOM     66  C   UNL     1       1.154  -9.203  17.263  1.00  0.00     0.023 A 
ATOM     67  C   UNL     1       2.379  -9.710  17.743  1.00  0.00     0.012 A 
ATOM     68  C   UNL     1       0.156 -10.099  16.833  1.00  0.00     0.148 A 
ATOM     69  C   UNL     1       2.621 -11.083  17.765  1.00  0.00     0.002 A 
ATOM     70  C   UNL     1       0.389 -11.469  16.897  1.00  0.00     0.091 A 
ATOM     71  F   UNL     1      -0.993  -9.598  16.358  1.00  0.00    -0.205 F 
ATOM     72  C   UNL     1       1.623 -11.961  17.353  1.00  0.00     0.022 A 
BRANCH  70  73
ATOM     73  S   UNL     1      -0.859 -12.685  16.460  1.00  0.00     0.127 S 
ATOM     74  O   UNL     1      -0.342 -13.196  15.192  1.00  0.00    -0.237 OA
ATOM     75  O   UNL     1      -0.777 -13.627  17.576  1.00  0.00    -0.237 OA
ATOM     76  O   UNL     1      -2.116 -11.955  16.375  1.00  0.00    -0.744 OA
ENDBRANCH  70  73
ENDBRANCH  52  66
BRANCH  53  77
ATOM     77  C   UNL     1      -0.475   0.647  16.728  1.00  0.00     0.023 A 
ATOM     78  C   UNL     1      -0.049   1.509  17.757  1.00  0.00     0.012 A 
ATOM     79  C   UNL     1      -1.113   1.191  15.597  1.00  0.00     0.148 A 
ATOM     80  C   UNL     1      -0.278   2.883  17.675  1.00  0.00     0.002 A 
ATOM     81  C   UNL     1      -1.291   2.567  15.497  1.00  0.00     0.091 A 
ATOM     82  F   UNL     1      -1.523   0.354  14.633  1.00  0.00    -0.205 F 
ATOM     83  C   UNL     1      -0.889   3.413  16.542  1.00  0.00     0.022 A 
BRANCH  81  84
ATOM     84  S   UNL     1      -1.943   3.344  14.014  1.00  0.00     0.127 S 
ATOM     85  O   UNL     1      -3.292   3.712  14.436  1.00  0.00    -0.237 OA
ATOM     86  O   UNL     1      -1.027   4.471  13.831  1.00  0.00    -0.237 OA
ATOM     87  O   UNL     1      -1.855   2.330  12.972  1.00  0.00    -0.744 OA
ENDBRANCH  81  84
ENDBRANCH  53  77
BRANCH  65  88
ATOM     88  C   UNL     1      -2.705  -4.405  21.010  1.00  0.00     0.023 A 
ATOM     89  C   UNL     1      -4.092  -4.296  20.786  1.00  0.00     0.012 A 
ATOM     90  C   UNL     1      -2.228  -4.604  22.320  1.00  0.00     0.148 A 
ATOM     91  C   UNL     1      -4.988  -4.357  21.852  1.00  0.00     0.002 A 
ATOM     92  C   UNL     1      -3.130  -4.708  23.372  1.00  0.00     0.091 A 
ATOM     93  F   UNL     1      -0.904  -4.685  22.515  1.00  0.00    -0.205 F 
ATOM     94  C   UNL     1      -4.509  -4.575  23.142  1.00  0.00     0.022 A 
BRANCH  92  95
ATOM     95  S   UNL     1      -2.606  -5.082  25.049  1.00  0.00     0.127 S 
ATOM     96  O   UNL     1      -2.724  -3.777  25.697  1.00  0.00    -0.237 OA
ATOM     97  O   UNL     1      -3.601  -6.067  25.477  1.00  0.00    -0.237 OA
ATOM     98  O   UNL     1      -1.252  -5.608  24.935  1.00  0.00    -0.744 OA
ENDBRANCH  92  95
ENDBRANCH  65  88
ENDBRANCH  39  40
ENDBRANCH  31  34
ENDBRANCH  29  30
ENDBRANCH  28  29
ENDBRANCH  27  28
ENDBRANCH  26  27
ENDBRANCH   1  26
TORSDOF 22
