REMARK SMILES C[C@@H]1CN(C(=O)NC[C@@H]2CCC[C@@H]2C(=O)NCCCCCCNC(=O)c2ccc(-c3c4nc(c(-c5cccc(S(=O)(=O)[O-])c5F)c5ccc([nH]5)c(-c5cccc(S(=O)(=O)[O-])c5F)c5nc(c(-c6cccc(S(=O)(=O)[O-])c6F)c6ccc3[nH]6)C=C5)C=C4)cc2)C[C@@H]1C
REMARK SMILES IDX 19 1 18 2 17 3 16 4 14 5 15 6 13 8 9 9 10 10 11 11 12 12
REMARK SMILES IDX 8 13 7 14 5 15 6 16 4 18 1 19 2 20 3 21 90 22 89 23 91 24
REMARK SMILES IDX 20 25 21 26 22 27 23 28 24 29 25 31 26 32 27 33 88 34 28 35
REMARK SMILES IDX 87 36 29 37 30 38 31 39 81 40 32 41 86 42 80 43 82 44 33 45
REMARK SMILES IDX 85 46 79 47 78 48 34 50 66 51 46 52 65 53 47 54 50 55 64 56
REMARK SMILES IDX 83 57 48 58 49 59 63 61 84 62 51 63 35 64 36 65 44 66 37 67
REMARK SMILES IDX 39 68 45 69 38 70 40 71 41 72 42 73 43 74 67 75 68 76 76 77
REMARK SMILES IDX 69 78 71 79 77 80 70 81 72 82 73 83 74 84 75 85 52 86 53 87
REMARK SMILES IDX 61 88 54 89 56 90 62 91 55 92 57 93 58 94 59 95 60 96
REMARK H PARENT 16 7 7 17 23 30 82 49 50 60
REMARK Flexibility Score: inf
ROOT
ATOM      1  C   UNL     1      -9.132  -0.590   5.020  1.00  0.00     0.002 C 
ENDROOT
BRANCH   1   2
ATOM      2  C   UNL     1      -9.058  -0.724   3.497  1.00  0.00     0.021 C 
BRANCH   2   3
ATOM      3  C   UNL     1      -7.705  -0.345   2.898  1.00  0.00     0.116 C 
BRANCH   3   4
ATOM      4  N   UNL     1      -6.745  -1.407   3.102  1.00  0.00    -0.356 N 
ATOM      5  C   UNL     1      -6.085  -2.218   2.248  1.00  0.00     0.223 C 
ATOM      6  O   UNL     1      -5.591  -3.236   2.756  1.00  0.00    -0.275 OA
ATOM      7  H   UNL     1      -6.530  -1.570   4.049  1.00  0.00     0.163 HD
BRANCH   5   8
ATOM      8  C   UNL     1      -5.747  -1.895   0.789  1.00  0.00     0.083 C 
ATOM      9  C   UNL     1      -4.396  -1.166   0.640  1.00  0.00     0.021 C 
ATOM     10  C   UNL     1      -4.774   0.313   0.644  1.00  0.00     0.006 C 
ATOM     11  C   UNL     1      -6.136   0.380  -0.041  1.00  0.00     0.001 C 
ATOM     12  C   UNL     1      -6.672  -1.057  -0.086  1.00  0.00     0.014 C 
BRANCH   9  13
ATOM     13  C   UNL     1      -3.329  -1.502   1.680  1.00  0.00     0.122 C 
BRANCH  13  14
ATOM     14  N   UNL     1      -2.897  -2.884   1.560  1.00  0.00    -0.338 N 
ATOM     15  C   UNL     1      -1.845  -3.525   1.014  1.00  0.00     0.317 C 
ATOM     16  O   UNL     1      -1.845  -4.757   1.085  1.00  0.00    -0.249 OA
ATOM     17  H   UNL     1      -3.531  -3.507   1.983  1.00  0.00     0.165 HD
BRANCH  15  18
ATOM     18  N   UNL     1      -0.816  -2.854   0.431  1.00  0.00    -0.324 N 
ATOM     19  C   UNL     1       1.371   0.062  -0.215  1.00  0.00     0.010 C 
ATOM     20  C   UNL     1       0.718  -1.287  -0.467  1.00  0.00     0.010 C 
ATOM     21  C   UNL     1      -0.624  -1.428   0.247  1.00  0.00     0.125 C 
ATOM     22  C   UNL     1       1.487  -2.534   0.008  1.00  0.00     0.010 C 
ATOM     23  C   UNL     1       0.366  -3.583  -0.019  1.00  0.00     0.125 C 
ATOM     24  C   UNL     1       2.095  -2.441   1.413  1.00  0.00     0.010 C 
ENDBRANCH  15  18
ENDBRANCH  13  14
ENDBRANCH   9  13
ENDBRANCH   5   8
ENDBRANCH   3   4
ENDBRANCH   2   3
ENDBRANCH   1   2
BRANCH   1  25
ATOM     25  C   UNL     1      -8.783   0.799   5.565  1.00  0.00     0.002 C 
BRANCH  25  26
ATOM     26  C   UNL     1      -9.516   1.964   4.895  1.00  0.00     0.021 C 
BRANCH  26  27
ATOM     27  C   UNL     1     -11.036   1.855   4.918  1.00  0.00     0.116 C 
BRANCH  27  28
ATOM     28  N   UNL     1     -11.557   1.804   6.275  1.00  0.00    -0.352 N 
ATOM     29  C   UNL     1     -12.517   2.591   6.856  1.00  0.00     0.251 C 
ATOM     30  H   UNL     1     -11.167   1.111   6.854  1.00  0.00     0.163 HD
ATOM     31  O   UNL     1     -12.694   2.554   8.072  1.00  0.00    -0.269 OA
BRANCH  29  32
ATOM     32  C   UNL     1     -13.325   3.493   6.011  1.00  0.00     0.039 A 
ATOM     33  C   UNL     1     -13.520   4.815   6.419  1.00  0.00     0.014 A 
ATOM     34  C   UNL     1     -13.879   3.033   4.813  1.00  0.00     0.014 A 
ATOM     35  C   UNL     1     -14.230   5.691   5.596  1.00  0.00     0.010 A 
ATOM     36  C   UNL     1     -14.518   3.926   3.961  1.00  0.00     0.010 A 
ATOM     37  C   UNL     1     -14.709   5.262   4.348  1.00  0.00    -0.014 A 
BRANCH  37  38
ATOM     38  C   UNL     1     -15.416   6.186   3.427  1.00  0.00     0.031 A 
ATOM     39  C   UNL     1     -16.843   5.910   3.037  1.00  0.00     0.074 A 
ATOM     40  C   UNL     1     -14.747   7.213   2.867  1.00  0.00     0.049 A 
ATOM     41  N   UNL     1     -17.597   6.535   2.171  1.00  0.00    -0.248 NA
ATOM     42  C   UNL     1     -17.500   4.761   3.684  1.00  0.00     0.031 C 
ATOM     43  C   UNL     1     -13.342   7.544   3.117  1.00  0.00     0.029 A 
ATOM     44  N   UNL     1     -15.149   8.148   1.946  1.00  0.00    -0.354 N 
ATOM     45  C   UNL     1     -18.797   5.836   2.139  1.00  0.00     0.074 A 
ATOM     46  C   UNL     1     -18.661   4.719   3.048  1.00  0.00     0.031 C 
ATOM     47  C   UNL     1     -13.000   8.604   2.367  1.00  0.00     0.029 A 
ATOM     48  C   UNL     1     -14.144   9.003   1.554  1.00  0.00     0.049 A 
ATOM     49  H   UNL     1     -16.068   8.202   1.599  1.00  0.00     0.167 HD
ATOM     50  C   UNL     1     -19.921   6.111   1.435  1.00  0.00     0.034 A 
ATOM     51  C   UNL     1     -14.140   9.984   0.630  1.00  0.00     0.034 A 
ATOM     52  C   UNL     1     -20.061   7.243   0.559  1.00  0.00     0.049 A 
ATOM     53  C   UNL     1     -15.407  10.283  -0.123  1.00  0.00     0.074 A 
ATOM     54  C   UNL     1     -21.182   7.655  -0.138  1.00  0.00     0.029 A 
ATOM     55  N   UNL     1     -19.046   8.135   0.252  1.00  0.00    -0.354 N 
ATOM     56  N   UNL     1     -16.575   9.694  -0.038  1.00  0.00    -0.248 NA
ATOM     57  C   UNL     1     -15.369  11.403  -1.074  1.00  0.00     0.031 C 
ATOM     58  C   UNL     1     -20.835   8.778  -0.895  1.00  0.00     0.029 A 
ATOM     59  C   UNL     1     -19.511   9.092  -0.633  1.00  0.00     0.049 A 
ATOM     60  H   UNL     1     -18.130   8.095   0.610  1.00  0.00     0.167 HD
ATOM     61  C   UNL     1     -17.422  10.400  -0.885  1.00  0.00     0.074 A 
ATOM     62  C   UNL     1     -16.633  11.466  -1.468  1.00  0.00     0.031 C 
ATOM     63  C   UNL     1     -18.731  10.182  -1.159  1.00  0.00     0.034 A 
BRANCH  50  64
ATOM     64  C   UNL     1     -21.102   5.192   1.608  1.00  0.00     0.023 A 
ATOM     65  C   UNL     1     -21.810   5.183   2.828  1.00  0.00     0.012 A 
ATOM     66  C   UNL     1     -21.549   4.383   0.545  1.00  0.00     0.148 A 
ATOM     67  C   UNL     1     -22.919   4.356   3.001  1.00  0.00     0.002 A 
ATOM     68  C   UNL     1     -22.685   3.599   0.708  1.00  0.00     0.091 A 
ATOM     69  F   UNL     1     -20.853   4.390  -0.600  1.00  0.00    -0.205 F 
ATOM     70  C   UNL     1     -23.363   3.574   1.938  1.00  0.00     0.022 A 
BRANCH  68  71
ATOM     71  S   UNL     1     -23.387   2.621  -0.625  1.00  0.00     0.127 S 
ATOM     72  O   UNL     1     -23.115   1.259  -0.166  1.00  0.00    -0.237 OA
ATOM     73  O   UNL     1     -24.797   3.009  -0.581  1.00  0.00    -0.237 OA
ATOM     74  O   UNL     1     -22.682   3.023  -1.834  1.00  0.00    -0.744 OA
ENDBRANCH  68  71
ENDBRANCH  50  64
BRANCH  51  75
ATOM     75  C   UNL     1     -12.906  10.788   0.402  1.00  0.00     0.023 A 
ATOM     76  C   UNL     1     -12.876  12.140   0.796  1.00  0.00     0.012 A 
ATOM     77  C   UNL     1     -11.758  10.218  -0.181  1.00  0.00     0.148 A 
ATOM     78  C   UNL     1     -11.739  12.920   0.579  1.00  0.00     0.002 A 
ATOM     79  C   UNL     1     -10.609  10.984  -0.341  1.00  0.00     0.091 A 
ATOM     80  F   UNL     1     -11.808   8.931  -0.555  1.00  0.00    -0.205 F 
ATOM     81  C   UNL     1     -10.604  12.340   0.020  1.00  0.00     0.022 A 
BRANCH  79  82
ATOM     82  S   UNL     1      -9.061  10.289  -0.931  1.00  0.00     0.127 S 
ATOM     83  O   UNL     1      -8.923  10.929  -2.236  1.00  0.00    -0.237 OA
ATOM     84  O   UNL     1      -8.117  10.751   0.086  1.00  0.00    -0.237 OA
ATOM     85  O   UNL     1      -9.259   8.846  -0.954  1.00  0.00    -0.744 OA
ENDBRANCH  79  82
ENDBRANCH  51  75
BRANCH  63  86
ATOM     86  C   UNL     1     -19.429  11.149  -2.080  1.00  0.00     0.023 A 
ATOM     87  C   UNL     1     -19.156  11.139  -3.461  1.00  0.00     0.012 A 
ATOM     88  C   UNL     1     -20.429  12.005  -1.577  1.00  0.00     0.148 A 
ATOM     89  C   UNL     1     -19.849  11.988  -4.324  1.00  0.00     0.002 A 
ATOM     90  C   UNL     1     -21.152  12.808  -2.450  1.00  0.00     0.091 A 
ATOM     91  F   UNL     1     -20.660  12.011  -0.256  1.00  0.00    -0.205 F 
ATOM     92  C   UNL     1     -20.855  12.810  -3.822  1.00  0.00     0.022 A 
BRANCH  90  93
ATOM     93  S   UNL     1     -22.533  13.820  -1.908  1.00  0.00     0.127 S 
ATOM     94  O   UNL     1     -21.995  15.170  -2.074  1.00  0.00    -0.237 OA
ATOM     95  O   UNL     1     -23.577  13.457  -2.867  1.00  0.00    -0.237 OA
ATOM     96  O   UNL     1     -22.809  13.426  -0.533  1.00  0.00    -0.744 OA
ENDBRANCH  90  93
ENDBRANCH  63  86
ENDBRANCH  37  38
ENDBRANCH  29  32
ENDBRANCH  27  28
ENDBRANCH  26  27
ENDBRANCH  25  26
ENDBRANCH   1  25
TORSDOF 19
