REMARK SMILES Cc1cccc2c(C(F)(F)F)cc(C(=O)NCCCCCCNC(=O)c3ccc(-c4c5nc(c(-c6cccc(S(=O)(=O)[O-])c6F)c6ccc([nH]6)c(-c6cccc(S(=O)(=O)[O-])c6F)c6nc(c(-c7cccc(S(=O)(=O)[O-])c7F)c7ccc4[nH]7)C=C6)C=C5)cc3)nc12
REMARK SMILES IDX 20 1 19 2 18 3 17 4 16 5 14 6 15 7 13 9 1 10 2 11 3 12 90 13
REMARK SMILES IDX 4 14 6 15 89 16 5 17 7 18 12 19 8 20 9 21 10 22 11 23 21 24
REMARK SMILES IDX 22 25 23 26 24 27 25 29 26 30 27 31 88 32 28 33 87 34 29 35
REMARK SMILES IDX 30 36 31 37 81 38 32 39 86 40 80 41 82 42 33 43 85 44 79 45
REMARK SMILES IDX 78 46 34 48 66 49 46 50 65 51 47 52 50 53 64 54 83 55 48 56
REMARK SMILES IDX 49 57 63 59 84 60 51 61 35 62 36 63 44 64 37 65 39 66 45 67
REMARK SMILES IDX 38 68 40 69 41 70 42 71 43 72 67 73 68 74 76 75 69 76 71 77
REMARK SMILES IDX 77 78 70 79 72 80 73 81 74 82 75 83 52 84 53 85 61 86 54 87
REMARK SMILES IDX 56 88 62 89 55 90 57 91 58 92 59 93 60 94
REMARK H PARENT 16 8 23 28 82 47 50 58
REMARK Flexibility Score: inf
ROOT
ATOM      1  C   UNL     1      -2.131   6.986   0.082  1.00  0.00     0.002 C 
ENDROOT
BRANCH   1   2
ATOM      2  C   UNL     1      -2.397   6.052  -1.105  1.00  0.00     0.002 C 
BRANCH   2   3
ATOM      3  C   UNL     1      -1.550   4.774  -1.119  1.00  0.00     0.021 C 
BRANCH   3   4
ATOM      4  C   UNL     1      -1.702   3.932   0.144  1.00  0.00     0.116 C 
BRANCH   4   5
ATOM      5  N   UNL     1      -2.964   3.213   0.147  1.00  0.00    -0.351 N 
ATOM      6  C   UNL     1      -3.249   1.870   0.061  1.00  0.00     0.269 C 
ATOM      7  O   UNL     1      -4.439   1.540   0.060  1.00  0.00    -0.268 OA
ATOM      8  H   UNL     1      -3.758   3.791   0.225  1.00  0.00     0.163 HD
BRANCH   6   9
ATOM      9  C   UNL     1      -2.197   0.802  -0.010  1.00  0.00     0.129 A 
ATOM     10  C   UNL     1       1.731   2.119  -0.026  1.00  0.00     0.047 C 
ATOM     11  C   UNL     1       1.397   0.647  -0.034  1.00  0.00    -0.025 A 
ATOM     12  C   UNL     1       2.448  -0.277  -0.016  1.00  0.00     0.005 A 
ATOM     13  C   UNL     1       0.062   0.220  -0.038  1.00  0.00     0.075 A 
ATOM     14  C   UNL     1       2.175  -1.634  -0.009  1.00  0.00     0.001 A 
ATOM     15  C   UNL     1      -0.236  -1.166  -0.027  1.00  0.00     0.013 A 
ATOM     16  N   UNL     1      -0.901   1.155  -0.042  1.00  0.00    -0.242 NA
ATOM     17  C   UNL     1       0.852  -2.074  -0.016  1.00  0.00     0.011 A 
ATOM     18  C   UNL     1      -1.611  -1.534  -0.019  1.00  0.00     0.067 A 
ATOM     19  C   UNL     1      -2.588  -0.522  -0.008  1.00  0.00     0.048 A 
BRANCH  18  20
ATOM     20  C   UNL     1      -2.143  -2.946  -0.007  1.00  0.00     0.417 C 
ATOM     21  F   UNL     1      -2.930  -3.181   1.083  1.00  0.00    -0.166 F 
ATOM     22  F   UNL     1      -2.939  -3.195  -1.087  1.00  0.00    -0.166 F 
ATOM     23  F   UNL     1      -1.222  -3.943  -0.004  1.00  0.00    -0.166 F 
ENDBRANCH  18  20
ENDBRANCH   6   9
ENDBRANCH   4   5
ENDBRANCH   3   4
ENDBRANCH   2   3
ENDBRANCH   1   2
BRANCH   1  24
ATOM     24  C   UNL     1      -0.665   7.384   0.278  1.00  0.00     0.021 C 
BRANCH  24  25
ATOM     25  C   UNL     1      -0.045   8.108  -0.911  1.00  0.00     0.116 C 
BRANCH  25  26
ATOM     26  N   UNL     1      -0.728   9.362  -1.195  1.00  0.00    -0.352 N 
ATOM     27  C   UNL     1      -0.214  10.629  -1.286  1.00  0.00     0.251 C 
ATOM     28  H   UNL     1      -1.699   9.289  -1.344  1.00  0.00     0.163 HD
ATOM     29  O   UNL     1      -0.972  11.599  -1.315  1.00  0.00    -0.269 OA
BRANCH  27  30
ATOM     30  C   UNL     1       1.249  10.829  -1.337  1.00  0.00     0.039 A 
ATOM     31  C   UNL     1       1.823  11.843  -0.567  1.00  0.00     0.014 A 
ATOM     32  C   UNL     1       2.051  10.021  -2.150  1.00  0.00     0.014 A 
ATOM     33  C   UNL     1       3.208  12.013  -0.573  1.00  0.00     0.010 A 
ATOM     34  C   UNL     1       3.436  10.143  -2.094  1.00  0.00     0.010 A 
ATOM     35  C   UNL     1       4.029  11.146  -1.312  1.00  0.00    -0.014 A 
BRANCH  35  36
ATOM     36  C   UNL     1       5.509  11.266  -1.272  1.00  0.00     0.031 A 
ATOM     37  C   UNL     1       6.281  11.581  -2.525  1.00  0.00     0.074 A 
ATOM     38  C   UNL     1       6.165  11.011  -0.122  1.00  0.00     0.049 A 
ATOM     39  N   UNL     1       7.575  11.675  -2.693  1.00  0.00    -0.248 NA
ATOM     40  C   UNL     1       5.501  11.792  -3.755  1.00  0.00     0.031 C 
ATOM     41  C   UNL     1       5.535  10.620   1.141  1.00  0.00     0.029 A 
ATOM     42  N   UNL     1       7.507  11.015   0.165  1.00  0.00    -0.354 N 
ATOM     43  C   UNL     1       7.765  11.920  -4.048  1.00  0.00     0.074 A 
ATOM     44  C   UNL     1       6.456  11.926  -4.663  1.00  0.00     0.031 C 
ATOM     45  C   UNL     1       6.488  10.428   2.067  1.00  0.00     0.029 A 
ATOM     46  C   UNL     1       7.796  10.647   1.458  1.00  0.00     0.049 A 
ATOM     47  H   UNL     1       8.198  11.259  -0.493  1.00  0.00     0.167 HD
ATOM     48  C   UNL     1       8.921  12.148  -4.716  1.00  0.00     0.034 A 
ATOM     49  C   UNL     1       8.980  10.491   2.081  1.00  0.00     0.034 A 
ATOM     50  C   UNL     1      10.218  12.176  -4.093  1.00  0.00     0.049 A 
ATOM     51  C   UNL     1      10.248  10.778   1.323  1.00  0.00     0.074 A 
ATOM     52  C   UNL     1      11.440  12.483  -4.666  1.00  0.00     0.029 A 
ATOM     53  N   UNL     1      10.465  11.874  -2.763  1.00  0.00    -0.354 N 
ATOM     54  N   UNL     1      10.397  11.163   0.079  1.00  0.00    -0.248 NA
ATOM     55  C   UNL     1      11.510  10.645   2.065  1.00  0.00     0.031 C 
ATOM     56  C   UNL     1      12.430  12.333  -3.690  1.00  0.00     0.029 A 
ATOM     57  C   UNL     1      11.820  11.972  -2.499  1.00  0.00     0.049 A 
ATOM     58  H   UNL     1       9.777  11.626  -2.103  1.00  0.00     0.167 HD
ATOM     59  C   UNL     1      11.762  11.354  -0.100  1.00  0.00     0.074 A 
ATOM     60  C   UNL     1      12.395  11.062   1.170  1.00  0.00     0.031 C 
ATOM     61  C   UNL     1      12.433  11.726  -1.218  1.00  0.00     0.034 A 
BRANCH  48  62
ATOM     62  C   UNL     1       8.835  12.428  -6.194  1.00  0.00     0.023 A 
ATOM     63  C   UNL     1       8.280  13.644  -6.644  1.00  0.00     0.012 A 
ATOM     64  C   UNL     1       9.355  11.518  -7.135  1.00  0.00     0.148 A 
ATOM     65  C   UNL     1       8.209  13.933  -8.006  1.00  0.00     0.002 A 
ATOM     66  C   UNL     1       9.326  11.835  -8.488  1.00  0.00     0.091 A 
ATOM     67  F   UNL     1       9.862  10.359  -6.692  1.00  0.00    -0.205 F 
ATOM     68  C   UNL     1       8.742  13.035  -8.926  1.00  0.00     0.022 A 
BRANCH  66  69
ATOM     69  S   UNL     1      10.059  10.784  -9.747  1.00  0.00     0.127 S 
ATOM     70  O   UNL     1       8.873  10.293 -10.448  1.00  0.00    -0.237 OA
ATOM     71  O   UNL     1      10.867  11.736 -10.509  1.00  0.00    -0.237 OA
ATOM     72  O   UNL     1      10.824   9.772  -9.032  1.00  0.00    -0.744 OA
ENDBRANCH  66  69
ENDBRANCH  48  62
BRANCH  49  73
ATOM     73  C   UNL     1       9.021  10.093   3.517  1.00  0.00     0.023 A 
ATOM     74  C   UNL     1       9.447  11.024   4.484  1.00  0.00     0.012 A 
ATOM     75  C   UNL     1       8.621   8.808   3.930  1.00  0.00     0.148 A 
ATOM     76  C   UNL     1       9.508  10.672   5.832  1.00  0.00     0.002 A 
ATOM     77  C   UNL     1       8.630   8.481   5.281  1.00  0.00     0.091 A 
ATOM     78  F   UNL     1       8.227   7.933   2.994  1.00  0.00    -0.205 F 
ATOM     79  C   UNL     1       9.091   9.405   6.232  1.00  0.00     0.022 A 
BRANCH  77  80
ATOM     80  S   UNL     1       7.989   6.922   5.900  1.00  0.00     0.127 S 
ATOM     81  O   UNL     1       9.206   6.259   6.359  1.00  0.00    -0.237 OA
ATOM     82  O   UNL     1       7.089   7.368   6.964  1.00  0.00    -0.237 OA
ATOM     83  O   UNL     1       7.316   6.295   4.769  1.00  0.00    -0.744 OA
ENDBRANCH  77  80
ENDBRANCH  49  73
BRANCH  61  84
ATOM     84  C   UNL     1      13.928  11.885  -1.118  1.00  0.00     0.023 A 
ATOM     85  C   UNL     1      14.752  10.750  -0.988  1.00  0.00     0.012 A 
ATOM     86  C   UNL     1      14.520  13.160  -1.226  1.00  0.00     0.148 A 
ATOM     87  C   UNL     1      16.139  10.883  -0.930  1.00  0.00     0.002 A 
ATOM     88  C   UNL     1      15.903  13.280  -1.222  1.00  0.00     0.091 A 
ATOM     89  F   UNL     1      13.718  14.230  -1.332  1.00  0.00    -0.205 F 
ATOM     90  C   UNL     1      16.714  12.145  -1.060  1.00  0.00     0.022 A 
BRANCH  88  91
ATOM     91  S   UNL     1      16.735  14.851  -1.482  1.00  0.00     0.127 S 
ATOM     92  O   UNL     1      17.286  15.120  -0.155  1.00  0.00    -0.237 OA
ATOM     93  O   UNL     1      17.731  14.508  -2.498  1.00  0.00    -0.237 OA
ATOM     94  O   UNL     1      15.709  15.781  -1.931  1.00  0.00    -0.744 OA
ENDBRANCH  88  91
ENDBRANCH  61  84
ENDBRANCH  35  36
ENDBRANCH  27  30
ENDBRANCH  25  26
ENDBRANCH  24  25
ENDBRANCH   1  24
TORSDOF 17
