REMARK SMILES O=C(NCCCCCCNC(=O)c1cncc(Oc2cc(F)ccc2F)n1)c1ccc(-c2c3nc(c(-c4cccc(S(=O)(=O)[O-])c4F)c4ccc([nH]4)c(-c4cccc(S(=O)(=O)[O-])c4F)c4nc(c(-c5cccc(S(=O)(=O)[O-])c5F)c5ccc2[nH]5)C=C4)C=C3)cc1
REMARK SMILES IDX 6 1 5 2 4 3 3 4 1 5 2 6 28 8 29 9 90 10 30 11 89 12 31 13
REMARK SMILES IDX 32 14 33 15 83 16 34 17 88 18 82 19 84 20 35 21 87 22 81 23
REMARK SMILES IDX 80 24 36 26 68 27 48 28 67 29 49 30 52 31 66 32 85 33 50 34
REMARK SMILES IDX 51 35 65 37 86 38 53 39 37 40 38 41 46 42 39 43 41 44 47 45
REMARK SMILES IDX 40 46 42 47 43 48 44 49 45 50 69 51 70 52 78 53 71 54 73 55
REMARK SMILES IDX 79 56 72 57 74 58 75 59 76 60 77 61 54 62 55 63 63 64 56 65
REMARK SMILES IDX 58 66 64 67 57 68 59 69 60 70 61 71 62 72 7 73 8 74 9 75
REMARK SMILES IDX 10 76 11 77 12 79 13 80 14 81 27 82 15 83 17 84 16 85 18 86
REMARK SMILES IDX 19 87 20 88 25 89 21 90 24 91 26 92 22 93 23 94
REMARK H PARENT 3 7 84 25 52 36 10 78
REMARK Flexibility Score: inf
ROOT
ATOM      1  C   UNL     1       4.179  -3.644   1.644  1.00  0.00     0.002 C 
ENDROOT
BRANCH   1   2
ATOM      2  C   UNL     1       4.633  -2.186   1.718  1.00  0.00     0.021 C 
BRANCH   2   3
ATOM      3  C   UNL     1       4.379  -1.361   0.462  1.00  0.00     0.116 C 
BRANCH   3   4
ATOM      4  N   UNL     1       2.965  -1.197   0.174  1.00  0.00    -0.352 N 
ATOM      5  O   UNL     1       1.031  -0.083  -0.132  1.00  0.00    -0.269 OA
ATOM      6  C   UNL     1       2.256  -0.043  -0.062  1.00  0.00     0.251 C 
ATOM      7  H   UNL     1       2.440  -2.029   0.145  1.00  0.00     0.163 HD
BRANCH   6   8
ATOM      8  C   UNL     1       2.971   1.247  -0.202  1.00  0.00     0.039 A 
ATOM      9  C   UNL     1       4.126   1.343  -0.983  1.00  0.00     0.014 A 
ATOM     10  C   UNL     1       2.474   2.377   0.454  1.00  0.00     0.014 A 
ATOM     11  C   UNL     1       4.855   2.529  -0.999  1.00  0.00     0.010 A 
ATOM     12  C   UNL     1       3.165   3.589   0.371  1.00  0.00     0.010 A 
ATOM     13  C   UNL     1       4.378   3.669  -0.331  1.00  0.00    -0.014 A 
BRANCH  13  14
ATOM     14  C   UNL     1       5.122   4.949  -0.447  1.00  0.00     0.031 A 
ATOM     15  C   UNL     1       5.751   5.602   0.753  1.00  0.00     0.074 A 
ATOM     16  C   UNL     1       5.221   5.529  -1.659  1.00  0.00     0.049 A 
ATOM     17  N   UNL     1       6.453   6.705   0.813  1.00  0.00    -0.248 NA
ATOM     18  C   UNL     1       5.565   4.941   2.055  1.00  0.00     0.031 C 
ATOM     19  C   UNL     1       4.609   5.014  -2.888  1.00  0.00     0.029 A 
ATOM     20  N   UNL     1       5.863   6.671  -2.062  1.00  0.00    -0.354 N 
ATOM     21  C   UNL     1       6.762   6.893   2.155  1.00  0.00     0.074 A 
ATOM     22  C   UNL     1       6.164   5.791   2.880  1.00  0.00     0.031 C 
ATOM     23  C   UNL     1       4.921   5.825  -3.908  1.00  0.00     0.029 A 
ATOM     24  C   UNL     1       5.715   6.940  -3.403  1.00  0.00     0.049 A 
ATOM     25  H   UNL     1       6.380   7.244  -1.451  1.00  0.00     0.167 HD
ATOM     26  C   UNL     1       7.490   7.882   2.727  1.00  0.00     0.034 A 
ATOM     27  C   UNL     1       6.155   7.974  -4.145  1.00  0.00     0.034 A 
ATOM     28  C   UNL     1       8.113   8.955   1.996  1.00  0.00     0.049 A 
ATOM     29  C   UNL     1       6.983   9.040  -3.487  1.00  0.00     0.074 A 
ATOM     30  C   UNL     1       8.928   9.964   2.478  1.00  0.00     0.029 A 
ATOM     31  N   UNL     1       7.983   9.166   0.632  1.00  0.00    -0.354 N 
ATOM     32  N   UNL     1       7.381   9.121  -2.241  1.00  0.00    -0.248 NA
ATOM     33  C   UNL     1       7.446  10.141  -4.342  1.00  0.00     0.031 C 
ATOM     34  C   UNL     1       9.278  10.795   1.407  1.00  0.00     0.029 A 
ATOM     35  C   UNL     1       8.694  10.293   0.256  1.00  0.00     0.049 A 
ATOM     36  H   UNL     1       7.462   8.598   0.020  1.00  0.00     0.167 HD
ATOM     37  C   UNL     1       8.159  10.269  -2.165  1.00  0.00     0.074 A 
ATOM     38  C   UNL     1       8.200  10.834  -3.499  1.00  0.00     0.031 C 
ATOM     39  C   UNL     1       8.766  10.818  -1.084  1.00  0.00     0.034 A 
BRANCH  26  40
ATOM     40  C   UNL     1       7.700   7.831   4.219  1.00  0.00     0.023 A 
ATOM     41  C   UNL     1       8.603   6.893   4.760  1.00  0.00     0.012 A 
ATOM     42  C   UNL     1       7.070   8.755   5.075  1.00  0.00     0.148 A 
ATOM     43  C   UNL     1       8.856   6.859   6.131  1.00  0.00     0.002 A 
ATOM     44  C   UNL     1       7.355   8.739   6.436  1.00  0.00     0.091 A 
ATOM     45  F   UNL     1       6.199   9.627   4.546  1.00  0.00    -0.205 F 
ATOM     46  C   UNL     1       8.241   7.787   6.966  1.00  0.00     0.022 A 
BRANCH  44  47
ATOM     47  S   UNL     1       6.669   9.941   7.583  1.00  0.00     0.127 S 
ATOM     48  O   UNL     1       5.677   9.137   8.294  1.00  0.00    -0.237 OA
ATOM     49  O   UNL     1       7.839  10.311   8.381  1.00  0.00    -0.237 OA
ATOM     50  O   UNL     1       6.134  11.017   6.760  1.00  0.00    -0.744 OA
ENDBRANCH  44  47
ENDBRANCH  26  40
BRANCH  27  51
ATOM     51  C   UNL     1       5.859   8.011  -5.604  1.00  0.00     0.023 A 
ATOM     52  C   UNL     1       6.902   7.806  -6.527  1.00  0.00     0.012 A 
ATOM     53  C   UNL     1       4.544   8.186  -6.078  1.00  0.00     0.148 A 
ATOM     54  C   UNL     1       6.644   7.796  -7.898  1.00  0.00     0.002 A 
ATOM     55  C   UNL     1       4.285   8.116  -7.441  1.00  0.00     0.091 A 
ATOM     56  F   UNL     1       3.568   8.398  -5.184  1.00  0.00    -0.205 F 
ATOM     57  C   UNL     1       5.335   7.937  -8.354  1.00  0.00     0.022 A 
BRANCH  55  58
ATOM     58  S   UNL     1       2.613   8.139  -8.097  1.00  0.00     0.127 S 
ATOM     59  O   UNL     1       2.524   9.490  -8.642  1.00  0.00    -0.237 OA
ATOM     60  O   UNL     1       2.662   7.072  -9.098  1.00  0.00    -0.237 OA
ATOM     61  O   UNL     1       1.748   7.850  -6.961  1.00  0.00    -0.744 OA
ENDBRANCH  55  58
ENDBRANCH  27  51
BRANCH  39  62
ATOM     62  C   UNL     1       9.544  12.088  -1.300  1.00  0.00     0.023 A 
ATOM     63  C   UNL     1       8.855  13.299  -1.507  1.00  0.00     0.012 A 
ATOM     64  C   UNL     1      10.951  12.094  -1.235  1.00  0.00     0.148 A 
ATOM     65  C   UNL     1       9.555  14.492  -1.678  1.00  0.00     0.002 A 
ATOM     66  C   UNL     1      11.641  13.294  -1.361  1.00  0.00     0.091 A 
ATOM     67  F   UNL     1      11.590  10.928  -1.060  1.00  0.00    -0.205 F 
ATOM     68  C   UNL     1      10.945  14.492  -1.593  1.00  0.00     0.022 A 
BRANCH  66  69
ATOM     69  S   UNL     1      13.425  13.398  -1.178  1.00  0.00     0.127 S 
ATOM     70  O   UNL     1      13.859  13.549  -2.565  1.00  0.00    -0.237 OA
ATOM     71  O   UNL     1      13.586  14.597  -0.355  1.00  0.00    -0.237 OA
ATOM     72  O   UNL     1      13.830  12.161  -0.523  1.00  0.00    -0.744 OA
ENDBRANCH  66  69
ENDBRANCH  39  62
ENDBRANCH  13  14
ENDBRANCH   6   8
ENDBRANCH   3   4
ENDBRANCH   2   3
ENDBRANCH   1   2
BRANCH   1  73
ATOM     73  C   UNL     1       4.747  -4.458   0.478  1.00  0.00     0.002 C 
BRANCH  73  74
ATOM     74  C   UNL     1       6.274  -4.453   0.337  1.00  0.00     0.021 C 
BRANCH  74  75
ATOM     75  C   UNL     1       7.050  -4.887   1.579  1.00  0.00     0.116 C 
BRANCH  75  76
ATOM     76  N   UNL     1       6.744  -6.253   1.970  1.00  0.00    -0.351 N 
ATOM     77  C   UNL     1       7.599  -7.312   2.171  1.00  0.00     0.271 C 
ATOM     78  H   UNL     1       5.789  -6.448   2.110  1.00  0.00     0.163 HD
ATOM     79  O   UNL     1       7.145  -8.429   2.405  1.00  0.00    -0.267 OA
BRANCH  77  80
ATOM     80  C   UNL     1       9.064  -7.096   2.134  1.00  0.00     0.150 A 
ATOM     81  C   UNL     1       9.653  -6.227   3.044  1.00  0.00     0.145 A 
ATOM     82  N   UNL     1       9.775  -7.785   1.203  1.00  0.00    -0.205 NA
ATOM     83  N   UNL     1      10.984  -5.972   3.042  1.00  0.00    -0.257 NA
ATOM     84  C   UNL     1      11.105  -7.542   1.213  1.00  0.00     0.238 A 
ATOM     85  C   UNL     1      11.693  -6.648   2.103  1.00  0.00     0.179 A 
BRANCH  84  86
ATOM     86  O   UNL     1      11.954  -8.157   0.302  1.00  0.00    -0.434 OA
BRANCH  86  87
ATOM     87  C   UNL     1      11.460  -9.239  -0.383  1.00  0.00     0.168 A 
ATOM     88  C   UNL     1      10.521  -9.092  -1.403  1.00  0.00     0.089 A 
ATOM     89  C   UNL     1      12.012 -10.495  -0.121  1.00  0.00     0.166 A 
ATOM     90  C   UNL     1      10.120 -10.215  -2.119  1.00  0.00     0.127 A 
ATOM     91  C   UNL     1      11.612 -11.615  -0.846  1.00  0.00     0.046 A 
ATOM     92  F   UNL     1      12.949 -10.635   0.828  1.00  0.00    -0.203 F 
ATOM     93  F   UNL     1       9.215 -10.085  -3.097  1.00  0.00    -0.207 F 
ATOM     94  C   UNL     1      10.656 -11.474  -1.852  1.00  0.00     0.042 A 
ENDBRANCH  86  87
ENDBRANCH  84  86
ENDBRANCH  77  80
ENDBRANCH  75  76
ENDBRANCH  74  75
ENDBRANCH  73  74
ENDBRANCH   1  73
TORSDOF 18
