REMARK SMILES O=C(CSc1nnnn1-c1ccc(C(=O)NCCCCCCNC(=O)c2ccc(-c3c4nc(c(-c5cccc(S(=O)(=O)[O-])c5F)c5ccc([nH]5)c(-c5cccc(S(=O)(=O)[O-])c5F)c5nc(c(-c6cccc(S(=O)(=O)[O-])c6F)c6ccc3[nH]6)C=C5)C=C4)cc2)cc1)Nc1nc(-c2ccccc2)cs1
REMARK SMILES IDX 18 1 17 2 16 3 14 4 15 5 13 7 10 8 11 9 90 10 12 11 89 12
REMARK SMILES IDX 9 13 5 14 6 15 7 16 8 17 4 18 3 19 2 20 1 21 91 22 92 24
REMARK SMILES IDX 93 25 102 26 94 27 101 28 95 29 96 30 100 31 97 32 99 33
REMARK SMILES IDX 98 34 19 35 20 36 21 37 22 38 23 39 24 40 25 42 26 43 27 44
REMARK SMILES IDX 88 45 28 46 87 47 29 48 30 49 31 50 81 51 32 52 86 53 80 54
REMARK SMILES IDX 82 55 33 56 85 57 79 58 78 59 34 61 66 62 46 63 65 64 47 65
REMARK SMILES IDX 50 66 64 67 83 68 48 69 49 70 63 72 84 73 51 74 35 75 36 76
REMARK SMILES IDX 44 77 37 78 39 79 45 80 38 81 40 82 41 83 42 84 43 85 67 86
REMARK SMILES IDX 68 87 76 88 69 89 71 90 77 91 70 92 72 93 73 94 74 95 75 96
REMARK SMILES IDX 52 97 53 98 61 99 54 100 56 101 62 102 55 103 57 104 58 105
REMARK SMILES IDX 59 106 60 107
REMARK H PARENT 16 6 91 23 23 41 82 60 50 71
REMARK Flexibility Score: inf
ROOT
ATOM      1  C   UNL     1       9.849   4.499  -1.926  1.00  0.00     0.021 C 
ENDROOT
BRANCH   1   2
ATOM      2  C   UNL     1       8.857   4.100  -0.832  1.00  0.00     0.116 C 
BRANCH   2   3
ATOM      3  N   UNL     1       8.060   5.244  -0.426  1.00  0.00    -0.352 N 
ATOM      4  C   UNL     1       6.773   5.633  -0.692  1.00  0.00     0.251 C 
ATOM      5  O   UNL     1       6.375   6.666  -0.150  1.00  0.00    -0.269 OA
ATOM      6  H   UNL     1       8.544   5.868   0.162  1.00  0.00     0.163 HD
BRANCH   4   7
ATOM      7  C   UNL     1       5.815   4.828  -1.506  1.00  0.00     0.039 A 
ATOM      8  C   UNL     1       3.877   3.184  -2.694  1.00  0.00     0.069 A 
ATOM      9  C   UNL     1       3.470   4.252  -1.894  1.00  0.00     0.029 A 
ATOM     10  C   UNL     1       5.229   3.010  -3.003  1.00  0.00     0.029 A 
ATOM     11  C   UNL     1       4.443   5.045  -1.278  1.00  0.00     0.016 A 
ATOM     12  C   UNL     1       6.182   3.872  -2.455  1.00  0.00     0.016 A 
BRANCH   8  13
ATOM     13  N   UNL     1       2.926   2.253  -3.153  1.00  0.00    -0.187 N 
ATOM     14  C   UNL     1       2.949   0.872  -3.065  1.00  0.00     0.214 A 
ATOM     15  N   UNL     1       1.842   0.392  -3.580  1.00  0.00    -0.101 NA
ATOM     16  N   UNL     1       1.091   1.487  -3.927  1.00  0.00    -0.022 NA
ATOM     17  N   UNL     1       1.694   2.616  -3.574  1.00  0.00    -0.039 NA
BRANCH  14  18
ATOM     18  S   UNL     1       4.080  -0.022  -2.094  1.00  0.00    -0.074 SA
BRANCH  18  19
ATOM     19  C   UNL     1       2.949  -0.901  -0.976  1.00  0.00     0.178 C 
BRANCH  19  20
ATOM     20  C   UNL     1       2.161   0.007  -0.038  1.00  0.00     0.236 C 
ATOM     21  O   UNL     1       0.988  -0.256   0.218  1.00  0.00    -0.274 OA
ATOM     22  N   UNL     1       2.896   1.030   0.525  1.00  0.00    -0.301 N 
ATOM     23  H   UNL     1       3.823   1.171   0.223  1.00  0.00     0.172 HD
BRANCH  22  24
ATOM     24  C   UNL     1       2.382   1.855   1.489  1.00  0.00     0.189 A 
ATOM     25  N   UNL     1       1.282   1.739   2.188  1.00  0.00    -0.220 NA
ATOM     26  S   UNL     1       3.348   3.224   1.824  1.00  0.00    -0.105 S 
ATOM     27  C   UNL     1       1.132   2.849   2.999  1.00  0.00     0.084 A 
ATOM     28  C   UNL     1       2.141   3.788   2.908  1.00  0.00     0.097 A 
BRANCH  27  29
ATOM     29  C   UNL     1       0.008   2.984   3.906  1.00  0.00     0.001 A 
ATOM     30  C   UNL     1      -0.121   2.100   4.985  1.00  0.00     0.010 A 
ATOM     31  C   UNL     1      -0.949   3.988   3.721  1.00  0.00     0.010 A 
ATOM     32  C   UNL     1      -1.186   2.232   5.880  1.00  0.00     0.001 A 
ATOM     33  C   UNL     1      -2.019   4.112   4.611  1.00  0.00     0.001 A 
ATOM     34  C   UNL     1      -2.133   3.238   5.693  1.00  0.00     0.000 A 
ENDBRANCH  27  29
ENDBRANCH  22  24
ENDBRANCH  19  20
ENDBRANCH  18  19
ENDBRANCH  14  18
ENDBRANCH   8  13
ENDBRANCH   4   7
ENDBRANCH   2   3
ENDBRANCH   1   2
BRANCH   1  35
ATOM     35  C   UNL     1      11.098   5.207  -1.383  1.00  0.00     0.002 C 
BRANCH  35  36
ATOM     36  C   UNL     1      11.909   4.410  -0.347  1.00  0.00     0.002 C 
BRANCH  36  37
ATOM     37  C   UNL     1      12.299   2.983  -0.760  1.00  0.00     0.021 C 
BRANCH  37  38
ATOM     38  C   UNL     1      13.326   2.950  -1.882  1.00  0.00     0.116 C 
BRANCH  38  39
ATOM     39  N   UNL     1      14.619   3.465  -1.437  1.00  0.00    -0.352 N 
ATOM     40  C   UNL     1      15.786   3.605  -2.160  1.00  0.00     0.251 C 
ATOM     41  H   UNL     1      14.663   3.750  -0.495  1.00  0.00     0.163 HD
ATOM     42  O   UNL     1      16.859   3.726  -1.594  1.00  0.00    -0.269 OA
BRANCH  40  43
ATOM     43  C   UNL     1      15.705   3.601  -3.630  1.00  0.00     0.039 A 
ATOM     44  C   UNL     1      16.647   2.904  -4.392  1.00  0.00     0.014 A 
ATOM     45  C   UNL     1      14.660   4.292  -4.238  1.00  0.00     0.014 A 
ATOM     46  C   UNL     1      16.486   2.849  -5.773  1.00  0.00     0.010 A 
ATOM     47  C   UNL     1      14.424   4.122  -5.579  1.00  0.00     0.010 A 
ATOM     48  C   UNL     1      15.361   3.448  -6.358  1.00  0.00    -0.014 A 
BRANCH  48  49
ATOM     49  C   UNL     1      15.093   3.287  -7.782  1.00  0.00     0.031 A 
ATOM     50  C   UNL     1      14.960   1.875  -8.242  1.00  0.00     0.074 A 
ATOM     51  C   UNL     1      14.752   4.330  -8.569  1.00  0.00     0.049 A 
ATOM     52  N   UNL     1      15.695   1.246  -9.100  1.00  0.00    -0.248 NA
ATOM     53  C   UNL     1      13.961   1.023  -7.578  1.00  0.00     0.031 C 
ATOM     54  C   UNL     1      14.514   5.724  -8.167  1.00  0.00     0.029 A 
ATOM     55  N   UNL     1      14.380   4.330  -9.877  1.00  0.00    -0.354 N 
ATOM     56  C   UNL     1      15.113  -0.013  -9.248  1.00  0.00     0.074 A 
ATOM     57  C   UNL     1      14.180  -0.156  -8.162  1.00  0.00     0.031 C 
ATOM     58  C   UNL     1      13.787   6.347  -9.119  1.00  0.00     0.029 A 
ATOM     59  C   UNL     1      13.670   5.463 -10.261  1.00  0.00     0.049 A 
ATOM     60  H   UNL     1      14.594   3.595 -10.496  1.00  0.00     0.167 HD
ATOM     61  C   UNL     1      15.271  -0.745 -10.386  1.00  0.00     0.034 A 
ATOM     62  C   UNL     1      12.985   5.638 -11.416  1.00  0.00     0.034 A 
ATOM     63  C   UNL     1      16.349  -0.235 -11.194  1.00  0.00     0.049 A 
ATOM     64  C   UNL     1      13.500   4.645 -12.383  1.00  0.00     0.074 A 
ATOM     65  C   UNL     1      17.703  -0.042 -11.008  1.00  0.00     0.029 A 
ATOM     66  N   UNL     1      16.003   0.531 -12.279  1.00  0.00    -0.354 N 
ATOM     67  N   UNL     1      14.715   4.662 -12.854  1.00  0.00    -0.248 NA
ATOM     68  C   UNL     1      12.798   3.379 -12.503  1.00  0.00     0.031 C 
ATOM     69  C   UNL     1      17.987   1.189 -11.669  1.00  0.00     0.029 A 
ATOM     70  C   UNL     1      16.810   1.637 -12.274  1.00  0.00     0.049 A 
ATOM     71  H   UNL     1      15.303   0.324 -12.940  1.00  0.00     0.167 HD
ATOM     72  C   UNL     1      15.085   3.325 -12.897  1.00  0.00     0.074 A 
ATOM     73  C   UNL     1      13.831   2.582 -12.789  1.00  0.00     0.031 C 
ATOM     74  C   UNL     1      16.386   2.947 -12.719  1.00  0.00     0.034 A 
BRANCH  61  75
ATOM     75  C   UNL     1      14.252  -1.706 -10.958  1.00  0.00     0.023 A 
ATOM     76  C   UNL     1      14.648  -2.498 -12.061  1.00  0.00     0.012 A 
ATOM     77  C   UNL     1      12.871  -1.683 -10.656  1.00  0.00     0.148 A 
ATOM     78  C   UNL     1      13.718  -3.188 -12.846  1.00  0.00     0.002 A 
ATOM     79  C   UNL     1      11.960  -2.438 -11.386  1.00  0.00     0.091 A 
ATOM     80  F   UNL     1      12.399  -0.827  -9.746  1.00  0.00    -0.205 F 
ATOM     81  C   UNL     1      12.372  -3.167 -12.503  1.00  0.00     0.022 A 
BRANCH  79  82
ATOM     82  S   UNL     1      10.219  -2.493 -10.944  1.00  0.00     0.127 S 
ATOM     83  O   UNL     1       9.626  -1.655 -11.981  1.00  0.00    -0.237 OA
ATOM     84  O   UNL     1       9.925  -3.922 -11.055  1.00  0.00    -0.237 OA
ATOM     85  O   UNL     1      10.149  -1.977  -9.581  1.00  0.00    -0.744 OA
ENDBRANCH  79  82
ENDBRANCH  61  75
BRANCH  62  86
ATOM     86  C   UNL     1      11.756   6.421 -11.671  1.00  0.00     0.023 A 
ATOM     87  C   UNL     1      11.452   6.835 -12.982  1.00  0.00     0.012 A 
ATOM     88  C   UNL     1      10.748   6.522 -10.686  1.00  0.00     0.148 A 
ATOM     89  C   UNL     1      10.174   7.301 -13.311  1.00  0.00     0.002 A 
ATOM     90  C   UNL     1       9.480   6.989 -11.017  1.00  0.00     0.091 A 
ATOM     91  F   UNL     1      11.006   6.070  -9.451  1.00  0.00    -0.205 F 
ATOM     92  C   UNL     1       9.185   7.369 -12.332  1.00  0.00     0.022 A 
BRANCH  90  93
ATOM     93  S   UNL     1       8.146   7.072  -9.813  1.00  0.00     0.127 S 
ATOM     94  O   UNL     1       7.637   8.428 -10.018  1.00  0.00    -0.237 OA
ATOM     95  O   UNL     1       7.258   6.007 -10.274  1.00  0.00    -0.237 OA
ATOM     96  O   UNL     1       8.768   6.854  -8.513  1.00  0.00    -0.744 OA
ENDBRANCH  90  93
ENDBRANCH  62  86
BRANCH  74  97
ATOM     97  C   UNL     1      17.447   4.023 -12.720  1.00  0.00     0.023 A 
ATOM     98  C   UNL     1      17.488   5.046 -11.749  1.00  0.00     0.012 A 
ATOM     99  C   UNL     1      18.527   3.891 -13.608  1.00  0.00     0.148 A 
ATOM    100  C   UNL     1      18.570   5.929 -11.679  1.00  0.00     0.002 A 
ATOM    101  C   UNL     1      19.624   4.738 -13.504  1.00  0.00     0.091 A 
ATOM    102  F   UNL     1      18.478   2.912 -14.524  1.00  0.00    -0.205 F 
ATOM    103  C   UNL     1      19.646   5.765 -12.547  1.00  0.00     0.022 A 
BRANCH 101 104
ATOM    104  S   UNL     1      21.094   4.490 -14.503  1.00  0.00     0.127 S 
ATOM    105  O   UNL     1      20.972   5.555 -15.495  1.00  0.00    -0.237 OA
ATOM    106  O   UNL     1      22.172   4.679 -13.530  1.00  0.00    -0.237 OA
ATOM    107  O   UNL     1      20.998   3.131 -15.023  1.00  0.00    -0.744 OA
ENDBRANCH 101 104
ENDBRANCH  74  97
ENDBRANCH  48  49
ENDBRANCH  40  43
ENDBRANCH  38  39
ENDBRANCH  37  38
ENDBRANCH  36  37
ENDBRANCH  35  36
ENDBRANCH   1  35
TORSDOF 22
