REMARK SMILES COc1ccccc1[C@@H]1C[N@@H+](Cc2cn3cc(C)ccc3n2)C[C@H]1C(=O)NCCCCCCNC(=O)c1ccc(-c2c3nc(c(-c4cccc(S(=O)(=O)[O-])c4F)c4ccc([nH]4)c(-c4cccc(S(=O)(=O)[O-])c4F)c4nc(c(-c5cccc(S(=O)(=O)[O-])c5F)c5ccc2[nH]5)C=C4)C=C3)cc1
REMARK SMILES IDX 31 1 30 2 29 3 28 4 27 5 25 6 26 7 24 9 9 10 10 11 11 12
REMARK SMILES IDX 23 13 8 15 3 16 4 17 5 18 7 19 6 20 2 21 1 22 12 23 13 24
REMARK SMILES IDX 14 25 22 26 15 27 21 28 16 29 20 30 17 31 19 32 18 33 32 34
REMARK SMILES IDX 33 35 34 36 35 37 36 39 37 40 38 41 99 42 39 43 98 44 40 45
REMARK SMILES IDX 41 46 42 47 92 48 43 49 97 50 91 51 93 52 44 53 96 54 90 55
REMARK SMILES IDX 89 56 45 58 77 59 57 60 76 61 58 62 61 63 75 64 94 65 59 66
REMARK SMILES IDX 60 67 74 69 95 70 62 71 46 72 47 73 55 74 48 75 50 76 56 77
REMARK SMILES IDX 49 78 51 79 52 80 53 81 54 82 78 83 79 84 87 85 80 86 82 87
REMARK SMILES IDX 88 88 81 89 83 90 84 91 85 92 86 93 63 94 64 95 72 96 65 97
REMARK SMILES IDX 67 98 73 99 66 100 68 101 69 102 70 103 71 104
REMARK H PARENT 27 8 11 14 34 38 93 57 61 68
REMARK Flexibility Score: inf
ROOT
ATOM      1  C   UNL     1       8.505  -4.391   1.879  1.00  0.00     0.002 C 
ENDROOT
BRANCH   1   2
ATOM      2  C   UNL     1       7.304  -3.994   2.734  1.00  0.00     0.002 C 
BRANCH   2   3
ATOM      3  C   UNL     1       6.501  -2.793   2.253  1.00  0.00     0.021 C 
BRANCH   3   4
ATOM      4  C   UNL     1       5.491  -2.958   1.103  1.00  0.00     0.116 C 
BRANCH   4   5
ATOM      5  N   UNL     1       4.097  -2.967   1.585  1.00  0.00    -0.356 N 
ATOM      6  C   UNL     1       3.048  -2.095   1.638  1.00  0.00     0.229 C 
ATOM      7  O   UNL     1       2.170  -2.442   2.450  1.00  0.00    -0.275 OA
ATOM      8  H   UNL     1       3.858  -3.839   1.975  1.00  0.00     0.163 HD
BRANCH   6   9
ATOM      9  C   UNL     1       2.740  -0.867   0.747  1.00  0.00     0.146 C 
ATOM     10  C   UNL     1       2.559   0.507   1.464  1.00  0.00     0.096 C 
ATOM     11  C   UNL     1       3.074   1.549   0.459  1.00  0.00     0.272 C 
ATOM     12  N   UNL     1       4.117   0.860  -0.325  1.00  0.00    -0.329 N 
ATOM     13  C   UNL     1       3.654  -0.533  -0.434  1.00  0.00     0.276 C 
ATOM     14  H   UNL     1       4.223   1.266  -1.254  1.00  0.00     0.348 HD
BRANCH  10  15
ATOM     15  C   UNL     1       1.403   0.954   2.347  1.00  0.00     0.004 A 
ATOM     16  C   UNL     1       0.107   1.333   1.982  1.00  0.00     0.122 A 
ATOM     17  C   UNL     1      -0.774   1.857   2.955  1.00  0.00     0.047 A 
ATOM     18  C   UNL     1      -0.385   2.054   4.281  1.00  0.00     0.004 A 
ATOM     19  C   UNL     1       1.767   1.199   3.707  1.00  0.00     0.008 A 
ATOM     20  C   UNL     1       0.905   1.744   4.654  1.00  0.00     0.001 A 
BRANCH  16  21
ATOM     21  O   UNL     1      -0.386   1.445   0.711  1.00  0.00    -0.496 OA
ATOM     22  C   UNL     1      -0.315   0.278  -0.083  1.00  0.00     0.278 C 
ENDBRANCH  16  21
ENDBRANCH  10  15
BRANCH  12  23
ATOM     23  C   UNL     1       5.509   1.056   0.181  1.00  0.00     0.321 C 
BRANCH  23  24
ATOM     24  C   UNL     1       5.754   0.812   1.649  1.00  0.00     0.114 A 
ATOM     25  C   UNL     1       6.478   1.508   2.608  1.00  0.00     0.122 A 
ATOM     26  N   UNL     1       5.206  -0.292   2.237  1.00  0.00    -0.228 NA
ATOM     27  N   UNL     1       6.267   0.848   3.808  1.00  0.00    -0.306 N 
ATOM     28  C   UNL     1       5.349  -0.142   3.531  1.00  0.00     0.137 A 
ATOM     29  C   UNL     1       6.850   0.973   5.070  1.00  0.00     0.096 A 
ATOM     30  C   UNL     1       4.806  -0.890   4.608  1.00  0.00     0.048 A 
ATOM     31  C   UNL     1       6.486   0.117   6.055  1.00  0.00    -0.034 A 
ATOM     32  C   UNL     1       5.368  -0.791   5.819  1.00  0.00     0.009 A 
ATOM     33  C   UNL     1       7.136  -0.008   7.392  1.00  0.00     0.046 C 
ENDBRANCH  23  24
ENDBRANCH  12  23
ENDBRANCH   6   9
ENDBRANCH   4   5
ENDBRANCH   3   4
ENDBRANCH   2   3
ENDBRANCH   1   2
BRANCH   1  34
ATOM     34  C   UNL     1       9.519  -3.285   1.546  1.00  0.00     0.021 C 
BRANCH  34  35
ATOM     35  C   UNL     1      10.064  -2.510   2.744  1.00  0.00     0.116 C 
BRANCH  35  36
ATOM     36  N   UNL     1      10.848  -3.349   3.641  1.00  0.00    -0.352 N 
ATOM     37  C   UNL     1      11.747  -2.964   4.614  1.00  0.00     0.251 C 
ATOM     38  H   UNL     1      10.719  -4.319   3.539  1.00  0.00     0.163 HD
ATOM     39  O   UNL     1      12.539  -3.771   5.072  1.00  0.00    -0.269 OA
BRANCH  37  40
ATOM     40  C   UNL     1      11.732  -1.573   5.114  1.00  0.00     0.039 A 
ATOM     41  C   UNL     1      12.935  -0.928   5.429  1.00  0.00     0.014 A 
ATOM     42  C   UNL     1      10.513  -0.934   5.325  1.00  0.00     0.014 A 
ATOM     43  C   UNL     1      12.905   0.376   5.922  1.00  0.00     0.010 A 
ATOM     44  C   UNL     1      10.495   0.381   5.734  1.00  0.00     0.010 A 
ATOM     45  C   UNL     1      11.676   1.024   6.077  1.00  0.00    -0.014 A 
BRANCH  45  46
ATOM     46  C   UNL     1      11.610   2.436   6.440  1.00  0.00     0.031 A 
ATOM     47  C   UNL     1      12.239   3.343   5.448  1.00  0.00     0.074 A 
ATOM     48  C   UNL     1      10.842   2.921   7.439  1.00  0.00     0.049 A 
ATOM     49  N   UNL     1      13.312   4.043   5.603  1.00  0.00    -0.248 NA
ATOM     50  C   UNL     1      11.702   3.365   4.079  1.00  0.00     0.031 C 
ATOM     51  C   UNL     1       9.906   2.180   8.288  1.00  0.00     0.029 A 
ATOM     52  N   UNL     1      10.621   4.214   7.808  1.00  0.00    -0.354 N 
ATOM     53  C   UNL     1      13.444   4.787   4.434  1.00  0.00     0.074 A 
ATOM     54  C   UNL     1      12.573   4.172   3.468  1.00  0.00     0.031 C 
ATOM     55  C   UNL     1       9.039   3.043   8.864  1.00  0.00     0.029 A 
ATOM     56  C   UNL     1       9.471   4.397   8.572  1.00  0.00     0.049 A 
ATOM     57  H   UNL     1      11.221   4.953   7.557  1.00  0.00     0.167 HD
ATOM     58  C   UNL     1      14.053   6.005   4.444  1.00  0.00     0.034 A 
ATOM     59  C   UNL     1       8.893   5.578   8.902  1.00  0.00     0.034 A 
ATOM     60  C   UNL     1      14.764   6.222   5.680  1.00  0.00     0.049 A 
ATOM     61  C   UNL     1       9.926   6.626   8.756  1.00  0.00     0.074 A 
ATOM     62  C   UNL     1      15.770   5.574   6.367  1.00  0.00     0.029 A 
ATOM     63  N   UNL     1      14.167   7.067   6.585  1.00  0.00    -0.354 N 
ATOM     64  N   UNL     1      10.978   6.711   9.520  1.00  0.00    -0.248 NA
ATOM     65  C   UNL     1      10.004   7.351   7.499  1.00  0.00     0.031 C 
ATOM     66  C   UNL     1      15.428   5.720   7.744  1.00  0.00     0.029 A 
ATOM     67  C   UNL     1      14.272   6.498   7.824  1.00  0.00     0.049 A 
ATOM     68  H   UNL     1      13.740   7.929   6.378  1.00  0.00     0.167 HD
ATOM     69  C   UNL     1      11.998   7.082   8.655  1.00  0.00     0.074 A 
ATOM     70  C   UNL     1      11.317   7.593   7.468  1.00  0.00     0.031 C 
ATOM     71  C   UNL     1      13.279   6.658   8.864  1.00  0.00     0.034 A 
BRANCH  58  72
ATOM     72  C   UNL     1      13.698   7.175   3.548  1.00  0.00     0.023 A 
ATOM     73  C   UNL     1      14.520   8.323   3.645  1.00  0.00     0.012 A 
ATOM     74  C   UNL     1      12.473   7.326   2.861  1.00  0.00     0.148 A 
ATOM     75  C   UNL     1      14.107   9.569   3.163  1.00  0.00     0.002 A 
ATOM     76  C   UNL     1      12.102   8.549   2.312  1.00  0.00     0.091 A 
ATOM     77  F   UNL     1      11.583   6.332   2.844  1.00  0.00    -0.205 F 
ATOM     78  C   UNL     1      12.897   9.682   2.492  1.00  0.00     0.022 A 
BRANCH  76  79
ATOM     79  S   UNL     1      10.571   8.741   1.391  1.00  0.00     0.127 S 
ATOM     80  O   UNL     1       9.756   9.498   2.336  1.00  0.00    -0.237 OA
ATOM     81  O   UNL     1      11.021   9.489   0.217  1.00  0.00    -0.237 OA
ATOM     82  O   UNL     1      10.119   7.386   1.097  1.00  0.00    -0.744 OA
ENDBRANCH  76  79
ENDBRANCH  58  72
BRANCH  59  83
ATOM     83  C   UNL     1       7.472   5.917   9.140  1.00  0.00     0.023 A 
ATOM     84  C   UNL     1       7.143   7.089   9.852  1.00  0.00     0.012 A 
ATOM     85  C   UNL     1       6.445   5.260   8.427  1.00  0.00     0.148 A 
ATOM     86  C   UNL     1       5.846   7.615   9.817  1.00  0.00     0.002 A 
ATOM     87  C   UNL     1       5.156   5.785   8.398  1.00  0.00     0.091 A 
ATOM     88  F   UNL     1       6.756   4.178   7.700  1.00  0.00    -0.205 F 
ATOM     89  C   UNL     1       4.856   6.971   9.081  1.00  0.00     0.022 A 
BRANCH  87  90
ATOM     90  S   UNL     1       3.838   5.028   7.436  1.00  0.00     0.127 S 
ATOM     91  O   UNL     1       2.746   4.976   8.408  1.00  0.00    -0.237 OA
ATOM     92  O   UNL     1       3.660   5.997   6.360  1.00  0.00    -0.237 OA
ATOM     93  O   UNL     1       4.343   3.721   7.033  1.00  0.00    -0.744 OA
ENDBRANCH  87  90
ENDBRANCH  59  83
BRANCH  71  94
ATOM     94  C   UNL     1      13.623   6.067  10.208  1.00  0.00     0.023 A 
ATOM     95  C   UNL     1      13.021   4.891  10.700  1.00  0.00     0.012 A 
ATOM     96  C   UNL     1      14.699   6.628  10.917  1.00  0.00     0.148 A 
ATOM     97  C   UNL     1      13.465   4.303  11.888  1.00  0.00     0.002 A 
ATOM     98  C   UNL     1      15.170   6.013  12.069  1.00  0.00     0.091 A 
ATOM     99  F   UNL     1      15.262   7.747  10.436  1.00  0.00    -0.205 F 
ATOM    100  C   UNL     1      14.550   4.856  12.565  1.00  0.00     0.022 A 
BRANCH  98 101
ATOM    101  S   UNL     1      16.642   6.608  12.905  1.00  0.00     0.127 S 
ATOM    102  O   UNL     1      16.076   7.323  14.047  1.00  0.00    -0.237 OA
ATOM    103  O   UNL     1      17.337   5.365  13.245  1.00  0.00    -0.237 OA
ATOM    104  O   UNL     1      17.346   7.432  11.931  1.00  0.00    -0.744 OA
ENDBRANCH  98 101
ENDBRANCH  71  94
ENDBRANCH  45  46
ENDBRANCH  37  40
ENDBRANCH  35  36
ENDBRANCH  34  35
ENDBRANCH   1  34
TORSDOF 20
