REMARK SMILES C[C@H](NC(=O)N1CC[C@@H](C(=O)NCCCCCCNC(=O)c2ccc(-c3c4nc(c(-c5cccc(S(=O)(=O)[O-])c5F)c5ccc([nH]5)c(-c5cccc(S(=O)(=O)[O-])c5F)c5nc(c(-c6cccc(S(=O)(=O)[O-])c6F)c6ccc3[nH]6)C=C5)C=C4)cc2)[C@H]1C)c1ccc(Cl)cc1
REMARK SMILES IDX 15 1 14 2 13 3 12 4 10 5 11 6 9 8 6 9 7 10 85 11 8 12 86 13
REMARK SMILES IDX 4 14 3 15 5 17 2 18 1 19 87 20 88 21 93 22 89 23 92 24 90 25
REMARK SMILES IDX 91 26 16 27 17 28 18 29 19 30 20 31 21 33 22 34 23 35 84 36
REMARK SMILES IDX 24 37 83 38 25 39 26 40 27 41 77 42 28 43 82 44 76 45 78 46
REMARK SMILES IDX 29 47 81 48 75 49 74 50 30 52 62 53 42 54 61 55 43 56 46 57
REMARK SMILES IDX 60 58 79 59 44 60 45 61 59 63 80 64 47 65 31 66 32 67 40 68
REMARK SMILES IDX 33 69 35 70 41 71 34 72 36 73 37 74 38 75 39 76 63 77 64 78
REMARK SMILES IDX 72 79 65 80 67 81 73 82 66 83 68 84 69 85 70 86 71 87 48 88
REMARK SMILES IDX 49 89 57 90 50 91 52 92 58 93 51 94 53 95 54 96 55 97 56 98
REMARK H PARENT 12 7 3 16 19 32 78 51 46 62
REMARK Flexibility Score: inf
ROOT
ATOM      1  C   UNL     1       0.739   6.367  -3.164  1.00  0.00     0.002 C 
ENDROOT
BRANCH   1   2
ATOM      2  C   UNL     1       1.034   5.035  -2.471  1.00  0.00     0.021 C 
BRANCH   2   3
ATOM      3  C   UNL     1       2.458   4.862  -1.937  1.00  0.00     0.116 C 
BRANCH   3   4
ATOM      4  N   UNL     1       2.690   5.673  -0.754  1.00  0.00    -0.356 N 
ATOM      5  C   UNL     1       3.094   5.352   0.501  1.00  0.00     0.225 C 
ATOM      6  O   UNL     1       3.148   6.280   1.317  1.00  0.00    -0.275 OA
ATOM      7  H   UNL     1       2.523   6.634  -0.889  1.00  0.00     0.163 HD
BRANCH   5   8
ATOM      8  C   UNL     1       3.467   3.945   0.950  1.00  0.00     0.102 C 
ATOM      9  N   UNL     1       2.768   1.745   0.309  1.00  0.00    -0.321 N 
ATOM     10  C   UNL     1       4.215   1.794   0.199  1.00  0.00     0.122 C 
ATOM     11  C   UNL     1       2.341   2.900   1.113  1.00  0.00     0.096 C 
ATOM     12  C   UNL     1       4.560   3.267   0.120  1.00  0.00     0.037 C 
ATOM     13  C   UNL     1       0.924   3.397   0.890  1.00  0.00     0.032 C 
BRANCH   9  14
ATOM     14  C   UNL     1       2.230   0.500   0.547  1.00  0.00     0.318 C 
ATOM     15  N   UNL     1       1.071   0.177  -0.074  1.00  0.00    -0.331 N 
ATOM     16  H   UNL     1       0.599  -0.605   0.292  1.00  0.00     0.165 HD
ATOM     17  O   UNL     1       2.776  -0.337   1.263  1.00  0.00    -0.249 OA
BRANCH  15  18
ATOM     18  C   UNL     1       0.421   0.820  -1.206  1.00  0.00     0.111 C 
ATOM     19  C   UNL     1       0.898   0.231  -2.533  1.00  0.00     0.036 C 
BRANCH  18  20
ATOM     20  C   UNL     1      -1.092   0.758  -1.060  1.00  0.00    -0.026 A 
ATOM     21  C   UNL     1      -1.841   1.947  -1.058  1.00  0.00     0.007 A 
ATOM     22  C   UNL     1      -1.776  -0.461  -0.910  1.00  0.00     0.007 A 
ATOM     23  C   UNL     1      -3.228   1.923  -0.888  1.00  0.00     0.021 A 
ATOM     24  C   UNL     1      -3.166  -0.486  -0.742  1.00  0.00     0.021 A 
ATOM     25  C   UNL     1      -3.884   0.707  -0.726  1.00  0.00     0.041 A 
ATOM     26  Cl  UNL     1      -5.589   0.683  -0.497  1.00  0.00    -0.084 Cl
ENDBRANCH  18  20
ENDBRANCH  15  18
ENDBRANCH   9  14
ENDBRANCH   5   8
ENDBRANCH   3   4
ENDBRANCH   2   3
ENDBRANCH   1   2
BRANCH   1  27
ATOM     27  C   UNL     1       1.528   6.639  -4.445  1.00  0.00     0.002 C 
BRANCH  27  28
ATOM     28  C   UNL     1       1.496   5.521  -5.490  1.00  0.00     0.021 C 
BRANCH  28  29
ATOM     29  C   UNL     1       0.102   5.053  -5.901  1.00  0.00     0.116 C 
BRANCH  29  30
ATOM     30  N   UNL     1      -0.682   6.121  -6.500  1.00  0.00    -0.352 N 
ATOM     31  C   UNL     1      -1.212   6.207  -7.764  1.00  0.00     0.251 C 
ATOM     32  H   UNL     1      -0.857   6.894  -5.916  1.00  0.00     0.163 HD
ATOM     33  O   UNL     1      -1.663   7.273  -8.168  1.00  0.00    -0.269 OA
BRANCH  31  34
ATOM     34  C   UNL     1      -1.226   5.014  -8.639  1.00  0.00     0.039 A 
ATOM     35  C   UNL     1      -0.826   5.146  -9.971  1.00  0.00     0.014 A 
ATOM     36  C   UNL     1      -1.646   3.774  -8.150  1.00  0.00     0.014 A 
ATOM     37  C   UNL     1      -0.797   4.021 -10.799  1.00  0.00     0.010 A 
ATOM     38  C   UNL     1      -1.545   2.642  -8.954  1.00  0.00     0.010 A 
ATOM     39  C   UNL     1      -1.130   2.755 -10.290  1.00  0.00    -0.014 A 
BRANCH  39  40
ATOM     40  C   UNL     1      -1.040   1.538 -11.137  1.00  0.00     0.031 A 
ATOM     41  C   UNL     1      -2.270   0.725 -11.437  1.00  0.00     0.074 A 
ATOM     42  C   UNL     1       0.167   1.110 -11.560  1.00  0.00     0.049 A 
ATOM     43  N   UNL     1      -2.377  -0.389 -12.114  1.00  0.00    -0.248 NA
ATOM     44  C   UNL     1      -3.542   1.210 -10.878  1.00  0.00     0.031 C 
ATOM     45  C   UNL     1       1.444   1.759 -11.259  1.00  0.00     0.029 A 
ATOM     46  N   UNL     1       0.518   0.012 -12.304  1.00  0.00    -0.354 N 
ATOM     47  C   UNL     1      -3.713  -0.761 -12.026  1.00  0.00     0.074 A 
ATOM     48  C   UNL     1      -4.372   0.231 -11.205  1.00  0.00     0.031 C 
ATOM     49  C   UNL     1       2.439   1.046 -11.809  1.00  0.00     0.029 A 
ATOM     50  C   UNL     1       1.876  -0.126 -12.475  1.00  0.00     0.049 A 
ATOM     51  H   UNL     1      -0.138  -0.618 -12.680  1.00  0.00     0.167 HD
ATOM     52  C   UNL     1      -4.340  -1.819 -12.595  1.00  0.00     0.034 A 
ATOM     53  C   UNL     1       2.591  -1.091 -13.084  1.00  0.00     0.034 A 
ATOM     54  C   UNL     1      -3.687  -2.779 -13.443  1.00  0.00     0.049 A 
ATOM     55  C   UNL     1       1.869  -2.225 -13.757  1.00  0.00     0.074 A 
ATOM     56  C   UNL     1      -4.254  -3.819 -14.159  1.00  0.00     0.029 A 
ATOM     57  N   UNL     1      -2.321  -2.833 -13.675  1.00  0.00    -0.354 N 
ATOM     58  N   UNL     1       0.580  -2.461 -13.815  1.00  0.00    -0.248 NA
ATOM     59  C   UNL     1       2.692  -3.203 -14.482  1.00  0.00     0.031 C 
ATOM     60  C   UNL     1      -3.226  -4.523 -14.794  1.00  0.00     0.029 A 
ATOM     61  C   UNL     1      -2.022  -3.899 -14.506  1.00  0.00     0.049 A 
ATOM     62  H   UNL     1      -1.661  -2.204 -13.303  1.00  0.00     0.167 HD
ATOM     63  C   UNL     1       0.435  -3.595 -14.606  1.00  0.00     0.074 A 
ATOM     64  C   UNL     1       1.766  -3.985 -15.023  1.00  0.00     0.031 C 
ATOM     65  C   UNL     1      -0.698  -4.257 -14.948  1.00  0.00     0.034 A 
BRANCH  52  66
ATOM     66  C   UNL     1      -5.818  -1.974 -12.343  1.00  0.00     0.023 A 
ATOM     67  C   UNL     1      -6.728  -1.059 -12.912  1.00  0.00     0.012 A 
ATOM     68  C   UNL     1      -6.311  -3.052 -11.582  1.00  0.00     0.148 A 
ATOM     69  C   UNL     1      -8.098  -1.187 -12.690  1.00  0.00     0.002 A 
ATOM     70  C   UNL     1      -7.681  -3.202 -11.407  1.00  0.00     0.091 A 
ATOM     71  F   UNL     1      -5.432  -3.902 -11.031  1.00  0.00    -0.205 F 
ATOM     72  C   UNL     1      -8.575  -2.263 -11.947  1.00  0.00     0.022 A 
BRANCH  70  73
ATOM     73  S   UNL     1      -8.397  -4.602 -10.538  1.00  0.00     0.127 S 
ATOM     74  O   UNL     1      -8.846  -3.979  -9.294  1.00  0.00    -0.237 OA
ATOM     75  O   UNL     1      -9.475  -5.007 -11.441  1.00  0.00    -0.237 OA
ATOM     76  O   UNL     1      -7.325  -5.577 -10.399  1.00  0.00    -0.744 OA
ENDBRANCH  70  73
ENDBRANCH  52  66
BRANCH  53  77
ATOM     77  C   UNL     1       4.077  -0.989 -13.126  1.00  0.00     0.023 A 
ATOM     78  C   UNL     1       4.721  -0.686 -14.341  1.00  0.00     0.012 A 
ATOM     79  C   UNL     1       4.848  -1.134 -11.956  1.00  0.00     0.148 A 
ATOM     80  C   UNL     1       6.109  -0.554 -14.394  1.00  0.00     0.002 A 
ATOM     81  C   UNL     1       6.223  -0.943 -12.005  1.00  0.00     0.091 A 
ATOM     82  F   UNL     1       4.213  -1.429 -10.812  1.00  0.00    -0.205 F 
ATOM     83  C   UNL     1       6.858  -0.670 -13.226  1.00  0.00     0.022 A 
BRANCH  81  84
ATOM     84  S   UNL     1       7.248  -0.932 -10.529  1.00  0.00     0.127 S 
ATOM     85  O   UNL     1       8.059  -2.132 -10.719  1.00  0.00    -0.237 OA
ATOM     86  O   UNL     1       7.970   0.332 -10.676  1.00  0.00    -0.237 OA
ATOM     87  O   UNL     1       6.323  -0.967  -9.404  1.00  0.00    -0.744 OA
ENDBRANCH  81  84
ENDBRANCH  53  77
BRANCH  65  88
ATOM     88  C   UNL     1      -0.564  -5.460 -15.845  1.00  0.00     0.023 A 
ATOM     89  C   UNL     1      -0.011  -6.655 -15.344  1.00  0.00     0.012 A 
ATOM     90  C   UNL     1      -1.058  -5.428 -17.164  1.00  0.00     0.148 A 
ATOM     91  C   UNL     1       0.077  -7.789 -16.151  1.00  0.00     0.002 A 
ATOM     92  C   UNL     1      -1.015  -6.576 -17.946  1.00  0.00     0.091 A 
ATOM     93  F   UNL     1      -1.564  -4.276 -17.629  1.00  0.00    -0.205 F 
ATOM     94  C   UNL     1      -0.436  -7.753 -17.446  1.00  0.00     0.022 A 
BRANCH  92  95
ATOM     95  S   UNL     1      -1.741  -6.652 -19.587  1.00  0.00     0.127 S 
ATOM     96  O   UNL     1      -0.552  -6.707 -20.436  1.00  0.00    -0.237 OA
ATOM     97  O   UNL     1      -2.508  -7.896 -19.530  1.00  0.00    -0.237 OA
ATOM     98  O   UNL     1      -2.551  -5.449 -19.725  1.00  0.00    -0.744 OA
ENDBRANCH  92  95
ENDBRANCH  65  88
ENDBRANCH  39  40
ENDBRANCH  31  34
ENDBRANCH  29  30
ENDBRANCH  28  29
ENDBRANCH  27  28
ENDBRANCH   1  27
TORSDOF 19
