REMARK SMILES Cc1cc(C)c2c(c1)C=C(C(=O)NCCCCCCNC(=O)c1ccc(-c3c4nc(c(-c5cccc(S(=O)(=O)[O-])c5F)c5ccc([nH]5)c(-c5cccc(S(=O)(=O)[O-])c5F)c5nc(c(-c6cccc(S(=O)(=O)[O-])c6F)c6ccc3[nH]6)C=C5)C=C4)cc1)[C@@H](C(F)(F)F)O2
REMARK SMILES IDX 17 1 16 2 15 3 14 4 13 5 11 6 12 7 10 9 1 10 2 11 3 12 8 13
REMARK SMILES IDX 4 14 7 15 5 16 6 17 9 18 91 19 86 20 87 21 88 22 89 23 90 24
REMARK SMILES IDX 18 25 19 26 20 27 21 28 22 30 23 31 24 32 85 33 25 34 84 35
REMARK SMILES IDX 26 36 27 37 28 38 78 39 29 40 83 41 77 42 79 43 30 44 82 45
REMARK SMILES IDX 76 46 75 47 31 49 63 50 43 51 62 52 44 53 47 54 61 55 80 56
REMARK SMILES IDX 45 57 46 58 60 60 81 61 48 62 32 63 33 64 41 65 34 66 36 67
REMARK SMILES IDX 42 68 35 69 37 70 38 71 39 72 40 73 64 74 65 75 73 76 66 77
REMARK SMILES IDX 68 78 74 79 67 80 69 81 70 82 71 83 72 84 49 85 50 86 58 87
REMARK SMILES IDX 51 88 53 89 59 90 52 91 54 92 55 93 56 94 57 95
REMARK H PARENT 13 8 20 29 79 48 47 59
REMARK Flexibility Score: inf
ROOT
ATOM      1  C   UNL     1      -3.024   3.072  11.240  1.00  0.00     0.002 C 
ENDROOT
BRANCH   1   2
ATOM      2  C   UNL     1      -1.596   3.269  10.714  1.00  0.00     0.002 C 
BRANCH   2   3
ATOM      3  C   UNL     1      -1.129   2.222   9.699  1.00  0.00     0.021 C 
BRANCH   3   4
ATOM      4  C   UNL     1      -2.045   2.097   8.487  1.00  0.00     0.116 C 
BRANCH   4   5
ATOM      5  N   UNL     1      -1.719   3.076   7.465  1.00  0.00    -0.352 N 
ATOM      6  C   UNL     1      -1.321   3.062   6.171  1.00  0.00     0.251 C 
ATOM      7  O   UNL     1      -1.173   4.174   5.654  1.00  0.00    -0.270 OA
ATOM      8  H   UNL     1      -1.813   3.996   7.803  1.00  0.00     0.163 HD
BRANCH   6   9
ATOM      9  C   UNL     1      -1.057   1.832   5.364  1.00  0.00     0.067 C 
ATOM     10  C   UNL     1       0.972   0.100  -0.223  1.00  0.00     0.044 C 
ATOM     11  C   UNL     1       0.479  -0.073   1.183  1.00  0.00    -0.050 A 
ATOM     12  C   UNL     1       0.365  -1.357   1.732  1.00  0.00     0.010 A 
ATOM     13  C   UNL     1       0.192   1.045   1.980  1.00  0.00     0.015 A 
ATOM     14  C   UNL     1      -0.054  -1.536   3.055  1.00  0.00    -0.008 A 
ATOM     15  C   UNL     1      -0.232   0.882   3.302  1.00  0.00     0.018 A 
ATOM     16  C   UNL     1      -0.180  -2.913   3.643  1.00  0.00     0.048 C 
ATOM     17  C   UNL     1      -0.357  -0.406   3.824  1.00  0.00     0.130 A 
ATOM     18  C   UNL     1      -0.500   2.033   4.156  1.00  0.00     0.025 C 
ATOM     19  O   UNL     1      -0.725  -0.632   5.118  1.00  0.00    -0.475 OA
ATOM     20  C   UNL     1      -1.409   0.441   5.809  1.00  0.00     0.314 C 
BRANCH  20  21
ATOM     21  C   UNL     1      -2.925   0.174   5.782  1.00  0.00     0.429 C 
ATOM     22  F   UNL     1      -3.228  -0.930   6.505  1.00  0.00    -0.167 F 
ATOM     23  F   UNL     1      -3.639   1.192   6.319  1.00  0.00    -0.167 F 
ATOM     24  F   UNL     1      -3.396  -0.013   4.528  1.00  0.00    -0.167 F 
ENDBRANCH  20  21
ENDBRANCH   6   9
ENDBRANCH   4   5
ENDBRANCH   3   4
ENDBRANCH   2   3
ENDBRANCH   1   2
BRANCH   1  25
ATOM     25  C   UNL     1      -3.348   1.662  11.742  1.00  0.00     0.021 C 
BRANCH  25  26
ATOM     26  C   UNL     1      -2.432   1.163  12.853  1.00  0.00     0.116 C 
BRANCH  26  27
ATOM     27  N   UNL     1      -2.492   2.021  14.026  1.00  0.00    -0.352 N 
ATOM     28  C   UNL     1      -2.851   1.701  15.310  1.00  0.00     0.251 C 
ATOM     29  H   UNL     1      -2.241   2.961  13.877  1.00  0.00     0.163 HD
ATOM     30  O   UNL     1      -3.064   2.591  16.131  1.00  0.00    -0.269 OA
BRANCH  28  31
ATOM     31  C   UNL     1      -2.987   0.283  15.694  1.00  0.00     0.039 A 
ATOM     32  C   UNL     1      -4.106  -0.118  16.425  1.00  0.00     0.014 A 
ATOM     33  C   UNL     1      -2.005  -0.646  15.334  1.00  0.00     0.014 A 
ATOM     34  C   UNL     1      -4.260  -1.463  16.763  1.00  0.00     0.010 A 
ATOM     35  C   UNL     1      -2.198  -1.996  15.605  1.00  0.00     0.010 A 
ATOM     36  C   UNL     1      -3.317  -2.415  16.339  1.00  0.00    -0.014 A 
BRANCH  36  37
ATOM     37  C   UNL     1      -3.478  -3.849  16.682  1.00  0.00     0.031 A 
ATOM     38  C   UNL     1      -2.481  -4.522  17.585  1.00  0.00     0.074 A 
ATOM     39  C   UNL     1      -4.494  -4.553  16.147  1.00  0.00     0.049 A 
ATOM     40  N   UNL     1      -2.458  -5.760  18.006  1.00  0.00    -0.248 NA
ATOM     41  C   UNL     1      -1.349  -3.708  18.062  1.00  0.00     0.031 C 
ATOM     42  C   UNL     1      -5.481  -4.025  15.203  1.00  0.00     0.029 A 
ATOM     43  N   UNL     1      -4.860  -5.865  16.311  1.00  0.00    -0.354 N 
ATOM     44  C   UNL     1      -1.309  -5.877  18.778  1.00  0.00     0.074 A 
ATOM     45  C   UNL     1      -0.631  -4.601  18.727  1.00  0.00     0.031 C 
ATOM     46  C   UNL     1      -6.354  -4.996  14.892  1.00  0.00     0.029 A 
ATOM     47  C   UNL     1      -5.977  -6.221  15.591  1.00  0.00     0.049 A 
ATOM     48  H   UNL     1      -4.370  -6.493  16.890  1.00  0.00     0.167 HD
ATOM     49  C   UNL     1      -0.880  -6.936  19.502  1.00  0.00     0.034 A 
ATOM     50  C   UNL     1      -6.627  -7.399  15.510  1.00  0.00     0.034 A 
ATOM     51  C   UNL     1      -1.585  -8.185  19.586  1.00  0.00     0.049 A 
ATOM     52  C   UNL     1      -6.137  -8.560  16.335  1.00  0.00     0.074 A 
ATOM     53  C   UNL     1      -1.276  -9.292  20.355  1.00  0.00     0.029 A 
ATOM     54  N   UNL     1      -2.736  -8.494  18.878  1.00  0.00    -0.354 N 
ATOM     55  N   UNL     1      -5.138  -8.604  17.183  1.00  0.00    -0.248 NA
ATOM     56  C   UNL     1      -6.877  -9.825  16.216  1.00  0.00     0.031 C 
ATOM     57  C   UNL     1      -2.227 -10.282  20.092  1.00  0.00     0.029 A 
ATOM     58  C   UNL     1      -3.142  -9.782  19.178  1.00  0.00     0.049 A 
ATOM     59  H   UNL     1      -3.196  -7.887  18.255  1.00  0.00     0.167 HD
ATOM     60  C   UNL     1      -5.143  -9.888  17.716  1.00  0.00     0.074 A 
ATOM     61  C   UNL     1      -6.262 -10.584  17.114  1.00  0.00     0.031 C 
ATOM     62  C   UNL     1      -4.287 -10.446  18.607  1.00  0.00     0.034 A 
BRANCH  49  63
ATOM     63  C   UNL     1       0.370  -6.769  20.325  1.00  0.00     0.023 A 
ATOM     64  C   UNL     1       0.333  -5.955  21.476  1.00  0.00     0.012 A 
ATOM     65  C   UNL     1       1.548  -7.476  20.016  1.00  0.00     0.148 A 
ATOM     66  C   UNL     1       1.455  -5.825  22.292  1.00  0.00     0.002 A 
ATOM     67  C   UNL     1       2.648  -7.378  20.860  1.00  0.00     0.091 A 
ATOM     68  F   UNL     1       1.570  -8.229  18.908  1.00  0.00    -0.205 F 
ATOM     69  C   UNL     1       2.607  -6.546  21.992  1.00  0.00     0.022 A 
BRANCH  67  70
ATOM     70  S   UNL     1       4.153  -8.328  20.612  1.00  0.00     0.127 S 
ATOM     71  O   UNL     1       5.113  -7.276  20.278  1.00  0.00    -0.237 OA
ATOM     72  O   UNL     1       4.351  -8.937  21.927  1.00  0.00    -0.237 OA
ATOM     73  O   UNL     1       3.864  -9.269  19.540  1.00  0.00    -0.744 OA
ENDBRANCH  67  70
ENDBRANCH  49  63
BRANCH  50  74
ATOM     74  C   UNL     1      -7.864  -7.507  14.684  1.00  0.00     0.023 A 
ATOM     75  C   UNL     1      -9.109  -7.654  15.326  1.00  0.00     0.012 A 
ATOM     76  C   UNL     1      -7.825  -7.407  13.279  1.00  0.00     0.148 A 
ATOM     77  C   UNL     1     -10.290  -7.720  14.585  1.00  0.00     0.002 A 
ATOM     78  C   UNL     1      -9.009  -7.416  12.551  1.00  0.00     0.091 A 
ATOM     79  F   UNL     1      -6.630  -7.279  12.685  1.00  0.00    -0.205 F 
ATOM     80  C   UNL     1     -10.242  -7.588  13.200  1.00  0.00     0.022 A 
BRANCH  78  81
ATOM     81  S   UNL     1      -9.058  -7.115  10.780  1.00  0.00     0.127 S 
ATOM     82  O   UNL     1      -9.481  -8.415  10.267  1.00  0.00    -0.237 OA
ATOM     83  O   UNL     1     -10.064  -6.057  10.683  1.00  0.00    -0.237 OA
ATOM     84  O   UNL     1      -7.711  -6.699  10.413  1.00  0.00    -0.744 OA
ENDBRANCH  78  81
ENDBRANCH  50  74
BRANCH  62  85
ATOM     85  C   UNL     1      -4.505 -11.884  18.999  1.00  0.00     0.023 A 
ATOM     86  C   UNL     1      -4.179 -12.905  18.085  1.00  0.00     0.012 A 
ATOM     87  C   UNL     1      -4.890 -12.225  20.311  1.00  0.00     0.148 A 
ATOM     88  C   UNL     1      -4.245 -14.244  18.466  1.00  0.00     0.002 A 
ATOM     89  C   UNL     1      -4.904 -13.559  20.699  1.00  0.00     0.091 A 
ATOM     90  F   UNL     1      -5.206 -11.236  21.161  1.00  0.00    -0.205 F 
ATOM     91  C   UNL     1      -4.591 -14.570  19.776  1.00  0.00     0.022 A 
BRANCH  89  92
ATOM     92  S   UNL     1      -5.229 -14.074  22.390  1.00  0.00     0.127 S 
ATOM     93  O   UNL     1      -6.499 -14.784  22.246  1.00  0.00    -0.237 OA
ATOM     94  O   UNL     1      -4.079 -14.933  22.676  1.00  0.00    -0.237 OA
ATOM     95  O   UNL     1      -5.287 -12.853  23.181  1.00  0.00    -0.744 OA
ENDBRANCH  89  92
ENDBRANCH  62  85
ENDBRANCH  36  37
ENDBRANCH  28  31
ENDBRANCH  26  27
ENDBRANCH  25  26
ENDBRANCH   1  25
TORSDOF 17
