REMARK SMILES Cc1ccc(C(=O)NCCCCCCNC(=O)c2ccc(-c3c4nc(c(-c5cccc(S(=O)(=O)[O-])c5F)c5ccc([nH]5)c(-c5cccc(S(=O)(=O)[O-])c5F)c5nc(c(-c6cccc(S(=O)(=O)[O-])c6F)c6ccc3[nH]6)C=C5)C=C4)cc2)cc1N1C(=O)/C(=C\c2nc3ccccc3n2C)SC1=S
REMARK SMILES IDX 12 1 11 2 10 3 9 4 8 5 6 6 7 7 5 9 1 10 2 11 3 12 82 13 4 14
REMARK SMILES IDX 81 15 83 16 84 17 99 18 85 19 86 20 98 21 100 22 87 23 88 24
REMARK SMILES IDX 89 25 96 26 90 27 95 28 97 29 91 30 94 31 92 32 93 33 13 34
REMARK SMILES IDX 14 35 15 36 16 37 17 39 18 40 19 41 80 42 20 43 79 44 21 45
REMARK SMILES IDX 22 46 23 47 73 48 24 49 78 50 72 51 74 52 25 53 77 54 71 55
REMARK SMILES IDX 70 56 26 58 58 59 38 60 57 61 39 62 42 63 56 64 75 65 40 66
REMARK SMILES IDX 41 67 55 69 76 70 43 71 27 72 28 73 36 74 29 75 31 76 37 77
REMARK SMILES IDX 30 78 32 79 33 80 34 81 35 82 59 83 60 84 68 85 61 86 63 87
REMARK SMILES IDX 69 88 62 89 64 90 65 91 66 92 67 93 44 94 45 95 53 96 46 97
REMARK SMILES IDX 48 98 54 99 47 100 49 101 50 102 51 103 52 104
REMARK H PARENT 8 8 15 38 74 57 42 68
REMARK Flexibility Score: inf
ROOT
ATOM      1  C   UNL     1      -6.169   4.090   0.167  1.00  0.00     0.002 C 
ENDROOT
BRANCH   1   2
ATOM      2  C   UNL     1      -5.464   3.469  -1.053  1.00  0.00     0.002 C 
BRANCH   2   3
ATOM      3  C   UNL     1      -3.970   3.150  -0.881  1.00  0.00     0.021 C 
BRANCH   3   4
ATOM      4  C   UNL     1      -3.663   2.231   0.304  1.00  0.00     0.116 C 
BRANCH   4   5
ATOM      5  N   UNL     1      -3.895   0.841  -0.046  1.00  0.00    -0.352 N 
ATOM      6  C   UNL     1      -3.058  -0.211  -0.310  1.00  0.00     0.251 C 
ATOM      7  O   UNL     1      -3.581  -1.312  -0.497  1.00  0.00    -0.269 OA
ATOM      8  H   UNL     1      -4.849   0.607  -0.105  1.00  0.00     0.163 HD
BRANCH   6   9
ATOM      9  C   UNL     1      -1.568  -0.117  -0.321  1.00  0.00     0.041 A 
ATOM     10  C   UNL     1       2.749  -0.179   0.115  1.00  0.00     0.046 C 
ATOM     11  C   UNL     1       1.264  -0.095  -0.112  1.00  0.00    -0.027 A 
ATOM     12  C   UNL     1       0.539  -1.294  -0.015  1.00  0.00     0.006 A 
ATOM     13  C   UNL     1       0.561   1.098  -0.379  1.00  0.00     0.054 A 
ATOM     14  C   UNL     1      -0.856  -1.299  -0.089  1.00  0.00     0.014 A 
ATOM     15  C   UNL     1      -0.840   1.053  -0.539  1.00  0.00     0.041 A 
BRANCH  13  16
ATOM     16  N   UNL     1       1.183   2.381  -0.294  1.00  0.00    -0.261 N 
ATOM     17  C   UNL     1       0.719   3.283   0.662  1.00  0.00     0.270 C 
ATOM     18  C   UNL     1       2.142   2.866  -1.164  1.00  0.00     0.152 C 
ATOM     19  O   UNL     1      -0.355   3.229   1.248  1.00  0.00    -0.268 OA
ATOM     20  C   UNL     1       1.659   4.440   0.770  1.00  0.00     0.084 C 
ATOM     21  S   UNL     1       2.658   4.478  -0.636  1.00  0.00    -0.054 SA
ATOM     22  S   UNL     1       2.744   2.174  -2.562  1.00  0.00    -0.051 S 
ATOM     23  C   UNL     1       1.775   5.300   1.796  1.00  0.00     0.068 C 
BRANCH  23  24
ATOM     24  C   UNL     1       1.099   5.060   3.021  1.00  0.00     0.134 A 
ATOM     25  N   UNL     1       0.925   3.902   3.627  1.00  0.00    -0.229 NA
ATOM     26  N   UNL     1       0.491   6.067   3.745  1.00  0.00    -0.328 N 
ATOM     27  C   UNL     1      -0.048   4.118   4.563  1.00  0.00     0.089 A 
ATOM     28  C   UNL     1      -0.362   5.471   4.651  1.00  0.00     0.068 A 
ATOM     29  C   UNL     1       0.684   7.489   3.586  1.00  0.00     0.152 C 
ATOM     30  C   UNL     1      -0.732   3.188   5.357  1.00  0.00     0.030 A 
ATOM     31  C   UNL     1      -1.363   5.951   5.506  1.00  0.00     0.028 A 
ATOM     32  C   UNL     1      -1.750   3.644   6.200  1.00  0.00     0.002 A 
ATOM     33  C   UNL     1      -2.060   5.004   6.268  1.00  0.00     0.002 A 
ENDBRANCH  23  24
ENDBRANCH  13  16
ENDBRANCH   6   9
ENDBRANCH   4   5
ENDBRANCH   3   4
ENDBRANCH   2   3
ENDBRANCH   1   2
BRANCH   1  34
ATOM     34  C   UNL     1      -5.401   5.196   0.893  1.00  0.00     0.021 C 
BRANCH  34  35
ATOM     35  C   UNL     1      -5.213   6.459   0.065  1.00  0.00     0.116 C 
BRANCH  35  36
ATOM     36  N   UNL     1      -6.131   7.529   0.422  1.00  0.00    -0.352 N 
ATOM     37  C   UNL     1      -6.257   8.795  -0.114  1.00  0.00     0.251 C 
ATOM     38  H   UNL     1      -6.755   7.319   1.155  1.00  0.00     0.163 HD
ATOM     39  O   UNL     1      -6.950   9.623   0.476  1.00  0.00    -0.269 OA
BRANCH  37  40
ATOM     40  C   UNL     1      -5.663   9.100  -1.438  1.00  0.00     0.039 A 
ATOM     41  C   UNL     1      -6.471   9.739  -2.388  1.00  0.00     0.014 A 
ATOM     42  C   UNL     1      -4.429   8.575  -1.813  1.00  0.00     0.014 A 
ATOM     43  C   UNL     1      -6.164   9.628  -3.742  1.00  0.00     0.010 A 
ATOM     44  C   UNL     1      -4.163   8.389  -3.151  1.00  0.00     0.010 A 
ATOM     45  C   UNL     1      -5.067   8.855  -4.109  1.00  0.00    -0.014 A 
BRANCH  45  46
ATOM     46  C   UNL     1      -4.800   8.400  -5.461  1.00  0.00     0.031 A 
ATOM     47  C   UNL     1      -3.913   9.167  -6.345  1.00  0.00     0.074 A 
ATOM     48  C   UNL     1      -5.228   7.168  -5.814  1.00  0.00     0.049 A 
ATOM     49  N   UNL     1      -3.913   9.062  -7.629  1.00  0.00    -0.248 NA
ATOM     50  C   UNL     1      -2.945  10.126  -5.830  1.00  0.00     0.031 C 
ATOM     51  C   UNL     1      -4.773   6.354  -6.933  1.00  0.00     0.029 A 
ATOM     52  N   UNL     1      -6.341   6.482  -5.321  1.00  0.00    -0.354 N 
ATOM     53  C   UNL     1      -2.777   9.695  -8.081  1.00  0.00     0.074 A 
ATOM     54  C   UNL     1      -2.255  10.411  -6.938  1.00  0.00     0.031 C 
ATOM     55  C   UNL     1      -5.731   5.461  -7.228  1.00  0.00     0.029 A 
ATOM     56  C   UNL     1      -6.890   5.803  -6.422  1.00  0.00     0.049 A 
ATOM     57  H   UNL     1      -6.673   6.476  -4.394  1.00  0.00     0.167 HD
ATOM     58  C   UNL     1      -2.288   9.396  -9.317  1.00  0.00     0.034 A 
ATOM     59  C   UNL     1      -8.149   6.037  -6.896  1.00  0.00     0.034 A 
ATOM     60  C   UNL     1      -3.127   8.402  -9.995  1.00  0.00     0.049 A 
ATOM     61  C   UNL     1      -8.165   6.441  -8.360  1.00  0.00     0.074 A 
ATOM     62  C   UNL     1      -3.033   7.024 -10.119  1.00  0.00     0.029 A 
ATOM     63  N   UNL     1      -4.411   8.743 -10.401  1.00  0.00    -0.354 N 
ATOM     64  N   UNL     1      -7.101   6.749  -9.050  1.00  0.00    -0.248 NA
ATOM     65  C   UNL     1      -9.381   6.549  -9.158  1.00  0.00     0.031 C 
ATOM     66  C   UNL     1      -4.290   6.531 -10.555  1.00  0.00     0.029 A 
ATOM     67  C   UNL     1      -5.144   7.608 -10.716  1.00  0.00     0.049 A 
ATOM     68  H   UNL     1      -4.754   9.664 -10.457  1.00  0.00     0.167 HD
ATOM     69  C   UNL     1      -7.455   7.187 -10.303  1.00  0.00     0.074 A 
ATOM     70  C   UNL     1      -8.893   6.972 -10.338  1.00  0.00     0.031 C 
ATOM     71  C   UNL     1      -6.529   7.724 -11.163  1.00  0.00     0.034 A 
BRANCH  58  72
ATOM     72  C   UNL     1      -0.863   9.713  -9.720  1.00  0.00     0.023 A 
ATOM     73  C   UNL     1      -0.183   8.776 -10.529  1.00  0.00     0.012 A 
ATOM     74  C   UNL     1      -0.115  10.835  -9.297  1.00  0.00     0.148 A 
ATOM     75  C   UNL     1       1.183   8.874 -10.804  1.00  0.00     0.002 A 
ATOM     76  C   UNL     1       1.266  10.896  -9.507  1.00  0.00     0.091 A 
ATOM     77  F   UNL     1      -0.749  11.875  -8.737  1.00  0.00    -0.205 F 
ATOM     78  C   UNL     1       1.919   9.912 -10.257  1.00  0.00     0.022 A 
BRANCH  76  79
ATOM     79  S   UNL     1       2.303  12.140  -8.716  1.00  0.00     0.127 S 
ATOM     80  O   UNL     1       3.445  11.348  -8.251  1.00  0.00    -0.237 OA
ATOM     81  O   UNL     1       2.605  13.050  -9.817  1.00  0.00    -0.237 OA
ATOM     82  O   UNL     1       1.495  12.691  -7.634  1.00  0.00    -0.744 OA
ENDBRANCH  76  79
ENDBRANCH  58  72
BRANCH  59  83
ATOM     83  C   UNL     1      -9.104   6.511  -5.849  1.00  0.00     0.023 A 
ATOM     84  C   UNL     1      -9.326   5.644  -4.750  1.00  0.00     0.012 A 
ATOM     85  C   UNL     1      -9.443   7.868  -5.716  1.00  0.00     0.148 A 
ATOM     86  C   UNL     1      -9.719   6.143  -3.507  1.00  0.00     0.002 A 
ATOM     87  C   UNL     1      -9.852   8.356  -4.473  1.00  0.00     0.091 A 
ATOM     88  F   UNL     1      -9.291   8.677  -6.772  1.00  0.00    -0.205 F 
ATOM     89  C   UNL     1      -9.945   7.506  -3.360  1.00  0.00     0.022 A 
BRANCH  87  90
ATOM     90  S   UNL     1     -10.159  10.110  -4.221  1.00  0.00     0.127 S 
ATOM     91  O   UNL     1     -11.580  10.207  -4.540  1.00  0.00    -0.237 OA
ATOM     92  O   UNL     1      -9.836  10.293  -2.806  1.00  0.00    -0.237 OA
ATOM     93  O   UNL     1      -9.239  10.775  -5.131  1.00  0.00    -0.744 OA
ENDBRANCH  87  90
ENDBRANCH  59  83
BRANCH  71  94
ATOM     94  C   UNL     1      -6.797   8.417 -12.498  1.00  0.00     0.023 A 
ATOM     95  C   UNL     1      -8.081   8.805 -12.918  1.00  0.00     0.012 A 
ATOM     96  C   UNL     1      -5.720   8.816 -13.342  1.00  0.00     0.148 A 
ATOM     97  C   UNL     1      -8.296   9.519 -14.106  1.00  0.00     0.002 A 
ATOM     98  C   UNL     1      -5.928   9.622 -14.460  1.00  0.00     0.091 A 
ATOM     99  F   UNL     1      -4.474   8.390 -13.093  1.00  0.00    -0.205 F 
ATOM    100  C   UNL     1      -7.219   9.955 -14.861  1.00  0.00     0.022 A 
BRANCH  98 101
ATOM    101  S   UNL     1      -4.547  10.379 -15.332  1.00  0.00     0.127 S 
ATOM    102  O   UNL     1      -4.324   9.436 -16.425  1.00  0.00    -0.237 OA
ATOM    103  O   UNL     1      -5.106  11.668 -15.745  1.00  0.00    -0.237 OA
ATOM    104  O   UNL     1      -3.483  10.483 -14.342  1.00  0.00    -0.744 OA
ENDBRANCH  98 101
ENDBRANCH  71  94
ENDBRANCH  45  46
ENDBRANCH  37  40
ENDBRANCH  35  36
ENDBRANCH  34  35
ENDBRANCH   1  34
TORSDOF 18
