REMARK SMILES C[C@@H](CC(=O)NCCCCCCNC(=O)c1ccc(-c2c3nc(c(-c4cccc(S(=O)(=O)[O-])c4F)c4ccc([nH]4)c(-c4cccc(S(=O)(=O)[O-])c4F)c4nc(c(-c5cccc(S(=O)(=O)[O-])c5F)c5ccc2[nH]5)C=C4)C=C3)cc1)NC(=O)N[C@H]1CCOC1
REMARK SMILES IDX 9 1 8 2 7 3 6 4 4 5 5 6 3 8 2 9 1 10 79 11 80 12 81 14 82 15
REMARK SMILES IDX 83 17 84 18 87 19 85 20 86 21 10 22 11 23 12 24 13 25 14 26
REMARK SMILES IDX 15 28 16 29 17 30 78 31 18 32 77 33 19 34 20 35 21 36 71 37
REMARK SMILES IDX 22 38 76 39 70 40 72 41 23 42 75 43 69 44 68 45 24 47 56 48
REMARK SMILES IDX 36 49 55 50 37 51 40 52 54 53 73 54 38 55 39 56 53 58 74 59
REMARK SMILES IDX 41 60 25 61 26 62 34 63 27 64 29 65 35 66 28 67 30 68 31 69
REMARK SMILES IDX 32 70 33 71 57 72 58 73 66 74 59 75 61 76 67 77 60 78 62 79
REMARK SMILES IDX 63 80 64 81 65 82 42 83 43 84 51 85 44 86 46 87 52 88 45 89
REMARK SMILES IDX 47 90 48 91 49 92 50 93
REMARK H PARENT 6 7 79 13 82 16 13 27 72 46 40 57
REMARK Flexibility Score: inf
ROOT
ATOM      1  C   UNL     1      -6.056  -6.195   3.522  1.00  0.00     0.002 C 
ENDROOT
BRANCH   1   2
ATOM      2  C   UNL     1      -4.867  -5.238   3.559  1.00  0.00     0.021 C 
BRANCH   2   3
ATOM      3  C   UNL     1      -3.901  -5.523   4.707  1.00  0.00     0.116 C 
BRANCH   3   4
ATOM      4  N   UNL     1      -3.023  -6.609   4.322  1.00  0.00    -0.356 N 
ATOM      5  C   UNL     1      -1.747  -6.528   3.855  1.00  0.00     0.222 C 
ATOM      6  O   UNL     1      -1.257  -7.495   3.273  1.00  0.00    -0.275 OA
ATOM      7  H   UNL     1      -3.395  -7.517   4.408  1.00  0.00     0.163 HD
BRANCH   5   8
ATOM      8  C   UNL     1      -0.938  -5.291   4.148  1.00  0.00     0.124 C 
BRANCH   8   9
ATOM      9  C   UNL     1      -0.882  -4.188   3.091  1.00  0.00     0.090 C 
ATOM     10  C   UNL     1      -2.170  -3.496   2.672  1.00  0.00     0.031 C 
BRANCH   9  11
ATOM     11  N   UNL     1      -0.122  -4.565   1.905  1.00  0.00    -0.335 N 
ATOM     12  C   UNL     1       0.691  -3.876   1.083  1.00  0.00     0.315 C 
ATOM     13  H   UNL     1      -0.223  -5.512   1.657  1.00  0.00     0.165 HD
ATOM     14  O   UNL     1       0.998  -4.379   0.001  1.00  0.00    -0.249 OA
ATOM     15  N   UNL     1       1.198  -2.667   1.389  1.00  0.00    -0.333 N 
ATOM     16  H   UNL     1       1.706  -2.245   0.659  1.00  0.00     0.165 HD
BRANCH  15  17
ATOM     17  C   UNL     1       1.130  -1.878   2.598  1.00  0.00     0.112 C 
ATOM     18  C   UNL     1       1.965  -2.437   3.736  1.00  0.00     0.056 C 
ATOM     19  C   UNL     1       1.685  -0.460   2.538  1.00  0.00     0.185 C 
ATOM     20  C   UNL     1       1.878  -1.288   4.710  1.00  0.00     0.162 C 
ATOM     21  O   UNL     1       1.980  -0.100   3.906  1.00  0.00    -0.379 OA
ENDBRANCH  15  17
ENDBRANCH   9  11
ENDBRANCH   8   9
ENDBRANCH   5   8
ENDBRANCH   3   4
ENDBRANCH   2   3
ENDBRANCH   1   2
BRANCH   1  22
ATOM     22  C   UNL     1      -6.981  -6.081   4.734  1.00  0.00     0.002 C 
BRANCH  22  23
ATOM     23  C   UNL     1      -7.495  -4.665   5.009  1.00  0.00     0.021 C 
BRANCH  23  24
ATOM     24  C   UNL     1      -8.171  -4.001   3.812  1.00  0.00     0.116 C 
BRANCH  24  25
ATOM     25  N   UNL     1      -9.269  -4.811   3.304  1.00  0.00    -0.352 N 
ATOM     26  C   UNL     1     -10.610  -4.540   3.301  1.00  0.00     0.251 C 
ATOM     27  H   UNL     1      -9.011  -5.675   2.909  1.00  0.00     0.163 HD
ATOM     28  O   UNL     1     -11.424  -5.442   3.090  1.00  0.00    -0.269 OA
BRANCH  26  29
ATOM     29  C   UNL     1     -11.073  -3.165   3.557  1.00  0.00     0.039 A 
ATOM     30  C   UNL     1     -12.118  -2.954   4.457  1.00  0.00     0.014 A 
ATOM     31  C   UNL     1     -10.464  -2.084   2.910  1.00  0.00     0.014 A 
ATOM     32  C   UNL     1     -12.516  -1.651   4.753  1.00  0.00     0.010 A 
ATOM     33  C   UNL     1     -10.812  -0.785   3.261  1.00  0.00     0.010 A 
ATOM     34  C   UNL     1     -11.843  -0.555   4.185  1.00  0.00    -0.014 A 
BRANCH  34  35
ATOM     35  C   UNL     1     -12.180   0.836   4.576  1.00  0.00     0.031 A 
ATOM     36  C   UNL     1     -12.712   1.808   3.560  1.00  0.00     0.074 A 
ATOM     37  C   UNL     1     -11.918   1.246   5.833  1.00  0.00     0.049 A 
ATOM     38  N   UNL     1     -13.018   3.070   3.712  1.00  0.00    -0.248 NA
ATOM     39  C   UNL     1     -12.905   1.306   2.188  1.00  0.00     0.031 C 
ATOM     40  C   UNL     1     -11.319   0.419   6.884  1.00  0.00     0.029 A 
ATOM     41  N   UNL     1     -12.092   2.468   6.433  1.00  0.00    -0.354 N 
ATOM     42  C   UNL     1     -13.404   3.522   2.456  1.00  0.00     0.074 A 
ATOM     43  C   UNL     1     -13.270   2.406   1.545  1.00  0.00     0.031 C 
ATOM     44  C   UNL     1     -11.175   1.156   7.996  1.00  0.00     0.029 A 
ATOM     45  C   UNL     1     -11.638   2.514   7.731  1.00  0.00     0.049 A 
ATOM     46  H   UNL     1     -12.503   3.238   5.978  1.00  0.00     0.167 HD
ATOM     47  C   UNL     1     -13.852   4.749   2.099  1.00  0.00     0.034 A 
ATOM     48  C   UNL     1     -11.585   3.538   8.604  1.00  0.00     0.034 A 
ATOM     49  C   UNL     1     -14.020   5.843   3.017  1.00  0.00     0.049 A 
ATOM     50  C   UNL     1     -12.126   4.879   8.190  1.00  0.00     0.074 A 
ATOM     51  C   UNL     1     -14.565   7.092   2.774  1.00  0.00     0.029 A 
ATOM     52  N   UNL     1     -13.629   5.830   4.347  1.00  0.00    -0.354 N 
ATOM     53  N   UNL     1     -12.655   5.237   7.045  1.00  0.00    -0.248 NA
ATOM     54  C   UNL     1     -12.095   5.949   9.198  1.00  0.00     0.031 C 
ATOM     55  C   UNL     1     -14.470   7.846   3.947  1.00  0.00     0.029 A 
ATOM     56  C   UNL     1     -13.900   7.055   4.932  1.00  0.00     0.049 A 
ATOM     57  H   UNL     1     -13.219   5.063   4.807  1.00  0.00     0.167 HD
ATOM     58  C   UNL     1     -13.047   6.561   7.204  1.00  0.00     0.074 A 
ATOM     59  C   UNL     1     -12.720   6.933   8.565  1.00  0.00     0.031 C 
ATOM     60  C   UNL     1     -13.610   7.399   6.300  1.00  0.00     0.034 A 
BRANCH  47  61
ATOM     61  C   UNL     1     -14.239   4.969   0.660  1.00  0.00     0.023 A 
ATOM     62  C   UNL     1     -15.414   4.376   0.154  1.00  0.00     0.012 A 
ATOM     63  C   UNL     1     -13.489   5.830  -0.164  1.00  0.00     0.148 A 
ATOM     64  C   UNL     1     -15.822   4.615  -1.157  1.00  0.00     0.002 A 
ATOM     65  C   UNL     1     -13.926   6.100  -1.455  1.00  0.00     0.091 A 
ATOM     66  F   UNL     1     -12.365   6.369   0.330  1.00  0.00    -0.205 F 
ATOM     67  C   UNL     1     -15.086   5.485  -1.957  1.00  0.00     0.022 A 
BRANCH  65  68
ATOM     68  S   UNL     1     -13.096   7.269  -2.538  1.00  0.00     0.127 S 
ATOM     69  O   UNL     1     -12.563   6.384  -3.573  1.00  0.00    -0.237 OA
ATOM     70  O   UNL     1     -14.203   8.121  -2.974  1.00  0.00    -0.237 OA
ATOM     71  O   UNL     1     -12.097   7.939  -1.718  1.00  0.00    -0.744 OA
ENDBRANCH  65  68
ENDBRANCH  47  61
BRANCH  48  72
ATOM     72  C   UNL     1     -11.033   3.324   9.972  1.00  0.00     0.023 A 
ATOM     73  C   UNL     1     -11.892   3.376  11.086  1.00  0.00     0.012 A 
ATOM     74  C   UNL     1      -9.666   3.051  10.171  1.00  0.00     0.148 A 
ATOM     75  C   UNL     1     -11.394   3.197  12.377  1.00  0.00     0.002 A 
ATOM     76  C   UNL     1      -9.186   2.815  11.454  1.00  0.00     0.091 A 
ATOM     77  F   UNL     1      -8.861   3.018   9.100  1.00  0.00    -0.205 F 
ATOM     78  C   UNL     1     -10.044   2.907  12.561  1.00  0.00     0.022 A 
BRANCH  76  79
ATOM     79  S   UNL     1      -7.495   2.296  11.765  1.00  0.00     0.127 S 
ATOM     80  O   UNL     1      -6.921   3.494  12.372  1.00  0.00    -0.237 OA
ATOM     81  O   UNL     1      -7.686   1.171  12.681  1.00  0.00    -0.237 OA
ATOM     82  O   UNL     1      -6.954   1.921  10.465  1.00  0.00    -0.744 OA
ENDBRANCH  76  79
ENDBRANCH  48  72
BRANCH  60  83
ATOM     83  C   UNL     1     -13.938   8.798   6.755  1.00  0.00     0.023 A 
ATOM     84  C   UNL     1     -12.900   9.721   6.987  1.00  0.00     0.012 A 
ATOM     85  C   UNL     1     -15.278   9.215   6.884  1.00  0.00     0.148 A 
ATOM     86  C   UNL     1     -13.189  11.029   7.376  1.00  0.00     0.002 A 
ATOM     87  C   UNL     1     -15.559  10.533   7.221  1.00  0.00     0.091 A 
ATOM     88  F   UNL     1     -16.251   8.317   6.674  1.00  0.00    -0.205 F 
ATOM     89  C   UNL     1     -14.516  11.438   7.481  1.00  0.00     0.022 A 
BRANCH  87  90
ATOM     90  S   UNL     1     -17.235  11.176   7.285  1.00  0.00     0.127 S 
ATOM     91  O   UNL     1     -17.422  11.375   8.721  1.00  0.00    -0.237 OA
ATOM     92  O   UNL     1     -17.123  12.411   6.508  1.00  0.00    -0.237 OA
ATOM     93  O   UNL     1     -18.081  10.156   6.681  1.00  0.00    -0.744 OA
ENDBRANCH  87  90
ENDBRANCH  60  83
ENDBRANCH  34  35
ENDBRANCH  26  29
ENDBRANCH  24  25
ENDBRANCH  23  24
ENDBRANCH  22  23
ENDBRANCH   1  22
TORSDOF 19
