REMARK SMILES Cc1ccccc1NC(=O)CSc1nc(C(=O)NCCCCCCNC(=O)c2ccc(-c3c4nc(c(-c5cccc(S(=O)(=O)[O-])c5F)c5ccc([nH]5)c(-c5cccc(S(=O)(=O)[O-])c5F)c5nc(c(-c6cccc(S(=O)(=O)[O-])c6F)c6ccc3[nH]6)C=C5)C=C4)cc2)c2ccccc2n1
REMARK SMILES IDX 21 1 20 2 19 3 18 4 16 5 17 6 15 8 13 9 14 10 97 11 96 12
REMARK SMILES IDX 91 13 95 14 92 15 94 16 93 17 12 18 11 19 9 20 8 21 10 23
REMARK SMILES IDX 7 24 1 25 2 26 3 27 4 28 6 29 5 30 22 31 23 32 24 33 25 34
REMARK SMILES IDX 26 35 27 37 28 38 29 39 90 40 30 41 89 42 31 43 32 44 33 45
REMARK SMILES IDX 83 46 34 47 88 48 82 49 84 50 35 51 87 52 81 53 80 54 36 56
REMARK SMILES IDX 68 57 48 58 67 59 49 60 52 61 66 62 85 63 50 64 51 65 65 67
REMARK SMILES IDX 86 68 53 69 37 70 38 71 46 72 39 73 41 74 47 75 40 76 42 77
REMARK SMILES IDX 43 78 44 79 45 80 69 81 70 82 78 83 71 84 73 85 79 86 72 87
REMARK SMILES IDX 74 88 75 89 76 90 77 91 54 92 55 93 63 94 56 95 58 96 64 97
REMARK SMILES IDX 57 98 59 99 60 100 61 101 62 102
REMARK H PARENT 18 7 8 22 25 36 84 55 52 66
REMARK Flexibility Score: inf
ROOT
ATOM      1  C   UNL     1      -1.892   9.602  -7.959  1.00  0.00     0.002 C 
ENDROOT
BRANCH   1   2
ATOM      2  C   UNL     1      -2.256   8.124  -7.762  1.00  0.00     0.021 C 
BRANCH   2   3
ATOM      3  C   UNL     1      -1.486   7.287  -6.748  1.00  0.00     0.116 C 
BRANCH   3   4
ATOM      4  N   UNL     1      -1.328   7.841  -5.419  1.00  0.00    -0.351 N 
ATOM      5  C   UNL     1      -0.904   7.226  -4.251  1.00  0.00     0.270 C 
ATOM      6  O   UNL     1      -0.735   7.934  -3.256  1.00  0.00    -0.267 OA
ATOM      7  H   UNL     1      -1.556   8.795  -5.332  1.00  0.00     0.163 HD
BRANCH   5   8
ATOM      8  C   UNL     1      -0.751   5.731  -4.129  1.00  0.00     0.140 A 
ATOM      9  C   UNL     1      -1.476   3.913  -2.963  1.00  0.00     0.189 A 
ATOM     10  N   UNL     1      -1.425   5.237  -3.061  1.00  0.00    -0.217 NA
ATOM     11  N   UNL     1      -1.008   3.057  -3.877  1.00  0.00    -0.222 NA
ATOM     12  C   UNL     1      -0.329   3.561  -4.908  1.00  0.00     0.076 A 
ATOM     13  C   UNL     1      -0.065   4.925  -5.049  1.00  0.00     0.032 A 
ATOM     14  C   UNL     1       0.121   2.686  -5.890  1.00  0.00     0.029 A 
ATOM     15  C   UNL     1       0.827   5.344  -6.070  1.00  0.00     0.013 A 
ATOM     16  C   UNL     1       0.877   3.125  -6.979  1.00  0.00     0.002 A 
ATOM     17  C   UNL     1       1.262   4.455  -7.050  1.00  0.00     0.001 A 
BRANCH   9  18
ATOM     18  S   UNL     1      -2.331   3.208  -1.589  1.00  0.00    -0.076 SA
BRANCH  18  19
ATOM     19  C   UNL     1      -1.389   3.934  -0.218  1.00  0.00     0.178 C 
BRANCH  19  20
ATOM     20  C   UNL     1       0.084   3.584  -0.210  1.00  0.00     0.234 C 
ATOM     21  N   UNL     1       0.605   2.341  -0.013  1.00  0.00    -0.325 N 
ATOM     22  H   UNL     1       1.589   2.353   0.004  1.00  0.00     0.169 HD
ATOM     23  O   UNL     1       0.921   4.490  -0.346  1.00  0.00    -0.274 OA
BRANCH  21  24
ATOM     24  C   UNL     1       0.090   1.043   0.171  1.00  0.00     0.044 A 
ATOM     25  C   UNL     1       2.456   0.017  -0.145  1.00  0.00     0.046 C 
ATOM     26  C   UNL     1       0.961  -0.066   0.036  1.00  0.00    -0.027 A 
ATOM     27  C   UNL     1       0.425  -1.372   0.044  1.00  0.00     0.005 A 
ATOM     28  C   UNL     1      -0.934  -1.593   0.233  1.00  0.00     0.000 A 
ATOM     29  C   UNL     1      -1.254   0.788   0.458  1.00  0.00     0.026 A 
ATOM     30  C   UNL     1      -1.768  -0.512   0.468  1.00  0.00     0.002 A 
ENDBRANCH  21  24
ENDBRANCH  19  20
ENDBRANCH  18  19
ENDBRANCH   9  18
ENDBRANCH   5   8
ENDBRANCH   3   4
ENDBRANCH   2   3
ENDBRANCH   1   2
BRANCH   1  31
ATOM     31  C   UNL     1      -0.431  10.070  -7.913  1.00  0.00     0.002 C 
BRANCH  31  32
ATOM     32  C   UNL     1       0.630   9.300  -8.694  1.00  0.00     0.021 C 
BRANCH  32  33
ATOM     33  C   UNL     1       0.392   9.147 -10.190  1.00  0.00     0.116 C 
BRANCH  33  34
ATOM     34  N   UNL     1       1.190  10.059 -11.003  1.00  0.00    -0.352 N 
ATOM     35  C   UNL     1       1.343  10.098 -12.378  1.00  0.00     0.251 C 
ATOM     36  H   UNL     1       1.690  10.743 -10.502  1.00  0.00     0.163 HD
ATOM     37  O   UNL     1       2.149  10.881 -12.878  1.00  0.00    -0.269 OA
BRANCH  35  38
ATOM     38  C   UNL     1       0.443   9.284 -13.225  1.00  0.00     0.039 A 
ATOM     39  C   UNL     1      -0.319   9.947 -14.195  1.00  0.00     0.014 A 
ATOM     40  C   UNL     1       0.162   7.964 -12.888  1.00  0.00     0.014 A 
ATOM     41  C   UNL     1      -1.526   9.394 -14.610  1.00  0.00     0.010 A 
ATOM     42  C   UNL     1      -1.069   7.449 -13.230  1.00  0.00     0.010 A 
ATOM     43  C   UNL     1      -1.943   8.207 -14.017  1.00  0.00    -0.014 A 
BRANCH  43  44
ATOM     44  C   UNL     1      -3.298   7.692 -14.076  1.00  0.00     0.031 A 
ATOM     45  C   UNL     1      -3.676   6.710 -15.099  1.00  0.00     0.074 A 
ATOM     46  C   UNL     1      -4.132   7.976 -13.050  1.00  0.00     0.049 A 
ATOM     47  N   UNL     1      -4.885   6.312 -15.290  1.00  0.00    -0.248 NA
ATOM     48  C   UNL     1      -2.716   6.135 -16.030  1.00  0.00     0.031 C 
ATOM     49  C   UNL     1      -5.337   7.261 -12.651  1.00  0.00     0.029 A 
ATOM     50  N   UNL     1      -4.168   9.150 -12.291  1.00  0.00    -0.354 N 
ATOM     51  C   UNL     1      -4.822   5.213 -16.113  1.00  0.00     0.074 A 
ATOM     52  C   UNL     1      -3.491   5.251 -16.666  1.00  0.00     0.031 C 
ATOM     53  C   UNL     1      -6.127   8.101 -11.966  1.00  0.00     0.029 A 
ATOM     54  C   UNL     1      -5.535   9.421 -12.082  1.00  0.00     0.049 A 
ATOM     55  H   UNL     1      -3.400   9.677 -11.971  1.00  0.00     0.167 HD
ATOM     56  C   UNL     1      -5.859   4.330 -16.078  1.00  0.00     0.034 A 
ATOM     57  C   UNL     1      -6.158  10.530 -12.584  1.00  0.00     0.034 A 
ATOM     58  C   UNL     1      -7.024   4.923 -15.388  1.00  0.00     0.049 A 
ATOM     59  C   UNL     1      -7.323  10.204 -13.516  1.00  0.00     0.074 A 
ATOM     60  C   UNL     1      -7.652   4.735 -14.167  1.00  0.00     0.029 A 
ATOM     61  N   UNL     1      -7.567   6.088 -15.913  1.00  0.00    -0.354 N 
ATOM     62  N   UNL     1      -7.776   9.005 -13.768  1.00  0.00    -0.248 NA
ATOM     63  C   UNL     1      -8.001  11.222 -14.318  1.00  0.00     0.031 C 
ATOM     64  C   UNL     1      -8.544   5.834 -13.949  1.00  0.00     0.029 A 
ATOM     65  C   UNL     1      -8.487   6.666 -15.052  1.00  0.00     0.049 A 
ATOM     66  H   UNL     1      -7.327   6.459 -16.792  1.00  0.00     0.167 HD
ATOM     67  C   UNL     1      -8.638   9.048 -14.839  1.00  0.00     0.074 A 
ATOM     68  C   UNL     1      -8.771  10.469 -15.121  1.00  0.00     0.031 C 
ATOM     69  C   UNL     1      -9.112   7.920 -15.465  1.00  0.00     0.034 A 
BRANCH  56  70
ATOM     70  C   UNL     1      -5.790   2.860 -16.481  1.00  0.00     0.023 A 
ATOM     71  C   UNL     1      -6.918   2.059 -16.192  1.00  0.00     0.012 A 
ATOM     72  C   UNL     1      -4.675   2.167 -17.018  1.00  0.00     0.148 A 
ATOM     73  C   UNL     1      -6.926   0.668 -16.373  1.00  0.00     0.002 A 
ATOM     74  C   UNL     1      -4.686   0.783 -17.220  1.00  0.00     0.091 A 
ATOM     75  F   UNL     1      -3.554   2.816 -17.315  1.00  0.00    -0.205 F 
ATOM     76  C   UNL     1      -5.808   0.027 -16.884  1.00  0.00     0.022 A 
BRANCH  74  77
ATOM     77  S   UNL     1      -3.262  -0.112 -17.878  1.00  0.00     0.127 S 
ATOM     78  O   UNL     1      -2.902  -0.978 -16.754  1.00  0.00    -0.237 OA
ATOM     79  O   UNL     1      -3.836  -0.812 -19.026  1.00  0.00    -0.237 OA
ATOM     80  O   UNL     1      -2.258   0.890 -18.216  1.00  0.00    -0.744 OA
ENDBRANCH  74  77
ENDBRANCH  56  70
BRANCH  57  81
ATOM     81  C   UNL     1      -5.235  11.702 -12.719  1.00  0.00     0.023 A 
ATOM     82  C   UNL     1      -4.613  12.167 -11.533  1.00  0.00     0.012 A 
ATOM     83  C   UNL     1      -4.677  12.065 -13.957  1.00  0.00     0.148 A 
ATOM     84  C   UNL     1      -3.385  12.829 -11.578  1.00  0.00     0.002 A 
ATOM     85  C   UNL     1      -3.463  12.750 -13.993  1.00  0.00     0.091 A 
ATOM     86  F   UNL     1      -5.285  11.671 -15.082  1.00  0.00    -0.205 F 
ATOM     87  C   UNL     1      -2.792  13.088 -12.808  1.00  0.00     0.022 A 
BRANCH  85  88
ATOM     88  S   UNL     1      -2.655  13.112 -15.558  1.00  0.00     0.127 S 
ATOM     89  O   UNL     1      -3.184  14.439 -15.857  1.00  0.00    -0.237 OA
ATOM     90  O   UNL     1      -1.238  13.079 -15.200  1.00  0.00    -0.237 OA
ATOM     91  O   UNL     1      -3.069  12.032 -16.442  1.00  0.00    -0.744 OA
ENDBRANCH  85  88
ENDBRANCH  57  81
BRANCH  69  92
ATOM     92  C   UNL     1     -10.125   7.910 -16.612  1.00  0.00     0.023 A 
ATOM     93  C   UNL     1     -11.010   8.983 -16.833  1.00  0.00     0.012 A 
ATOM     94  C   UNL     1     -10.296   6.783 -17.465  1.00  0.00     0.148 A 
ATOM     95  C   UNL     1     -11.895   9.012 -17.920  1.00  0.00     0.002 A 
ATOM     96  C   UNL     1     -11.190   6.801 -18.534  1.00  0.00     0.091 A 
ATOM     97  F   UNL     1      -9.633   5.649 -17.218  1.00  0.00    -0.205 F 
ATOM     98  C   UNL     1     -11.969   7.930 -18.785  1.00  0.00     0.022 A 
BRANCH  96  99
ATOM     99  S   UNL     1     -11.414   5.389 -19.627  1.00  0.00     0.127 S 
ATOM    100  O   UNL     1     -12.742   4.921 -19.233  1.00  0.00    -0.237 OA
ATOM    101  O   UNL     1     -11.355   6.016 -20.948  1.00  0.00    -0.237 OA
ATOM    102  O   UNL     1     -10.318   4.475 -19.341  1.00  0.00    -0.744 OA
ENDBRANCH  96  99
ENDBRANCH  69  92
ENDBRANCH  43  44
ENDBRANCH  35  38
ENDBRANCH  33  34
ENDBRANCH  32  33
ENDBRANCH  31  32
ENDBRANCH   1  31
TORSDOF 20
