REMARK SMILES Cc1ccc(N2C(=O)C[C@H](Sc3ccccc3C(=O)NCCCCCCNC(=O)c3ccc(-c4c5nc(c(-c6cccc(S(=O)(=O)[O-])c6F)c6ccc([nH]6)c(-c6cccc(S(=O)(=O)[O-])c6F)c6nc(c(-c7cccc(S(=O)(=O)[O-])c7F)c7ccc4[nH]7)C=C6)C=C5)cc3)C2=O)cc1
REMARK SMILES IDX 23 1 22 2 21 3 20 4 18 5 19 6 17 8 12 9 13 10 14 11 16 12
REMARK SMILES IDX 15 13 11 14 10 15 6 16 7 17 93 18 8 19 9 20 94 21 5 22 1 23
REMARK SMILES IDX 2 24 3 25 96 26 4 27 95 28 24 29 25 30 26 31 27 32 28 33
REMARK SMILES IDX 29 35 30 36 31 37 92 38 32 39 91 40 33 41 34 42 35 43 85 44
REMARK SMILES IDX 36 45 90 46 84 47 86 48 37 49 89 50 83 51 82 52 38 54 70 55
REMARK SMILES IDX 50 56 69 57 51 58 54 59 68 60 87 61 52 62 53 63 67 65 88 66
REMARK SMILES IDX 55 67 39 68 40 69 48 70 41 71 43 72 49 73 42 74 44 75 45 76
REMARK SMILES IDX 46 77 47 78 71 79 72 80 80 81 73 82 75 83 81 84 74 85 76 86
REMARK SMILES IDX 77 87 78 88 79 89 56 90 57 91 65 92 58 93 60 94 66 95 59 96
REMARK SMILES IDX 61 97 62 98 63 99 64 100
REMARK H PARENT 20 7 27 34 86 53 54 64
REMARK Flexibility Score: inf
ROOT
ATOM      1  C   UNL     1      -5.313   5.005  -3.561  1.00  0.00     0.002 C 
ENDROOT
BRANCH   1   2
ATOM      2  C   UNL     1      -4.545   4.980  -2.236  1.00  0.00     0.021 C 
BRANCH   2   3
ATOM      3  C   UNL     1      -5.313   4.858  -0.920  1.00  0.00     0.116 C 
BRANCH   3   4
ATOM      4  N   UNL     1      -6.380   3.873  -0.888  1.00  0.00    -0.352 N 
ATOM      5  C   UNL     1      -6.874   3.128   0.162  1.00  0.00     0.252 C 
ATOM      6  O   UNL     1      -7.917   2.501  -0.003  1.00  0.00    -0.269 OA
ATOM      7  H   UNL     1      -6.821   3.713  -1.754  1.00  0.00     0.163 HD
BRANCH   5   8
ATOM      8  C   UNL     1      -6.136   3.037   1.452  1.00  0.00     0.053 A 
ATOM      9  C   UNL     1      -5.860   1.800   2.079  1.00  0.00     0.021 A 
ATOM     10  C   UNL     1      -5.137   1.808   3.287  1.00  0.00     0.016 A 
ATOM     11  C   UNL     1      -4.718   3.004   3.875  1.00  0.00     0.001 A 
ATOM     12  C   UNL     1      -5.766   4.234   2.092  1.00  0.00     0.015 A 
ATOM     13  C   UNL     1      -5.048   4.218   3.287  1.00  0.00     0.001 A 
BRANCH   9  14
ATOM     14  S   UNL     1      -6.583   0.214   1.640  1.00  0.00    -0.111 SA
BRANCH  14  15
ATOM     15  C   UNL     1      -5.456  -0.518   0.409  1.00  0.00     0.151 C 
ATOM     16  N   UNL     1      -3.228   0.074   0.043  1.00  0.00    -0.250 N 
ATOM     17  C   UNL     1      -3.953   0.732  -0.925  1.00  0.00     0.235 C 
ATOM     18  C   UNL     1      -4.035  -0.663   0.881  1.00  0.00     0.247 C 
ATOM     19  O   UNL     1      -3.566   1.519  -1.776  1.00  0.00    -0.274 OA
ATOM     20  C   UNL     1      -5.356   0.210  -0.908  1.00  0.00     0.126 C 
ATOM     21  O   UNL     1      -3.709  -1.323   1.862  1.00  0.00    -0.273 OA
BRANCH  16  22
ATOM     22  C   UNL     1      -1.811   0.093   0.108  1.00  0.00     0.052 A 
ATOM     23  C   UNL     1       2.515   0.021   0.006  1.00  0.00     0.044 C 
ATOM     24  C   UNL     1       1.017   0.058   0.080  1.00  0.00    -0.051 A 
ATOM     25  C   UNL     1       0.297  -1.091   0.416  1.00  0.00     0.005 A 
ATOM     26  C   UNL     1       0.317   1.223  -0.244  1.00  0.00     0.005 A 
ATOM     27  C   UNL     1      -1.101  -1.067   0.454  1.00  0.00     0.027 A 
ATOM     28  C   UNL     1      -1.083   1.235  -0.244  1.00  0.00     0.027 A 
ENDBRANCH  16  22
ENDBRANCH  14  15
ENDBRANCH   9  14
ENDBRANCH   5   8
ENDBRANCH   3   4
ENDBRANCH   2   3
ENDBRANCH   1   2
BRANCH   1  29
ATOM     29  C   UNL     1      -6.530   5.926  -3.707  1.00  0.00     0.002 C 
BRANCH  29  30
ATOM     30  C   UNL     1      -6.402   7.356  -3.195  1.00  0.00     0.021 C 
BRANCH  30  31
ATOM     31  C   UNL     1      -5.340   8.209  -3.877  1.00  0.00     0.116 C 
BRANCH  31  32
ATOM     32  N   UNL     1      -5.863   9.066  -4.935  1.00  0.00    -0.352 N 
ATOM     33  C   UNL     1      -5.212  10.039  -5.675  1.00  0.00     0.251 C 
ATOM     34  H   UNL     1      -6.814   8.934  -5.154  1.00  0.00     0.163 HD
ATOM     35  O   UNL     1      -5.857  10.732  -6.460  1.00  0.00    -0.269 OA
BRANCH  33  36
ATOM     36  C   UNL     1      -3.735  10.140  -5.601  1.00  0.00     0.039 A 
ATOM     37  C   UNL     1      -3.009  10.093  -6.798  1.00  0.00     0.014 A 
ATOM     38  C   UNL     1      -3.078  10.027  -4.380  1.00  0.00     0.014 A 
ATOM     39  C   UNL     1      -1.686   9.656  -6.780  1.00  0.00     0.010 A 
ATOM     40  C   UNL     1      -1.804   9.503  -4.363  1.00  0.00     0.010 A 
ATOM     41  C   UNL     1      -1.142   9.242  -5.569  1.00  0.00    -0.014 A 
BRANCH  41  42
ATOM     42  C   UNL     1       0.067   8.446  -5.433  1.00  0.00     0.031 A 
ATOM     43  C   UNL     1       1.329   9.074  -5.007  1.00  0.00     0.074 A 
ATOM     44  C   UNL     1      -0.021   7.099  -5.520  1.00  0.00     0.049 A 
ATOM     45  N   UNL     1       2.459   8.455  -5.000  1.00  0.00    -0.248 NA
ATOM     46  C   UNL     1       1.431  10.473  -4.613  1.00  0.00     0.031 C 
ATOM     47  C   UNL     1       0.923   6.112  -5.006  1.00  0.00     0.029 A 
ATOM     48  N   UNL     1      -0.879   6.353  -6.333  1.00  0.00    -0.354 N 
ATOM     49  C   UNL     1       3.361   9.251  -4.339  1.00  0.00     0.074 A 
ATOM     50  C   UNL     1       2.717  10.538  -4.252  1.00  0.00     0.031 C 
ATOM     51  C   UNL     1       0.797   4.984  -5.720  1.00  0.00     0.029 A 
ATOM     52  C   UNL     1      -0.109   5.276  -6.814  1.00  0.00     0.049 A 
ATOM     53  H   UNL     1      -1.826   6.542  -6.528  1.00  0.00     0.167 HD
ATOM     54  C   UNL     1       4.481   8.665  -3.834  1.00  0.00     0.034 A 
ATOM     55  C   UNL     1       0.145   5.061  -8.139  1.00  0.00     0.034 A 
ATOM     56  C   UNL     1       4.678   7.320  -4.404  1.00  0.00     0.049 A 
ATOM     57  C   UNL     1       1.630   5.015  -8.482  1.00  0.00     0.074 A 
ATOM     58  C   UNL     1       4.583   6.019  -3.942  1.00  0.00     0.029 A 
ATOM     59  N   UNL     1       4.837   7.222  -5.776  1.00  0.00    -0.354 N 
ATOM     60  N   UNL     1       2.602   5.103  -7.615  1.00  0.00    -0.248 NA
ATOM     61  C   UNL     1       2.128   4.969  -9.858  1.00  0.00     0.031 C 
ATOM     62  C   UNL     1       4.661   5.141  -5.070  1.00  0.00     0.029 A 
ATOM     63  C   UNL     1       4.834   5.910  -6.207  1.00  0.00     0.049 A 
ATOM     64  H   UNL     1       4.940   7.997  -6.375  1.00  0.00     0.167 HD
ATOM     65  C   UNL     1       3.788   5.308  -8.277  1.00  0.00     0.074 A 
ATOM     66  C   UNL     1       3.445   5.165  -9.681  1.00  0.00     0.031 C 
ATOM     67  C   UNL     1       4.947   5.661  -7.639  1.00  0.00     0.034 A 
BRANCH  54  68
ATOM     68  C   UNL     1       5.355   9.218  -2.720  1.00  0.00     0.023 A 
ATOM     69  C   UNL     1       6.430   8.408  -2.285  1.00  0.00     0.012 A 
ATOM     70  C   UNL     1       5.147  10.408  -1.980  1.00  0.00     0.148 A 
ATOM     71  C   UNL     1       7.220   8.732  -1.175  1.00  0.00     0.002 A 
ATOM     72  C   UNL     1       5.962  10.757  -0.899  1.00  0.00     0.091 A 
ATOM     73  F   UNL     1       4.109  11.199  -2.249  1.00  0.00    -0.205 F 
ATOM     74  C   UNL     1       6.990   9.911  -0.483  1.00  0.00     0.022 A 
BRANCH  72  75
ATOM     75  S   UNL     1       5.723  12.281   0.035  1.00  0.00     0.127 S 
ATOM     76  O   UNL     1       5.234  11.777   1.318  1.00  0.00    -0.237 OA
ATOM     77  O   UNL     1       7.074  12.841   0.077  1.00  0.00    -0.237 OA
ATOM     78  O   UNL     1       4.764  13.081  -0.718  1.00  0.00    -0.744 OA
ENDBRANCH  72  75
ENDBRANCH  54  68
BRANCH  55  79
ATOM     79  C   UNL     1      -0.931   5.577  -9.035  1.00  0.00     0.023 A 
ATOM     80  C   UNL     1      -2.220   5.009  -8.887  1.00  0.00     0.012 A 
ATOM     81  C   UNL     1      -0.808   6.808  -9.702  1.00  0.00     0.148 A 
ATOM     82  C   UNL     1      -3.363   5.711  -9.272  1.00  0.00     0.002 A 
ATOM     83  C   UNL     1      -1.953   7.496 -10.096  1.00  0.00     0.091 A 
ATOM     84  F   UNL     1       0.413   7.330  -9.868  1.00  0.00    -0.205 F 
ATOM     85  C   UNL     1      -3.230   6.969  -9.848  1.00  0.00     0.022 A 
BRANCH  83  86
ATOM     86  S   UNL     1      -1.851   9.144 -10.807  1.00  0.00     0.127 S 
ATOM     87  O   UNL     1      -1.877   8.846 -12.235  1.00  0.00    -0.237 OA
ATOM     88  O   UNL     1      -3.057   9.786 -10.286  1.00  0.00    -0.237 OA
ATOM     89  O   UNL     1      -0.611   9.695 -10.282  1.00  0.00    -0.744 OA
ENDBRANCH  83  86
ENDBRANCH  55  79
BRANCH  67  90
ATOM     90  C   UNL     1       6.284   5.853  -8.339  1.00  0.00     0.023 A 
ATOM     91  C   UNL     1       6.656   5.030  -9.422  1.00  0.00     0.012 A 
ATOM     92  C   UNL     1       7.268   6.761  -7.864  1.00  0.00     0.148 A 
ATOM     93  C   UNL     1       7.904   5.148 -10.046  1.00  0.00     0.002 A 
ATOM     94  C   UNL     1       8.537   6.821  -8.436  1.00  0.00     0.091 A 
ATOM     95  F   UNL     1       6.975   7.597  -6.864  1.00  0.00    -0.205 F 
ATOM     96  C   UNL     1       8.849   6.035  -9.547  1.00  0.00     0.022 A 
BRANCH  94  97
ATOM     97  S   UNL     1       9.867   7.822  -7.750  1.00  0.00     0.127 S 
ATOM     98  O   UNL     1      10.891   6.810  -7.487  1.00  0.00    -0.237 OA
ATOM     99  O   UNL     1      10.170   8.720  -8.863  1.00  0.00    -0.237 OA
ATOM    100  O   UNL     1       9.326   8.463  -6.561  1.00  0.00    -0.744 OA
ENDBRANCH  94  97
ENDBRANCH  67  90
ENDBRANCH  41  42
ENDBRANCH  33  36
ENDBRANCH  31  32
ENDBRANCH  30  31
ENDBRANCH  29  30
ENDBRANCH   1  29
TORSDOF 19
