REMARK SMILES O=C(NCCCCCCNC(=O)[C@H]1CC1(c1ccccc1)c1ccccc1)c1ccc(-c2c3nc(c(-c4cccc(S(=O)(=O)[O-])c4F)c4ccc([nH]4)c(-c4cccc(S(=O)(=O)[O-])c4F)c4nc(c(-c5cccc(S(=O)(=O)[O-])c5F)c5ccc2[nH]5)C=C4)C=C3)cc1
REMARK SMILES IDX 5 1 4 2 3 3 1 4 2 5 28 7 29 8 90 9 30 10 89 11 31 12 32 13
REMARK SMILES IDX 33 14 83 15 34 16 88 17 82 18 84 19 35 20 87 21 81 22 80 23
REMARK SMILES IDX 36 25 68 26 48 27 67 28 49 29 52 30 66 31 85 32 50 33 51 34
REMARK SMILES IDX 65 36 86 37 53 38 37 39 38 40 46 41 39 42 41 43 47 44 40 45
REMARK SMILES IDX 42 46 43 47 44 48 45 49 69 50 70 51 78 52 71 53 73 54 79 55
REMARK SMILES IDX 72 56 74 57 75 58 76 59 77 60 54 61 55 62 63 63 56 64 58 65
REMARK SMILES IDX 64 66 57 67 59 68 60 69 61 70 62 71 6 72 7 73 8 74 9 75
REMARK SMILES IDX 10 76 11 77 12 79 13 80 14 81 15 82 16 83 17 84 21 85 18 86
REMARK SMILES IDX 20 87 19 88 22 89 23 90 27 91 24 92 26 93 25 94
REMARK H PARENT 3 6 84 24 52 35 10 78
REMARK Flexibility Score: inf
ROOT
ATOM      1  C   UNL     1      10.431  -1.474   1.529  1.00  0.00     0.021 C 
ENDROOT
BRANCH   1   2
ATOM      2  C   UNL     1       9.526  -0.250   1.430  1.00  0.00     0.116 C 
BRANCH   2   3
ATOM      3  N   UNL     1       9.337   0.422   2.704  1.00  0.00    -0.352 N 
ATOM      4  O   UNL     1       9.454   2.086   4.214  1.00  0.00    -0.269 OA
ATOM      5  C   UNL     1       9.544   1.740   3.039  1.00  0.00     0.251 C 
ATOM      6  H   UNL     1       9.013  -0.151   3.436  1.00  0.00     0.163 HD
BRANCH   5   7
ATOM      7  C   UNL     1       9.909   2.731   1.998  1.00  0.00     0.039 A 
ATOM      8  C   UNL     1       9.250   2.763   0.767  1.00  0.00     0.014 A 
ATOM      9  C   UNL     1      10.927   3.651   2.266  1.00  0.00     0.014 A 
ATOM     10  C   UNL     1       9.707   3.607  -0.243  1.00  0.00     0.010 A 
ATOM     11  C   UNL     1      11.333   4.551   1.275  1.00  0.00     0.010 A 
ATOM     12  C   UNL     1      10.757   4.508  -0.003  1.00  0.00    -0.014 A 
BRANCH  12  13
ATOM     13  C   UNL     1      11.208   5.418  -1.089  1.00  0.00     0.031 A 
ATOM     14  C   UNL     1      12.595   5.316  -1.667  1.00  0.00     0.074 A 
ATOM     15  C   UNL     1      10.352   6.345  -1.563  1.00  0.00     0.049 A 
ATOM     16  N   UNL     1      13.126   5.993  -2.654  1.00  0.00    -0.248 NA
ATOM     17  C   UNL     1      13.508   4.336  -1.057  1.00  0.00     0.031 C 
ATOM     18  C   UNL     1       8.999   6.577  -1.054  1.00  0.00     0.029 A 
ATOM     19  N   UNL     1      10.488   7.261  -2.576  1.00  0.00    -0.354 N 
ATOM     20  C   UNL     1      14.442   5.556  -2.756  1.00  0.00     0.074 A 
ATOM     21  C   UNL     1      14.632   4.558  -1.725  1.00  0.00     0.031 C 
ATOM     22  C   UNL     1       8.418   7.545  -1.776  1.00  0.00     0.029 A 
ATOM     23  C   UNL     1       9.366   8.031  -2.774  1.00  0.00     0.049 A 
ATOM     24  H   UNL     1      11.309   7.357  -3.110  1.00  0.00     0.167 HD
ATOM     25  C   UNL     1      15.398   5.935  -3.638  1.00  0.00     0.034 A 
ATOM     26  C   UNL     1       9.122   9.016  -3.659  1.00  0.00     0.034 A 
ATOM     27  C   UNL     1      15.193   6.891  -4.694  1.00  0.00     0.049 A 
ATOM     28  C   UNL     1      10.186   9.384  -4.654  1.00  0.00     0.074 A 
ATOM     29  C   UNL     1      16.076   7.282  -5.686  1.00  0.00     0.029 A 
ATOM     30  N   UNL     1      14.026   7.613  -4.895  1.00  0.00    -0.354 N 
ATOM     31  N   UNL     1      11.372   8.854  -4.826  1.00  0.00    -0.248 NA
ATOM     32  C   UNL     1       9.866  10.465  -5.598  1.00  0.00     0.031 C 
ATOM     33  C   UNL     1      15.447   8.248  -6.479  1.00  0.00     0.029 A 
ATOM     34  C   UNL     1      14.167   8.450  -5.989  1.00  0.00     0.049 A 
ATOM     35  H   UNL     1      13.216   7.540  -4.340  1.00  0.00     0.167 HD
ATOM     36  C   UNL     1      11.929   9.514  -5.915  1.00  0.00     0.074 A 
ATOM     37  C   UNL     1      10.940  10.468  -6.376  1.00  0.00     0.031 C 
ATOM     38  C   UNL     1      13.155   9.355  -6.472  1.00  0.00     0.034 A 
BRANCH  25  39
ATOM     39  C   UNL     1      16.750   5.278  -3.531  1.00  0.00     0.023 A 
ATOM     40  C   UNL     1      16.911   3.947  -3.967  1.00  0.00     0.012 A 
ATOM     41  C   UNL     1      17.870   5.989  -3.058  1.00  0.00     0.148 A 
ATOM     42  C   UNL     1      18.158   3.325  -3.905  1.00  0.00     0.002 A 
ATOM     43  C   UNL     1      19.117   5.374  -3.033  1.00  0.00     0.091 A 
ATOM     44  F   UNL     1      17.696   7.246  -2.623  1.00  0.00    -0.205 F 
ATOM     45  C   UNL     1      19.262   4.040  -3.447  1.00  0.00     0.022 A 
BRANCH  43  46
ATOM     46  S   UNL     1      20.604   6.248  -2.529  1.00  0.00     0.127 S 
ATOM     47  O   UNL     1      20.767   5.785  -1.152  1.00  0.00    -0.237 OA
ATOM     48  O   UNL     1      21.605   5.734  -3.465  1.00  0.00    -0.237 OA
ATOM     49  O   UNL     1      20.301   7.663  -2.692  1.00  0.00    -0.744 OA
ENDBRANCH  43  46
ENDBRANCH  25  39
BRANCH  26  50
ATOM     50  C   UNL     1       7.779   9.658  -3.692  1.00  0.00     0.023 A 
ATOM     51  C   UNL     1       6.914   9.386  -4.770  1.00  0.00     0.012 A 
ATOM     52  C   UNL     1       7.330  10.477  -2.639  1.00  0.00     0.148 A 
ATOM     53  C   UNL     1       5.631   9.933  -4.807  1.00  0.00     0.002 A 
ATOM     54  C   UNL     1       6.031  10.973  -2.654  1.00  0.00     0.091 A 
ATOM     55  F   UNL     1       8.174  10.736  -1.630  1.00  0.00    -0.205 F 
ATOM     56  C   UNL     1       5.185  10.713  -3.744  1.00  0.00     0.022 A 
BRANCH  54  57
ATOM     57  S   UNL     1       5.329  11.868  -1.264  1.00  0.00     0.127 S 
ATOM     58  O   UNL     1       5.276  13.232  -1.783  1.00  0.00    -0.237 OA
ATOM     59  O   UNL     1       4.027  11.216  -1.110  1.00  0.00    -0.237 OA
ATOM     60  O   UNL     1       6.245  11.645  -0.154  1.00  0.00    -0.744 OA
ENDBRANCH  54  57
ENDBRANCH  26  50
BRANCH  38  61
ATOM     61  C   UNL     1      13.492  10.211  -7.664  1.00  0.00     0.023 A 
ATOM     62  C   UNL     1      13.786  11.576  -7.480  1.00  0.00     0.012 A 
ATOM     63  C   UNL     1      13.583   9.650  -8.953  1.00  0.00     0.148 A 
ATOM     64  C   UNL     1      14.137  12.378  -8.566  1.00  0.00     0.002 A 
ATOM     65  C   UNL     1      13.975  10.446 -10.024  1.00  0.00     0.091 A 
ATOM     66  F   UNL     1      13.275   8.355  -9.113  1.00  0.00    -0.205 F 
ATOM     67  C   UNL     1      14.242  11.811  -9.835  1.00  0.00     0.022 A 
BRANCH  65  68
ATOM     68  S   UNL     1      14.220   9.769 -11.670  1.00  0.00     0.127 S 
ATOM     69  O   UNL     1      12.978  10.149 -12.339  1.00  0.00    -0.237 OA
ATOM     70  O   UNL     1      15.407  10.488 -12.135  1.00  0.00    -0.237 OA
ATOM     71  O   UNL     1      14.424   8.339 -11.480  1.00  0.00    -0.744 OA
ENDBRANCH  65  68
ENDBRANCH  38  61
ENDBRANCH  12  13
ENDBRANCH   5   7
ENDBRANCH   2   3
ENDBRANCH   1   2
BRANCH   1  72
ATOM     72  C   UNL     1       9.897  -2.631   2.375  1.00  0.00     0.002 C 
BRANCH  72  73
ATOM     73  C   UNL     1       8.517  -3.172   1.990  1.00  0.00     0.002 C 
BRANCH  73  74
ATOM     74  C   UNL     1       8.318  -3.548   0.518  1.00  0.00     0.021 C 
BRANCH  74  75
ATOM     75  C   UNL     1       9.339  -4.518  -0.074  1.00  0.00     0.116 C 
BRANCH  75  76
ATOM     76  N   UNL     1       9.332  -5.816   0.574  1.00  0.00    -0.356 N 
ATOM     77  C   UNL     1       9.181  -7.061   0.019  1.00  0.00     0.224 C 
ATOM     78  H   UNL     1       9.453  -5.801   1.550  1.00  0.00     0.163 HD
ATOM     79  O   UNL     1       9.132  -8.049   0.746  1.00  0.00    -0.275 OA
BRANCH  77  80
ATOM     80  C   UNL     1       8.948  -7.179  -1.440  1.00  0.00     0.095 C 
ATOM     81  C   UNL     1       9.913  -6.602  -2.436  1.00  0.00     0.032 C 
ATOM     82  C   UNL     1       9.735  -8.119  -2.374  1.00  0.00     0.033 C 
BRANCH  82  83
ATOM     83  C   UNL     1      11.025  -8.855  -1.955  1.00  0.00    -0.037 A 
ATOM     84  C   UNL     1      12.216  -8.677  -2.688  1.00  0.00     0.004 A 
ATOM     85  C   UNL     1      11.049  -9.816  -0.930  1.00  0.00     0.004 A 
ATOM     86  C   UNL     1      13.364  -9.426  -2.424  1.00  0.00     0.000 A 
ATOM     87  C   UNL     1      12.193 -10.576  -0.664  1.00  0.00     0.000 A 
ATOM     88  C   UNL     1      13.349 -10.384  -1.416  1.00  0.00     0.000 A 
ENDBRANCH  82  83
BRANCH  82  89
ATOM     89  C   UNL     1       8.906  -8.837  -3.490  1.00  0.00    -0.037 A 
ATOM     90  C   UNL     1       8.948 -10.240  -3.644  1.00  0.00     0.004 A 
ATOM     91  C   UNL     1       8.086  -8.150  -4.408  1.00  0.00     0.004 A 
ATOM     92  C   UNL     1       8.256 -10.909  -4.660  1.00  0.00     0.000 A 
ATOM     93  C   UNL     1       7.383  -8.811  -5.423  1.00  0.00     0.000 A 
ATOM     94  C   UNL     1       7.475 -10.191  -5.554  1.00  0.00     0.000 A 
ENDBRANCH  82  89
ENDBRANCH  77  80
ENDBRANCH  75  76
ENDBRANCH  74  75
ENDBRANCH  73  74
ENDBRANCH  72  73
ENDBRANCH   1  72
TORSDOF 18
