REMARK SMILES CCC(C)(C)NC(=O)[C@@H](C)Oc1ccc(C)nc1C(=O)NCCCCCCNC(=O)c1ccc(-c2c3nc(c(-c4cccc(S(=O)(=O)[O-])c4F)c4ccc([nH]4)c(-c4cccc(S(=O)(=O)[O-])c4F)c4nc(c(-c5cccc(S(=O)(=O)[O-])c5F)c5ccc2[nH]5)C=C4)C=C3)cc1
REMARK SMILES IDX 23 1 22 2 21 3 19 4 20 5 18 7 12 8 13 9 14 10 17 11 15 12
REMARK SMILES IDX 16 13 11 14 9 15 10 16 7 17 6 18 8 20 3 21 4 22 5 23 2 24
REMARK SMILES IDX 1 25 24 26 25 27 26 28 27 29 28 30 29 31 30 33 31 34 32 35
REMARK SMILES IDX 93 36 33 37 92 38 34 39 35 40 36 41 86 42 37 43 91 44 85 45
REMARK SMILES IDX 87 46 38 47 90 48 84 49 83 50 39 52 71 53 51 54 70 55 52 56
REMARK SMILES IDX 55 57 69 58 88 59 53 60 54 61 68 63 89 64 56 65 40 66 41 67
REMARK SMILES IDX 49 68 42 69 44 70 50 71 43 72 45 73 46 74 47 75 48 76 72 77
REMARK SMILES IDX 73 78 81 79 74 80 76 81 82 82 75 83 77 84 78 85 79 86 80 87
REMARK SMILES IDX 57 88 58 89 66 90 59 91 61 92 67 93 60 94 62 95 63 96 64 97
REMARK SMILES IDX 65 98
REMARK H PARENT 21 6 6 19 28 32 87 51 55 62
REMARK Flexibility Score: inf
ROOT
ATOM      1  C   UNL     1       1.431   3.205  -1.048  1.00  0.00     0.021 C 
ENDROOT
BRANCH   1   2
ATOM      2  C   UNL     1       1.092   3.059   0.435  1.00  0.00     0.116 C 
BRANCH   2   3
ATOM      3  N   UNL     1      -0.320   2.792   0.574  1.00  0.00    -0.351 N 
ATOM      4  C   UNL     1      -1.069   1.659   0.762  1.00  0.00     0.273 C 
ATOM      5  O   UNL     1      -2.291   1.849   0.685  1.00  0.00    -0.267 OA
ATOM      6  H   UNL     1      -0.869   3.607   0.523  1.00  0.00     0.163 HD
BRANCH   4   7
ATOM      7  C   UNL     1      -0.564   0.284   1.144  1.00  0.00     0.170 A 
ATOM      8  C   UNL     1       0.710  -0.266   0.969  1.00  0.00     0.151 A 
ATOM      9  C   UNL     1       0.993  -1.425   1.696  1.00  0.00     0.051 A 
ATOM     10  C   UNL     1      -0.046  -2.164   2.270  1.00  0.00     0.027 A 
ATOM     11  N   UNL     1      -1.585  -0.466   1.666  1.00  0.00    -0.244 NA
ATOM     12  C   UNL     1      -1.338  -1.710   2.106  1.00  0.00     0.038 A 
ATOM     13  C   UNL     1      -2.528  -2.597   2.300  1.00  0.00     0.067 C 
BRANCH   8  14
ATOM     14  O   UNL     1       1.527   0.229  -0.005  1.00  0.00    -0.478 OA
BRANCH  14  15
ATOM     15  C   UNL     1       2.612  -0.517  -0.542  1.00  0.00     0.259 C 
ATOM     16  C   UNL     1       2.948   0.005  -1.959  1.00  0.00     0.064 C 
BRANCH  15  17
ATOM     17  C   UNL     1       2.691  -2.052  -0.685  1.00  0.00     0.261 C 
ATOM     18  N   UNL     1       1.977  -2.727  -1.629  1.00  0.00    -0.348 N 
ATOM     19  H   UNL     1       2.527  -3.069  -2.371  1.00  0.00     0.164 HD
ATOM     20  O   UNL     1       3.561  -2.689  -0.081  1.00  0.00    -0.271 OA
BRANCH  18  21
ATOM     21  C   UNL     1       0.539  -3.047  -1.758  1.00  0.00     0.034 C 
ATOM     22  C   UNL     1       0.181  -4.020  -0.605  1.00  0.00     0.034 C 
ATOM     23  C   UNL     1       0.419  -3.859  -3.070  1.00  0.00     0.034 C 
BRANCH  21  24
ATOM     24  C   UNL     1      -0.542  -1.923  -1.806  1.00  0.00     0.024 C 
ATOM     25  C   UNL     1      -0.293  -0.585  -2.481  1.00  0.00     0.006 C 
ENDBRANCH  21  24
ENDBRANCH  18  21
ENDBRANCH  15  17
ENDBRANCH  14  15
ENDBRANCH   8  14
ENDBRANCH   4   7
ENDBRANCH   2   3
ENDBRANCH   1   2
BRANCH   1  26
ATOM     26  C   UNL     1       1.642   4.646  -1.511  1.00  0.00     0.002 C 
BRANCH  26  27
ATOM     27  C   UNL     1       2.904   5.289  -0.922  1.00  0.00     0.002 C 
BRANCH  27  28
ATOM     28  C   UNL     1       4.215   4.545  -1.212  1.00  0.00     0.021 C 
BRANCH  28  29
ATOM     29  C   UNL     1       4.534   4.376  -2.696  1.00  0.00     0.116 C 
BRANCH  29  30
ATOM     30  N   UNL     1       4.627   5.667  -3.361  1.00  0.00    -0.352 N 
ATOM     31  C   UNL     1       5.737   6.337  -3.808  1.00  0.00     0.251 C 
ATOM     32  H   UNL     1       3.769   6.126  -3.512  1.00  0.00     0.163 HD
ATOM     33  O   UNL     1       5.676   7.543  -4.030  1.00  0.00    -0.269 OA
BRANCH  31  34
ATOM     34  C   UNL     1       7.001   5.604  -4.034  1.00  0.00     0.039 A 
ATOM     35  C   UNL     1       8.210   6.194  -3.656  1.00  0.00     0.014 A 
ATOM     36  C   UNL     1       6.994   4.357  -4.665  1.00  0.00     0.014 A 
ATOM     37  C   UNL     1       9.409   5.511  -3.872  1.00  0.00     0.010 A 
ATOM     38  C   UNL     1       8.182   3.647  -4.812  1.00  0.00     0.010 A 
ATOM     39  C   UNL     1       9.403   4.221  -4.430  1.00  0.00    -0.014 A 
BRANCH  39  40
ATOM     40  C   UNL     1      10.661   3.455  -4.616  1.00  0.00     0.031 A 
ATOM     41  C   UNL     1      11.114   3.062  -5.997  1.00  0.00     0.074 A 
ATOM     42  C   UNL     1      11.348   3.038  -3.534  1.00  0.00     0.049 A 
ATOM     43  N   UNL     1      12.149   2.345  -6.351  1.00  0.00    -0.248 NA
ATOM     44  C   UNL     1      10.282   3.509  -7.126  1.00  0.00     0.031 C 
ATOM     45  C   UNL     1      10.966   3.288  -2.143  1.00  0.00     0.029 A 
ATOM     46  N   UNL     1      12.495   2.291  -3.434  1.00  0.00    -0.354 N 
ATOM     47  C   UNL     1      12.074   2.225  -7.734  1.00  0.00     0.074 A 
ATOM     48  C   UNL     1      10.873   2.914  -8.152  1.00  0.00     0.031 C 
ATOM     49  C   UNL     1      11.862   2.709  -1.329  1.00  0.00     0.029 A 
ATOM     50  C   UNL     1      12.863   2.020  -2.136  1.00  0.00     0.049 A 
ATOM     51  H   UNL     1      13.005   1.979  -4.215  1.00  0.00     0.167 HD
ATOM     52  C   UNL     1      12.940   1.620  -8.582  1.00  0.00     0.034 A 
ATOM     53  C   UNL     1      13.886   1.289  -1.652  1.00  0.00     0.034 A 
ATOM     54  C   UNL     1      14.153   0.970  -8.163  1.00  0.00     0.049 A 
ATOM     55  C   UNL     1      14.853   0.658  -2.617  1.00  0.00     0.074 A 
ATOM     56  C   UNL     1      15.142   0.406  -8.949  1.00  0.00     0.029 A 
ATOM     57  N   UNL     1      14.538   0.788  -6.844  1.00  0.00    -0.354 N 
ATOM     58  N   UNL     1      14.851   0.692  -3.927  1.00  0.00    -0.248 NA
ATOM     59  C   UNL     1      15.984  -0.081  -2.037  1.00  0.00     0.031 C 
ATOM     60  C   UNL     1      16.111  -0.144  -8.103  1.00  0.00     0.029 A 
ATOM     61  C   UNL     1      15.743   0.109  -6.792  1.00  0.00     0.049 A 
ATOM     62  H   UNL     1      14.030   1.096  -6.059  1.00  0.00     0.167 HD
ATOM     63  C   UNL     1      15.996   0.013  -4.328  1.00  0.00     0.074 A 
ATOM     64  C   UNL     1      16.679  -0.402  -3.119  1.00  0.00     0.031 C 
ATOM     65  C   UNL     1      16.437  -0.254  -5.582  1.00  0.00     0.034 A 
BRANCH  52  66
ATOM     66  C   UNL     1      12.633   1.673 -10.057  1.00  0.00     0.023 A 
ATOM     67  C   UNL     1      12.746   2.897 -10.749  1.00  0.00     0.012 A 
ATOM     68  C   UNL     1      12.296   0.506 -10.770  1.00  0.00     0.148 A 
ATOM     69  C   UNL     1      12.493   2.966 -12.118  1.00  0.00     0.002 A 
ATOM     70  C   UNL     1      12.091   0.575 -12.144  1.00  0.00     0.091 A 
ATOM     71  F   UNL     1      12.174  -0.645 -10.094  1.00  0.00    -0.205 F 
ATOM     72  C   UNL     1      12.177   1.805 -12.816  1.00  0.00     0.022 A 
BRANCH  70  73
ATOM     73  S   UNL     1      11.758  -0.877 -13.149  1.00  0.00     0.127 S 
ATOM     74  O   UNL     1      10.362  -0.659 -13.527  1.00  0.00    -0.237 OA
ATOM     75  O   UNL     1      12.717  -0.720 -14.242  1.00  0.00    -0.237 OA
ATOM     76  O   UNL     1      11.998  -2.026 -12.289  1.00  0.00    -0.744 OA
ENDBRANCH  70  73
ENDBRANCH  52  66
BRANCH  53  77
ATOM     77  C   UNL     1      14.084   1.168  -0.180  1.00  0.00     0.023 A 
ATOM     78  C   UNL     1      15.182   1.808   0.427  1.00  0.00     0.012 A 
ATOM     79  C   UNL     1      13.179   0.447   0.624  1.00  0.00     0.148 A 
ATOM     80  C   UNL     1      15.396   1.703   1.802  1.00  0.00     0.002 A 
ATOM     81  C   UNL     1      13.367   0.394   2.000  1.00  0.00     0.091 A 
ATOM     82  F   UNL     1      12.145  -0.162   0.027  1.00  0.00    -0.205 F 
ATOM     83  C   UNL     1      14.484   1.006   2.589  1.00  0.00     0.022 A 
BRANCH  81  84
ATOM     84  S   UNL     1      12.175  -0.367   3.107  1.00  0.00     0.127 S 
ATOM     85  O   UNL     1      12.898  -1.552   3.557  1.00  0.00    -0.237 OA
ATOM     86  O   UNL     1      11.998   0.672   4.122  1.00  0.00    -0.237 OA
ATOM     87  O   UNL     1      10.989  -0.618   2.295  1.00  0.00    -0.744 OA
ENDBRANCH  81  84
ENDBRANCH  53  77
BRANCH  65  88
ATOM     88  C   UNL     1      17.739  -0.999  -5.721  1.00  0.00     0.023 A 
ATOM     89  C   UNL     1      17.804  -2.369  -5.399  1.00  0.00     0.012 A 
ATOM     90  C   UNL     1      18.879  -0.355  -6.242  1.00  0.00     0.148 A 
ATOM     91  C   UNL     1      18.994  -3.078  -5.559  1.00  0.00     0.002 A 
ATOM     92  C   UNL     1      20.046  -1.081  -6.449  1.00  0.00     0.091 A 
ATOM     93  F   UNL     1      18.801   0.953  -6.527  1.00  0.00    -0.205 F 
ATOM     94  C   UNL     1      20.109  -2.438  -6.095  1.00  0.00     0.022 A 
BRANCH  92  95
ATOM     95  S   UNL     1      21.500  -0.367  -7.226  1.00  0.00     0.127 S 
ATOM     96  O   UNL     1      22.425  -0.275  -6.098  1.00  0.00    -0.237 OA
ATOM     97  O   UNL     1      21.849  -1.382  -8.221  1.00  0.00    -0.237 OA
ATOM     98  O   UNL     1      21.071   0.907  -7.787  1.00  0.00    -0.744 OA
ENDBRANCH  92  95
ENDBRANCH  65  88
ENDBRANCH  39  40
ENDBRANCH  31  34
ENDBRANCH  29  30
ENDBRANCH  28  29
ENDBRANCH  27  28
ENDBRANCH  26  27
ENDBRANCH   1  26
TORSDOF 21
