REMARK SMILES CC(C)(C)[C@@H]1CC(C(=O)NCCCCCCNC(=O)c2ccc(-c3c4nc(c(-c5cccc(S(=O)(=O)[O-])c5F)c5ccc([nH]5)c(-c5cccc(S(=O)(=O)[O-])c5F)c5nc(c(-c6cccc(S(=O)(=O)[O-])c6F)c6ccc3[nH]6)C=C5)C=C4)cc2)C[C@@H](C(C)(C)C)C1
REMARK SMILES IDX 14 1 13 2 12 3 11 4 10 5 8 6 9 7 7 9 5 10 6 11 89 12 84 13
REMARK SMILES IDX 83 14 2 15 1 16 3 17 4 18 85 19 86 20 87 21 88 22 15 23
REMARK SMILES IDX 16 24 17 25 18 26 19 28 20 29 21 30 82 31 22 32 81 33 23 34
REMARK SMILES IDX 24 35 25 36 75 37 26 38 80 39 74 40 76 41 27 42 79 43 73 44
REMARK SMILES IDX 72 45 28 47 60 48 40 49 59 50 41 51 44 52 58 53 77 54 42 55
REMARK SMILES IDX 43 56 57 58 78 59 45 60 29 61 30 62 38 63 31 64 33 65 39 66
REMARK SMILES IDX 32 67 34 68 35 69 36 70 37 71 61 72 62 73 70 74 63 75 65 76
REMARK SMILES IDX 71 77 64 78 66 79 67 80 68 81 69 82 46 83 47 84 55 85 48 86
REMARK SMILES IDX 50 87 56 88 49 89 51 90 52 91 53 92 54 93
REMARK H PARENT 10 8 17 27 76 46 44 57
REMARK Flexibility Score: inf
ROOT
ATOM      1  C   UNL     1       7.026  -5.100  -0.785  1.00  0.00     0.002 C 
ENDROOT
BRANCH   1   2
ATOM      2  C   UNL     1       5.545  -5.416  -0.559  1.00  0.00     0.002 C 
BRANCH   2   3
ATOM      3  C   UNL     1       4.608  -4.207  -0.650  1.00  0.00     0.021 C 
BRANCH   3   4
ATOM      4  C   UNL     1       4.717  -3.438  -1.966  1.00  0.00     0.116 C 
BRANCH   4   5
ATOM      5  N   UNL     1       4.254  -4.251  -3.077  1.00  0.00    -0.356 N 
ATOM      6  C   UNL     1       3.157  -4.137  -3.872  1.00  0.00     0.223 C 
ATOM      7  O   UNL     1       2.949  -5.032  -4.696  1.00  0.00    -0.275 OA
ATOM      8  H   UNL     1       4.835  -5.017  -3.291  1.00  0.00     0.163 HD
BRANCH   6   9
ATOM      9  C   UNL     1       2.239  -2.917  -3.804  1.00  0.00     0.079 C 
ATOM     10  C   UNL     1       0.926  -1.399  -2.122  1.00  0.00    -0.005 C 
ATOM     11  C   UNL     1       1.518  -2.787  -2.453  1.00  0.00     0.017 C 
ATOM     12  C   UNL     1       1.895  -0.289  -2.554  1.00  0.00     0.008 C 
ATOM     13  C   UNL     1       2.316  -0.341  -4.039  1.00  0.00    -0.005 C 
ATOM     14  C   UNL     1       3.006  -1.684  -4.305  1.00  0.00     0.017 C 
BRANCH  10  15
ATOM     15  C   UNL     1       0.393  -1.266  -0.621  1.00  0.00    -0.035 C 
ATOM     16  C   UNL     1       0.767   0.072   0.056  1.00  0.00     0.011 C 
ATOM     17  C   UNL     1       0.879  -2.386   0.327  1.00  0.00     0.011 C 
ATOM     18  C   UNL     1      -1.151  -1.340  -0.657  1.00  0.00     0.011 C 
ENDBRANCH  10  15
BRANCH  13  19
ATOM     19  C   UNL     1       1.255   0.092  -5.129  1.00  0.00    -0.035 C 
ATOM     20  C   UNL     1       2.023   0.644  -6.358  1.00  0.00     0.011 C 
ATOM     21  C   UNL     1       0.353  -1.042  -5.653  1.00  0.00     0.011 C 
ATOM     22  C   UNL     1       0.343   1.225  -4.619  1.00  0.00     0.011 C 
ENDBRANCH  13  19
ENDBRANCH   6   9
ENDBRANCH   4   5
ENDBRANCH   3   4
ENDBRANCH   2   3
ENDBRANCH   1   2
BRANCH   1  23
ATOM     23  C   UNL     1       7.594  -3.994   0.108  1.00  0.00     0.021 C 
BRANCH  23  24
ATOM     24  C   UNL     1       7.421  -4.231   1.604  1.00  0.00     0.116 C 
BRANCH  24  25
ATOM     25  N   UNL     1       8.061  -5.462   2.036  1.00  0.00    -0.352 N 
ATOM     26  C   UNL     1       8.951  -5.665   3.056  1.00  0.00     0.251 C 
ATOM     27  H   UNL     1       7.821  -6.266   1.520  1.00  0.00     0.163 HD
ATOM     28  O   UNL     1       9.543  -6.741   3.143  1.00  0.00    -0.269 OA
BRANCH  26  29
ATOM     29  C   UNL     1       9.207  -4.597   4.045  1.00  0.00     0.039 A 
ATOM     30  C   UNL     1      10.520  -4.372   4.465  1.00  0.00     0.014 A 
ATOM     31  C   UNL     1       8.159  -3.846   4.586  1.00  0.00     0.014 A 
ATOM     32  C   UNL     1      10.784  -3.377   5.408  1.00  0.00     0.010 A 
ATOM     33  C   UNL     1       8.433  -2.805   5.469  1.00  0.00     0.010 A 
ATOM     34  C   UNL     1       9.744  -2.577   5.910  1.00  0.00    -0.014 A 
BRANCH  34  35
ATOM     35  C   UNL     1      10.022  -1.514   6.907  1.00  0.00     0.031 A 
ATOM     36  C   UNL     1       9.451  -1.602   8.297  1.00  0.00     0.074 A 
ATOM     37  C   UNL     1      10.742  -0.436   6.544  1.00  0.00     0.049 A 
ATOM     38  N   UNL     1       9.614  -0.788   9.307  1.00  0.00    -0.248 NA
ATOM     39  C   UNL     1       8.554  -2.735   8.582  1.00  0.00     0.031 C 
ATOM     40  C   UNL     1      11.258  -0.180   5.198  1.00  0.00     0.029 A 
ATOM     41  N   UNL     1      11.145   0.656   7.270  1.00  0.00    -0.354 N 
ATOM     42  C   UNL     1       8.817  -1.285  10.331  1.00  0.00     0.074 A 
ATOM     43  C   UNL     1       8.139  -2.451   9.807  1.00  0.00     0.031 C 
ATOM     44  C   UNL     1      11.916   0.990   5.196  1.00  0.00     0.029 A 
ATOM     45  C   UNL     1      11.859   1.572   6.534  1.00  0.00     0.049 A 
ATOM     46  H   UNL     1      10.943   0.772   8.226  1.00  0.00     0.167 HD
ATOM     47  C   UNL     1       8.684  -0.835  11.601  1.00  0.00     0.034 A 
ATOM     48  C   UNL     1      12.414   2.744   6.899  1.00  0.00     0.034 A 
ATOM     49  C   UNL     1       9.399   0.295  12.132  1.00  0.00     0.049 A 
ATOM     50  C   UNL     1      12.339   3.171   8.338  1.00  0.00     0.074 A 
ATOM     51  C   UNL     1       9.424   0.767  13.432  1.00  0.00     0.029 A 
ATOM     52  N   UNL     1      10.210   1.137  11.387  1.00  0.00    -0.354 N 
ATOM     53  N   UNL     1      11.738   2.581   9.343  1.00  0.00    -0.248 NA
ATOM     54  C   UNL     1      13.061   4.397   8.705  1.00  0.00     0.031 C 
ATOM     55  C   UNL     1      10.236   1.907  13.468  1.00  0.00     0.029 A 
ATOM     56  C   UNL     1      10.736   2.130  12.195  1.00  0.00     0.049 A 
ATOM     57  H   UNL     1      10.387   1.042  10.423  1.00  0.00     0.167 HD
ATOM     58  C   UNL     1      12.033   3.345  10.467  1.00  0.00     0.074 A 
ATOM     59  C   UNL     1      12.889   4.426  10.020  1.00  0.00     0.031 C 
ATOM     60  C   UNL     1      11.620   3.176  11.748  1.00  0.00     0.034 A 
BRANCH  47  61
ATOM     61  C   UNL     1       7.768  -1.604  12.519  1.00  0.00     0.023 A 
ATOM     62  C   UNL     1       8.140  -2.892  12.957  1.00  0.00     0.012 A 
ATOM     63  C   UNL     1       6.557  -1.046  12.973  1.00  0.00     0.148 A 
ATOM     64  C   UNL     1       7.304  -3.630  13.793  1.00  0.00     0.002 A 
ATOM     65  C   UNL     1       5.750  -1.769  13.845  1.00  0.00     0.091 A 
ATOM     66  F   UNL     1       6.204   0.169  12.529  1.00  0.00    -0.205 F 
ATOM     67  C   UNL     1       6.115  -3.065  14.245  1.00  0.00     0.022 A 
BRANCH  65  68
ATOM     68  S   UNL     1       4.239  -1.092  14.542  1.00  0.00     0.127 S 
ATOM     69  O   UNL     1       3.217  -1.779  13.756  1.00  0.00    -0.237 OA
ATOM     70  O   UNL     1       4.322  -1.520  15.940  1.00  0.00    -0.237 OA
ATOM     71  O   UNL     1       4.323   0.348  14.348  1.00  0.00    -0.744 OA
ENDBRANCH  65  68
ENDBRANCH  47  61
BRANCH  48  72
ATOM     72  C   UNL     1      13.170   3.539   5.892  1.00  0.00     0.023 A 
ATOM     73  C   UNL     1      14.576   3.591   5.961  1.00  0.00     0.012 A 
ATOM     74  C   UNL     1      12.509   4.189   4.831  1.00  0.00     0.148 A 
ATOM     75  C   UNL     1      15.309   4.296   5.007  1.00  0.00     0.002 A 
ATOM     76  C   UNL     1      13.248   4.842   3.853  1.00  0.00     0.091 A 
ATOM     77  F   UNL     1      11.170   4.132   4.789  1.00  0.00    -0.205 F 
ATOM     78  C   UNL     1      14.647   4.911   3.947  1.00  0.00     0.022 A 
BRANCH  76  79
ATOM     79  S   UNL     1      12.493   5.541   2.381  1.00  0.00     0.127 S 
ATOM     80  O   UNL     1      12.679   6.974   2.601  1.00  0.00    -0.237 OA
ATOM     81  O   UNL     1      13.321   4.969   1.318  1.00  0.00    -0.237 OA
ATOM     82  O   UNL     1      11.115   5.075   2.384  1.00  0.00    -0.744 OA
ENDBRANCH  76  79
ENDBRANCH  48  72
BRANCH  60  83
ATOM     83  C   UNL     1      12.106   4.172  12.770  1.00  0.00     0.023 A 
ATOM     84  C   UNL     1      11.605   5.489  12.757  1.00  0.00     0.012 A 
ATOM     85  C   UNL     1      13.019   3.791  13.773  1.00  0.00     0.148 A 
ATOM     86  C   UNL     1      12.036   6.422  13.700  1.00  0.00     0.002 A 
ATOM     87  C   UNL     1      13.406   4.712  14.739  1.00  0.00     0.091 A 
ATOM     88  F   UNL     1      13.504   2.541  13.759  1.00  0.00    -0.205 F 
ATOM     89  C   UNL     1      12.928   6.031  14.696  1.00  0.00     0.022 A 
BRANCH  87  90
ATOM     90  S   UNL     1      14.475   4.258  16.110  1.00  0.00     0.127 S 
ATOM     91  O   UNL     1      15.772   4.759  15.658  1.00  0.00    -0.237 OA
ATOM     92  O   UNL     1      13.890   5.003  17.226  1.00  0.00    -0.237 OA
ATOM     93  O   UNL     1      14.363   2.811  16.232  1.00  0.00    -0.744 OA
ENDBRANCH  87  90
ENDBRANCH  60  83
ENDBRANCH  34  35
ENDBRANCH  26  29
ENDBRANCH  24  25
ENDBRANCH  23  24
ENDBRANCH   1  23
TORSDOF 18
