REMARK SMILES C[C@H]1SC[C@H](C(=O)NCCCCCCNC(=O)c2ccc(-c3c4nc(c(-c5cccc(S(=O)(=O)[O-])c5F)c5ccc([nH]5)c(-c5cccc(S(=O)(=O)[O-])c5F)c5nc(c(-c6cccc(S(=O)(=O)[O-])c6F)c6ccc3[nH]6)C=C5)C=C4)cc2)N1C(=O)[C@@H]1CSc2ccccc21
REMARK SMILES IDX 12 1 11 2 10 3 9 4 8 5 6 6 7 7 5 9 1 10 2 11 3 12 81 13 4 14
REMARK SMILES IDX 82 15 83 16 84 17 85 18 92 19 86 20 87 21 91 22 88 23 90 24
REMARK SMILES IDX 89 25 13 26 14 27 15 28 16 29 17 31 18 32 19 33 80 34 20 35
REMARK SMILES IDX 79 36 21 37 22 38 23 39 73 40 24 41 78 42 72 43 74 44 25 45
REMARK SMILES IDX 77 46 71 47 70 48 26 50 58 51 38 52 57 53 39 54 42 55 56 56
REMARK SMILES IDX 75 57 40 58 41 59 55 61 76 62 43 63 27 64 28 65 36 66 29 67
REMARK SMILES IDX 31 68 37 69 30 70 32 71 33 72 34 73 35 74 59 75 60 76 68 77
REMARK SMILES IDX 61 78 63 79 69 80 62 81 64 82 65 83 66 84 67 85 44 86 45 87
REMARK SMILES IDX 53 88 46 89 48 90 54 91 47 92 49 93 50 94 51 95 52 96
REMARK H PARENT 8 8 15 30 74 49 42 60
REMARK Flexibility Score: inf
ROOT
ATOM      1  C   UNL     1      -5.912  -4.326   0.721  1.00  0.00     0.002 C 
ENDROOT
BRANCH   1   2
ATOM      2  C   UNL     1      -5.666  -5.267   1.906  1.00  0.00     0.002 C 
BRANCH   2   3
ATOM      3  C   UNL     1      -4.194  -5.481   2.272  1.00  0.00     0.021 C 
BRANCH   3   4
ATOM      4  C   UNL     1      -3.435  -4.196   2.589  1.00  0.00     0.116 C 
BRANCH   4   5
ATOM      5  N   UNL     1      -3.911  -3.571   3.804  1.00  0.00    -0.354 N 
ATOM      6  C   UNL     1      -3.220  -3.153   4.901  1.00  0.00     0.243 C 
ATOM      7  O   UNL     1      -3.883  -2.836   5.896  1.00  0.00    -0.273 OA
ATOM      8  H   UNL     1      -4.884  -3.425   3.844  1.00  0.00     0.163 HD
BRANCH   6   9
ATOM      9  C   UNL     1      -1.688  -3.286   5.000  1.00  0.00     0.185 C 
ATOM     10  C   UNL     1       1.433  -2.828   4.776  1.00  0.00     0.043 C 
ATOM     11  C   UNL     1       0.433  -3.530   3.852  1.00  0.00     0.141 C 
ATOM     12  S   UNL     1       0.162  -5.192   4.524  1.00  0.00    -0.135 SA
ATOM     13  N   UNL     1      -0.870  -2.878   3.840  1.00  0.00    -0.318 N 
ATOM     14  C   UNL     1      -1.406  -4.764   5.310  1.00  0.00     0.107 C 
BRANCH  13  15
ATOM     15  C   UNL     1      -1.114  -1.645   3.249  1.00  0.00     0.232 C 
ATOM     16  O   UNL     1      -1.887  -0.851   3.800  1.00  0.00    -0.274 OA
BRANCH  15  17
ATOM     17  C   UNL     1      -0.547  -1.259   1.867  1.00  0.00     0.120 C 
ATOM     18  C   UNL     1      -0.864  -2.257   0.745  1.00  0.00     0.093 C 
ATOM     19  C   UNL     1       0.926  -0.967   1.820  1.00  0.00    -0.021 A 
ATOM     20  S   UNL     1       0.678  -3.077   0.240  1.00  0.00    -0.125 SA
ATOM     21  C   UNL     1       1.676  -1.885   1.080  1.00  0.00     0.011 A 
ATOM     22  C   UNL     1       1.552   0.107   2.445  1.00  0.00     0.006 A 
ATOM     23  C   UNL     1       3.059  -1.831   1.067  1.00  0.00     0.015 A 
ATOM     24  C   UNL     1       2.943   0.194   2.400  1.00  0.00     0.000 A 
ATOM     25  C   UNL     1       3.695  -0.789   1.743  1.00  0.00     0.001 A 
ENDBRANCH  15  17
ENDBRANCH  13  15
ENDBRANCH   6   9
ENDBRANCH   4   5
ENDBRANCH   3   4
ENDBRANCH   2   3
ENDBRANCH   1   2
BRANCH   1  26
ATOM     26  C   UNL     1      -5.194  -4.707  -0.576  1.00  0.00     0.021 C 
BRANCH  26  27
ATOM     27  C   UNL     1      -5.491  -6.115  -1.083  1.00  0.00     0.116 C 
BRANCH  27  28
ATOM     28  N   UNL     1      -6.908  -6.321  -1.342  1.00  0.00    -0.352 N 
ATOM     29  C   UNL     1      -7.526  -6.795  -2.470  1.00  0.00     0.251 C 
ATOM     30  H   UNL     1      -7.510  -6.085  -0.600  1.00  0.00     0.163 HD
ATOM     31  O   UNL     1      -8.751  -6.729  -2.572  1.00  0.00    -0.269 OA
BRANCH  29  32
ATOM     32  C   UNL     1      -6.721  -7.366  -3.570  1.00  0.00     0.039 A 
ATOM     33  C   UNL     1      -7.019  -7.003  -4.886  1.00  0.00     0.014 A 
ATOM     34  C   UNL     1      -5.676  -8.257  -3.307  1.00  0.00     0.014 A 
ATOM     35  C   UNL     1      -6.231  -7.487  -5.932  1.00  0.00     0.010 A 
ATOM     36  C   UNL     1      -4.846  -8.675  -4.343  1.00  0.00     0.010 A 
ATOM     37  C   UNL     1      -5.116  -8.300  -5.667  1.00  0.00    -0.014 A 
BRANCH  37  38
ATOM     38  C   UNL     1      -4.214  -8.748  -6.759  1.00  0.00     0.031 A 
ATOM     39  C   UNL     1      -4.050 -10.213  -7.060  1.00  0.00     0.074 A 
ATOM     40  C   UNL     1      -3.480  -7.837  -7.428  1.00  0.00     0.049 A 
ATOM     41  N   UNL     1      -3.275 -10.792  -7.941  1.00  0.00    -0.248 NA
ATOM     42  C   UNL     1      -4.841 -11.154  -6.250  1.00  0.00     0.031 C 
ATOM     43  C   UNL     1      -3.493  -6.393  -7.180  1.00  0.00     0.029 A 
ATOM     44  N   UNL     1      -2.562  -7.990  -8.437  1.00  0.00    -0.354 N 
ATOM     45  C   UNL     1      -3.459 -12.159  -7.770  1.00  0.00     0.074 A 
ATOM     46  C   UNL     1      -4.392 -12.325  -6.678  1.00  0.00     0.031 C 
ATOM     47  C   UNL     1      -2.631  -5.794  -8.018  1.00  0.00     0.029 A 
ATOM     48  C   UNL     1      -1.978  -6.810  -8.836  1.00  0.00     0.049 A 
ATOM     49  H   UNL     1      -2.342  -8.863  -8.837  1.00  0.00     0.167 HD
ATOM     50  C   UNL     1      -2.921 -13.183  -8.476  1.00  0.00     0.034 A 
ATOM     51  C   UNL     1      -1.016  -6.573  -9.750  1.00  0.00     0.034 A 
ATOM     52  C   UNL     1      -2.017 -13.012  -9.581  1.00  0.00     0.049 A 
ATOM     53  C   UNL     1      -0.451  -7.727 -10.533  1.00  0.00     0.074 A 
ATOM     54  C   UNL     1      -1.482 -13.981 -10.412  1.00  0.00     0.029 A 
ATOM     55  N   UNL     1      -1.501 -11.796 -10.003  1.00  0.00    -0.354 N 
ATOM     56  N   UNL     1      -0.753  -9.000 -10.461  1.00  0.00    -0.248 NA
ATOM     57  C   UNL     1       0.563  -7.407 -11.548  1.00  0.00     0.031 C 
ATOM     58  C   UNL     1      -0.615 -13.354 -11.313  1.00  0.00     0.029 A 
ATOM     59  C   UNL     1      -0.643 -11.990 -11.072  1.00  0.00     0.049 A 
ATOM     60  H   UNL     1      -1.714 -10.922  -9.601  1.00  0.00     0.167 HD
ATOM     61  C   UNL     1       0.003  -9.628 -11.445  1.00  0.00     0.074 A 
ATOM     62  C   UNL     1       0.761  -8.590 -12.113  1.00  0.00     0.031 C 
ATOM     63  C   UNL     1       0.071 -10.945 -11.760  1.00  0.00     0.034 A 
BRANCH  50  64
ATOM     64  C   UNL     1      -3.331 -14.584  -8.101  1.00  0.00     0.023 A 
ATOM     65  C   UNL     1      -4.645 -15.023  -8.366  1.00  0.00     0.012 A 
ATOM     66  C   UNL     1      -2.403 -15.485  -7.542  1.00  0.00     0.148 A 
ATOM     67  C   UNL     1      -5.040 -16.321  -8.047  1.00  0.00     0.002 A 
ATOM     68  C   UNL     1      -2.790 -16.793  -7.272  1.00  0.00     0.091 A 
ATOM     69  F   UNL     1      -1.164 -15.047  -7.280  1.00  0.00    -0.205 F 
ATOM     70  C   UNL     1      -4.111 -17.208  -7.511  1.00  0.00     0.022 A 
BRANCH  68  71
ATOM     71  S   UNL     1      -1.649 -18.037  -6.659  1.00  0.00     0.127 S 
ATOM     72  O   UNL     1      -2.146 -18.248  -5.300  1.00  0.00    -0.237 OA
ATOM     73  O   UNL     1      -1.888 -19.151  -7.575  1.00  0.00    -0.237 OA
ATOM     74  O   UNL     1      -0.321 -17.446  -6.752  1.00  0.00    -0.744 OA
ENDBRANCH  68  71
ENDBRANCH  50  64
BRANCH  51  75
ATOM     75  C   UNL     1      -0.564  -5.177 -10.013  1.00  0.00     0.023 A 
ATOM     76  C   UNL     1      -0.876  -4.567 -11.243  1.00  0.00     0.012 A 
ATOM     77  C   UNL     1       0.155  -4.446  -9.047  1.00  0.00     0.148 A 
ATOM     78  C   UNL     1      -0.449  -3.268 -11.523  1.00  0.00     0.002 A 
ATOM     79  C   UNL     1       0.527  -3.133  -9.309  1.00  0.00     0.091 A 
ATOM     80  F   UNL     1       0.449  -5.047  -7.886  1.00  0.00    -0.205 F 
ATOM     81  C   UNL     1       0.244  -2.549 -10.553  1.00  0.00     0.022 A 
BRANCH  79  82
ATOM     82  S   UNL     1       1.306  -2.087  -8.075  1.00  0.00     0.127 S 
ATOM     83  O   UNL     1       2.648  -1.921  -8.627  1.00  0.00    -0.237 OA
ATOM     84  O   UNL     1       0.467  -0.889  -8.123  1.00  0.00    -0.237 OA
ATOM     85  O   UNL     1       1.225  -2.827  -6.823  1.00  0.00    -0.744 OA
ENDBRANCH  79  82
ENDBRANCH  51  75
BRANCH  63  86
ATOM     86  C   UNL     1       0.964 -11.345 -12.906  1.00  0.00     0.023 A 
ATOM     87  C   UNL     1       2.364 -11.290 -12.763  1.00  0.00     0.012 A 
ATOM     88  C   UNL     1       0.410 -11.843 -14.102  1.00  0.00     0.148 A 
ATOM     89  C   UNL     1       3.199 -11.690 -13.807  1.00  0.00     0.002 A 
ATOM     90  C   UNL     1       1.247 -12.290 -15.117  1.00  0.00     0.091 A 
ATOM     91  F   UNL     1      -0.925 -11.872 -14.225  1.00  0.00    -0.205 F 
ATOM     92  C   UNL     1       2.642 -12.201 -14.977  1.00  0.00     0.022 A 
BRANCH  90  93
ATOM     93  S   UNL     1       0.623 -13.055 -16.617  1.00  0.00     0.127 S 
ATOM     94  O   UNL     1       0.923 -12.033 -17.619  1.00  0.00    -0.237 OA
ATOM     95  O   UNL     1       1.443 -14.263 -16.713  1.00  0.00    -0.237 OA
ATOM     96  O   UNL     1      -0.794 -13.302 -16.384  1.00  0.00    -0.744 OA
ENDBRANCH  90  93
ENDBRANCH  63  86
ENDBRANCH  37  38
ENDBRANCH  29  32
ENDBRANCH  27  28
ENDBRANCH  26  27
ENDBRANCH   1  26
TORSDOF 18
