REMARK SMILES C[C@@H]1CCC[C@H]1NC(=O)c1csc(/C=C/C(=O)NCCCCCCNC(=O)c2ccc(-c3c4nc(c(-c5cccc(S(=O)(=O)[O-])c5F)c5ccc([nH]5)c(-c5cccc(S(=O)(=O)[O-])c5F)c5nc(c(-c6cccc(S(=O)(=O)[O-])c6F)c6ccc3[nH]6)C=C5)C=C4)cc2)c1
REMARK SMILES IDX 21 1 20 2 19 3 18 4 16 5 17 6 15 8 14 9 13 10 10 11 11 12
REMARK SMILES IDX 91 13 12 14 8 15 7 16 9 18 6 19 1 20 2 21 3 22 4 23 5 24
REMARK SMILES IDX 22 25 23 26 24 27 25 28 26 29 27 31 28 32 29 33 90 34 30 35
REMARK SMILES IDX 89 36 31 37 32 38 33 39 83 40 34 41 88 42 82 43 84 44 35 45
REMARK SMILES IDX 87 46 81 47 80 48 36 50 68 51 48 52 67 53 49 54 52 55 66 56
REMARK SMILES IDX 85 57 50 58 51 59 65 61 86 62 53 63 37 64 38 65 46 66 39 67
REMARK SMILES IDX 41 68 47 69 40 70 42 71 43 72 44 73 45 74 69 75 70 76 78 77
REMARK SMILES IDX 71 78 73 79 79 80 72 81 74 82 75 83 76 84 77 85 54 86 55 87
REMARK SMILES IDX 63 88 56 89 58 90 64 91 57 92 59 93 60 94 61 95 62 96
REMARK H PARENT 18 7 7 17 25 30 84 49 52 60
REMARK Flexibility Score: inf
ROOT
ATOM      1  C   UNL     1       6.278   8.047   5.423  1.00  0.00     0.002 C 
ENDROOT
BRANCH   1   2
ATOM      2  C   UNL     1       5.227   7.201   4.693  1.00  0.00     0.021 C 
BRANCH   2   3
ATOM      3  C   UNL     1       4.029   8.015   4.204  1.00  0.00     0.116 C 
BRANCH   3   4
ATOM      4  N   UNL     1       4.380   8.748   2.999  1.00  0.00    -0.353 N 
ATOM      5  C   UNL     1       3.919   8.653   1.725  1.00  0.00     0.244 C 
ATOM      6  O   UNL     1       4.337   9.428   0.866  1.00  0.00    -0.270 OA
ATOM      7  H   UNL     1       5.075   9.434   3.129  1.00  0.00     0.163 HD
BRANCH   5   8
ATOM      8  C   UNL     1       2.838   7.706   1.380  1.00  0.00     0.072 C 
ATOM      9  C   UNL     1       2.828   6.416   1.741  1.00  0.00     0.024 C 
BRANCH   9  10
ATOM     10  C   UNL     1       1.727   5.551   1.479  1.00  0.00     0.028 A 
ATOM     11  C   UNL     1       0.178   3.788   1.741  1.00  0.00     0.051 A 
ATOM     12  C   UNL     1      -0.204   4.324   0.527  1.00  0.00     0.079 A 
ATOM     13  C   UNL     1       1.258   4.543   2.304  1.00  0.00     0.033 A 
ATOM     14  S   UNL     1       0.799   5.614   0.033  1.00  0.00    -0.144 S 
BRANCH  11  15
ATOM     15  C   UNL     1      -0.458   2.659   2.402  1.00  0.00     0.252 C 
ATOM     16  N   UNL     1      -0.581   1.473   1.724  1.00  0.00    -0.349 N 
ATOM     17  H   UNL     1      -1.072   0.766   2.202  1.00  0.00     0.164 HD
ATOM     18  O   UNL     1      -0.840   2.728   3.565  1.00  0.00    -0.269 OA
BRANCH  16  19
ATOM     19  C   UNL     1      -0.092   1.103   0.400  1.00  0.00     0.085 C 
ATOM     20  C   UNL     1       1.781  -0.161  -0.742  1.00  0.00     0.010 C 
ATOM     21  C   UNL     1       0.838  -0.116   0.463  1.00  0.00     0.008 C 
ATOM     22  C   UNL     1      -0.132  -1.297   0.468  1.00  0.00     0.005 C 
ATOM     23  C   UNL     1      -1.300  -0.867  -0.414  1.00  0.00     0.002 C 
ATOM     24  C   UNL     1      -1.260   0.660  -0.484  1.00  0.00     0.025 C 
ENDBRANCH  16  19
ENDBRANCH  11  15
ENDBRANCH   9  10
ENDBRANCH   5   8
ENDBRANCH   3   4
ENDBRANCH   2   3
ENDBRANCH   1   2
BRANCH   1  25
ATOM     25  C   UNL     1       5.774   8.743   6.693  1.00  0.00     0.002 C 
BRANCH  25  26
ATOM     26  C   UNL     1       5.129   7.814   7.725  1.00  0.00     0.021 C 
BRANCH  26  27
ATOM     27  C   UNL     1       6.058   6.730   8.259  1.00  0.00     0.116 C 
BRANCH  27  28
ATOM     28  N   UNL     1       7.184   7.300   8.981  1.00  0.00    -0.352 N 
ATOM     29  C   UNL     1       7.632   7.023  10.247  1.00  0.00     0.251 C 
ATOM     30  H   UNL     1       7.699   7.981   8.491  1.00  0.00     0.163 HD
ATOM     31  O   UNL     1       8.450   7.768  10.779  1.00  0.00    -0.269 OA
BRANCH  29  32
ATOM     32  C   UNL     1       7.132   5.831  10.967  1.00  0.00     0.039 A 
ATOM     33  C   UNL     1       6.866   5.930  12.335  1.00  0.00     0.014 A 
ATOM     34  C   UNL     1       6.974   4.608  10.308  1.00  0.00     0.014 A 
ATOM     35  C   UNL     1       6.426   4.806  13.037  1.00  0.00     0.010 A 
ATOM     36  C   UNL     1       6.458   3.512  10.991  1.00  0.00     0.010 A 
ATOM     37  C   UNL     1       6.213   3.589  12.370  1.00  0.00    -0.014 A 
BRANCH  37  38
ATOM     38  C   UNL     1       5.788   2.374  13.110  1.00  0.00     0.031 A 
ATOM     39  C   UNL     1       6.698   1.174  13.173  1.00  0.00     0.074 A 
ATOM     40  C   UNL     1       4.569   2.328  13.680  1.00  0.00     0.049 A 
ATOM     41  N   UNL     1       6.502   0.018  13.752  1.00  0.00    -0.248 NA
ATOM     42  C   UNL     1       7.986   1.275  12.465  1.00  0.00     0.031 C 
ATOM     43  C   UNL     1       3.566   3.394  13.623  1.00  0.00     0.029 A 
ATOM     44  N   UNL     1       3.958   1.337  14.405  1.00  0.00    -0.354 N 
ATOM     45  C   UNL     1       7.618  -0.754  13.451  1.00  0.00     0.074 A 
ATOM     46  C   UNL     1       8.468   0.048  12.600  1.00  0.00     0.031 C 
ATOM     47  C   UNL     1       2.470   3.003  14.294  1.00  0.00     0.029 A 
ATOM     48  C   UNL     1       2.683   1.655  14.810  1.00  0.00     0.049 A 
ATOM     49  H   UNL     1       4.392   0.478  14.616  1.00  0.00     0.167 HD
ATOM     50  C   UNL     1       7.928  -2.003  13.872  1.00  0.00     0.034 A 
ATOM     51  C   UNL     1       1.789   0.939  15.519  1.00  0.00     0.034 A 
ATOM     52  C   UNL     1       7.103  -2.778  14.758  1.00  0.00     0.049 A 
ATOM     53  C   UNL     1       2.182  -0.423  16.024  1.00  0.00     0.074 A 
ATOM     54  C   UNL     1       7.360  -4.021  15.308  1.00  0.00     0.029 A 
ATOM     55  N   UNL     1       5.858  -2.385  15.223  1.00  0.00    -0.354 N 
ATOM     56  N   UNL     1       3.307  -1.076  15.854  1.00  0.00    -0.248 NA
ATOM     57  C   UNL     1       1.199  -1.129  16.858  1.00  0.00     0.031 C 
ATOM     58  C   UNL     1       6.260  -4.388  16.092  1.00  0.00     0.029 A 
ATOM     59  C   UNL     1       5.333  -3.359  16.054  1.00  0.00     0.049 A 
ATOM     60  H   UNL     1       5.413  -1.536  14.996  1.00  0.00     0.167 HD
ATOM     61  C   UNL     1       3.184  -2.247  16.594  1.00  0.00     0.074 A 
ATOM     62  C   UNL     1       1.884  -2.201  17.231  1.00  0.00     0.031 C 
ATOM     63  C   UNL     1       4.060  -3.274  16.724  1.00  0.00     0.034 A 
BRANCH  50  64
ATOM     64  C   UNL     1       9.244  -2.586  13.420  1.00  0.00     0.023 A 
ATOM     65  C   UNL     1      10.450  -2.054  13.923  1.00  0.00     0.012 A 
ATOM     66  C   UNL     1       9.289  -3.683  12.538  1.00  0.00     0.148 A 
ATOM     67  C   UNL     1      11.680  -2.576  13.523  1.00  0.00     0.002 A 
ATOM     68  C   UNL     1      10.517  -4.230  12.182  1.00  0.00     0.091 A 
ATOM     69  F   UNL     1       8.135  -4.163  12.054  1.00  0.00    -0.205 F 
ATOM     70  C   UNL     1      11.713  -3.669  12.662  1.00  0.00     0.022 A 
BRANCH  68  71
ATOM     71  S   UNL     1      10.666  -5.688  11.144  1.00  0.00     0.127 S 
ATOM     72  O   UNL     1      11.224  -5.121   9.917  1.00  0.00    -0.237 OA
ATOM     73  O   UNL     1      11.597  -6.517  11.911  1.00  0.00    -0.237 OA
ATOM     74  O   UNL     1       9.322  -6.236  11.024  1.00  0.00    -0.744 OA
ENDBRANCH  68  71
ENDBRANCH  50  64
BRANCH  51  75
ATOM     75  C   UNL     1       0.465   1.529  15.866  1.00  0.00     0.023 A 
ATOM     76  C   UNL     1       0.191   1.876  17.204  1.00  0.00     0.012 A 
ATOM     77  C   UNL     1      -0.516   1.761  14.883  1.00  0.00     0.148 A 
ATOM     78  C   UNL     1      -1.049   2.405  17.564  1.00  0.00     0.002 A 
ATOM     79  C   UNL     1      -1.729   2.339  15.239  1.00  0.00     0.091 A 
ATOM     80  F   UNL     1      -0.240   1.416  13.617  1.00  0.00    -0.205 F 
ATOM     81  C   UNL     1      -2.005   2.644  16.581  1.00  0.00     0.022 A 
BRANCH  79  82
ATOM     82  S   UNL     1      -2.969   2.801  14.025  1.00  0.00     0.127 S 
ATOM     83  O   UNL     1      -4.024   1.826  14.289  1.00  0.00    -0.237 OA
ATOM     84  O   UNL     1      -3.284   4.173  14.423  1.00  0.00    -0.237 OA
ATOM     85  O   UNL     1      -2.312   2.688  12.730  1.00  0.00    -0.744 OA
ENDBRANCH  79  82
ENDBRANCH  51  75
BRANCH  63  86
ATOM     86  C   UNL     1       3.665  -4.413  17.628  1.00  0.00     0.023 A 
ATOM     87  C   UNL     1       2.636  -5.296  17.243  1.00  0.00     0.012 A 
ATOM     88  C   UNL     1       4.348  -4.636  18.840  1.00  0.00     0.148 A 
ATOM     89  C   UNL     1       2.261  -6.352  18.072  1.00  0.00     0.002 A 
ATOM     90  C   UNL     1       4.005  -5.722  19.636  1.00  0.00     0.091 A 
ATOM     91  F   UNL     1       5.311  -3.775  19.201  1.00  0.00    -0.205 F 
ATOM     92  C   UNL     1       2.952  -6.572  19.262  1.00  0.00     0.022 A 
BRANCH  90  93
ATOM     93  S   UNL     1       4.911  -6.136  21.131  1.00  0.00     0.127 S 
ATOM     94  O   UNL     1       4.000  -5.663  22.172  1.00  0.00    -0.237 OA
ATOM     95  O   UNL     1       5.025  -7.592  21.035  1.00  0.00    -0.237 OA
ATOM     96  O   UNL     1       6.180  -5.427  21.035  1.00  0.00    -0.744 OA
ENDBRANCH  90  93
ENDBRANCH  63  86
ENDBRANCH  37  38
ENDBRANCH  29  32
ENDBRANCH  27  28
ENDBRANCH  26  27
ENDBRANCH  25  26
ENDBRANCH   1  25
TORSDOF 19
