REMARK SMILES O=C(NCCCCCCNC(=O)[C@H]1CCCC[C@H]1C(=O)Nc1ccc(Cl)cc1F)c1ccc(-c2c3nc(c(-c4cccc(S(=O)(=O)[O-])c4F)c4ccc([nH]4)c(-c4cccc(S(=O)(=O)[O-])c4F)c4nc(c(-c5cccc(S(=O)(=O)[O-])c5F)c5ccc2[nH]5)C=C4)C=C3)cc1
REMARK SMILES IDX 6 1 5 2 4 3 3 4 1 5 2 6 30 8 31 9 92 10 32 11 91 12 33 13
REMARK SMILES IDX 34 14 35 15 85 16 36 17 90 18 84 19 86 20 37 21 89 22 83 23
REMARK SMILES IDX 82 24 38 26 70 27 50 28 69 29 51 30 54 31 68 32 87 33 52 34
REMARK SMILES IDX 53 35 67 37 88 38 55 39 39 40 40 41 48 42 41 43 43 44 49 45
REMARK SMILES IDX 42 46 44 47 45 48 46 49 47 50 71 51 72 52 80 53 73 54 75 55
REMARK SMILES IDX 81 56 74 57 76 58 77 59 78 60 79 61 56 62 57 63 65 64 58 65
REMARK SMILES IDX 60 66 66 67 59 68 61 69 62 70 63 71 64 72 7 73 8 74 9 75
REMARK SMILES IDX 10 76 11 77 12 79 13 80 14 81 18 82 15 83 17 84 16 85 19 86
REMARK SMILES IDX 20 87 21 88 22 90 23 91 28 92 24 93 27 94 29 95 25 96 26 97
REMARK H PARENT 3 7 86 25 54 36 10 78 21 89
REMARK Flexibility Score: inf
ROOT
ATOM      1  C   UNL     1       6.956  -7.143   1.440  1.00  0.00     0.002 C 
ENDROOT
BRANCH   1   2
ATOM      2  C   UNL     1       5.925  -8.199   1.827  1.00  0.00     0.021 C 
BRANCH   2   3
ATOM      3  C   UNL     1       4.507  -7.899   1.365  1.00  0.00     0.116 C 
BRANCH   3   4
ATOM      4  N   UNL     1       4.382  -7.947  -0.082  1.00  0.00    -0.352 N 
ATOM      5  O   UNL     1       3.828  -8.837  -2.074  1.00  0.00    -0.269 OA
ATOM      6  C   UNL     1       3.648  -8.808  -0.862  1.00  0.00     0.251 C 
ATOM      7  H   UNL     1       4.896  -7.266  -0.573  1.00  0.00     0.163 HD
BRANCH   6   8
ATOM      8  C   UNL     1       2.662  -9.712  -0.228  1.00  0.00     0.039 A 
ATOM      9  C   UNL     1       1.781  -9.239   0.750  1.00  0.00     0.014 A 
ATOM     10  C   UNL     1       2.615 -11.049  -0.627  1.00  0.00     0.014 A 
ATOM     11  C   UNL     1       0.946 -10.127   1.422  1.00  0.00     0.010 A 
ATOM     12  C   UNL     1       1.719 -11.922  -0.007  1.00  0.00     0.010 A 
ATOM     13  C   UNL     1       0.897 -11.475   1.041  1.00  0.00    -0.014 A 
BRANCH  13  14
ATOM     14  C   UNL     1      -0.059 -12.405   1.691  1.00  0.00     0.031 A 
ATOM     15  C   UNL     1       0.431 -13.598   2.461  1.00  0.00     0.074 A 
ATOM     16  C   UNL     1      -1.380 -12.205   1.520  1.00  0.00     0.049 A 
ATOM     17  N   UNL     1      -0.258 -14.570   3.000  1.00  0.00    -0.248 NA
ATOM     18  C   UNL     1       1.886 -13.722   2.640  1.00  0.00     0.031 C 
ATOM     19  C   UNL     1      -1.971 -11.099   0.765  1.00  0.00     0.029 A 
ATOM     20  N   UNL     1      -2.460 -12.943   1.933  1.00  0.00    -0.354 N 
ATOM     21  C   UNL     1       0.676 -15.448   3.535  1.00  0.00     0.074 A 
ATOM     22  C   UNL     1       1.983 -14.892   3.256  1.00  0.00     0.031 C 
ATOM     23  C   UNL     1      -3.303 -11.241   0.749  1.00  0.00     0.029 A 
ATOM     24  C   UNL     1      -3.655 -12.476   1.441  1.00  0.00     0.049 A 
ATOM     25  H   UNL     1      -2.386 -13.728   2.523  1.00  0.00     0.167 HD
ATOM     26  C   UNL     1       0.462 -16.608   4.202  1.00  0.00     0.034 A 
ATOM     27  C   UNL     1      -4.894 -13.003   1.495  1.00  0.00     0.034 A 
ATOM     28  C   UNL     1      -0.844 -17.143   4.486  1.00  0.00     0.049 A 
ATOM     29  C   UNL     1      -5.109 -14.290   2.235  1.00  0.00     0.074 A 
ATOM     30  C   UNL     1      -1.170 -18.271   5.219  1.00  0.00     0.029 A 
ATOM     31  N   UNL     1      -2.038 -16.604   4.031  1.00  0.00    -0.354 N 
ATOM     32  N   UNL     1      -4.227 -15.044   2.845  1.00  0.00    -0.248 NA
ATOM     33  C   UNL     1      -6.489 -14.786   2.324  1.00  0.00     0.031 C 
ATOM     34  C   UNL     1      -2.558 -18.436   5.171  1.00  0.00     0.029 A 
ATOM     35  C   UNL     1      -3.102 -17.384   4.450  1.00  0.00     0.049 A 
ATOM     36  H   UNL     1      -2.117 -15.785   3.489  1.00  0.00     0.167 HD
ATOM     37  C   UNL     1      -4.947 -16.082   3.423  1.00  0.00     0.074 A 
ATOM     38  C   UNL     1      -6.340 -15.858   3.092  1.00  0.00     0.031 C 
ATOM     39  C   UNL     1      -4.490 -17.125   4.158  1.00  0.00     0.034 A 
BRANCH  26  40
ATOM     40  C   UNL     1       1.670 -17.378   4.673  1.00  0.00     0.023 A 
ATOM     41  C   UNL     1       2.466 -16.869   5.720  1.00  0.00     0.012 A 
ATOM     42  C   UNL     1       1.999 -18.623   4.103  1.00  0.00     0.148 A 
ATOM     43  C   UNL     1       3.596 -17.561   6.156  1.00  0.00     0.002 A 
ATOM     44  C   UNL     1       3.099 -19.330   4.575  1.00  0.00     0.091 A 
ATOM     45  F   UNL     1       1.244 -19.087   3.096  1.00  0.00    -0.205 F 
ATOM     46  C   UNL     1       3.907 -18.794   5.590  1.00  0.00     0.022 A 
BRANCH  44  47
ATOM     47  S   UNL     1       3.528 -20.964   3.964  1.00  0.00     0.127 S 
ATOM     48  O   UNL     1       4.679 -20.668   3.114  1.00  0.00    -0.237 OA
ATOM     49  O   UNL     1       3.852 -21.682   5.198  1.00  0.00    -0.237 OA
ATOM     50  O   UNL     1       2.344 -21.455   3.274  1.00  0.00    -0.744 OA
ENDBRANCH  44  47
ENDBRANCH  26  40
BRANCH  27  51
ATOM     51  C   UNL     1      -6.015 -12.280   0.835  1.00  0.00     0.023 A 
ATOM     52  C   UNL     1      -6.971 -11.613   1.622  1.00  0.00     0.012 A 
ATOM     53  C   UNL     1      -6.080 -12.175  -0.569  1.00  0.00     0.148 A 
ATOM     54  C   UNL     1      -7.983 -10.863   1.021  1.00  0.00     0.002 A 
ATOM     55  C   UNL     1      -7.055 -11.382  -1.158  1.00  0.00     0.091 A 
ATOM     56  F   UNL     1      -5.157 -12.822  -1.296  1.00  0.00    -0.205 F 
ATOM     57  C   UNL     1      -8.017 -10.737  -0.365  1.00  0.00     0.022 A 
BRANCH  55  58
ATOM     58  S   UNL     1      -7.094 -11.044  -2.922  1.00  0.00     0.127 S 
ATOM     59  O   UNL     1      -8.357 -11.665  -3.316  1.00  0.00    -0.237 OA
ATOM     60  O   UNL     1      -7.093  -9.581  -2.944  1.00  0.00    -0.237 OA
ATOM     61  O   UNL     1      -5.894 -11.659  -3.471  1.00  0.00    -0.744 OA
ENDBRANCH  55  58
ENDBRANCH  27  51
BRANCH  39  62
ATOM     62  C   UNL     1      -5.501 -18.088   4.722  1.00  0.00     0.023 A 
ATOM     63  C   UNL     1      -6.130 -19.027   3.883  1.00  0.00     0.012 A 
ATOM     64  C   UNL     1      -5.733 -18.133   6.111  1.00  0.00     0.148 A 
ATOM     65  C   UNL     1      -6.987 -19.989   4.419  1.00  0.00     0.002 A 
ATOM     66  C   UNL     1      -6.546 -19.125   6.643  1.00  0.00     0.091 A 
ATOM     67  F   UNL     1      -5.137 -17.215   6.887  1.00  0.00    -0.205 F 
ATOM     68  C   UNL     1      -7.182 -20.048   5.798  1.00  0.00     0.022 A 
BRANCH  66  69
ATOM     69  S   UNL     1      -6.772 -19.342   8.412  1.00  0.00     0.127 S 
ATOM     70  O   UNL     1      -8.184 -19.001   8.576  1.00  0.00    -0.237 OA
ATOM     71  O   UNL     1      -6.462 -20.761   8.589  1.00  0.00    -0.237 OA
ATOM     72  O   UNL     1      -5.836 -18.430   9.055  1.00  0.00    -0.744 OA
ENDBRANCH  66  69
ENDBRANCH  39  62
ENDBRANCH  13  14
ENDBRANCH   6   8
ENDBRANCH   3   4
ENDBRANCH   2   3
ENDBRANCH   1   2
BRANCH   1  73
ATOM     73  C   UNL     1       6.662  -5.724   1.931  1.00  0.00     0.002 C 
BRANCH  73  74
ATOM     74  C   UNL     1       6.412  -5.553   3.437  1.00  0.00     0.021 C 
BRANCH  74  75
ATOM     75  C   UNL     1       7.439  -6.207   4.363  1.00  0.00     0.116 C 
BRANCH  75  76
ATOM     76  N   UNL     1       8.797  -5.796   4.067  1.00  0.00    -0.356 N 
ATOM     77  C   UNL     1       9.636  -4.952   4.722  1.00  0.00     0.223 C 
ATOM     78  H   UNL     1       9.176  -6.197   3.252  1.00  0.00     0.163 HD
ATOM     79  O   UNL     1      10.774  -4.826   4.269  1.00  0.00    -0.275 OA
BRANCH  77  80
ATOM     80  C   UNL     1       9.204  -4.292   6.022  1.00  0.00     0.091 C 
ATOM     81  C   UNL     1       9.774  -5.170   7.157  1.00  0.00     0.014 C 
ATOM     82  C   UNL     1       9.676  -2.837   6.213  1.00  0.00     0.091 C 
ATOM     83  C   UNL     1      11.297  -5.036   7.298  1.00  0.00     0.001 C 
ATOM     84  C   UNL     1      11.189  -2.668   6.350  1.00  0.00     0.014 C 
ATOM     85  C   UNL     1      11.748  -3.583   7.444  1.00  0.00     0.001 C 
BRANCH  82  86
ATOM     86  C   UNL     1       8.917  -1.788   5.389  1.00  0.00     0.228 C 
ATOM     87  O   UNL     1       7.827  -1.372   5.802  1.00  0.00    -0.274 OA
ATOM     88  N   UNL     1       9.396  -1.223   4.241  1.00  0.00    -0.323 N 
ATOM     89  H   UNL     1       9.153  -0.284   4.073  1.00  0.00     0.170 HD
BRANCH  88  90
ATOM     90  C   UNL     1      10.197  -1.849   3.279  1.00  0.00     0.077 A 
ATOM     91  C   UNL     1      11.511  -1.430   3.092  1.00  0.00     0.031 A 
ATOM     92  C   UNL     1       9.659  -2.828   2.441  1.00  0.00     0.148 A 
ATOM     93  C   UNL     1      12.318  -2.100   2.168  1.00  0.00     0.023 A 
ATOM     94  C   UNL     1      10.456  -3.512   1.530  1.00  0.00     0.062 A 
ATOM     95  F   UNL     1       8.363  -3.150   2.554  1.00  0.00    -0.205 F 
ATOM     96  C   UNL     1      11.797  -3.162   1.422  1.00  0.00     0.044 A 
ATOM     97  Cl  UNL     1      12.829  -4.047   0.366  1.00  0.00    -0.084 Cl
ENDBRANCH  88  90
ENDBRANCH  82  86
ENDBRANCH  77  80
ENDBRANCH  75  76
ENDBRANCH  74  75
ENDBRANCH  73  74
ENDBRANCH   1  73
TORSDOF 18
