REMARK SMILES CS(=O)(=O)c1ccc(/C=C(/C(=O)NCCCCCCNC(=O)c2ccc(-c3c4nc(c(-c5cccc(S(=O)(=O)[O-])c5F)c5ccc([nH]5)c(-c5cccc(S(=O)(=O)[O-])c5F)c5nc(c(-c6cccc(S(=O)(=O)[O-])c6F)c6ccc3[nH]6)C=C5)C=C4)cc2)c2ccc(F)cc2)cc1
REMARK SMILES IDX 17 1 16 2 15 3 14 4 13 5 11 6 12 7 10 9 9 10 8 11 5 12 6 13
REMARK SMILES IDX 94 14 7 15 93 16 2 17 1 18 3 19 4 20 86 21 87 22 92 23 88 24
REMARK SMILES IDX 91 25 89 26 90 27 18 28 19 29 20 30 21 31 22 33 23 34 24 35
REMARK SMILES IDX 85 36 25 37 84 38 26 39 27 40 28 41 78 42 29 43 83 44 77 45
REMARK SMILES IDX 79 46 30 47 82 48 76 49 75 50 31 52 63 53 43 54 62 55 44 56
REMARK SMILES IDX 47 57 61 58 80 59 45 60 46 61 60 63 81 64 48 65 32 66 33 67
REMARK SMILES IDX 41 68 34 69 36 70 42 71 35 72 37 73 38 74 39 75 40 76 64 77
REMARK SMILES IDX 65 78 73 79 66 80 68 81 74 82 67 83 69 84 70 85 71 86 72 87
REMARK SMILES IDX 49 88 50 89 58 90 51 91 53 92 59 93 52 94 54 95 55 96 56 97
REMARK SMILES IDX 57 98
REMARK H PARENT 13 8 20 32 79 51 47 62
REMARK Flexibility Score: inf
ROOT
ATOM      1  C   UNL     1       0.843  11.739  -3.117  1.00  0.00     0.002 C 
ENDROOT
BRANCH   1   2
ATOM      2  C   UNL     1       1.737  11.033  -2.091  1.00  0.00     0.002 C 
BRANCH   2   3
ATOM      3  C   UNL     1       1.482   9.524  -1.942  1.00  0.00     0.021 C 
BRANCH   3   4
ATOM      4  C   UNL     1       1.708   8.742  -3.240  1.00  0.00     0.116 C 
BRANCH   4   5
ATOM      5  N   UNL     1       3.131   8.662  -3.509  1.00  0.00    -0.352 N 
ATOM      6  C   UNL     1       4.072   7.696  -3.368  1.00  0.00     0.251 C 
ATOM      7  O   UNL     1       5.235   8.039  -3.600  1.00  0.00    -0.269 OA
ATOM      8  H   UNL     1       3.497   9.499  -3.877  1.00  0.00     0.163 HD
BRANCH   6   9
ATOM      9  C   UNL     1       3.756   6.250  -3.051  1.00  0.00     0.047 C 
ATOM     10  C   UNL     1       2.722   5.882  -2.258  1.00  0.00     0.022 C 
BRANCH  10  11
ATOM     11  C   UNL     1       2.183   4.530  -1.981  1.00  0.00    -0.025 A 
ATOM     12  C   UNL     1       1.017   1.995  -1.660  1.00  0.00     0.067 A 
ATOM     13  C   UNL     1       2.404   2.135  -1.613  1.00  0.00     0.021 A 
ATOM     14  C   UNL     1       0.198   3.108  -1.835  1.00  0.00     0.021 A 
ATOM     15  C   UNL     1       2.976   3.404  -1.730  1.00  0.00     0.009 A 
ATOM     16  C   UNL     1       0.785   4.369  -1.998  1.00  0.00     0.009 A 
BRANCH  12  17
ATOM     17  S   UNL     1       0.316   0.372  -1.501  1.00  0.00     0.175 S 
ATOM     18  C   UNL     1       0.813  -0.134   0.125  1.00  0.00     0.163 C 
ATOM     19  O   UNL     1       0.993  -0.476  -2.466  1.00  0.00    -0.224 OA
ATOM     20  O   UNL     1      -1.126   0.501  -1.499  1.00  0.00    -0.224 OA
ENDBRANCH  12  17
ENDBRANCH  10  11
BRANCH   9  21
ATOM     21  C   UNL     1       4.751   5.249  -3.514  1.00  0.00    -0.013 A 
ATOM     22  C   UNL     1       6.019   5.243  -2.900  1.00  0.00     0.012 A 
ATOM     23  C   UNL     1       4.448   4.262  -4.463  1.00  0.00     0.012 A 
ATOM     24  C   UNL     1       6.951   4.252  -3.196  1.00  0.00     0.040 A 
ATOM     25  C   UNL     1       5.380   3.258  -4.745  1.00  0.00     0.040 A 
ATOM     26  C   UNL     1       6.616   3.259  -4.106  1.00  0.00     0.123 A 
ATOM     27  F   UNL     1       7.494   2.279  -4.359  1.00  0.00    -0.207 F 
ENDBRANCH   9  21
ENDBRANCH   6   9
ENDBRANCH   4   5
ENDBRANCH   3   4
ENDBRANCH   2   3
ENDBRANCH   1   2
BRANCH   1  28
ATOM     28  C   UNL     1      -0.659  11.529  -2.908  1.00  0.00     0.021 C 
BRANCH  28  29
ATOM     29  C   UNL     1      -1.178  12.032  -1.566  1.00  0.00     0.116 C 
BRANCH  29  30
ATOM     30  N   UNL     1      -1.049  13.477  -1.448  1.00  0.00    -0.352 N 
ATOM     31  C   UNL     1      -2.015  14.409  -1.165  1.00  0.00     0.251 C 
ATOM     32  H   UNL     1      -0.143  13.835  -1.592  1.00  0.00     0.163 HD
ATOM     33  O   UNL     1      -1.785  15.604  -1.329  1.00  0.00    -0.269 OA
BRANCH  31  34
ATOM     34  C   UNL     1      -3.335  13.966  -0.670  1.00  0.00     0.039 A 
ATOM     35  C   UNL     1      -4.490  14.544  -1.202  1.00  0.00     0.014 A 
ATOM     36  C   UNL     1      -3.430  12.987   0.324  1.00  0.00     0.014 A 
ATOM     37  C   UNL     1      -5.743  14.108  -0.767  1.00  0.00     0.010 A 
ATOM     38  C   UNL     1      -4.677  12.502   0.700  1.00  0.00     0.010 A 
ATOM     39  C   UNL     1      -5.847  13.067   0.171  1.00  0.00    -0.014 A 
BRANCH  39  40
ATOM     40  C   UNL     1      -7.169  12.559   0.613  1.00  0.00     0.031 A 
ATOM     41  C   UNL     1      -7.583  12.677   2.055  1.00  0.00     0.074 A 
ATOM     42  C   UNL     1      -7.960  11.910  -0.263  1.00  0.00     0.049 A 
ATOM     43  N   UNL     1      -8.672  12.249   2.638  1.00  0.00    -0.248 NA
ATOM     44  C   UNL     1      -6.634  13.334   2.968  1.00  0.00     0.031 C 
ATOM     45  C   UNL     1      -7.631  11.653  -1.667  1.00  0.00     0.029 A 
ATOM     46  N   UNL     1      -9.188  11.322  -0.096  1.00  0.00    -0.354 N 
ATOM     47  C   UNL     1      -8.524  12.548   3.986  1.00  0.00     0.074 A 
ATOM     48  C   UNL     1      -7.222  13.159   4.142  1.00  0.00     0.031 C 
ATOM     49  C   UNL     1      -8.632  10.960  -2.232  1.00  0.00     0.029 A 
ATOM     50  C   UNL     1      -9.659  10.700  -1.228  1.00  0.00     0.049 A 
ATOM     51  H   UNL     1      -9.685  11.344   0.754  1.00  0.00     0.167 HD
ATOM     52  C   UNL     1      -9.403  12.361   5.001  1.00  0.00     0.034 A 
ATOM     53  C   UNL     1     -10.787   9.992  -1.433  1.00  0.00     0.034 A 
ATOM     54  C   UNL     1     -10.711  11.789   4.834  1.00  0.00     0.049 A 
ATOM     55  C   UNL     1     -11.771   9.841  -0.307  1.00  0.00     0.074 A 
ATOM     56  C   UNL     1     -11.715  11.646   5.775  1.00  0.00     0.029 A 
ATOM     57  N   UNL     1     -11.195  11.254   3.650  1.00  0.00    -0.354 N 
ATOM     58  N   UNL     1     -11.687  10.280   0.925  1.00  0.00    -0.248 NA
ATOM     59  C   UNL     1     -13.023   9.132  -0.608  1.00  0.00     0.031 C 
ATOM     60  C   UNL     1     -12.795  10.997   5.166  1.00  0.00     0.029 A 
ATOM     61  C   UNL     1     -12.477  10.766   3.837  1.00  0.00     0.049 A 
ATOM     62  H   UNL     1     -10.699  11.225   2.800  1.00  0.00     0.167 HD
ATOM     63  C   UNL     1     -12.885   9.931   1.538  1.00  0.00     0.074 A 
ATOM     64  C   UNL     1     -13.686   9.261   0.534  1.00  0.00     0.031 C 
ATOM     65  C   UNL     1     -13.281  10.138   2.819  1.00  0.00     0.034 A 
BRANCH  52  66
ATOM     66  C   UNL     1      -8.986  12.824   6.374  1.00  0.00     0.023 A 
ATOM     67  C   UNL     1      -8.863  14.204   6.639  1.00  0.00     0.012 A 
ATOM     68  C   UNL     1      -8.741  11.900   7.409  1.00  0.00     0.148 A 
ATOM     69  C   UNL     1      -8.456  14.655   7.894  1.00  0.00     0.002 A 
ATOM     70  C   UNL     1      -8.383  12.360   8.671  1.00  0.00     0.091 A 
ATOM     71  F   UNL     1      -8.840  10.591   7.137  1.00  0.00    -0.205 F 
ATOM     72  C   UNL     1      -8.225  13.735   8.912  1.00  0.00     0.022 A 
BRANCH  70  73
ATOM     73  S   UNL     1      -8.144  11.255  10.068  1.00  0.00     0.127 S 
ATOM     74  O   UNL     1      -6.688  11.254  10.197  1.00  0.00    -0.237 OA
ATOM     75  O   UNL     1      -8.850  11.955  11.141  1.00  0.00    -0.237 OA
ATOM     76  O   UNL     1      -8.742   9.986   9.678  1.00  0.00    -0.744 OA
ENDBRANCH  70  73
ENDBRANCH  52  66
BRANCH  53  77
ATOM     77  C   UNL     1     -11.066   9.436  -2.787  1.00  0.00     0.023 A 
ATOM     78  C   UNL     1     -12.072  10.018  -3.582  1.00  0.00     0.012 A 
ATOM     79  C   UNL     1     -10.298   8.379  -3.312  1.00  0.00     0.148 A 
ATOM     80  C   UNL     1     -12.324   9.542  -4.869  1.00  0.00     0.002 A 
ATOM     81  C   UNL     1     -10.516   7.948  -4.615  1.00  0.00     0.091 A 
ATOM     82  F   UNL     1      -9.350   7.837  -2.535  1.00  0.00    -0.205 F 
ATOM     83  C   UNL     1     -11.539   8.517  -5.390  1.00  0.00     0.022 A 
BRANCH  81  84
ATOM     84  S   UNL     1      -9.465   6.732  -5.418  1.00  0.00     0.127 S 
ATOM     85  O   UNL     1     -10.385   5.612  -5.595  1.00  0.00    -0.237 OA
ATOM     86  O   UNL     1      -9.094   7.427  -6.652  1.00  0.00    -0.237 OA
ATOM     87  O   UNL     1      -8.356   6.500  -4.502  1.00  0.00    -0.744 OA
ENDBRANCH  81  84
ENDBRANCH  53  77
BRANCH  65  88
ATOM     88  C   UNL     1     -14.657   9.664   3.211  1.00  0.00     0.023 A 
ATOM     89  C   UNL     1     -14.911   8.285   3.352  1.00  0.00     0.012 A 
ATOM     90  C   UNL     1     -15.675  10.589   3.512  1.00  0.00     0.148 A 
ATOM     91  C   UNL     1     -16.168   7.834   3.756  1.00  0.00     0.002 A 
ATOM     92  C   UNL     1     -16.909  10.135   3.962  1.00  0.00     0.091 A 
ATOM     93  F   UNL     1     -15.420  11.896   3.352  1.00  0.00    -0.205 F 
ATOM     94  C   UNL     1     -17.161   8.758   4.073  1.00  0.00     0.022 A 
BRANCH  92  95
ATOM     95  S   UNL     1     -18.213  11.253   4.487  1.00  0.00     0.127 S 
ATOM     96  O   UNL     1     -19.174  11.124   3.393  1.00  0.00    -0.237 OA
ATOM     97  O   UNL     1     -18.644  10.656   5.752  1.00  0.00    -0.237 OA
ATOM     98  O   UNL     1     -17.589  12.563   4.620  1.00  0.00    -0.744 OA
ENDBRANCH  92  95
ENDBRANCH  65  88
ENDBRANCH  39  40
ENDBRANCH  31  34
ENDBRANCH  29  30
ENDBRANCH  28  29
ENDBRANCH   1  28
TORSDOF 19
