REMARK SMILES O=C(NCCCCCCNC(=O)c1cc2n[nH]cc2cc1[N+](=O)[O-])c1ccc(-c2c3nc(c(-c4cccc(S(=O)(=O)[O-])c4F)c4ccc([nH]4)c(-c4cccc(S(=O)(=O)[O-])c4F)c4nc(c(-c5cccc(S(=O)(=O)[O-])c5F)c5ccc2[nH]5)C=C4)C=C3)cc1
REMARK SMILES IDX 5 1 4 2 3 3 1 4 2 5 25 7 26 8 87 9 27 10 86 11 28 12 29 13
REMARK SMILES IDX 30 14 80 15 31 16 85 17 79 18 81 19 32 20 84 21 78 22 77 23
REMARK SMILES IDX 33 25 65 26 45 27 64 28 46 29 49 30 63 31 82 32 47 33 48 34
REMARK SMILES IDX 62 36 83 37 50 38 34 39 35 40 43 41 36 42 38 43 44 44 37 45
REMARK SMILES IDX 39 46 40 47 41 48 42 49 66 50 67 51 75 52 68 53 70 54 76 55
REMARK SMILES IDX 69 56 71 57 72 58 73 59 74 60 51 61 52 62 60 63 53 64 55 65
REMARK SMILES IDX 61 66 54 67 56 68 57 69 58 70 59 71 6 72 7 73 8 74 9 75
REMARK SMILES IDX 10 76 11 77 12 79 13 80 14 81 21 82 15 83 20 84 16 85 19 86
REMARK SMILES IDX 17 87 18 88 22 90 23 91 24 92
REMARK H PARENT 3 6 81 24 49 35 10 78 17 89
REMARK Flexibility Score: inf
ROOT
ATOM      1  C   UNL     1       4.586  -0.095  -2.887  1.00  0.00     0.021 C 
ENDROOT
BRANCH   1   2
ATOM      2  C   UNL     1       4.341   0.358  -1.454  1.00  0.00     0.116 C 
BRANCH   2   3
ATOM      3  N   UNL     1       2.933   0.480  -1.121  1.00  0.00    -0.352 N 
ATOM      4  O   UNL     1       1.049   0.120   0.066  1.00  0.00    -0.269 OA
ATOM      5  C   UNL     1       2.272   0.032   0.001  1.00  0.00     0.251 C 
ATOM      6  H   UNL     1       2.376   0.945  -1.786  1.00  0.00     0.163 HD
BRANCH   5   7
ATOM      7  C   UNL     1       3.038  -0.588   1.108  1.00  0.00     0.039 A 
ATOM      8  C   UNL     1       4.228  -0.014   1.562  1.00  0.00     0.014 A 
ATOM      9  C   UNL     1       2.567  -1.768   1.691  1.00  0.00     0.014 A 
ATOM     10  C   UNL     1       5.017  -0.696   2.481  1.00  0.00     0.010 A 
ATOM     11  C   UNL     1       3.321  -2.407   2.683  1.00  0.00     0.010 A 
ATOM     12  C   UNL     1       4.571  -1.895   3.062  1.00  0.00    -0.014 A 
BRANCH  12  13
ATOM     13  C   UNL     1       5.405  -2.538   4.112  1.00  0.00     0.031 A 
ATOM     14  C   UNL     1       6.020  -3.897   3.915  1.00  0.00     0.074 A 
ATOM     15  C   UNL     1       5.636  -1.853   5.250  1.00  0.00     0.049 A 
ATOM     16  N   UNL     1       6.844  -4.544   4.701  1.00  0.00    -0.248 NA
ATOM     17  C   UNL     1       5.665  -4.631   2.691  1.00  0.00     0.031 C 
ATOM     18  C   UNL     1       5.041  -0.556   5.582  1.00  0.00     0.029 A 
ATOM     19  N   UNL     1       6.434  -2.138   6.328  1.00  0.00    -0.354 N 
ATOM     20  C   UNL     1       7.085  -5.766   4.085  1.00  0.00     0.074 A 
ATOM     21  C   UNL     1       6.308  -5.779   2.864  1.00  0.00     0.031 C 
ATOM     22  C   UNL     1       5.523  -0.139   6.761  1.00  0.00     0.029 A 
ATOM     23  C   UNL     1       6.428  -1.153   7.289  1.00  0.00     0.049 A 
ATOM     24  H   UNL     1       6.960  -2.966   6.407  1.00  0.00     0.167 HD
ATOM     25  C   UNL     1       7.897  -6.774   4.488  1.00  0.00     0.034 A 
ATOM     26  C   UNL     1       7.077  -1.071   8.466  1.00  0.00     0.034 A 
ATOM     27  C   UNL     1       8.694  -6.744   5.688  1.00  0.00     0.049 A 
ATOM     28  C   UNL     1       8.017  -2.175   8.854  1.00  0.00     0.074 A 
ATOM     29  C   UNL     1       9.574  -7.702   6.162  1.00  0.00     0.029 A 
ATOM     30  N   UNL     1       8.711  -5.702   6.603  1.00  0.00    -0.354 N 
ATOM     31  N   UNL     1       8.326  -3.264   8.193  1.00  0.00    -0.248 NA
ATOM     32  C   UNL     1       8.722  -2.026  10.134  1.00  0.00     0.031 C 
ATOM     33  C   UNL     1      10.121  -7.239   7.364  1.00  0.00     0.029 A 
ATOM     34  C   UNL     1       9.589  -5.990   7.635  1.00  0.00     0.049 A 
ATOM     35  H   UNL     1       8.177  -4.878   6.530  1.00  0.00     0.167 HD
ATOM     36  C   UNL     1       9.267  -3.926   8.970  1.00  0.00     0.074 A 
ATOM     37  C   UNL     1       9.510  -3.092  10.131  1.00  0.00     0.031 C 
ATOM     38  C   UNL     1       9.853  -5.130   8.759  1.00  0.00     0.034 A 
BRANCH  25  39
ATOM     39  C   UNL     1       8.022  -7.980   3.591  1.00  0.00     0.023 A 
ATOM     40  C   UNL     1       8.789  -7.881   2.413  1.00  0.00     0.012 A 
ATOM     41  C   UNL     1       7.461  -9.222   3.948  1.00  0.00     0.148 A 
ATOM     42  C   UNL     1       8.979  -8.992   1.592  1.00  0.00     0.002 A 
ATOM     43  C   UNL     1       7.684 -10.335   3.142  1.00  0.00     0.091 A 
ATOM     44  F   UNL     1       6.719  -9.294   5.062  1.00  0.00    -0.205 F 
ATOM     45  C   UNL     1       8.436 -10.219   1.961  1.00  0.00     0.022 A 
BRANCH  43  46
ATOM     46  S   UNL     1       7.089 -11.976   3.568  1.00  0.00     0.127 S 
ATOM     47  O   UNL     1       6.008 -12.158   2.601  1.00  0.00    -0.237 OA
ATOM     48  O   UNL     1       8.270 -12.807   3.324  1.00  0.00    -0.237 OA
ATOM     49  O   UNL     1       6.678 -11.904   4.963  1.00  0.00    -0.744 OA
ENDBRANCH  43  46
ENDBRANCH  25  39
BRANCH  26  50
ATOM     50  C   UNL     1       6.896   0.135   9.321  1.00  0.00     0.023 A 
ATOM     51  C   UNL     1       7.957   1.047   9.472  1.00  0.00     0.012 A 
ATOM     52  C   UNL     1       5.659   0.414   9.931  1.00  0.00     0.148 A 
ATOM     53  C   UNL     1       7.795   2.205  10.233  1.00  0.00     0.002 A 
ATOM     54  C   UNL     1       5.485   1.600  10.634  1.00  0.00     0.091 A 
ATOM     55  F   UNL     1       4.665  -0.476   9.798  1.00  0.00    -0.205 F 
ATOM     56  C   UNL     1       6.555   2.490  10.801  1.00  0.00     0.022 A 
BRANCH  54  57
ATOM     57  S   UNL     1       3.869   2.096  11.244  1.00  0.00     0.127 S 
ATOM     58  O   UNL     1       3.921   1.650  12.633  1.00  0.00    -0.237 OA
ATOM     59  O   UNL     1       3.898   3.548  11.062  1.00  0.00    -0.237 OA
ATOM     60  O   UNL     1       2.916   1.411  10.380  1.00  0.00    -0.744 OA
ENDBRANCH  54  57
ENDBRANCH  26  50
BRANCH  38  61
ATOM     61  C   UNL     1      10.814  -5.616   9.810  1.00  0.00     0.023 A 
ATOM     62  C   UNL     1      10.312  -6.086  11.040  1.00  0.00     0.012 A 
ATOM     63  C   UNL     1      12.201  -5.650   9.570  1.00  0.00     0.148 A 
ATOM     64  C   UNL     1      11.178  -6.548  12.030  1.00  0.00     0.002 A 
ATOM     65  C   UNL     1      13.055  -6.150  10.547  1.00  0.00     0.091 A 
ATOM     66  F   UNL     1      12.663  -5.176   8.404  1.00  0.00    -0.205 F 
ATOM     67  C   UNL     1      12.547  -6.590  11.780  1.00  0.00     0.022 A 
BRANCH  65  68
ATOM     68  S   UNL     1      14.823  -6.310  10.271  1.00  0.00     0.127 S 
ATOM     69  O   UNL     1      15.341  -5.124  10.950  1.00  0.00    -0.237 OA
ATOM     70  O   UNL     1      15.135  -7.577  10.934  1.00  0.00    -0.237 OA
ATOM     71  O   UNL     1      14.993  -6.335   8.823  1.00  0.00    -0.744 OA
ENDBRANCH  65  68
ENDBRANCH  38  61
ENDBRANCH  12  13
ENDBRANCH   5   7
ENDBRANCH   2   3
ENDBRANCH   1   2
BRANCH   1  72
ATOM     72  C   UNL     1       4.133   0.877  -3.975  1.00  0.00     0.002 C 
BRANCH  72  73
ATOM     73  C   UNL     1       4.670   2.308  -3.870  1.00  0.00     0.002 C 
BRANCH  73  74
ATOM     74  C   UNL     1       6.190   2.461  -3.737  1.00  0.00     0.021 C 
BRANCH  74  75
ATOM     75  C   UNL     1       7.027   1.721  -4.778  1.00  0.00     0.116 C 
BRANCH  75  76
ATOM     76  N   UNL     1       6.729   2.135  -6.139  1.00  0.00    -0.352 N 
ATOM     77  C   UNL     1       7.579   2.429  -7.171  1.00  0.00     0.258 C 
ATOM     78  H   UNL     1       5.771   2.216  -6.351  1.00  0.00     0.163 HD
ATOM     79  O   UNL     1       7.155   2.845  -8.243  1.00  0.00    -0.269 OA
BRANCH  77  80
ATOM     80  C   UNL     1       9.034   2.304  -6.978  1.00  0.00     0.119 A 
ATOM     81  C   UNL     1       9.757   3.521  -7.042  1.00  0.00     0.052 A 
ATOM     82  C   UNL     1       9.661   1.036  -6.745  1.00  0.00     0.282 A 
ATOM     83  C   UNL     1      11.131   3.369  -6.806  1.00  0.00     0.093 A 
ATOM     84  C   UNL     1      11.041   0.850  -6.488  1.00  0.00     0.098 A 
ATOM     85  N   UNL     1      12.108   4.289  -6.775  1.00  0.00    -0.176 NA
ATOM     86  C   UNL     1      11.700   2.070  -6.537  1.00  0.00     0.026 A 
ATOM     87  N   UNL     1      13.229   3.598  -6.486  1.00  0.00    -0.285 N 
ATOM     88  C   UNL     1      13.038   2.254  -6.334  1.00  0.00     0.114 A 
ATOM     89  H   UNL     1      14.110   4.027  -6.392  1.00  0.00     0.189 HD
BRANCH  82  90
ATOM     90  N   UNL     1       8.850  -0.169  -6.785  1.00  0.00     0.063 N 
ATOM     91  O   UNL     1       8.880  -0.892  -5.780  1.00  0.00    -0.258 OA
ATOM     92  O   UNL     1       8.223  -0.402  -7.824  1.00  0.00    -0.258 OA
ENDBRANCH  82  90
ENDBRANCH  77  80
ENDBRANCH  75  76
ENDBRANCH  74  75
ENDBRANCH  73  74
ENDBRANCH  72  73
ENDBRANCH   1  72
TORSDOF 17
