REMARK SMILES NC(=O)c1ccccc1NC(=O)[C@@H]1CC=CC[C@@H]1C(=O)NCCCCCCNC(=O)c1ccc(-c2c3nc(c(-c4cccc(S(=O)(=O)[O-])c4F)c4ccc([nH]4)c(-c4cccc(S(=O)(=O)[O-])c4F)c4nc(c(-c5cccc(S(=O)(=O)[O-])c5F)c5ccc2[nH]5)C=C4)C=C3)cc1
REMARK SMILES IDX 24 1 23 2 22 3 21 4 19 5 20 6 18 8 13 9 14 10 15 11 17 12
REMARK SMILES IDX 16 13 11 14 10 15 12 17 9 18 4 19 5 20 6 21 8 22 7 23 2 24
REMARK SMILES IDX 1 25 3 28 25 29 26 30 27 31 28 32 29 33 30 35 31 36 32 37
REMARK SMILES IDX 93 38 33 39 92 40 34 41 35 42 36 43 86 44 37 45 91 46 85 47
REMARK SMILES IDX 87 48 38 49 90 50 84 51 83 52 39 54 71 55 51 56 70 57 52 58
REMARK SMILES IDX 55 59 69 60 88 61 53 62 54 63 68 65 89 66 56 67 40 68 41 69
REMARK SMILES IDX 49 70 42 71 44 72 50 73 43 74 45 75 46 76 47 77 48 78 72 79
REMARK SMILES IDX 73 80 81 81 74 82 76 83 82 84 75 85 77 86 78 87 79 88 80 89
REMARK SMILES IDX 57 90 58 91 66 92 59 93 61 94 67 95 60 96 62 97 63 98 64 99
REMARK SMILES IDX 65 100
REMARK H PARENT 21 7 10 16 1 26 1 27 28 34 87 53 55 64
REMARK Flexibility Score: inf
ROOT
ATOM      1  C   UNL     1       8.056  -5.861   3.780  1.00  0.00     0.002 C 
ENDROOT
BRANCH   1   2
ATOM      2  C   UNL     1       7.274  -4.582   3.481  1.00  0.00     0.021 C 
BRANCH   2   3
ATOM      3  C   UNL     1       6.084  -4.321   4.412  1.00  0.00     0.116 C 
BRANCH   3   4
ATOM      4  N   UNL     1       6.416  -3.356   5.446  1.00  0.00    -0.356 N 
ATOM      5  C   UNL     1       6.128  -2.070   5.739  1.00  0.00     0.224 C 
ATOM      6  O   UNL     1       6.676  -1.679   6.786  1.00  0.00    -0.275 OA
ATOM      7  H   UNL     1       7.017  -3.748   6.120  1.00  0.00     0.163 HD
BRANCH   5   8
ATOM      8  C   UNL     1       5.193  -1.081   5.000  1.00  0.00     0.095 C 
ATOM      9  C   UNL     1       4.547  -1.402   3.624  1.00  0.00     0.095 C 
ATOM     10  C   UNL     1       5.662  -1.522   2.575  1.00  0.00     0.041 C 
ATOM     11  C   UNL     1       6.617  -0.361   2.608  1.00  0.00    -0.030 C 
ATOM     12  C   UNL     1       5.911   0.294   4.908  1.00  0.00     0.041 C 
ATOM     13  C   UNL     1       6.707   0.477   3.649  1.00  0.00    -0.030 C 
BRANCH   9  14
ATOM     14  C   UNL     1       3.458  -2.470   3.818  1.00  0.00     0.228 C 
ATOM     15  N   UNL     1       2.885  -3.224   2.850  1.00  0.00    -0.325 N 
ATOM     16  H   UNL     1       2.270  -3.897   3.221  1.00  0.00     0.169 HD
ATOM     17  O   UNL     1       3.034  -2.702   4.961  1.00  0.00    -0.274 OA
BRANCH  15  18
ATOM     18  C   UNL     1       2.951  -3.283   1.449  1.00  0.00     0.053 A 
ATOM     19  C   UNL     1       2.739  -4.524   0.813  1.00  0.00     0.063 A 
ATOM     20  C   UNL     1       2.936  -4.678  -0.562  1.00  0.00     0.016 A 
ATOM     21  C   UNL     1       3.286  -3.572  -1.330  1.00  0.00     0.001 A 
ATOM     22  C   UNL     1       3.194  -2.170   0.650  1.00  0.00     0.027 A 
ATOM     23  C   UNL     1       3.388  -2.317  -0.729  1.00  0.00     0.002 A 
BRANCH  19  24
ATOM     24  C   UNL     1       2.351  -5.720   1.583  1.00  0.00     0.250 C 
ATOM     25  N   UNL     1       1.092  -5.688   2.106  1.00  0.00    -0.366 N 
ATOM     26  H   UNL     1       0.758  -6.449   2.633  1.00  0.00     0.159 HD
ATOM     27  H   UNL     1       0.516  -4.903   1.956  1.00  0.00     0.159 HD
ATOM     28  O   UNL     1       3.132  -6.646   1.762  1.00  0.00    -0.269 OA
ENDBRANCH  19  24
ENDBRANCH  15  18
ENDBRANCH   9  14
ENDBRANCH   5   8
ENDBRANCH   3   4
ENDBRANCH   2   3
ENDBRANCH   1   2
BRANCH   1  29
ATOM     29  C   UNL     1       7.271  -7.167   3.616  1.00  0.00     0.002 C 
BRANCH  29  30
ATOM     30  C   UNL     1       6.538  -7.346   2.282  1.00  0.00     0.021 C 
BRANCH  30  31
ATOM     31  C   UNL     1       7.405  -7.219   1.032  1.00  0.00     0.116 C 
BRANCH  31  32
ATOM     32  N   UNL     1       8.496  -8.182   1.016  1.00  0.00    -0.352 N 
ATOM     33  C   UNL     1       8.761  -9.189   0.122  1.00  0.00     0.251 C 
ATOM     34  H   UNL     1       9.140  -8.099   1.757  1.00  0.00     0.163 HD
ATOM     35  O   UNL     1       9.620 -10.028   0.375  1.00  0.00    -0.269 OA
BRANCH  33  36
ATOM     36  C   UNL     1       8.007  -9.265  -1.147  1.00  0.00     0.039 A 
ATOM     37  C   UNL     1       7.463 -10.491  -1.542  1.00  0.00     0.014 A 
ATOM     38  C   UNL     1       7.856  -8.134  -1.953  1.00  0.00     0.014 A 
ATOM     39  C   UNL     1       6.716 -10.570  -2.720  1.00  0.00     0.010 A 
ATOM     40  C   UNL     1       7.067  -8.203  -3.098  1.00  0.00     0.010 A 
ATOM     41  C   UNL     1       6.491  -9.420  -3.493  1.00  0.00    -0.014 A 
BRANCH  41  42
ATOM     42  C   UNL     1       5.647  -9.455  -4.714  1.00  0.00     0.031 A 
ATOM     43  C   UNL     1       6.256  -9.167  -6.058  1.00  0.00     0.074 A 
ATOM     44  C   UNL     1       4.316  -9.624  -4.596  1.00  0.00     0.049 A 
ATOM     45  N   UNL     1       5.668  -9.027  -7.217  1.00  0.00    -0.248 NA
ATOM     46  C   UNL     1       7.716  -8.979  -6.100  1.00  0.00     0.031 C 
ATOM     47  C   UNL     1       3.598  -9.831  -3.337  1.00  0.00     0.029 A 
ATOM     48  N   UNL     1       3.323  -9.605  -5.545  1.00  0.00    -0.354 N 
ATOM     49  C   UNL     1       6.673  -8.689  -8.115  1.00  0.00     0.074 A 
ATOM     50  C   UNL     1       7.908  -8.628  -7.364  1.00  0.00     0.031 C 
ATOM     51  C   UNL     1       2.281  -9.904  -3.588  1.00  0.00     0.029 A 
ATOM     52  C   UNL     1       2.057  -9.725  -5.019  1.00  0.00     0.049 A 
ATOM     53  H   UNL     1       3.500  -9.515  -6.509  1.00  0.00     0.167 HD
ATOM     54  C   UNL     1       6.580  -8.473  -9.449  1.00  0.00     0.034 A 
ATOM     55  C   UNL     1       0.852  -9.682  -5.621  1.00  0.00     0.034 A 
ATOM     56  C   UNL     1       5.362  -8.600 -10.202  1.00  0.00     0.049 A 
ATOM     57  C   UNL     1       0.785  -9.516  -7.115  1.00  0.00     0.074 A 
ATOM     58  C   UNL     1       5.184  -8.507 -11.571  1.00  0.00     0.029 A 
ATOM     59  N   UNL     1       4.115  -8.850  -9.652  1.00  0.00    -0.354 N 
ATOM     60  N   UNL     1       1.766  -9.361  -7.971  1.00  0.00    -0.248 NA
ATOM     61  C   UNL     1      -0.549  -9.555  -7.733  1.00  0.00     0.031 C 
ATOM     62  C   UNL     1       3.826  -8.691 -11.848  1.00  0.00     0.029 A 
ATOM     63  C   UNL     1       3.160  -8.909 -10.652  1.00  0.00     0.049 A 
ATOM     64  H   UNL     1       3.935  -8.968  -8.691  1.00  0.00     0.167 HD
ATOM     65  C   UNL     1       1.173  -9.316  -9.228  1.00  0.00     0.074 A 
ATOM     66  C   UNL     1      -0.251  -9.480  -9.024  1.00  0.00     0.031 C 
ATOM     67  C   UNL     1       1.754  -9.135 -10.439  1.00  0.00     0.034 A 
BRANCH  54  68
ATOM     68  C   UNL     1       7.843  -8.138 -10.195  1.00  0.00     0.023 A 
ATOM     69  C   UNL     1       8.793  -9.151 -10.438  1.00  0.00     0.012 A 
ATOM     70  C   UNL     1       8.062  -6.846 -10.712  1.00  0.00     0.148 A 
ATOM     71  C   UNL     1       9.954  -8.878 -11.160  1.00  0.00     0.002 A 
ATOM     72  C   UNL     1       9.203  -6.591 -11.464  1.00  0.00     0.091 A 
ATOM     73  F   UNL     1       7.159  -5.890 -10.450  1.00  0.00    -0.205 F 
ATOM     74  C   UNL     1      10.153  -7.602 -11.681  1.00  0.00     0.022 A 
BRANCH  72  75
ATOM     75  S   UNL     1       9.514  -4.999 -12.238  1.00  0.00     0.127 S 
ATOM     76  O   UNL     1      10.568  -4.456 -11.384  1.00  0.00    -0.237 OA
ATOM     77  O   UNL     1       9.954  -5.387 -13.579  1.00  0.00    -0.237 OA
ATOM     78  O   UNL     1       8.246  -4.284 -12.202  1.00  0.00    -0.744 OA
ENDBRANCH  72  75
ENDBRANCH  54  68
BRANCH  55  79
ATOM     79  C   UNL     1      -0.385  -9.867  -4.811  1.00  0.00     0.023 A 
ATOM     80  C   UNL     1      -1.107 -11.070  -4.926  1.00  0.00     0.012 A 
ATOM     81  C   UNL     1      -0.824  -8.885  -3.901  1.00  0.00     0.148 A 
ATOM     82  C   UNL     1      -2.261 -11.281  -4.170  1.00  0.00     0.002 A 
ATOM     83  C   UNL     1      -1.945  -9.123  -3.113  1.00  0.00     0.091 A 
ATOM     84  F   UNL     1      -0.131  -7.741  -3.816  1.00  0.00    -0.205 F 
ATOM     85  C   UNL     1      -2.674 -10.314  -3.257  1.00  0.00     0.022 A 
BRANCH  83  86
ATOM     86  S   UNL     1      -2.469  -7.982  -1.826  1.00  0.00     0.127 S 
ATOM     87  O   UNL     1      -3.639  -7.357  -2.437  1.00  0.00    -0.237 OA
ATOM     88  O   UNL     1      -2.765  -8.886  -0.714  1.00  0.00    -0.237 OA
ATOM     89  O   UNL     1      -1.330  -7.104  -1.589  1.00  0.00    -0.744 OA
ENDBRANCH  83  86
ENDBRANCH  55  79
BRANCH  67  90
ATOM     90  C   UNL     1       0.862  -9.127 -11.651  1.00  0.00     0.023 A 
ATOM     91  C   UNL     1       0.068  -7.995 -11.921  1.00  0.00     0.012 A 
ATOM     92  C   UNL     1       0.886 -10.193 -12.571  1.00  0.00     0.148 A 
ATOM     93  C   UNL     1      -0.706  -7.933 -13.079  1.00  0.00     0.002 A 
ATOM     94  C   UNL     1       0.144 -10.106 -13.744  1.00  0.00     0.091 A 
ATOM     95  F   UNL     1       1.633 -11.269 -12.286  1.00  0.00    -0.205 F 
ATOM     96  C   UNL     1      -0.658  -8.982 -13.995  1.00  0.00     0.022 A 
BRANCH  94  97
ATOM     97  S   UNL     1       0.218 -11.367 -15.022  1.00  0.00     0.127 S 
ATOM     98  O   UNL     1      -1.065 -12.045 -14.846  1.00  0.00    -0.237 OA
ATOM     99  O   UNL     1       0.323 -10.568 -16.244  1.00  0.00    -0.237 OA
ATOM    100  O   UNL     1       1.397 -12.168 -14.724  1.00  0.00    -0.744 OA
ENDBRANCH  94  97
ENDBRANCH  67  90
ENDBRANCH  41  42
ENDBRANCH  33  36
ENDBRANCH  31  32
ENDBRANCH  30  31
ENDBRANCH  29  30
ENDBRANCH   1  29
TORSDOF 19
