REMARK SMILES O=C(NCCCCCCNC(=O)[C@@H](Cc1ccccc1)NC(=O)c1ccccc1[N+](=O)[O-])c1ccc(-c2c3nc(c(-c4cccc(S(=O)(=O)[O-])c4F)c4ccc([nH]4)c(-c4cccc(S(=O)(=O)[O-])c4F)c4nc(c(-c5cccc(S(=O)(=O)[O-])c5F)c5ccc2[nH]5)C=C4)C=C3)cc1
REMARK SMILES IDX 6 1 5 2 4 3 3 4 1 5 2 6 33 8 34 9 95 10 35 11 94 12 36 13
REMARK SMILES IDX 37 14 38 15 88 16 39 17 93 18 87 19 89 20 40 21 92 22 86 23
REMARK SMILES IDX 85 24 41 26 73 27 53 28 72 29 54 30 57 31 71 32 90 33 55 34
REMARK SMILES IDX 56 35 70 37 91 38 58 39 42 40 43 41 51 42 44 43 46 44 52 45
REMARK SMILES IDX 45 46 47 47 48 48 49 49 50 50 74 51 75 52 83 53 76 54 78 55
REMARK SMILES IDX 84 56 77 57 79 58 80 59 81 60 82 61 59 62 60 63 68 64 61 65
REMARK SMILES IDX 63 66 69 67 62 68 64 69 65 70 66 71 67 72 7 73 8 74 9 75
REMARK SMILES IDX 10 76 11 77 12 79 13 80 14 81 15 82 16 83 20 84 17 85 19 86
REMARK SMILES IDX 18 87 21 88 22 89 23 91 24 92 25 93 29 94 26 95 28 96 27 97
REMARK SMILES IDX 30 98 31 99 32 100
REMARK H PARENT 3 7 89 25 57 36 10 78 21 90
REMARK Flexibility Score: inf
ROOT
ATOM      1  C   UNL     1       3.722   1.739  -3.585  1.00  0.00     0.002 C 
ENDROOT
BRANCH   1   2
ATOM      2  C   UNL     1       4.398   0.657  -2.741  1.00  0.00     0.021 C 
BRANCH   2   3
ATOM      3  C   UNL     1       4.331   0.896  -1.237  1.00  0.00     0.116 C 
BRANCH   3   4
ATOM      4  N   UNL     1       2.962   0.864  -0.746  1.00  0.00    -0.352 N 
ATOM      5  O   UNL     1       1.125  -0.064   0.169  1.00  0.00    -0.269 OA
ATOM      6  C   UNL     1       2.344  -0.065   0.059  1.00  0.00     0.251 C 
ATOM      7  H   UNL     1       2.396   1.617  -1.030  1.00  0.00     0.163 HD
BRANCH   6   8
ATOM      8  C   UNL     1       3.165  -1.066   0.776  1.00  0.00     0.039 A 
ATOM      9  C   UNL     1       4.355  -0.681   1.395  1.00  0.00     0.014 A 
ATOM     10  C   UNL     1       2.738  -2.395   0.847  1.00  0.00     0.014 A 
ATOM     11  C   UNL     1       5.191  -1.643   1.942  1.00  0.00     0.010 A 
ATOM     12  C   UNL     1       3.531  -3.346   1.498  1.00  0.00     0.010 A 
ATOM     13  C   UNL     1       4.777  -2.983   2.030  1.00  0.00    -0.014 A 
BRANCH  13  14
ATOM     14  C   UNL     1       5.633  -3.935   2.785  1.00  0.00     0.031 A 
ATOM     15  C   UNL     1       6.263  -5.133   2.131  1.00  0.00     0.074 A 
ATOM     16  C   UNL     1       5.869  -3.670   4.086  1.00  0.00     0.049 A 
ATOM     17  N   UNL     1       7.100  -5.998   2.646  1.00  0.00    -0.248 NA
ATOM     18  C   UNL     1       5.909  -5.406   0.730  1.00  0.00     0.031 C 
ATOM     19  C   UNL     1       5.260  -2.571   4.843  1.00  0.00     0.029 A 
ATOM     20  N   UNL     1       6.686  -4.284   4.999  1.00  0.00    -0.354 N 
ATOM     21  C   UNL     1       7.355  -6.929   1.647  1.00  0.00     0.074 A 
ATOM     22  C   UNL     1       6.570  -6.533   0.496  1.00  0.00     0.031 C 
ATOM     23  C   UNL     1       5.756  -2.561   6.086  1.00  0.00     0.029 A 
ATOM     24  C   UNL     1       6.668  -3.686   6.238  1.00  0.00     0.049 A 
ATOM     25  H   UNL     1       7.233  -5.075   4.789  1.00  0.00     0.167 HD
ATOM     26  C   UNL     1       8.182  -8.003   1.681  1.00  0.00     0.034 A 
ATOM     27  C   UNL     1       7.301  -4.015   7.380  1.00  0.00     0.034 A 
ATOM     28  C   UNL     1       8.974  -8.378   2.825  1.00  0.00     0.049 A 
ATOM     29  C   UNL     1       8.233  -5.190   7.374  1.00  0.00     0.074 A 
ATOM     30  C   UNL     1       9.870  -9.426   2.945  1.00  0.00     0.029 A 
ATOM     31  N   UNL     1       8.964  -7.724   4.049  1.00  0.00    -0.354 N 
ATOM     32  N   UNL     1       8.552  -5.982   6.380  1.00  0.00    -0.248 NA
ATOM     33  C   UNL     1       8.916  -5.498   8.636  1.00  0.00     0.031 C 
ATOM     34  C   UNL     1      10.387  -9.418   4.245  1.00  0.00     0.029 A 
ATOM     35  C   UNL     1       9.834  -8.348   4.929  1.00  0.00     0.049 A 
ATOM     36  H   UNL     1       8.418  -6.933   4.261  1.00  0.00     0.167 HD
ATOM     37  C   UNL     1       9.483  -6.875   6.892  1.00  0.00     0.074 A 
ATOM     38  C   UNL     1       9.711  -6.494   8.272  1.00  0.00     0.031 C 
ATOM     39  C   UNL     1      10.076  -7.933   6.287  1.00  0.00     0.034 A 
BRANCH  26  40
ATOM     40  C   UNL     1       8.318  -8.832   0.429  1.00  0.00     0.023 A 
ATOM     41  C   UNL     1       9.043  -8.318  -0.666  1.00  0.00     0.012 A 
ATOM     42  C   UNL     1       7.815 -10.148   0.366  1.00  0.00     0.148 A 
ATOM     43  C   UNL     1       9.247  -9.090  -1.810  1.00  0.00     0.002 A 
ATOM     44  C   UNL     1       8.057 -10.925  -0.762  1.00  0.00     0.091 A 
ATOM     45  F   UNL     1       7.116 -10.614   1.410  1.00  0.00    -0.205 F 
ATOM     46  C   UNL     1       8.765 -10.395  -1.853  1.00  0.00     0.022 A 
BRANCH  44  47
ATOM     47  S   UNL     1       7.547 -12.643  -0.890  1.00  0.00     0.127 S 
ATOM     48  O   UNL     1       6.528 -12.571  -1.937  1.00  0.00    -0.237 OA
ATOM     49  O   UNL     1       8.789 -13.303  -1.293  1.00  0.00    -0.237 OA
ATOM     50  O   UNL     1       7.056 -13.018   0.428  1.00  0.00    -0.744 OA
ENDBRANCH  44  47
ENDBRANCH  26  40
BRANCH  27  51
ATOM     51  C   UNL     1       7.082  -3.203   8.609  1.00  0.00     0.023 A 
ATOM     52  C   UNL     1       8.135  -2.434   9.141  1.00  0.00     0.012 A 
ATOM     53  C   UNL     1       5.821  -3.165   9.235  1.00  0.00     0.148 A 
ATOM     54  C   UNL     1       7.944  -1.672  10.294  1.00  0.00     0.002 A 
ATOM     55  C   UNL     1       5.620  -2.351  10.342  1.00  0.00     0.091 A 
ATOM     56  F   UNL     1       4.835  -3.917   8.726  1.00  0.00    -0.205 F 
ATOM     57  C   UNL     1       6.685  -1.619  10.887  1.00  0.00     0.022 A 
BRANCH  55  58
ATOM     58  S   UNL     1       3.991  -2.112  11.059  1.00  0.00     0.127 S 
ATOM     59  O   UNL     1       4.065  -2.946  12.255  1.00  0.00    -0.237 OA
ATOM     60  O   UNL     1       3.976  -0.670  11.312  1.00  0.00    -0.237 OA
ATOM     61  O   UNL     1       3.051  -2.545  10.033  1.00  0.00    -0.744 OA
ENDBRANCH  55  58
ENDBRANCH  27  51
BRANCH  39  62
ATOM     62  C   UNL     1      11.040  -8.741   7.115  1.00  0.00     0.023 A 
ATOM     63  C   UNL     1      10.553  -9.556   8.157  1.00  0.00     0.012 A 
ATOM     64  C   UNL     1      12.422  -8.713   6.849  1.00  0.00     0.148 A 
ATOM     65  C   UNL     1      11.430 -10.293   8.952  1.00  0.00     0.002 A 
ATOM     66  C   UNL     1      13.286  -9.490   7.612  1.00  0.00     0.091 A 
ATOM     67  F   UNL     1      12.870  -7.916   5.868  1.00  0.00    -0.205 F 
ATOM     68  C   UNL     1      12.794 -10.267   8.673  1.00  0.00     0.022 A 
BRANCH  66  69
ATOM     69  S   UNL     1      15.046  -9.588   7.268  1.00  0.00     0.127 S 
ATOM     70  O   UNL     1      15.607  -8.779   8.348  1.00  0.00    -0.237 OA
ATOM     71  O   UNL     1      15.306 -11.024   7.382  1.00  0.00    -0.237 OA
ATOM     72  O   UNL     1      15.220  -9.050   5.925  1.00  0.00    -0.744 OA
ENDBRANCH  66  69
ENDBRANCH  39  62
ENDBRANCH  13  14
ENDBRANCH   6   8
ENDBRANCH   3   4
ENDBRANCH   2   3
ENDBRANCH   1   2
BRANCH   1  73
ATOM     73  C   UNL     1       4.221   3.168  -3.340  1.00  0.00     0.002 C 
BRANCH  73  74
ATOM     74  C   UNL     1       5.742   3.329  -3.360  1.00  0.00     0.021 C 
BRANCH  74  75
ATOM     75  C   UNL     1       6.395   3.015  -4.703  1.00  0.00     0.116 C 
BRANCH  75  76
ATOM     76  N   UNL     1       6.484   4.207  -5.518  1.00  0.00    -0.354 N 
ATOM     77  C   UNL     1       7.531   5.035  -5.769  1.00  0.00     0.242 C 
ATOM     78  H   UNL     1       5.644   4.460  -5.966  1.00  0.00     0.163 HD
ATOM     79  O   UNL     1       7.280   6.079  -6.385  1.00  0.00    -0.273 OA
BRANCH  77  80
ATOM     80  C   UNL     1       8.985   4.736  -5.328  1.00  0.00     0.176 C 
BRANCH  80  81
ATOM     81  C   UNL     1       9.272   4.921  -3.816  1.00  0.00     0.070 C 
BRANCH  81  82
ATOM     82  C   UNL     1       9.064   3.819  -2.799  1.00  0.00    -0.045 A 
ATOM     83  C   UNL     1       8.458   4.134  -1.570  1.00  0.00     0.004 A 
ATOM     84  C   UNL     1       9.543   2.514  -2.976  1.00  0.00     0.004 A 
ATOM     85  C   UNL     1       8.242   3.153  -0.598  1.00  0.00     0.000 A 
ATOM     86  C   UNL     1       9.301   1.524  -2.017  1.00  0.00     0.000 A 
ATOM     87  C   UNL     1       8.639   1.841  -0.834  1.00  0.00     0.000 A 
ENDBRANCH  81  82
ENDBRANCH  80  81
BRANCH  80  88
ATOM     88  N   UNL     1       9.507   3.515  -5.946  1.00  0.00    -0.340 N 
ATOM     89  C   UNL     1      10.379   3.332  -6.985  1.00  0.00     0.258 C 
ATOM     90  H   UNL     1       9.172   2.680  -5.545  1.00  0.00     0.164 HD
ATOM     91  O   UNL     1      10.513   2.214  -7.476  1.00  0.00    -0.269 OA
BRANCH  89  92
ATOM     92  C   UNL     1      11.105   4.460  -7.600  1.00  0.00     0.117 A 
ATOM     93  C   UNL     1      10.921   4.639  -8.980  1.00  0.00     0.021 A 
ATOM     94  C   UNL     1      11.980   5.316  -6.928  1.00  0.00     0.282 A 
ATOM     95  C   UNL     1      11.542   5.698  -9.650  1.00  0.00     0.001 A 
ATOM     96  C   UNL     1      12.579   6.403  -7.588  1.00  0.00     0.086 A 
ATOM     97  C   UNL     1      12.350   6.592  -8.950  1.00  0.00     0.007 A 
BRANCH  94  98
ATOM     98  N   UNL     1      12.349   5.090  -5.543  1.00  0.00     0.063 N 
ATOM     99  O   UNL     1      12.451   6.094  -4.823  1.00  0.00    -0.258 OA
ATOM    100  O   UNL     1      12.554   3.928  -5.177  1.00  0.00    -0.258 OA
ENDBRANCH  94  98
ENDBRANCH  89  92
ENDBRANCH  80  88
ENDBRANCH  77  80
ENDBRANCH  75  76
ENDBRANCH  74  75
ENDBRANCH  73  74
ENDBRANCH   1  73
TORSDOF 21
