REMARK SMILES C[C@@H](c1ccco1)n1c(SCC(=O)NCCCCCCNC(=O)c2ccc(-c3c4nc(c(-c5cccc(S(=O)(=O)[O-])c5F)c5ccc([nH]5)c(-c5cccc(S(=O)(=O)[O-])c5F)c5nc(c(-c6cccc(S(=O)(=O)[O-])c6F)c6ccc3[nH]6)C=C5)C=C4)cc2)nc2cnccc21
REMARK SMILES IDX 17 1 16 2 15 3 14 4 12 5 13 6 11 8 10 9 9 10 8 11 93 12
REMARK SMILES IDX 87 13 88 14 92 15 89 16 91 17 90 18 2 19 1 20 3 21 4 22 7 23
REMARK SMILES IDX 5 24 6 25 18 26 19 27 20 28 21 29 22 30 23 32 24 33 25 34
REMARK SMILES IDX 86 35 26 36 85 37 27 38 28 39 29 40 79 41 30 42 84 43 78 44
REMARK SMILES IDX 80 45 31 46 83 47 77 48 76 49 32 51 64 52 44 53 63 54 45 55
REMARK SMILES IDX 48 56 62 57 81 58 46 59 47 60 61 62 82 63 49 64 33 65 34 66
REMARK SMILES IDX 42 67 35 68 37 69 43 70 36 71 38 72 39 73 40 74 41 75 65 76
REMARK SMILES IDX 66 77 74 78 67 79 69 80 75 81 68 82 70 83 71 84 72 85 73 86
REMARK SMILES IDX 50 87 51 88 59 89 52 90 54 91 60 92 53 93 55 94 56 95 57 96
REMARK SMILES IDX 58 97
REMARK H PARENT 14 7 21 31 80 50 48 61
REMARK Flexibility Score: inf
ROOT
ATOM      1  C   UNL     1      -0.930   4.423   4.217  1.00  0.00     0.002 C 
ENDROOT
BRANCH   1   2
ATOM      2  C   UNL     1      -1.338   4.375   2.742  1.00  0.00     0.021 C 
BRANCH   2   3
ATOM      3  C   UNL     1      -0.220   4.685   1.745  1.00  0.00     0.116 C 
BRANCH   3   4
ATOM      4  N   UNL     1       0.857   3.712   1.783  1.00  0.00    -0.355 N 
ATOM      5  C   UNL     1       1.170   2.726   0.895  1.00  0.00     0.230 C 
ATOM      6  O   UNL     1       2.229   2.114   1.049  1.00  0.00    -0.274 OA
ATOM      7  H   UNL     1       1.449   3.774   2.567  1.00  0.00     0.163 HD
BRANCH   5   8
ATOM      8  C   UNL     1       0.295   2.440  -0.300  1.00  0.00     0.178 C 
BRANCH   8   9
ATOM      9  S   UNL     1      -1.368   1.936   0.053  1.00  0.00    -0.078 SA
BRANCH   9  10
ATOM     10  C   UNL     1      -1.697   0.368   0.696  1.00  0.00     0.170 A 
ATOM     11  N   UNL     1      -0.948  -0.650   1.261  1.00  0.00    -0.308 N 
ATOM     12  C   UNL     1      -1.857  -1.599   1.750  1.00  0.00     0.073 A 
ATOM     13  N   UNL     1      -2.985   0.083   0.768  1.00  0.00    -0.221 NA
ATOM     14  C   UNL     1      -3.109  -1.093   1.439  1.00  0.00     0.108 A 
ATOM     15  C   UNL     1      -1.720  -2.803   2.453  1.00  0.00     0.049 A 
ATOM     16  C   UNL     1      -4.254  -1.789   1.838  1.00  0.00     0.141 A 
ATOM     17  C   UNL     1      -2.910  -3.427   2.803  1.00  0.00     0.113 A 
ATOM     18  N   UNL     1      -4.145  -2.960   2.518  1.00  0.00    -0.262 NA
BRANCH  11  19
ATOM     19  C   UNL     1       0.481  -0.811   1.515  1.00  0.00     0.153 C 
ATOM     20  C   UNL     1       1.383  -0.766   0.293  1.00  0.00     0.040 C 
BRANCH  19  21
ATOM     21  C   UNL     1       0.913  -0.063   2.734  1.00  0.00     0.126 A 
ATOM     22  C   UNL     1       0.341   0.913   3.529  1.00  0.00     0.048 A 
ATOM     23  O   UNL     1       2.081  -0.485   3.309  1.00  0.00    -0.467 OA
ATOM     24  C   UNL     1       1.228   1.133   4.608  1.00  0.00     0.042 A 
ATOM     25  C   UNL     1       2.267   0.253   4.433  1.00  0.00     0.195 A 
ENDBRANCH  19  21
ENDBRANCH  11  19
ENDBRANCH   9  10
ENDBRANCH   8   9
ENDBRANCH   5   8
ENDBRANCH   3   4
ENDBRANCH   2   3
ENDBRANCH   1   2
BRANCH   1  26
ATOM     26  C   UNL     1      -0.328   5.743   4.695  1.00  0.00     0.002 C 
BRANCH  26  27
ATOM     27  C   UNL     1      -1.171   6.982   4.395  1.00  0.00     0.021 C 
BRANCH  27  28
ATOM     28  C   UNL     1      -2.604   6.919   4.930  1.00  0.00     0.116 C 
BRANCH  28  29
ATOM     29  N   UNL     1      -2.688   6.810   6.371  1.00  0.00    -0.352 N 
ATOM     30  C   UNL     1      -2.643   7.713   7.399  1.00  0.00     0.251 C 
ATOM     31  H   UNL     1      -2.802   5.882   6.679  1.00  0.00     0.163 HD
ATOM     32  O   UNL     1      -2.891   7.266   8.521  1.00  0.00    -0.269 OA
BRANCH  30  33
ATOM     33  C   UNL     1      -2.252   9.143   7.257  1.00  0.00     0.039 A 
ATOM     34  C   UNL     1      -2.016   9.796   6.049  1.00  0.00     0.014 A 
ATOM     35  C   UNL     1      -2.047   9.855   8.454  1.00  0.00     0.014 A 
ATOM     36  C   UNL     1      -1.466  11.069   6.032  1.00  0.00     0.010 A 
ATOM     37  C   UNL     1      -1.536  11.149   8.444  1.00  0.00     0.010 A 
ATOM     38  C   UNL     1      -1.195  11.732   7.230  1.00  0.00    -0.014 A 
BRANCH  38  39
ATOM     39  C   UNL     1      -0.655  13.083   7.124  1.00  0.00     0.031 A 
ATOM     40  C   UNL     1      -1.518  14.024   6.360  1.00  0.00     0.074 A 
ATOM     41  C   UNL     1       0.501  13.481   7.692  1.00  0.00     0.049 A 
ATOM     42  N   UNL     1      -1.286  14.543   5.197  1.00  0.00    -0.248 NA
ATOM     43  C   UNL     1      -2.863  14.300   6.887  1.00  0.00     0.031 C 
ATOM     44  C   UNL     1       1.306  12.757   8.679  1.00  0.00     0.029 A 
ATOM     45  N   UNL     1       1.142  14.682   7.589  1.00  0.00    -0.354 N 
ATOM     46  C   UNL     1      -2.359  15.397   4.956  1.00  0.00     0.074 A 
ATOM     47  C   UNL     1      -3.368  15.085   5.935  1.00  0.00     0.031 C 
ATOM     48  C   UNL     1       2.167  13.618   9.266  1.00  0.00     0.029 A 
ATOM     49  C   UNL     1       2.085  14.899   8.589  1.00  0.00     0.049 A 
ATOM     50  H   UNL     1       0.955  15.333   6.875  1.00  0.00     0.167 HD
ATOM     51  C   UNL     1      -2.240  16.480   4.142  1.00  0.00     0.034 A 
ATOM     52  C   UNL     1       2.698  16.075   8.864  1.00  0.00     0.034 A 
ATOM     53  C   UNL     1      -1.034  16.451   3.369  1.00  0.00     0.049 A 
ATOM     54  C   UNL     1       2.668  16.884   7.627  1.00  0.00     0.074 A 
ATOM     55  C   UNL     1      -0.566  15.809   2.245  1.00  0.00     0.029 A 
ATOM     56  N   UNL     1       0.043  16.983   4.023  1.00  0.00    -0.354 N 
ATOM     57  N   UNL     1       3.316  16.569   6.541  1.00  0.00    -0.248 NA
ATOM     58  C   UNL     1       1.696  17.963   7.491  1.00  0.00     0.031 C 
ATOM     59  C   UNL     1       0.856  15.806   2.358  1.00  0.00     0.029 A 
ATOM     60  C   UNL     1       1.209  16.460   3.537  1.00  0.00     0.049 A 
ATOM     61  H   UNL     1      -0.013  17.650   4.745  1.00  0.00     0.167 HD
ATOM     62  C   UNL     1       2.539  17.095   5.528  1.00  0.00     0.074 A 
ATOM     63  C   UNL     1       1.690  18.090   6.162  1.00  0.00     0.031 C 
ATOM     64  C   UNL     1       2.410  16.445   4.340  1.00  0.00     0.034 A 
BRANCH  51  65
ATOM     65  C   UNL     1      -2.961  17.785   4.371  1.00  0.00     0.023 A 
ATOM     66  C   UNL     1      -3.010  18.721   3.316  1.00  0.00     0.012 A 
ATOM     67  C   UNL     1      -3.330  18.241   5.657  1.00  0.00     0.148 A 
ATOM     68  C   UNL     1      -3.420  20.043   3.533  1.00  0.00     0.002 A 
ATOM     69  C   UNL     1      -3.811  19.529   5.852  1.00  0.00     0.091 A 
ATOM     70  F   UNL     1      -3.082  17.472   6.724  1.00  0.00    -0.205 F 
ATOM     71  C   UNL     1      -3.839  20.443   4.797  1.00  0.00     0.022 A 
BRANCH  69  72
ATOM     72  S   UNL     1      -4.397  20.073   7.460  1.00  0.00     0.127 S 
ATOM     73  O   UNL     1      -3.305  20.943   7.891  1.00  0.00    -0.237 OA
ATOM     74  O   UNL     1      -5.638  20.765   7.105  1.00  0.00    -0.237 OA
ATOM     75  O   UNL     1      -4.594  18.854   8.229  1.00  0.00    -0.744 OA
ENDBRANCH  69  72
ENDBRANCH  51  65
BRANCH  52  76
ATOM     76  C   UNL     1       3.135  16.675  10.149  1.00  0.00     0.023 A 
ATOM     77  C   UNL     1       3.950  17.829  10.107  1.00  0.00     0.012 A 
ATOM     78  C   UNL     1       2.500  16.356  11.368  1.00  0.00     0.148 A 
ATOM     79  C   UNL     1       4.040  18.693  11.202  1.00  0.00     0.002 A 
ATOM     80  C   UNL     1       2.605  17.214  12.460  1.00  0.00     0.091 A 
ATOM     81  F   UNL     1       1.711  15.275  11.429  1.00  0.00    -0.205 F 
ATOM     82  C   UNL     1       3.351  18.397  12.372  1.00  0.00     0.022 A 
BRANCH  80  83
ATOM     83  S   UNL     1       1.738  16.896  14.002  1.00  0.00     0.127 S 
ATOM     84  O   UNL     1       2.717  17.322  15.003  1.00  0.00    -0.237 OA
ATOM     85  O   UNL     1       0.571  17.758  13.879  1.00  0.00    -0.237 OA
ATOM     86  O   UNL     1       1.476  15.457  14.007  1.00  0.00    -0.744 OA
ENDBRANCH  80  83
ENDBRANCH  52  76
BRANCH  64  87
ATOM     87  C   UNL     1       3.496  15.493   3.948  1.00  0.00     0.023 A 
ATOM     88  C   UNL     1       3.675  14.241   4.567  1.00  0.00     0.012 A 
ATOM     89  C   UNL     1       4.280  15.834   2.835  1.00  0.00     0.148 A 
ATOM     90  C   UNL     1       4.630  13.345   4.080  1.00  0.00     0.002 A 
ATOM     91  C   UNL     1       5.197  14.927   2.330  1.00  0.00     0.091 A 
ATOM     92  F   UNL     1       4.086  17.036   2.272  1.00  0.00    -0.205 F 
ATOM     93  C   UNL     1       5.381  13.682   2.953  1.00  0.00     0.022 A 
BRANCH  91  94
ATOM     94  S   UNL     1       6.114  15.254   0.824  1.00  0.00     0.127 S 
ATOM     95  O   UNL     1       7.484  15.374   1.319  1.00  0.00    -0.237 OA
ATOM     96  O   UNL     1       5.850  14.049   0.036  1.00  0.00    -0.237 OA
ATOM     97  O   UNL     1       5.547  16.473   0.260  1.00  0.00    -0.744 OA
ENDBRANCH  91  94
ENDBRANCH  64  87
ENDBRANCH  38  39
ENDBRANCH  30  33
ENDBRANCH  28  29
ENDBRANCH  27  28
ENDBRANCH  26  27
ENDBRANCH   1  26
TORSDOF 20
