REMARK SMILES O=C(C[C@H]([NH2+]Cc1ccccc1C1CC1)c1cccs1)NCCCCCCNC(=O)c1ccc(-c2c3nc(c(-c4cccc(S(=O)(=O)[O-])c4F)c4ccc([nH]4)c(-c4cccc(S(=O)(=O)[O-])c4F)c4nc(c(-c5cccc(S(=O)(=O)[O-])c5F)c5ccc2[nH]5)C=C4)C=C3)cc1
REMARK SMILES IDX 23 1 22 2 21 3 1 4 2 5 3 7 4 8 16 9 17 10 20 11 18 12 19 13
REMARK SMILES IDX 5 14 6 17 7 18 8 19 12 20 9 21 11 22 10 23 13 24 14 25 15 26
REMARK SMILES IDX 24 27 25 28 26 29 27 30 28 31 29 32 30 34 31 35 32 36 93 37
REMARK SMILES IDX 33 38 92 39 34 40 35 41 36 42 86 43 37 44 91 45 85 46 87 47
REMARK SMILES IDX 38 48 90 49 84 50 83 51 39 53 71 54 51 55 70 56 52 57 55 58
REMARK SMILES IDX 69 59 88 60 53 61 54 62 68 64 89 65 56 66 40 67 41 68 49 69
REMARK SMILES IDX 42 70 44 71 50 72 43 73 45 74 46 75 47 76 48 77 72 78 73 79
REMARK SMILES IDX 81 80 74 81 76 82 82 83 75 84 77 85 78 86 79 87 80 88 57 89
REMARK SMILES IDX 58 90 66 91 59 92 61 93 67 94 60 95 62 96 63 97 64 98 65 99
REMARK H PARENT 21 6 5 15 5 16 28 33 87 52 55 63
REMARK Flexibility Score: inf
ROOT
ATOM      1  C   UNL     1       4.100  -0.468   3.698  1.00  0.00     0.021 C 
ENDROOT
BRANCH   1   2
ATOM      2  C   UNL     1       4.530  -1.147   2.393  1.00  0.00     0.116 C 
BRANCH   2   3
ATOM      3  N   UNL     1       4.344  -0.268   1.257  1.00  0.00    -0.356 N 
ATOM      4  O   UNL     1       6.504  -0.300   0.464  1.00  0.00    -0.275 OA
ATOM      5  C   UNL     1       5.347   0.095   0.386  1.00  0.00     0.226 C 
ATOM      6  H   UNL     1       3.442   0.093   1.097  1.00  0.00     0.163 HD
BRANCH   5   7
ATOM      7  C   UNL     1       4.893   1.108  -0.644  1.00  0.00     0.171 C 
BRANCH   7   8
ATOM      8  C   UNL     1       3.997   0.568  -1.773  1.00  0.00     0.233 C 
BRANCH   8   9
ATOM      9  C   UNL     1       4.834   0.102  -2.958  1.00  0.00     0.062 A 
ATOM     10  C   UNL     1       5.181   0.844  -4.075  1.00  0.00     0.021 A 
ATOM     11  S   UNL     1       5.516  -1.471  -3.045  1.00  0.00    -0.143 S 
ATOM     12  C   UNL     1       5.896   0.084  -5.045  1.00  0.00     0.012 A 
ATOM     13  C   UNL     1       6.096  -1.212  -4.630  1.00  0.00     0.065 A 
ENDBRANCH   8   9
BRANCH   8  14
ATOM     14  N   UNL     1       3.005  -0.439  -1.399  1.00  0.00    -0.335 N 
ATOM     15  H   UNL     1       3.314  -0.863  -0.524  1.00  0.00     0.347 HD
ATOM     16  H   UNL     1       2.961  -1.072  -2.197  1.00  0.00     0.347 HD
BRANCH  14  17
ATOM     17  C   UNL     1       1.635   0.012  -1.205  1.00  0.00     0.298 C 
BRANCH  17  18
ATOM     18  C   UNL     1       0.719  -1.057  -0.618  1.00  0.00     0.010 A 
ATOM     19  C   UNL     1      -0.085  -0.645   0.474  1.00  0.00     0.010 A 
ATOM     20  C   UNL     1       0.596  -2.395  -1.072  1.00  0.00    -0.036 A 
ATOM     21  C   UNL     1      -0.853  -1.545   1.215  1.00  0.00     0.001 A 
ATOM     22  C   UNL     1      -0.089  -3.298  -0.213  1.00  0.00     0.004 A 
ATOM     23  C   UNL     1      -0.792  -2.891   0.917  1.00  0.00     0.000 A 
BRANCH  20  24
ATOM     24  C   UNL     1       0.974  -2.994  -2.419  1.00  0.00     0.020 C 
ATOM     25  C   UNL     1       1.614  -2.281  -3.572  1.00  0.00     0.009 C 
ATOM     26  C   UNL     1       2.396  -3.299  -2.784  1.00  0.00     0.009 C 
ENDBRANCH  20  24
ENDBRANCH  17  18
ENDBRANCH  14  17
ENDBRANCH   8  14
ENDBRANCH   7   8
ENDBRANCH   5   7
ENDBRANCH   2   3
ENDBRANCH   1   2
BRANCH   1  27
ATOM     27  C   UNL     1       2.672   0.091   3.701  1.00  0.00     0.002 C 
BRANCH  27  28
ATOM     28  C   UNL     1       1.585  -0.913   3.333  1.00  0.00     0.002 C 
BRANCH  28  29
ATOM     29  C   UNL     1       1.374  -2.066   4.307  1.00  0.00     0.021 C 
BRANCH  29  30
ATOM     30  C   UNL     1       0.782  -1.648   5.644  1.00  0.00     0.116 C 
BRANCH  30  31
ATOM     31  N   UNL     1      -0.573  -1.122   5.531  1.00  0.00    -0.352 N 
ATOM     32  C   UNL     1      -1.687  -1.396   6.295  1.00  0.00     0.251 C 
ATOM     33  H   UNL     1      -0.713  -0.475   4.802  1.00  0.00     0.163 HD
ATOM     34  O   UNL     1      -2.776  -0.952   5.965  1.00  0.00    -0.269 OA
BRANCH  32  35
ATOM     35  C   UNL     1      -1.559  -2.258   7.494  1.00  0.00     0.039 A 
ATOM     36  C   UNL     1      -2.535  -3.227   7.741  1.00  0.00     0.014 A 
ATOM     37  C   UNL     1      -0.465  -2.135   8.353  1.00  0.00     0.014 A 
ATOM     38  C   UNL     1      -2.370  -4.119   8.804  1.00  0.00     0.010 A 
ATOM     39  C   UNL     1      -0.249  -3.090   9.339  1.00  0.00     0.010 A 
ATOM     40  C   UNL     1      -1.203  -4.086   9.585  1.00  0.00    -0.014 A 
BRANCH  40  41
ATOM     41  C   UNL     1      -0.955  -5.090  10.653  1.00  0.00     0.031 A 
ATOM     42  C   UNL     1      -0.766  -4.651  12.082  1.00  0.00     0.074 A 
ATOM     43  C   UNL     1      -0.810  -6.389  10.324  1.00  0.00     0.049 A 
ATOM     44  N   UNL     1      -0.523  -5.378  13.142  1.00  0.00    -0.248 NA
ATOM     45  C   UNL     1      -0.821  -3.205  12.352  1.00  0.00     0.031 C 
ATOM     46  C   UNL     1      -0.876  -6.931   8.964  1.00  0.00     0.029 A 
ATOM     47  N   UNL     1      -0.561  -7.489  11.105  1.00  0.00    -0.354 N 
ATOM     48  C   UNL     1      -0.350  -4.480  14.188  1.00  0.00     0.074 A 
ATOM     49  C   UNL     1      -0.475  -3.152  13.629  1.00  0.00     0.031 C 
ATOM     50  C   UNL     1      -0.705  -8.262   9.011  1.00  0.00     0.029 A 
ATOM     51  C   UNL     1      -0.484  -8.665  10.395  1.00  0.00     0.049 A 
ATOM     52  H   UNL     1      -0.448  -7.442  12.082  1.00  0.00     0.167 HD
ATOM     53  C   UNL     1      -0.138  -4.733  15.502  1.00  0.00     0.034 A 
ATOM     54  C   UNL     1      -0.267  -9.927  10.814  1.00  0.00     0.034 A 
ATOM     55  C   UNL     1      -0.062  -6.056  16.061  1.00  0.00     0.049 A 
ATOM     56  C   UNL     1      -0.085 -10.187  12.284  1.00  0.00     0.074 A 
ATOM     57  C   UNL     1       0.034  -6.424  17.390  1.00  0.00     0.029 A 
ATOM     58  N   UNL     1      -0.059  -7.228  15.320  1.00  0.00    -0.354 N 
ATOM     59  N   UNL     1      -0.107  -9.338  13.283  1.00  0.00    -0.248 NA
ATOM     60  C   UNL     1       0.117 -11.585  12.689  1.00  0.00     0.031 C 
ATOM     61  C   UNL     1       0.134  -7.819  17.451  1.00  0.00     0.029 A 
ATOM     62  C   UNL     1       0.060  -8.321  16.161  1.00  0.00     0.049 A 
ATOM     63  H   UNL     1      -0.131  -7.275  14.339  1.00  0.00     0.167 HD
ATOM     64  C   UNL     1       0.038 -10.101  14.436  1.00  0.00     0.074 A 
ATOM     65  C   UNL     1       0.124 -11.483  14.011  1.00  0.00     0.031 C 
ATOM     66  C   UNL     1       0.104  -9.695  15.728  1.00  0.00     0.034 A 
BRANCH  53  67
ATOM     67  C   UNL     1      -0.008  -3.550  16.429  1.00  0.00     0.023 A 
ATOM     68  C   UNL     1      -1.131  -2.737  16.694  1.00  0.00     0.012 A 
ATOM     69  C   UNL     1       1.215  -3.262  17.065  1.00  0.00     0.148 A 
ATOM     70  C   UNL     1      -1.026  -1.630  17.534  1.00  0.00     0.002 A 
ATOM     71  C   UNL     1       1.299  -2.186  17.942  1.00  0.00     0.091 A 
ATOM     72  F   UNL     1       2.278  -4.029  16.787  1.00  0.00    -0.205 F 
ATOM     73  C   UNL     1       0.185  -1.361  18.165  1.00  0.00     0.022 A 
BRANCH  71  74
ATOM     74  S   UNL     1       2.790  -1.809  18.869  1.00  0.00     0.127 S 
ATOM     75  O   UNL     1       3.262  -0.603  18.190  1.00  0.00    -0.237 OA
ATOM     76  O   UNL     1       2.267  -1.584  20.217  1.00  0.00    -0.237 OA
ATOM     77  O   UNL     1       3.649  -2.978  18.739  1.00  0.00    -0.744 OA
ENDBRANCH  71  74
ENDBRANCH  53  67
BRANCH  54  78
ATOM     78  C   UNL     1      -0.304 -11.054   9.838  1.00  0.00     0.023 A 
ATOM     79  C   UNL     1      -1.382 -11.961   9.879  1.00  0.00     0.012 A 
ATOM     80  C   UNL     1       0.695 -11.219   8.860  1.00  0.00     0.148 A 
ATOM     81  C   UNL     1      -1.448 -13.030   8.985  1.00  0.00     0.002 A 
ATOM     82  C   UNL     1       0.594 -12.254   7.937  1.00  0.00     0.091 A 
ATOM     83  F   UNL     1       1.714 -10.349   8.841  1.00  0.00    -0.205 F 
ATOM     84  C   UNL     1      -0.467 -13.171   8.009  1.00  0.00     0.022 A 
BRANCH  82  85
ATOM     85  S   UNL     1       1.739 -12.444   6.566  1.00  0.00     0.127 S 
ATOM     86  O   UNL     1       2.417 -13.690   6.913  1.00  0.00    -0.237 OA
ATOM     87  O   UNL     1       0.828 -12.534   5.425  1.00  0.00    -0.237 OA
ATOM     88  O   UNL     1       2.572 -11.249   6.580  1.00  0.00    -0.744 OA
ENDBRANCH  82  85
ENDBRANCH  54  78
BRANCH  66  89
ATOM     89  C   UNL     1       0.244 -10.760  16.785  1.00  0.00     0.023 A 
ATOM     90  C   UNL     1       1.452 -11.476  16.909  1.00  0.00     0.012 A 
ATOM     91  C   UNL     1      -0.805 -11.016  17.690  1.00  0.00     0.148 A 
ATOM     92  C   UNL     1       1.596 -12.460  17.887  1.00  0.00     0.002 A 
ATOM     93  C   UNL     1      -0.634 -11.958  18.696  1.00  0.00     0.091 A 
ATOM     94  F   UNL     1      -1.954 -10.339  17.546  1.00  0.00    -0.205 F 
ATOM     95  C   UNL     1       0.559 -12.693  18.786  1.00  0.00     0.022 A 
BRANCH  93  96
ATOM     96  S   UNL     1      -1.877 -12.250  19.960  1.00  0.00     0.127 S 
ATOM     97  O   UNL     1      -2.422 -13.543  19.550  1.00  0.00    -0.237 OA
ATOM     98  O   UNL     1      -1.075 -12.286  21.183  1.00  0.00    -0.237 OA
ATOM     99  O   UNL     1      -2.801 -11.126  19.879  1.00  0.00    -0.744 OA
ENDBRANCH  93  96
ENDBRANCH  66  89
ENDBRANCH  40  41
ENDBRANCH  32  35
ENDBRANCH  30  31
ENDBRANCH  29  30
ENDBRANCH  28  29
ENDBRANCH  27  28
ENDBRANCH   1  27
TORSDOF 22
