REMARK SMILES COc1ccc(-n2ncc([C@H]3CC(=O)Nc4n[nH]c(C(=O)NCCCCCCNC(=O)c5ccc(-c6c7nc(c(-c8cccc(S(=O)(=O)[O-])c8F)c8ccc([nH]8)c(-c8cccc(S(=O)(=O)[O-])c8F)c8nc(c(-c9cccc(S(=O)(=O)[O-])c9F)c9ccc6[nH]9)C=C8)C=C7)cc5)c43)c2C)cc1
REMARK SMILES IDX 25 1 24 2 23 3 22 4 20 5 21 6 19 8 11 9 12 10 95 11 13 12
REMARK SMILES IDX 16 13 14 14 15 15 17 16 18 17 10 20 7 21 8 22 96 23 9 24
REMARK SMILES IDX 97 25 6 26 3 27 4 28 99 29 5 30 98 31 2 32 1 33 26 34 27 35
REMARK SMILES IDX 28 36 29 37 30 38 31 40 32 41 33 42 94 43 34 44 93 45 35 46
REMARK SMILES IDX 36 47 37 48 87 49 38 50 92 51 86 52 88 53 39 54 91 55 85 56
REMARK SMILES IDX 84 57 40 59 72 60 52 61 71 62 53 63 56 64 70 65 89 66 54 67
REMARK SMILES IDX 55 68 69 70 90 71 57 72 41 73 42 74 50 75 43 76 45 77 51 78
REMARK SMILES IDX 44 79 46 80 47 81 48 82 49 83 73 84 74 85 82 86 75 87 77 88
REMARK SMILES IDX 83 89 76 90 78 91 79 92 80 93 81 94 58 95 59 96 67 97 60 98
REMARK SMILES IDX 62 99 68 100 61 101 63 102 64 103 65 104 66 105
REMARK H PARENT 22 7 15 18 18 19 29 39 88 58 56 69
REMARK Flexibility Score: inf
ROOT
ATOM      1  C   UNL     1       5.593   5.939   8.856  1.00  0.00     0.002 C 
ENDROOT
BRANCH   1   2
ATOM      2  C   UNL     1       4.388   5.369   9.600  1.00  0.00     0.021 C 
BRANCH   2   3
ATOM      3  C   UNL     1       3.866   4.034   9.088  1.00  0.00     0.116 C 
BRANCH   3   4
ATOM      4  N   UNL     1       4.608   2.881   9.496  1.00  0.00    -0.351 N 
ATOM      5  C   UNL     1       4.199   1.599   9.733  1.00  0.00     0.269 C 
ATOM      6  O   UNL     1       5.125   0.800   9.927  1.00  0.00    -0.268 OA
ATOM      7  H   UNL     1       5.571   3.037   9.628  1.00  0.00     0.163 HD
BRANCH   5   8
ATOM      8  C   UNL     1       2.828   1.107   9.764  1.00  0.00     0.129 A 
ATOM      9  C   UNL     1       0.709   2.749   9.332  1.00  0.00     0.068 C 
ATOM     10  C   UNL     1      -0.748   2.697   9.831  1.00  0.00     0.114 C 
ATOM     11  C   UNL     1       1.486   1.495   9.644  1.00  0.00     0.035 A 
ATOM     12  C   UNL     1      -1.408   1.333   9.834  1.00  0.00     0.226 C 
ATOM     13  C   UNL     1       0.749   0.303   9.859  1.00  0.00     0.159 A 
ATOM     14  O   UNL     1      -2.632   1.208   9.875  1.00  0.00    -0.275 OA
ATOM     15  N   UNL     1      -0.610   0.233   9.879  1.00  0.00    -0.309 N 
ATOM     16  N   UNL     1       1.508  -0.770  10.002  1.00  0.00    -0.157 NA
ATOM     17  N   UNL     1       2.739  -0.255  10.009  1.00  0.00    -0.270 N 
ATOM     18  H   UNL     1      -1.034  -0.654   9.929  1.00  0.00     0.171 HD
ATOM     19  H   UNL     1       3.535  -0.808  10.177  1.00  0.00     0.190 HD
BRANCH   9  20
ATOM     20  C   UNL     1       0.815   3.103   7.863  1.00  0.00     0.002 A 
ATOM     21  N   UNL     1       1.034   3.087   5.658  1.00  0.00    -0.238 N 
ATOM     22  N   UNL     1       1.451   4.315   6.022  1.00  0.00    -0.176 NA
ATOM     23  C   UNL     1       0.522   2.365   6.722  1.00  0.00     0.045 A 
ATOM     24  C   UNL     1       1.243   4.346   7.337  1.00  0.00     0.140 A 
ATOM     25  C   UNL     1      -0.164   1.057   6.554  1.00  0.00     0.067 C 
BRANCH  21  26
ATOM     26  C   UNL     1       0.994   2.729   4.301  1.00  0.00     0.065 A 
ATOM     27  C   UNL     1       0.783   1.802   1.694  1.00  0.00     0.119 A 
ATOM     28  C   UNL     1      -0.300   2.446   2.298  1.00  0.00     0.048 A 
ATOM     29  C   UNL     1       1.993   1.663   2.384  1.00  0.00     0.048 A 
ATOM     30  C   UNL     1      -0.205   2.903   3.608  1.00  0.00     0.032 A 
ATOM     31  C   UNL     1       2.105   2.130   3.699  1.00  0.00     0.032 A 
BRANCH  27  32
ATOM     32  O   UNL     1       0.576   1.393   0.404  1.00  0.00    -0.497 OA
ATOM     33  C   UNL     1       1.129   0.118   0.096  1.00  0.00     0.278 C 
ENDBRANCH  27  32
ENDBRANCH  21  26
ENDBRANCH   9  20
ENDBRANCH   5   8
ENDBRANCH   3   4
ENDBRANCH   2   3
ENDBRANCH   1   2
BRANCH   1  34
ATOM     34  C   UNL     1       5.431   6.169   7.346  1.00  0.00     0.002 C 
BRANCH  34  35
ATOM     35  C   UNL     1       4.231   7.002   6.873  1.00  0.00     0.021 C 
BRANCH  35  36
ATOM     36  C   UNL     1       4.140   8.405   7.454  1.00  0.00     0.116 C 
BRANCH  36  37
ATOM     37  N   UNL     1       5.262   9.258   7.066  1.00  0.00    -0.352 N 
ATOM     38  C   UNL     1       5.516  10.564   7.447  1.00  0.00     0.251 C 
ATOM     39  H   UNL     1       5.920   8.852   6.456  1.00  0.00     0.163 HD
ATOM     40  O   UNL     1       6.253  11.275   6.785  1.00  0.00    -0.269 OA
BRANCH  38  41
ATOM     41  C   UNL     1       4.881  11.082   8.676  1.00  0.00     0.039 A 
ATOM     42  C   UNL     1       4.389  12.389   8.740  1.00  0.00     0.014 A 
ATOM     43  C   UNL     1       4.770  10.227   9.770  1.00  0.00     0.014 A 
ATOM     44  C   UNL     1       3.710  12.795   9.887  1.00  0.00     0.010 A 
ATOM     45  C   UNL     1       3.971  10.574  10.830  1.00  0.00     0.010 A 
ATOM     46  C   UNL     1       3.484  11.872  10.921  1.00  0.00    -0.014 A 
BRANCH  46  47
ATOM     47  C   UNL     1       2.602  12.199  12.037  1.00  0.00     0.031 A 
ATOM     48  C   UNL     1       1.241  12.612  11.604  1.00  0.00     0.074 A 
ATOM     49  C   UNL     1       2.913  11.932  13.326  1.00  0.00     0.049 A 
ATOM     50  N   UNL     1       0.741  13.803  11.624  1.00  0.00    -0.248 NA
ATOM     51  C   UNL     1       0.410  11.635  10.881  1.00  0.00     0.031 C 
ATOM     52  C   UNL     1       4.100  11.218  13.820  1.00  0.00     0.029 A 
ATOM     53  N   UNL     1       2.178  12.105  14.463  1.00  0.00    -0.354 N 
ATOM     54  C   UNL     1      -0.578  13.650  11.197  1.00  0.00     0.074 A 
ATOM     55  C   UNL     1      -0.627  12.390  10.511  1.00  0.00     0.031 C 
ATOM     56  C   UNL     1       3.883  10.795  15.083  1.00  0.00     0.029 A 
ATOM     57  C   UNL     1       2.634  11.361  15.551  1.00  0.00     0.049 A 
ATOM     58  H   UNL     1       1.397  12.702  14.511  1.00  0.00     0.167 HD
ATOM     59  C   UNL     1      -1.571  14.396  11.760  1.00  0.00     0.034 A 
ATOM     60  C   UNL     1       2.021  11.201  16.749  1.00  0.00     0.034 A 
ATOM     61  C   UNL     1      -1.003  15.454  12.559  1.00  0.00     0.049 A 
ATOM     62  C   UNL     1       1.084  12.328  16.912  1.00  0.00     0.074 A 
ATOM     63  C   UNL     1      -0.312  16.625  12.341  1.00  0.00     0.029 A 
ATOM     64  N   UNL     1      -0.802  15.089  13.866  1.00  0.00    -0.354 N 
ATOM     65  N   UNL     1       1.477  13.562  17.052  1.00  0.00    -0.248 NA
ATOM     66  C   UNL     1      -0.323  12.148  16.581  1.00  0.00     0.031 C 
ATOM     67  C   UNL     1       0.473  16.837  13.513  1.00  0.00     0.029 A 
ATOM     68  C   UNL     1       0.199  15.824  14.433  1.00  0.00     0.049 A 
ATOM     69  H   UNL     1      -1.312  14.389  14.333  1.00  0.00     0.167 HD
ATOM     70  C   UNL     1       0.522  14.285  16.362  1.00  0.00     0.074 A 
ATOM     71  C   UNL     1      -0.639  13.410  16.280  1.00  0.00     0.031 C 
ATOM     72  C   UNL     1       0.881  15.375  15.627  1.00  0.00     0.034 A 
BRANCH  59  73
ATOM     73  C   UNL     1      -2.993  13.930  12.055  1.00  0.00     0.023 A 
ATOM     74  C   UNL     1      -3.856  14.880  12.656  1.00  0.00     0.012 A 
ATOM     75  C   UNL     1      -3.430  12.587  12.072  1.00  0.00     0.148 A 
ATOM     76  C   UNL     1      -5.040  14.506  13.301  1.00  0.00     0.002 A 
ATOM     77  C   UNL     1      -4.641  12.226  12.659  1.00  0.00     0.091 A 
ATOM     78  F   UNL     1      -2.634  11.612  11.635  1.00  0.00    -0.205 F 
ATOM     79  C   UNL     1      -5.434  13.176  13.304  1.00  0.00     0.022 A 
BRANCH  77  80
ATOM     80  S   UNL     1      -5.213  10.520  12.672  1.00  0.00     0.127 S 
ATOM     81  O   UNL     1      -5.098  10.185  14.089  1.00  0.00    -0.237 OA
ATOM     82  O   UNL     1      -6.581  10.664  12.175  1.00  0.00    -0.237 OA
ATOM     83  O   UNL     1      -4.323   9.795  11.774  1.00  0.00    -0.744 OA
ENDBRANCH  77  80
ENDBRANCH  59  73
BRANCH  60  84
ATOM     84  C   UNL     1       2.059  10.090  17.725  1.00  0.00     0.023 A 
ATOM     85  C   UNL     1       1.737  10.335  19.076  1.00  0.00     0.012 A 
ATOM     86  C   UNL     1       2.099   8.752  17.278  1.00  0.00     0.148 A 
ATOM     87  C   UNL     1       1.409   9.285  19.940  1.00  0.00     0.002 A 
ATOM     88  C   UNL     1       1.766   7.711  18.140  1.00  0.00     0.091 A 
ATOM     89  F   UNL     1       2.374   8.516  15.988  1.00  0.00    -0.205 F 
ATOM     90  C   UNL     1       1.406   7.975  19.468  1.00  0.00     0.022 A 
BRANCH  88  91
ATOM     91  S   UNL     1       1.688   6.000  17.595  1.00  0.00     0.127 S 
ATOM     92  O   UNL     1       2.527   5.329  18.587  1.00  0.00    -0.237 OA
ATOM     93  O   UNL     1       0.260   5.714  17.705  1.00  0.00    -0.237 OA
ATOM     94  O   UNL     1       2.227   5.986  16.241  1.00  0.00    -0.744 OA
ENDBRANCH  88  91
ENDBRANCH  60  84
BRANCH  72  95
ATOM     95  C   UNL     1       2.167  16.059  15.986  1.00  0.00     0.023 A 
ATOM     96  C   UNL     1       3.436  15.475  15.802  1.00  0.00     0.012 A 
ATOM     97  C   UNL     1       2.080  17.387  16.429  1.00  0.00     0.148 A 
ATOM     98  C   UNL     1       4.597  16.206  16.075  1.00  0.00     0.002 A 
ATOM     99  C   UNL     1       3.232  18.125  16.648  1.00  0.00     0.091 A 
ATOM    100  F   UNL     1       0.860  17.915  16.610  1.00  0.00    -0.205 F 
ATOM    101  C   UNL     1       4.495  17.535  16.483  1.00  0.00     0.022 A 
BRANCH  99 102
ATOM    102  S   UNL     1       3.150  19.869  17.052  1.00  0.00     0.127 S 
ATOM    103  O   UNL     1       3.445  19.865  18.483  1.00  0.00    -0.237 OA
ATOM    104  O   UNL     1       4.204  20.436  16.210  1.00  0.00    -0.237 OA
ATOM    105  O   UNL     1       1.805  20.299  16.688  1.00  0.00    -0.744 OA
ENDBRANCH  99 102
ENDBRANCH  72  95
ENDBRANCH  46  47
ENDBRANCH  38  41
ENDBRANCH  36  37
ENDBRANCH  35  36
ENDBRANCH  34  35
ENDBRANCH   1  34
TORSDOF 19
