REMARK SMILES CC(C)N(CCCC(=O)NCCCCCCNC(=O)c1ccc(-c2c3nc(c(-c4cccc(S(=O)(=O)[O-])c4F)c4ccc([nH]4)c(-c4cccc(S(=O)(=O)[O-])c4F)c4nc(c(-c5cccc(S(=O)(=O)[O-])c5F)c5ccc2[nH]5)C=C4)C=C3)cc1)C(=O)N[C@@H]1CCCC1(C)C
REMARK SMILES IDX 12 1 11 2 10 3 8 4 9 5 7 7 6 8 5 9 4 10 2 11 1 12 3 13 83 14
REMARK SMILES IDX 84 15 85 16 86 18 87 19 90 20 88 21 89 22 91 23 92 24 13 25
REMARK SMILES IDX 14 26 15 27 16 28 17 29 18 30 19 32 20 33 21 34 82 35 22 36
REMARK SMILES IDX 81 37 23 38 24 39 25 40 75 41 26 42 80 43 74 44 76 45 27 46
REMARK SMILES IDX 79 47 73 48 72 49 28 51 60 52 40 53 59 54 41 55 44 56 58 57
REMARK SMILES IDX 77 58 42 59 43 60 57 62 78 63 45 64 29 65 30 66 38 67 31 68
REMARK SMILES IDX 33 69 39 70 32 71 34 72 35 73 36 74 37 75 61 76 62 77 70 78
REMARK SMILES IDX 63 79 65 80 71 81 64 82 66 83 67 84 68 85 69 86 46 87 47 88
REMARK SMILES IDX 55 89 48 90 50 91 56 92 49 93 51 94 52 95 53 96 54 97
REMARK H PARENT 10 6 85 17 17 31 76 50 44 61
REMARK Flexibility Score: inf
ROOT
ATOM      1  C   UNL     1      -3.915   1.582  -2.641  1.00  0.00     0.021 C 
ENDROOT
BRANCH   1   2
ATOM      2  C   UNL     1      -3.619   0.784  -1.367  1.00  0.00     0.116 C 
BRANCH   2   3
ATOM      3  N   UNL     1      -2.247   0.303  -1.387  1.00  0.00    -0.356 N 
ATOM      4  C   UNL     1      -1.120   0.540  -0.678  1.00  0.00     0.220 C 
ATOM      5  O   UNL     1      -0.099  -0.016  -1.103  1.00  0.00    -0.275 OA
ATOM      6  H   UNL     1      -2.101  -0.363  -2.097  1.00  0.00     0.163 HD
BRANCH   4   7
ATOM      7  C   UNL     1      -1.049   1.274   0.649  1.00  0.00     0.102 C 
BRANCH   7   8
ATOM      8  C   UNL     1      -1.271   2.765   0.812  1.00  0.00     0.031 C 
BRANCH   8   9
ATOM      9  C   UNL     1      -2.538   3.430   0.303  1.00  0.00     0.122 C 
BRANCH   9  10
ATOM     10  N   UNL     1      -3.676   3.835   1.173  1.00  0.00    -0.322 N 
BRANCH  10  11
ATOM     11  C   UNL     1      -4.165   5.219   0.817  1.00  0.00     0.080 C 
ATOM     12  C   UNL     1      -5.536   5.200   0.131  1.00  0.00     0.031 C 
ATOM     13  C   UNL     1      -4.088   6.232   1.967  1.00  0.00     0.031 C 
ENDBRANCH  10  11
BRANCH  10  14
ATOM     14  C   UNL     1      -4.425   3.216   2.134  1.00  0.00     0.317 C 
ATOM     15  O   UNL     1      -5.249   3.852   2.811  1.00  0.00    -0.249 OA
ATOM     16  N   UNL     1      -4.464   1.941   2.507  1.00  0.00    -0.335 N 
ATOM     17  H   UNL     1      -4.950   1.889   3.361  1.00  0.00     0.165 HD
BRANCH  16  18
ATOM     18  C   UNL     1      -4.065   0.605   2.138  1.00  0.00     0.089 C 
ATOM     19  C   UNL     1      -5.217  -0.274   1.626  1.00  0.00     0.025 C 
ATOM     20  C   UNL     1      -3.510  -0.261   3.312  1.00  0.00    -0.015 C 
ATOM     21  C   UNL     1      -4.648  -1.698   1.685  1.00  0.00     0.003 C 
ATOM     22  C   UNL     1      -3.438  -1.643   2.630  1.00  0.00     0.008 C 
ATOM     23  C   UNL     1      -2.144   0.188   3.848  1.00  0.00     0.013 C 
ATOM     24  C   UNL     1      -4.468  -0.343   4.525  1.00  0.00     0.013 C 
ENDBRANCH  16  18
ENDBRANCH  10  14
ENDBRANCH   9  10
ENDBRANCH   8   9
ENDBRANCH   7   8
ENDBRANCH   4   7
ENDBRANCH   2   3
ENDBRANCH   1   2
BRANCH   1  25
ATOM     25  C   UNL     1      -4.879   0.843  -3.570  1.00  0.00     0.002 C 
BRANCH  25  26
ATOM     26  C   UNL     1      -6.356   1.060  -3.224  1.00  0.00     0.002 C 
BRANCH  26  27
ATOM     27  C   UNL     1      -6.874   2.497  -3.375  1.00  0.00     0.021 C 
BRANCH  27  28
ATOM     28  C   UNL     1      -6.450   3.227  -4.647  1.00  0.00     0.116 C 
BRANCH  28  29
ATOM     29  N   UNL     1      -6.784   2.497  -5.858  1.00  0.00    -0.352 N 
ATOM     30  C   UNL     1      -7.123   2.994  -7.095  1.00  0.00     0.251 C 
ATOM     31  H   UNL     1      -6.765   1.515  -5.784  1.00  0.00     0.163 HD
ATOM     32  O   UNL     1      -7.452   2.241  -7.996  1.00  0.00    -0.269 OA
BRANCH  30  33
ATOM     33  C   UNL     1      -7.118   4.458  -7.305  1.00  0.00     0.039 A 
ATOM     34  C   UNL     1      -8.260   5.058  -7.840  1.00  0.00     0.014 A 
ATOM     35  C   UNL     1      -6.004   5.229  -6.962  1.00  0.00     0.014 A 
ATOM     36  C   UNL     1      -8.305   6.445  -7.985  1.00  0.00     0.010 A 
ATOM     37  C   UNL     1      -6.071   6.616  -7.058  1.00  0.00     0.010 A 
ATOM     38  C   UNL     1      -7.219   7.235  -7.576  1.00  0.00    -0.014 A 
BRANCH  38  39
ATOM     39  C   UNL     1      -7.267   8.713  -7.686  1.00  0.00     0.031 A 
ATOM     40  C   UNL     1      -6.361   9.426  -8.649  1.00  0.00     0.074 A 
ATOM     41  C   UNL     1      -8.071   9.414  -6.864  1.00  0.00     0.049 A 
ATOM     42  N   UNL     1      -6.247  10.708  -8.877  1.00  0.00    -0.248 NA
ATOM     43  C   UNL     1      -5.441   8.591  -9.441  1.00  0.00     0.031 C 
ATOM     44  C   UNL     1      -8.936   8.836  -5.833  1.00  0.00     0.029 A 
ATOM     45  N   UNL     1      -8.275  10.765  -6.751  1.00  0.00    -0.354 N 
ATOM     46  C   UNL     1      -5.221  10.838  -9.804  1.00  0.00     0.074 A 
ATOM     47  C   UNL     1      -4.725   9.507 -10.076  1.00  0.00     0.031 C 
ATOM     48  C   UNL     1      -9.588   9.826  -5.202  1.00  0.00     0.029 A 
ATOM     49  C   UNL     1      -9.177  11.107  -5.770  1.00  0.00     0.049 A 
ATOM     50  H   UNL     1      -7.820  11.428  -7.319  1.00  0.00     0.167 HD
ATOM     51  C   UNL     1      -4.755  11.962 -10.400  1.00  0.00     0.034 A 
ATOM     52  C   UNL     1      -9.628  12.316  -5.383  1.00  0.00     0.034 A 
ATOM     53  C   UNL     1      -5.298  13.273 -10.174  1.00  0.00     0.049 A 
ATOM     54  C   UNL     1      -9.139  13.542  -6.104  1.00  0.00     0.074 A 
ATOM     55  C   UNL     1      -4.982  14.458 -10.814  1.00  0.00     0.029 A 
ATOM     56  N   UNL     1      -6.269  13.573  -9.231  1.00  0.00    -0.354 N 
ATOM     57  N   UNL     1      -8.300  13.629  -7.108  1.00  0.00    -0.248 NA
ATOM     58  C   UNL     1      -9.685  14.834  -5.664  1.00  0.00     0.031 C 
ATOM     59  C   UNL     1      -5.757  15.478 -10.249  1.00  0.00     0.029 A 
ATOM     60  C   UNL     1      -6.558  14.926  -9.263  1.00  0.00     0.049 A 
ATOM     61  H   UNL     1      -6.690  12.920  -8.627  1.00  0.00     0.167 HD
ATOM     62  C   UNL     1      -8.244  14.976  -7.444  1.00  0.00     0.074 A 
ATOM     63  C   UNL     1      -9.147  15.668  -6.545  1.00  0.00     0.031 C 
ATOM     64  C   UNL     1      -7.502  15.589  -8.399  1.00  0.00     0.034 A 
BRANCH  51  65
ATOM     65  C   UNL     1      -3.643  11.806 -11.402  1.00  0.00     0.023 A 
ATOM     66  C   UNL     1      -3.922  11.244 -12.664  1.00  0.00     0.012 A 
ATOM     67  C   UNL     1      -2.335  12.241 -11.113  1.00  0.00     0.148 A 
ATOM     68  C   UNL     1      -2.911  11.083 -13.611  1.00  0.00     0.002 A 
ATOM     69  C   UNL     1      -1.340  12.113 -12.077  1.00  0.00     0.091 A 
ATOM     70  F   UNL     1      -2.079  12.746  -9.898  1.00  0.00    -0.205 F 
ATOM     71  C   UNL     1      -1.623  11.525 -13.321  1.00  0.00     0.022 A 
BRANCH  69  72
ATOM     72  S   UNL     1       0.330  12.720 -11.810  1.00  0.00     0.127 S 
ATOM     73  O   UNL     1       1.037  11.493 -11.450  1.00  0.00    -0.237 OA
ATOM     74  O   UNL     1       0.681  13.261 -13.124  1.00  0.00    -0.237 OA
ATOM     75  O   UNL     1       0.219  13.721 -10.759  1.00  0.00    -0.744 OA
ENDBRANCH  69  72
ENDBRANCH  51  65
BRANCH  52  76
ATOM     76  C   UNL     1     -10.679  12.410  -4.331  1.00  0.00     0.023 A 
ATOM     77  C   UNL     1     -11.992  12.750  -4.710  1.00  0.00     0.012 A 
ATOM     78  C   UNL     1     -10.406  12.120  -2.981  1.00  0.00     0.148 A 
ATOM     79  C   UNL     1     -13.012  12.820  -3.761  1.00  0.00     0.002 A 
ATOM     80  C   UNL     1     -11.437  12.146  -2.047  1.00  0.00     0.091 A 
ATOM     81  F   UNL     1      -9.147  11.812  -2.639  1.00  0.00    -0.205 F 
ATOM     82  C   UNL     1     -12.737  12.508  -2.433  1.00  0.00     0.022 A 
BRANCH  80  83
ATOM     83  S   UNL     1     -11.202  11.639  -0.340  1.00  0.00     0.127 S 
ATOM     84  O   UNL     1     -11.277  12.916   0.364  1.00  0.00    -0.237 OA
ATOM     85  O   UNL     1     -12.345  10.750  -0.128  1.00  0.00    -0.237 OA
ATOM     86  O   UNL     1      -9.909  10.970  -0.305  1.00  0.00    -0.744 OA
ENDBRANCH  80  83
ENDBRANCH  52  76
BRANCH  64  87
ATOM     87  C   UNL     1      -7.643  17.080  -8.542  1.00  0.00     0.023 A 
ATOM     88  C   UNL     1      -7.040  17.928  -7.592  1.00  0.00     0.012 A 
ATOM     89  C   UNL     1      -8.296  17.641  -9.657  1.00  0.00     0.148 A 
ATOM     90  C   UNL     1      -7.105  19.313  -7.738  1.00  0.00     0.002 A 
ATOM     91  C   UNL     1      -8.320  19.021  -9.818  1.00  0.00     0.091 A 
ATOM     92  F   UNL     1      -8.883  16.817 -10.537  1.00  0.00    -0.205 F 
ATOM     93  C   UNL     1      -7.733  19.859  -8.855  1.00  0.00     0.022 A 
BRANCH  91  94
ATOM     94  S   UNL     1      -9.025  19.799 -11.275  1.00  0.00     0.127 S 
ATOM     95  O   UNL     1     -10.319  20.259 -10.773  1.00  0.00    -0.237 OA
ATOM     96  O   UNL     1      -8.066  20.869 -11.558  1.00  0.00    -0.237 OA
ATOM     97  O   UNL     1      -9.078  18.758 -12.293  1.00  0.00    -0.744 OA
ENDBRANCH  91  94
ENDBRANCH  64  87
ENDBRANCH  38  39
ENDBRANCH  30  33
ENDBRANCH  28  29
ENDBRANCH  27  28
ENDBRANCH  26  27
ENDBRANCH  25  26
ENDBRANCH   1  25
TORSDOF 22
