REMARK SMILES CC(C)[C@@H](C[NH3+])C(=O)N1[C@@H](C(=O)NCCCCCCNC(=O)c2ccc(-c3c4nc(c(-c5cccc(S(=O)(=O)[O-])c5F)c5ccc([nH]5)c(-c5cccc(S(=O)(=O)[O-])c5F)c5nc(c(-c6cccc(S(=O)(=O)[O-])c6F)c6ccc3[nH]6)C=C5)C=C4)cc2)CC[C@H]2CCCC[C@H]21
REMARK SMILES IDX 16 1 15 2 14 3 13 4 11 5 12 6 10 8 9 9 93 10 86 11 88 12
REMARK SMILES IDX 92 13 87 14 89 15 91 16 90 17 7 18 8 19 4 20 2 21 1 22 3 23
REMARK SMILES IDX 5 24 6 25 17 29 18 30 19 31 20 32 21 33 22 35 23 36 24 37
REMARK SMILES IDX 85 38 25 39 84 40 26 41 27 42 28 43 78 44 29 45 83 46 77 47
REMARK SMILES IDX 79 48 30 49 82 50 76 51 75 52 31 54 63 55 43 56 62 57 44 58
REMARK SMILES IDX 47 59 61 60 80 61 45 62 46 63 60 65 81 66 48 67 32 68 33 69
REMARK SMILES IDX 41 70 34 71 36 72 42 73 35 74 37 75 38 76 39 77 40 78 64 79
REMARK SMILES IDX 65 80 73 81 66 82 68 83 74 84 67 85 69 86 70 87 71 88 72 89
REMARK SMILES IDX 49 90 50 91 58 92 51 93 53 94 59 95 52 96 54 97 55 98 56 99
REMARK SMILES IDX 57 100
REMARK H PARENT 13 7 6 26 6 27 6 28 20 34 79 53 47 64
REMARK Flexibility Score: inf
ROOT
ATOM      1  C   UNL     1       2.928   3.685   3.872  1.00  0.00     0.002 C 
ENDROOT
BRANCH   1   2
ATOM      2  C   UNL     1       2.207   2.880   4.960  1.00  0.00     0.021 C 
BRANCH   2   3
ATOM      3  C   UNL     1       1.230   1.847   4.411  1.00  0.00     0.116 C 
BRANCH   3   4
ATOM      4  N   UNL     1       1.945   0.772   3.748  1.00  0.00    -0.354 N 
ATOM      5  C   UNL     1       1.610  -0.539   3.608  1.00  0.00     0.242 C 
ATOM      6  O   UNL     1       2.476  -1.299   3.156  1.00  0.00    -0.273 OA
ATOM      7  H   UNL     1       2.801   1.030   3.337  1.00  0.00     0.163 HD
BRANCH   5   8
ATOM      8  C   UNL     1       0.286  -1.101   4.148  1.00  0.00     0.174 C 
ATOM      9  N   UNL     1      -0.957  -0.326   3.897  1.00  0.00    -0.327 N 
ATOM     10  C   UNL     1      -2.117  -0.807   4.689  1.00  0.00     0.089 C 
ATOM     11  C   UNL     1       0.582  -1.289   5.664  1.00  0.00     0.036 C 
ATOM     12  C   UNL     1      -1.846  -0.804   6.201  1.00  0.00     0.012 C 
ATOM     13  C   UNL     1      -3.502  -0.181   4.461  1.00  0.00     0.025 C 
ATOM     14  C   UNL     1      -0.616  -1.645   6.526  1.00  0.00     0.008 C 
ATOM     15  C   UNL     1      -1.802   0.613   6.796  1.00  0.00     0.006 C 
ATOM     16  C   UNL     1      -3.740   1.147   5.178  1.00  0.00     0.002 C 
ATOM     17  C   UNL     1      -2.559   1.670   5.990  1.00  0.00     0.000 C 
BRANCH   9  18
ATOM     18  C   UNL     1      -1.247   0.368   2.724  1.00  0.00     0.232 C 
ATOM     19  O   UNL     1      -1.863   1.442   2.814  1.00  0.00    -0.274 OA
BRANCH  18  20
ATOM     20  C   UNL     1      -0.928  -0.115   1.283  1.00  0.00     0.136 C 
BRANCH  20  21
ATOM     21  C   UNL     1       0.478   0.196   0.710  1.00  0.00     0.001 C 
ATOM     22  C   UNL     1       0.703  -0.286  -0.729  1.00  0.00     0.008 C 
ATOM     23  C   UNL     1       0.769   1.702   0.730  1.00  0.00     0.008 C 
ENDBRANCH  20  21
BRANCH  20  24
ATOM     24  C   UNL     1      -1.515  -1.503   0.989  1.00  0.00     0.272 C 
BRANCH  24  25
ATOM     25  N   UNL     1      -0.724  -2.640   1.438  1.00  0.00    -0.357 N 
ATOM     26  H   UNL     1       0.169  -2.649   0.945  1.00  0.00     0.344 HD
ATOM     27  H   UNL     1      -1.229  -3.504   1.244  1.00  0.00     0.344 HD
ATOM     28  H   UNL     1      -0.556  -2.562   2.442  1.00  0.00     0.344 HD
ENDBRANCH  24  25
ENDBRANCH  20  24
ENDBRANCH  18  20
ENDBRANCH   9  18
ENDBRANCH   5   8
ENDBRANCH   3   4
ENDBRANCH   2   3
ENDBRANCH   1   2
BRANCH   1  29
ATOM     29  C   UNL     1       2.017   4.531   2.978  1.00  0.00     0.002 C 
BRANCH  29  30
ATOM     30  C   UNL     1       1.092   5.496   3.716  1.00  0.00     0.021 C 
BRANCH  30  31
ATOM     31  C   UNL     1       1.802   6.416   4.699  1.00  0.00     0.116 C 
BRANCH  31  32
ATOM     32  N   UNL     1       2.855   7.193   4.063  1.00  0.00    -0.352 N 
ATOM     33  C   UNL     1       3.151   8.522   4.205  1.00  0.00     0.251 C 
ATOM     34  H   UNL     1       3.436   6.693   3.444  1.00  0.00     0.163 HD
ATOM     35  O   UNL     1       3.979   9.050   3.463  1.00  0.00    -0.269 OA
BRANCH  33  36
ATOM     36  C   UNL     1       2.455   9.319   5.234  1.00  0.00     0.039 A 
ATOM     37  C   UNL     1       1.974  10.583   4.889  1.00  0.00     0.014 A 
ATOM     38  C   UNL     1       2.264   8.818   6.526  1.00  0.00     0.014 A 
ATOM     39  C   UNL     1       1.263  11.326   5.830  1.00  0.00     0.010 A 
ATOM     40  C   UNL     1       1.480   9.523   7.433  1.00  0.00     0.010 A 
ATOM     41  C   UNL     1       0.984  10.790   7.100  1.00  0.00    -0.014 A 
BRANCH  41  42
ATOM     42  C   UNL     1       0.158  11.551   8.070  1.00  0.00     0.031 A 
ATOM     43  C   UNL     1       0.732  11.998   9.386  1.00  0.00     0.074 A 
ATOM     44  C   UNL     1      -1.134  11.802   7.777  1.00  0.00     0.049 A 
ATOM     45  N   UNL     1       0.172  12.717  10.325  1.00  0.00    -0.248 NA
ATOM     46  C   UNL     1       2.103  11.564   9.705  1.00  0.00     0.031 C 
ATOM     47  C   UNL     1      -1.835  11.332   6.579  1.00  0.00     0.029 A 
ATOM     48  N   UNL     1      -2.089  12.504   8.465  1.00  0.00    -0.354 N 
ATOM     49  C   UNL     1       1.107  12.800  11.350  1.00  0.00     0.074 A 
ATOM     50  C   UNL     1       2.254  12.021  10.939  1.00  0.00     0.031 C 
ATOM     51  C   UNL     1      -3.099  11.782   6.604  1.00  0.00     0.029 A 
ATOM     52  C   UNL     1      -3.307  12.548   7.828  1.00  0.00     0.049 A 
ATOM     53  H   UNL     1      -1.919  12.936   9.334  1.00  0.00     0.167 HD
ATOM     54  C   UNL     1       1.031  13.489  12.514  1.00  0.00     0.034 A 
ATOM     55  C   UNL     1      -4.459  13.146   8.186  1.00  0.00     0.034 A 
ATOM     56  C   UNL     1      -0.100  14.287  12.904  1.00  0.00     0.049 A 
ATOM     57  C   UNL     1      -4.497  13.950   9.456  1.00  0.00     0.074 A 
ATOM     58  C   UNL     1      -0.242  15.094  14.019  1.00  0.00     0.029 A 
ATOM     59  N   UNL     1      -1.291  14.369  12.199  1.00  0.00    -0.354 N 
ATOM     60  N   UNL     1      -3.542  14.164  10.328  1.00  0.00    -0.248 NA
ATOM     61  C   UNL     1      -5.760  14.632   9.768  1.00  0.00     0.031 C 
ATOM     62  C   UNL     1      -1.530  15.640  14.003  1.00  0.00     0.029 A 
ATOM     63  C   UNL     1      -2.179  15.202  12.860  1.00  0.00     0.049 A 
ATOM     64  H   UNL     1      -1.479  13.904  11.352  1.00  0.00     0.167 HD
ATOM     65  C   UNL     1      -4.078  15.026  11.277  1.00  0.00     0.074 A 
ATOM     66  C   UNL     1      -5.431  15.323  10.850  1.00  0.00     0.031 C 
ATOM     67  C   UNL     1      -3.510  15.515  12.408  1.00  0.00     0.034 A 
BRANCH  54  68
ATOM     68  C   UNL     1       2.229  13.449  13.429  1.00  0.00     0.023 A 
ATOM     69  C   UNL     1       3.418  14.108  13.051  1.00  0.00     0.012 A 
ATOM     70  C   UNL     1       2.165  12.811  14.683  1.00  0.00     0.148 A 
ATOM     71  C   UNL     1       4.533  14.102  13.887  1.00  0.00     0.002 A 
ATOM     72  C   UNL     1       3.265  12.850  15.533  1.00  0.00     0.091 A 
ATOM     73  F   UNL     1       1.036  12.171  15.018  1.00  0.00    -0.205 F 
ATOM     74  C   UNL     1       4.453  13.483  15.132  1.00  0.00     0.022 A 
BRANCH  72  75
ATOM     75  S   UNL     1       3.238  12.155  17.189  1.00  0.00     0.127 S 
ATOM     76  O   UNL     1       4.142  11.014  17.044  1.00  0.00    -0.237 OA
ATOM     77  O   UNL     1       3.770  13.255  17.992  1.00  0.00    -0.237 OA
ATOM     78  O   UNL     1       1.848  11.818  17.462  1.00  0.00    -0.744 OA
ENDBRANCH  72  75
ENDBRANCH  54  68
BRANCH  55  79
ATOM     79  C   UNL     1      -5.649  13.065   7.292  1.00  0.00     0.023 A 
ATOM     80  C   UNL     1      -6.091  14.219   6.616  1.00  0.00     0.012 A 
ATOM     81  C   UNL     1      -6.329  11.848   7.091  1.00  0.00     0.148 A 
ATOM     82  C   UNL     1      -7.211  14.171   5.785  1.00  0.00     0.002 A 
ATOM     83  C   UNL     1      -7.407  11.795   6.217  1.00  0.00     0.091 A 
ATOM     84  F   UNL     1      -5.898  10.764   7.751  1.00  0.00    -0.205 F 
ATOM     85  C   UNL     1      -7.862  12.959   5.578  1.00  0.00     0.022 A 
BRANCH  83  86
ATOM     86  S   UNL     1      -8.223  10.254   5.788  1.00  0.00     0.127 S 
ATOM     87  O   UNL     1      -9.521  10.411   6.438  1.00  0.00    -0.237 OA
ATOM     88  O   UNL     1      -8.252  10.325   4.326  1.00  0.00    -0.237 OA
ATOM     89  O   UNL     1      -7.373   9.197   6.321  1.00  0.00    -0.744 OA
ENDBRANCH  83  86
ENDBRANCH  55  79
BRANCH  67  90
ATOM     90  C   UNL     1      -4.347  16.441  13.254  1.00  0.00     0.023 A 
ATOM     91  C   UNL     1      -5.459  15.936  13.959  1.00  0.00     0.012 A 
ATOM     92  C   UNL     1      -4.015  17.804  13.376  1.00  0.00     0.148 A 
ATOM     93  C   UNL     1      -6.256  16.782  14.728  1.00  0.00     0.002 A 
ATOM     94  C   UNL     1      -4.782  18.631  14.189  1.00  0.00     0.091 A 
ATOM     95  F   UNL     1      -2.965  18.273  12.686  1.00  0.00    -0.205 F 
ATOM     96  C   UNL     1      -5.913  18.126  14.850  1.00  0.00     0.022 A 
BRANCH  94  97
ATOM     97  S   UNL     1      -4.355  20.350  14.483  1.00  0.00     0.127 S 
ATOM     98  O   UNL     1      -5.345  21.048  13.665  1.00  0.00    -0.237 OA
ATOM     99  O   UNL     1      -4.557  20.479  15.927  1.00  0.00    -0.237 OA
ATOM    100  O   UNL     1      -2.970  20.496  14.055  1.00  0.00    -0.744 OA
ENDBRANCH  94  97
ENDBRANCH  67  90
ENDBRANCH  41  42
ENDBRANCH  33  36
ENDBRANCH  31  32
ENDBRANCH  30  31
ENDBRANCH  29  30
ENDBRANCH   1  29
TORSDOF 21
