REMARK SMILES Cc1c(CC(=O)NCCCCCCNC(=O)c2ccc(-c3c4nc(c(-c5cccc(S(=O)(=O)[O-])c5F)c5ccc([nH]5)c(-c5cccc(S(=O)(=O)[O-])c5F)c5nc(c(-c6cccc(S(=O)(=O)[O-])c6F)c6ccc3[nH]6)C=C5)C=C4)cc2)cccc1-c1ccn(C(F)F)c(=O)c1
REMARK SMILES IDX 10 1 9 2 8 3 7 4 5 5 6 6 4 8 3 9 1 10 2 11 83 12 80 13 82 14
REMARK SMILES IDX 81 15 84 16 85 17 93 18 86 19 91 20 87 21 92 22 88 23 89 24
REMARK SMILES IDX 90 25 11 26 12 27 13 28 14 29 15 30 16 32 17 33 18 34 79 35
REMARK SMILES IDX 19 36 78 37 20 38 21 39 22 40 72 41 23 42 77 43 71 44 73 45
REMARK SMILES IDX 24 46 76 47 70 48 69 49 25 51 57 52 37 53 56 54 38 55 41 56
REMARK SMILES IDX 55 57 74 58 39 59 40 60 54 62 75 63 42 64 26 65 27 66 35 67
REMARK SMILES IDX 28 68 30 69 36 70 29 71 31 72 32 73 33 74 34 75 58 76 59 77
REMARK SMILES IDX 67 78 60 79 62 80 68 81 61 82 63 83 64 84 65 85 66 86 43 87
REMARK SMILES IDX 44 88 52 89 45 90 47 91 53 92 46 93 48 94 49 95 50 96 51 97
REMARK H PARENT 7 7 14 31 73 50 41 61
REMARK Flexibility Score: inf
ROOT
ATOM      1  C   UNL     1       0.390  -1.556   5.032  1.00  0.00     0.002 C 
ENDROOT
BRANCH   1   2
ATOM      2  C   UNL     1       0.579  -1.014   3.611  1.00  0.00     0.021 C 
BRANCH   2   3
ATOM      3  C   UNL     1       1.468  -1.878   2.720  1.00  0.00     0.116 C 
BRANCH   3   4
ATOM      4  N   UNL     1       0.795  -3.065   2.241  1.00  0.00    -0.356 N 
ATOM      5  C   UNL     1       0.511  -3.432   0.958  1.00  0.00     0.224 C 
ATOM      6  O   UNL     1      -0.036  -4.521   0.767  1.00  0.00    -0.275 OA
ATOM      7  H   UNL     1       0.501  -3.696   2.937  1.00  0.00     0.163 HD
BRANCH   5   8
ATOM      8  C   UNL     1       0.924  -2.546  -0.213  1.00  0.00     0.135 C 
BRANCH   8   9
ATOM      9  C   UNL     1       0.269  -1.176  -0.232  1.00  0.00    -0.035 A 
ATOM     10  C   UNL     1       2.513   0.006  -0.464  1.00  0.00     0.045 C 
ATOM     11  C   UNL     1       1.009   0.036  -0.295  1.00  0.00    -0.040 A 
ATOM     12  C   UNL     1       0.312   1.271  -0.215  1.00  0.00    -0.015 A 
ATOM     13  C   UNL     1      -1.136  -1.126  -0.161  1.00  0.00     0.004 A 
ATOM     14  C   UNL     1      -1.090   1.280  -0.128  1.00  0.00     0.009 A 
ATOM     15  C   UNL     1      -1.809   0.090  -0.110  1.00  0.00     0.001 A 
BRANCH  12  16
ATOM     16  C   UNL     1       1.019   2.570  -0.148  1.00  0.00    -0.011 A 
ATOM     17  C   UNL     1       1.780   3.121  -1.253  1.00  0.00     0.027 A 
ATOM     18  C   UNL     1       1.015   3.216   1.031  1.00  0.00     0.080 A 
ATOM     19  C   UNL     1       2.537   4.211  -1.076  1.00  0.00     0.095 A 
ATOM     20  C   UNL     1       1.835   4.441   1.236  1.00  0.00     0.255 A 
ATOM     21  N   UNL     1       2.583   4.855   0.146  1.00  0.00    -0.258 N 
ATOM     22  O   UNL     1       1.839   4.960   2.346  1.00  0.00    -0.269 OA
BRANCH  21  23
ATOM     23  C   UNL     1       3.440   5.995   0.345  1.00  0.00     0.451 C 
ATOM     24  F   UNL     1       2.735   7.095   0.691  1.00  0.00    -0.185 F 
ATOM     25  F   UNL     1       4.356   5.749   1.315  1.00  0.00    -0.185 F 
ENDBRANCH  21  23
ENDBRANCH  12  16
ENDBRANCH   8   9
ENDBRANCH   5   8
ENDBRANCH   3   4
ENDBRANCH   2   3
ENDBRANCH   1   2
BRANCH   1  26
ATOM     26  C   UNL     1       1.676  -1.913   5.797  1.00  0.00     0.002 C 
BRANCH  26  27
ATOM     27  C   UNL     1       2.828  -0.911   5.693  1.00  0.00     0.021 C 
BRANCH  27  28
ATOM     28  C   UNL     1       2.523   0.450   6.294  1.00  0.00     0.116 C 
BRANCH  28  29
ATOM     29  N   UNL     1       3.059   0.613   7.629  1.00  0.00    -0.352 N 
ATOM     30  C   UNL     1       3.095   1.742   8.423  1.00  0.00     0.251 C 
ATOM     31  H   UNL     1       3.454  -0.196   8.027  1.00  0.00     0.163 HD
ATOM     32  O   UNL     1       3.875   1.762   9.372  1.00  0.00    -0.269 OA
BRANCH  30  33
ATOM     33  C   UNL     1       2.095   2.822   8.226  1.00  0.00     0.039 A 
ATOM     34  C   UNL     1       1.472   3.324   9.377  1.00  0.00     0.014 A 
ATOM     35  C   UNL     1       1.590   3.144   6.970  1.00  0.00     0.014 A 
ATOM     36  C   UNL     1       0.209   3.900   9.283  1.00  0.00     0.010 A 
ATOM     37  C   UNL     1       0.310   3.639   6.874  1.00  0.00     0.010 A 
ATOM     38  C   UNL     1      -0.404   3.936   8.037  1.00  0.00    -0.014 A 
BRANCH  38  39
ATOM     39  C   UNL     1      -1.807   4.234   7.822  1.00  0.00     0.031 A 
ATOM     40  C   UNL     1      -2.237   5.627   7.653  1.00  0.00     0.074 A 
ATOM     41  C   UNL     1      -2.637   3.195   7.592  1.00  0.00     0.049 A 
ATOM     42  N   UNL     1      -3.450   6.037   7.781  1.00  0.00    -0.248 NA
ATOM     43  C   UNL     1      -1.286   6.687   7.352  1.00  0.00     0.031 C 
ATOM     44  C   UNL     1      -3.952   3.220   6.970  1.00  0.00     0.029 A 
ATOM     45  N   UNL     1      -2.507   1.887   8.072  1.00  0.00    -0.354 N 
ATOM     46  C   UNL     1      -3.492   7.335   7.311  1.00  0.00     0.074 A 
ATOM     47  C   UNL     1      -2.109   7.718   7.152  1.00  0.00     0.031 C 
ATOM     48  C   UNL     1      -4.613   2.105   7.321  1.00  0.00     0.029 A 
ATOM     49  C   UNL     1      -3.811   1.438   8.336  1.00  0.00     0.049 A 
ATOM     50  H   UNL     1      -1.671   1.383   8.200  1.00  0.00     0.167 HD
ATOM     51  C   UNL     1      -4.695   7.866   6.950  1.00  0.00     0.034 A 
ATOM     52  C   UNL     1      -4.245   1.086   9.583  1.00  0.00     0.034 A 
ATOM     53  C   UNL     1      -5.782   6.915   7.238  1.00  0.00     0.049 A 
ATOM     54  C   UNL     1      -5.421   1.926  10.047  1.00  0.00     0.074 A 
ATOM     55  C   UNL     1      -6.422   5.973   6.448  1.00  0.00     0.029 A 
ATOM     56  N   UNL     1      -6.121   6.619   8.554  1.00  0.00    -0.354 N 
ATOM     57  N   UNL     1      -5.829   3.008   9.444  1.00  0.00    -0.248 NA
ATOM     58  C   UNL     1      -6.209   1.631  11.241  1.00  0.00     0.031 C 
ATOM     59  C   UNL     1      -7.060   5.040   7.308  1.00  0.00     0.029 A 
ATOM     60  C   UNL     1      -6.844   5.435   8.618  1.00  0.00     0.049 A 
ATOM     61  H   UNL     1      -5.881   7.172   9.332  1.00  0.00     0.167 HD
ATOM     62  C   UNL     1      -6.796   3.621  10.193  1.00  0.00     0.074 A 
ATOM     63  C   UNL     1      -7.055   2.676  11.267  1.00  0.00     0.031 C 
ATOM     64  C   UNL     1      -7.251   4.880   9.906  1.00  0.00     0.034 A 
BRANCH  51  65
ATOM     65  C   UNL     1      -4.873   9.062   6.019  1.00  0.00     0.023 A 
ATOM     66  C   UNL     1      -6.101   9.153   5.323  1.00  0.00     0.012 A 
ATOM     67  C   UNL     1      -3.920  10.060   5.710  1.00  0.00     0.148 A 
ATOM     68  C   UNL     1      -6.328  10.090   4.308  1.00  0.00     0.002 A 
ATOM     69  C   UNL     1      -4.118  10.956   4.652  1.00  0.00     0.091 A 
ATOM     70  F   UNL     1      -2.850  10.225   6.492  1.00  0.00    -0.205 F 
ATOM     71  C   UNL     1      -5.321  10.967   3.943  1.00  0.00     0.022 A 
BRANCH  69  72
ATOM     72  S   UNL     1      -2.837  12.091   4.082  1.00  0.00     0.127 S 
ATOM     73  O   UNL     1      -2.791  11.808   2.645  1.00  0.00    -0.237 OA
ATOM     74  O   UNL     1      -3.400  13.396   4.423  1.00  0.00    -0.237 OA
ATOM     75  O   UNL     1      -1.622  11.726   4.800  1.00  0.00    -0.744 OA
ENDBRANCH  69  72
ENDBRANCH  51  65
BRANCH  52  76
ATOM     76  C   UNL     1      -3.157   0.571  10.472  1.00  0.00     0.023 A 
ATOM     77  C   UNL     1      -2.483  -0.600  10.047  1.00  0.00     0.012 A 
ATOM     78  C   UNL     1      -2.538   1.399  11.425  1.00  0.00     0.148 A 
ATOM     79  C   UNL     1      -1.163  -0.847  10.431  1.00  0.00     0.002 A 
ATOM     80  C   UNL     1      -1.223   1.140  11.810  1.00  0.00     0.091 A 
ATOM     81  F   UNL     1      -3.205   2.465  11.882  1.00  0.00    -0.205 F 
ATOM     82  C   UNL     1      -0.519   0.047  11.278  1.00  0.00     0.022 A 
BRANCH  80  83
ATOM     83  S   UNL     1      -0.342   2.267  12.899  1.00  0.00     0.127 S 
ATOM     84  O   UNL     1      -0.666   1.718  14.212  1.00  0.00    -0.237 OA
ATOM     85  O   UNL     1       1.050   2.090  12.489  1.00  0.00    -0.237 OA
ATOM     86  O   UNL     1      -0.891   3.578  12.588  1.00  0.00    -0.744 OA
ENDBRANCH  80  83
ENDBRANCH  52  76
BRANCH  64  87
ATOM     87  C   UNL     1      -8.127   5.704  10.826  1.00  0.00     0.023 A 
ATOM     88  C   UNL     1      -8.124   5.518  12.222  1.00  0.00     0.012 A 
ATOM     89  C   UNL     1      -8.874   6.801  10.327  1.00  0.00     0.148 A 
ATOM     90  C   UNL     1      -8.885   6.322  13.076  1.00  0.00     0.002 A 
ATOM     91  C   UNL     1      -9.539   7.667  11.192  1.00  0.00     0.091 A 
ATOM     92  F   UNL     1      -8.961   7.002   9.004  1.00  0.00    -0.205 F 
ATOM     93  C   UNL     1      -9.576   7.410  12.564  1.00  0.00     0.022 A 
BRANCH  91  94
ATOM     94  S   UNL     1     -10.234   9.216  10.598  1.00  0.00     0.127 S 
ATOM     95  O   UNL     1     -11.618   8.841  10.318  1.00  0.00    -0.237 OA
ATOM     96  O   UNL     1     -10.066  10.102  11.752  1.00  0.00    -0.237 OA
ATOM     97  O   UNL     1      -9.419   9.579   9.447  1.00  0.00    -0.744 OA
ENDBRANCH  91  94
ENDBRANCH  64  87
ENDBRANCH  38  39
ENDBRANCH  30  33
ENDBRANCH  28  29
ENDBRANCH  27  28
ENDBRANCH  26  27
ENDBRANCH   1  26
TORSDOF 19
