REMARK SMILES O=C(CCCN1C(=O)c2ccc3c4c(ccc(c24)C1=O)C(=O)NC3=O)NCCCCCCNC(=O)c1ccc(-c2c3nc(c(-c4cccc(S(=O)(=O)[O-])c4F)c4ccc([nH]4)c(-c4cccc(S(=O)(=O)[O-])c4F)c4nc(c(-c5cccc(S(=O)(=O)[O-])c5F)c5ccc2[nH]5)C=C4)C=C3)cc1
REMARK SMILES IDX 29 1 28 2 27 3 26 4 1 5 2 6 3 8 4 9 5 10 6 11 19 12 7 13
REMARK SMILES IDX 20 14 17 15 9 16 8 17 16 18 18 19 10 20 15 21 13 22 11 23
REMARK SMILES IDX 14 24 12 25 21 26 24 27 23 28 22 29 25 30 30 32 31 33 32 34
REMARK SMILES IDX 33 35 34 36 35 38 36 39 37 40 98 41 38 42 97 43 39 44 40 45
REMARK SMILES IDX 41 46 91 47 42 48 96 49 90 50 92 51 43 52 95 53 89 54 88 55
REMARK SMILES IDX 44 57 76 58 56 59 75 60 57 61 60 62 74 63 93 64 58 65 59 66
REMARK SMILES IDX 73 68 94 69 61 70 45 71 46 72 54 73 47 74 49 75 55 76 48 77
REMARK SMILES IDX 50 78 51 79 52 80 53 81 77 82 78 83 86 84 79 85 81 86 87 87
REMARK SMILES IDX 80 88 82 89 83 90 84 91 85 92 62 93 63 94 71 95 64 96 66 97
REMARK SMILES IDX 72 98 65 99 67 100 68 101 69 102 70 103
REMARK H PARENT 26 7 23 31 33 37 92 56 60 67
REMARK Flexibility Score: inf
ROOT
ATOM      1  C   UNL     1       4.066   0.898   3.557  1.00  0.00     0.002 C 
ENDROOT
BRANCH   1   2
ATOM      2  C   UNL     1       2.554   0.689   3.394  1.00  0.00     0.021 C 
BRANCH   2   3
ATOM      3  C   UNL     1       1.967   1.245   2.097  1.00  0.00     0.116 C 
BRANCH   3   4
ATOM      4  N   UNL     1       2.563   0.604   0.945  1.00  0.00    -0.356 N 
ATOM      5  O   UNL     1       0.642   0.462  -0.306  1.00  0.00    -0.275 OA
ATOM      6  C   UNL     1       1.843   0.260  -0.171  1.00  0.00     0.220 C 
ATOM      7  H   UNL     1       3.528   0.405   0.963  1.00  0.00     0.163 HD
BRANCH   6   8
ATOM      8  C   UNL     1       2.656  -0.467  -1.215  1.00  0.00     0.102 C 
BRANCH   8   9
ATOM      9  C   UNL     1       3.673   0.411  -1.947  1.00  0.00     0.032 C 
BRANCH   9  10
ATOM     10  C   UNL     1       4.985   0.750  -1.217  1.00  0.00     0.130 C 
BRANCH  10  11
ATOM     11  N   UNL     1       5.705  -0.319  -0.513  1.00  0.00    -0.274 N 
ATOM     12  C   UNL     1       6.645   0.091   0.442  1.00  0.00     0.261 C 
ATOM     13  C   UNL     1       5.656  -1.625  -0.985  1.00  0.00     0.261 C 
ATOM     14  O   UNL     1       6.851   1.265   0.737  1.00  0.00    -0.269 OA
ATOM     15  C   UNL     1       7.435  -0.967   1.124  1.00  0.00     0.049 A 
ATOM     16  C   UNL     1       6.201  -2.668  -0.095  1.00  0.00     0.049 A 
ATOM     17  O   UNL     1       5.223  -1.968  -2.080  1.00  0.00    -0.269 OA
ATOM     18  C   UNL     1       8.436  -0.624   2.042  1.00  0.00     0.015 A 
ATOM     19  C   UNL     1       7.130  -2.309   0.882  1.00  0.00     0.009 A 
ATOM     20  C   UNL     1       5.825  -4.004  -0.280  1.00  0.00     0.015 A 
ATOM     21  C   UNL     1       9.126  -1.624   2.731  1.00  0.00     0.015 A 
ATOM     22  C   UNL     1       7.781  -3.326   1.621  1.00  0.00     0.009 A 
ATOM     23  C   UNL     1       6.413  -5.002   0.492  1.00  0.00     0.015 A 
ATOM     24  C   UNL     1       8.789  -2.967   2.529  1.00  0.00     0.048 A 
ATOM     25  C   UNL     1       7.407  -4.664   1.417  1.00  0.00     0.048 A 
ATOM     26  C   UNL     1       9.509  -4.034   3.263  1.00  0.00     0.258 C 
ATOM     27  C   UNL     1       8.087  -5.732   2.184  1.00  0.00     0.258 C 
ATOM     28  N   UNL     1       9.081  -5.321   3.041  1.00  0.00    -0.288 N 
ATOM     29  O   UNL     1      10.444  -3.780   4.013  1.00  0.00    -0.269 OA
ATOM     30  O   UNL     1       7.790  -6.910   2.044  1.00  0.00    -0.269 OA
ATOM     31  H   UNL     1       9.537  -6.028   3.553  1.00  0.00     0.173 HD
ENDBRANCH  10  11
ENDBRANCH   9  10
ENDBRANCH   8   9
ENDBRANCH   6   8
ENDBRANCH   3   4
ENDBRANCH   2   3
ENDBRANCH   1   2
BRANCH   1  32
ATOM     32  C   UNL     1       4.533   2.356   3.502  1.00  0.00     0.002 C 
BRANCH  32  33
ATOM     33  C   UNL     1       3.874   3.284   4.525  1.00  0.00     0.021 C 
BRANCH  33  34
ATOM     34  C   UNL     1       4.019   2.845   5.978  1.00  0.00     0.116 C 
BRANCH  34  35
ATOM     35  N   UNL     1       5.407   2.804   6.410  1.00  0.00    -0.352 N 
ATOM     36  C   UNL     1       5.988   3.343   7.531  1.00  0.00     0.251 C 
ATOM     37  H   UNL     1       6.020   2.319   5.811  1.00  0.00     0.163 HD
ATOM     38  O   UNL     1       7.211   3.347   7.639  1.00  0.00    -0.269 OA
BRANCH  36  39
ATOM     39  C   UNL     1       5.147   3.938   8.595  1.00  0.00     0.039 A 
ATOM     40  C   UNL     1       5.545   5.148   9.167  1.00  0.00     0.014 A 
ATOM     41  C   UNL     1       3.979   3.308   9.034  1.00  0.00     0.014 A 
ATOM     42  C   UNL     1       4.744   5.752  10.139  1.00  0.00     0.010 A 
ATOM     43  C   UNL     1       3.142   3.951   9.945  1.00  0.00     0.010 A 
ATOM     44  C   UNL     1       3.519   5.176  10.515  1.00  0.00    -0.014 A 
BRANCH  44  45
ATOM     45  C   UNL     1       2.619   5.863  11.479  1.00  0.00     0.031 A 
ATOM     46  C   UNL     1       2.272   5.231  12.800  1.00  0.00     0.074 A 
ATOM     47  C   UNL     1       2.064   7.043  11.136  1.00  0.00     0.049 A 
ATOM     48  N   UNL     1       1.534   5.704  13.771  1.00  0.00    -0.248 NA
ATOM     49  C   UNL     1       2.801   3.882  13.056  1.00  0.00     0.031 C 
ATOM     50  C   UNL     1       2.252   7.724   9.853  1.00  0.00     0.029 A 
ATOM     51  N   UNL     1       1.221   7.874  11.831  1.00  0.00    -0.354 N 
ATOM     52  C   UNL     1       1.477   4.703  14.733  1.00  0.00     0.074 A 
ATOM     53  C   UNL     1       2.231   3.582  14.214  1.00  0.00     0.031 C 
ATOM     54  C   UNL     1       1.572   8.881   9.865  1.00  0.00     0.029 A 
ATOM     55  C   UNL     1       0.873   9.011  11.139  1.00  0.00     0.049 A 
ATOM     56  H   UNL     1       0.896   7.675  12.739  1.00  0.00     0.167 HD
ATOM     57  C   UNL     1       0.875   4.720  15.946  1.00  0.00     0.034 A 
ATOM     58  C   UNL     1       0.085  10.044  11.491  1.00  0.00     0.034 A 
ATOM     59  C   UNL     1       0.150   5.848  16.471  1.00  0.00     0.049 A 
ATOM     60  C   UNL     1      -0.544  10.054  12.858  1.00  0.00     0.074 A 
ATOM     61  C   UNL     1      -0.406   6.004  17.729  1.00  0.00     0.029 A 
ATOM     62  N   UNL     1      -0.141   7.003  15.762  1.00  0.00    -0.354 N 
ATOM     63  N   UNL     1      -0.435   9.175  13.824  1.00  0.00    -0.248 NA
ATOM     64  C   UNL     1      -1.374  11.219  13.194  1.00  0.00     0.031 C 
ATOM     65  C   UNL     1      -1.073   7.234  17.764  1.00  0.00     0.029 A 
ATOM     66  C   UNL     1      -0.891   7.866  16.544  1.00  0.00     0.049 A 
ATOM     67  H   UNL     1       0.145   7.185  14.837  1.00  0.00     0.167 HD
ATOM     68  C   UNL     1      -1.153   9.696  14.895  1.00  0.00     0.074 A 
ATOM     69  C   UNL     1      -1.667  10.980  14.465  1.00  0.00     0.031 C 
ATOM     70  C   UNL     1      -1.374   9.156  16.120  1.00  0.00     0.034 A 
BRANCH  57  71
ATOM     71  C   UNL     1       0.993   3.485  16.804  1.00  0.00     0.023 A 
ATOM     72  C   UNL     1       2.240   3.126  17.357  1.00  0.00     0.012 A 
ATOM     73  C   UNL     1      -0.140   2.700  17.099  1.00  0.00     0.148 A 
ATOM     74  C   UNL     1       2.368   1.985  18.148  1.00  0.00     0.002 A 
ATOM     75  C   UNL     1      -0.015   1.593  17.930  1.00  0.00     0.091 A 
ATOM     76  F   UNL     1      -1.315   3.041  16.550  1.00  0.00    -0.205 F 
ATOM     77  C   UNL     1       1.239   1.225  18.442  1.00  0.00     0.022 A 
BRANCH  75  78
ATOM     78  S   UNL     1      -1.424   0.600  18.436  1.00  0.00     0.127 S 
ATOM     79  O   UNL     1      -1.201  -0.633  17.682  1.00  0.00    -0.237 OA
ATOM     80  O   UNL     1      -1.212   0.478  19.879  1.00  0.00    -0.237 OA
ATOM     81  O   UNL     1      -2.607   1.360  18.059  1.00  0.00    -0.744 OA
ENDBRANCH  75  78
ENDBRANCH  57  71
BRANCH  58  82
ATOM     82  C   UNL     1      -0.090  11.198  10.564  1.00  0.00     0.023 A 
ATOM     83  C   UNL     1       0.485  12.441  10.895  1.00  0.00     0.012 A 
ATOM     84  C   UNL     1      -0.796  11.068   9.353  1.00  0.00     0.148 A 
ATOM     85  C   UNL     1       0.332  13.543  10.053  1.00  0.00     0.002 A 
ATOM     86  C   UNL     1      -0.896  12.154   8.491  1.00  0.00     0.091 A 
ATOM     87  F   UNL     1      -1.340   9.879   9.061  1.00  0.00    -0.205 F 
ATOM     88  C   UNL     1      -0.349  13.397   8.847  1.00  0.00     0.022 A 
BRANCH  86  89
ATOM     89  S   UNL     1      -1.642  12.030   6.863  1.00  0.00     0.127 S 
ATOM     90  O   UNL     1      -2.820  12.882   7.008  1.00  0.00    -0.237 OA
ATOM     91  O   UNL     1      -0.587  12.576   6.008  1.00  0.00    -0.237 OA
ATOM     92  O   UNL     1      -1.912  10.614   6.658  1.00  0.00    -0.744 OA
ENDBRANCH  86  89
ENDBRANCH  58  82
BRANCH  70  93
ATOM     93  C   UNL     1      -2.185   9.968  17.099  1.00  0.00     0.023 A 
ATOM     94  C   UNL     1      -3.561  10.177  16.876  1.00  0.00     0.012 A 
ATOM     95  C   UNL     1      -1.589  10.496  18.262  1.00  0.00     0.148 A 
ATOM     96  C   UNL     1      -4.318  10.940  17.765  1.00  0.00     0.002 A 
ATOM     97  C   UNL     1      -2.362  11.207  19.173  1.00  0.00     0.091 A 
ATOM     98  F   UNL     1      -0.275  10.305  18.453  1.00  0.00    -0.205 F 
ATOM     99  C   UNL     1      -3.721  11.446  18.917  1.00  0.00     0.022 A 
BRANCH  97 100
ATOM    100  S   UNL     1      -1.701  11.809  20.731  1.00  0.00     0.127 S 
ATOM    101  O   UNL     1      -1.608  13.246  20.481  1.00  0.00    -0.237 OA
ATOM    102  O   UNL     1      -2.745  11.421  21.681  1.00  0.00    -0.237 OA
ATOM    103  O   UNL     1      -0.430  11.122  20.919  1.00  0.00    -0.744 OA
ENDBRANCH  97 100
ENDBRANCH  70  93
ENDBRANCH  44  45
ENDBRANCH  36  39
ENDBRANCH  34  35
ENDBRANCH  33  34
ENDBRANCH  32  33
ENDBRANCH   1  32
TORSDOF 19
