REMARK SMILES C[NH2+]CCC(=O)N1CC[C@@H](C(=O)NCCCCCCNC(=O)c2ccc(-c3c4nc(c(-c5cccc(S(=O)(=O)[O-])c5F)c5ccc([nH]5)c(-c5cccc(S(=O)(=O)[O-])c5F)c5nc(c(-c6cccc(S(=O)(=O)[O-])c6F)c6ccc3[nH]6)C=C5)C=C4)cc2)[C@@H]1C
REMARK SMILES IDX 16 1 15 2 14 3 13 4 11 5 12 6 10 8 7 9 8 10 86 11 9 12 87 13
REMARK SMILES IDX 5 14 6 15 4 16 3 17 2 18 1 19 17 22 18 23 19 24 20 25 21 26
REMARK SMILES IDX 22 28 23 29 24 30 85 31 25 32 84 33 26 34 27 35 28 36 78 37
REMARK SMILES IDX 29 38 83 39 77 40 79 41 30 42 82 43 76 44 75 45 31 47 63 48
REMARK SMILES IDX 43 49 62 50 44 51 47 52 61 53 80 54 45 55 46 56 60 58 81 59
REMARK SMILES IDX 48 60 32 61 33 62 41 63 34 64 36 65 42 66 35 67 37 68 38 69
REMARK SMILES IDX 39 70 40 71 64 72 65 73 73 74 66 75 68 76 74 77 67 78 69 79
REMARK SMILES IDX 70 80 71 81 72 82 49 83 50 84 58 85 51 86 53 87 59 88 52 89
REMARK SMILES IDX 54 90 55 91 56 92 57 93
REMARK H PARENT 13 7 2 20 2 21 20 27 79 46 47 57
REMARK Flexibility Score: inf
ROOT
ATOM      1  C   UNL     1       2.555   1.177  -2.811  1.00  0.00     0.002 C 
ENDROOT
BRANCH   1   2
ATOM      2  C   UNL     1       1.851   0.310  -1.765  1.00  0.00     0.021 C 
BRANCH   2   3
ATOM      3  C   UNL     1       2.343  -1.131  -1.664  1.00  0.00     0.116 C 
BRANCH   3   4
ATOM      4  N   UNL     1       3.542  -1.209  -0.850  1.00  0.00    -0.356 N 
ATOM      5  C   UNL     1       3.824  -1.929   0.265  1.00  0.00     0.225 C 
ATOM      6  O   UNL     1       4.917  -1.722   0.805  1.00  0.00    -0.275 OA
ATOM      7  H   UNL     1       4.282  -0.638  -1.162  1.00  0.00     0.163 HD
BRANCH   5   8
ATOM      8  C   UNL     1       2.867  -2.942   0.873  1.00  0.00     0.102 C 
ATOM      9  N   UNL     1       0.496  -3.102   0.833  1.00  0.00    -0.339 N 
ATOM     10  C   UNL     1       0.995  -4.380   0.374  1.00  0.00     0.120 C 
ATOM     11  C   UNL     1       1.573  -2.315   1.424  1.00  0.00     0.094 C 
ATOM     12  C   UNL     1       2.425  -4.080  -0.054  1.00  0.00     0.037 C 
ATOM     13  C   UNL     1       1.542  -2.466   2.954  1.00  0.00     0.032 C 
BRANCH   9  14
ATOM     14  C   UNL     1      -0.858  -2.853   0.907  1.00  0.00     0.228 C 
ATOM     15  O   UNL     1      -1.672  -3.767   1.042  1.00  0.00    -0.275 OA
BRANCH  14  16
ATOM     16  C   UNL     1      -1.323  -1.435   0.623  1.00  0.00     0.161 C 
BRANCH  16  17
ATOM     17  C   UNL     1      -1.641  -0.542   1.823  1.00  0.00     0.270 C 
BRANCH  17  18
ATOM     18  N   UNL     1      -0.556   0.276   2.378  1.00  0.00    -0.348 N 
ATOM     19  C   UNL     1       0.023   1.218   1.438  1.00  0.00     0.330 C 
ATOM     20  H   UNL     1      -0.925   0.802   3.170  1.00  0.00     0.346 HD
ATOM     21  H   UNL     1       0.190  -0.368   2.643  1.00  0.00     0.346 HD
ENDBRANCH  17  18
ENDBRANCH  16  17
ENDBRANCH  14  16
ENDBRANCH   9  14
ENDBRANCH   5   8
ENDBRANCH   3   4
ENDBRANCH   2   3
ENDBRANCH   1   2
BRANCH   1  22
ATOM     22  C   UNL     1       2.388   0.734  -4.266  1.00  0.00     0.002 C 
BRANCH  22  23
ATOM     23  C   UNL     1       0.951   0.479  -4.727  1.00  0.00     0.021 C 
BRANCH  23  24
ATOM     24  C   UNL     1      -0.037   1.614  -4.469  1.00  0.00     0.116 C 
BRANCH  24  25
ATOM     25  N   UNL     1       0.353   2.855  -5.120  1.00  0.00    -0.352 N 
ATOM     26  C   UNL     1      -0.289   3.569  -6.098  1.00  0.00     0.251 C 
ATOM     27  H   UNL     1       1.206   3.240  -4.811  1.00  0.00     0.163 HD
ATOM     28  O   UNL     1       0.287   4.511  -6.647  1.00  0.00    -0.269 OA
BRANCH  26  29
ATOM     29  C   UNL     1      -1.659   3.202  -6.510  1.00  0.00     0.039 A 
ATOM     30  C   UNL     1      -1.957   3.116  -7.873  1.00  0.00     0.014 A 
ATOM     31  C   UNL     1      -2.651   2.949  -5.558  1.00  0.00     0.014 A 
ATOM     32  C   UNL     1      -3.233   2.716  -8.280  1.00  0.00     0.010 A 
ATOM     33  C   UNL     1      -3.897   2.478  -5.964  1.00  0.00     0.010 A 
ATOM     34  C   UNL     1      -4.204   2.363  -7.328  1.00  0.00    -0.014 A 
BRANCH  34  35
ATOM     35  C   UNL     1      -5.543   1.867  -7.738  1.00  0.00     0.031 A 
ATOM     36  C   UNL     1      -6.781   2.646  -7.384  1.00  0.00     0.074 A 
ATOM     37  C   UNL     1      -5.652   0.675  -8.357  1.00  0.00     0.049 A 
ATOM     38  N   UNL     1      -8.035   2.351  -7.609  1.00  0.00    -0.248 NA
ATOM     39  C   UNL     1      -6.585   3.912  -6.657  1.00  0.00     0.031 C 
ATOM     40  C   UNL     1      -4.534  -0.207  -8.698  1.00  0.00     0.029 A 
ATOM     41  N   UNL     1      -6.759  -0.011  -8.792  1.00  0.00    -0.354 N 
ATOM     42  C   UNL     1      -8.777   3.372  -7.027  1.00  0.00     0.074 A 
ATOM     43  C   UNL     1      -7.834   4.273  -6.401  1.00  0.00     0.031 C 
ATOM     44  C   UNL     1      -5.010  -1.308  -9.301  1.00  0.00     0.029 A 
ATOM     45  C   UNL     1      -6.465  -1.228  -9.362  1.00  0.00     0.049 A 
ATOM     46  H   UNL     1      -7.676   0.336  -8.703  1.00  0.00     0.167 HD
ATOM     47  C   UNL     1     -10.118   3.564  -7.039  1.00  0.00     0.034 A 
ATOM     48  C   UNL     1      -7.278  -2.172  -9.876  1.00  0.00     0.034 A 
ATOM     49  C   UNL     1     -11.050   2.684  -7.691  1.00  0.00     0.049 A 
ATOM     50  C   UNL     1      -8.764  -1.931  -9.888  1.00  0.00     0.074 A 
ATOM     51  C   UNL     1     -12.420   2.827  -7.826  1.00  0.00     0.029 A 
ATOM     52  N   UNL     1     -10.710   1.492  -8.312  1.00  0.00    -0.354 N 
ATOM     53  N   UNL     1      -9.435  -0.887  -9.465  1.00  0.00    -0.248 NA
ATOM     54  C   UNL     1      -9.601  -2.984 -10.479  1.00  0.00     0.031 C 
ATOM     55  C   UNL     1     -12.911   1.708  -8.509  1.00  0.00     0.029 A 
ATOM     56  C   UNL     1     -11.843   0.882  -8.824  1.00  0.00     0.049 A 
ATOM     57  H   UNL     1      -9.797   1.131  -8.380  1.00  0.00     0.167 HD
ATOM     58  C   UNL     1     -10.766  -1.138  -9.776  1.00  0.00     0.074 A 
ATOM     59  C   UNL     1     -10.804  -2.427 -10.437  1.00  0.00     0.031 C 
ATOM     60  C   UNL     1     -11.860  -0.376  -9.527  1.00  0.00     0.034 A 
BRANCH  47  61
ATOM     61  C   UNL     1     -10.647   4.804  -6.364  1.00  0.00     0.023 A 
ATOM     62  C   UNL     1     -10.393   6.068  -6.937  1.00  0.00     0.012 A 
ATOM     63  C   UNL     1     -11.415   4.725  -5.186  1.00  0.00     0.148 A 
ATOM     64  C   UNL     1     -10.851   7.234  -6.324  1.00  0.00     0.002 A 
ATOM     65  C   UNL     1     -11.909   5.889  -4.607  1.00  0.00     0.091 A 
ATOM     66  F   UNL     1     -11.632   3.519  -4.641  1.00  0.00    -0.205 F 
ATOM     67  C   UNL     1     -11.616   7.144  -5.165  1.00  0.00     0.022 A 
BRANCH  65  68
ATOM     68  S   UNL     1     -12.971   5.871  -3.158  1.00  0.00     0.127 S 
ATOM     69  O   UNL     1     -12.055   6.328  -2.115  1.00  0.00    -0.237 OA
ATOM     70  O   UNL     1     -14.009   6.837  -3.522  1.00  0.00    -0.237 OA
ATOM     71  O   UNL     1     -13.442   4.500  -3.026  1.00  0.00    -0.744 OA
ENDBRANCH  65  68
ENDBRANCH  47  61
BRANCH  48  72
ATOM     72  C   UNL     1      -6.697  -3.393 -10.504  1.00  0.00     0.023 A 
ATOM     73  C   UNL     1      -6.770  -3.543 -11.903  1.00  0.00     0.012 A 
ATOM     74  C   UNL     1      -6.049  -4.382  -9.740  1.00  0.00     0.148 A 
ATOM     75  C   UNL     1      -6.235  -4.670 -12.527  1.00  0.00     0.002 A 
ATOM     76  C   UNL     1      -5.471  -5.477 -10.373  1.00  0.00     0.091 A 
ATOM     77  F   UNL     1      -5.997  -4.224  -8.410  1.00  0.00    -0.205 F 
ATOM     78  C   UNL     1      -5.577  -5.631 -11.764  1.00  0.00     0.022 A 
BRANCH  76  79
ATOM     79  S   UNL     1      -4.494  -6.700  -9.492  1.00  0.00     0.127 S 
ATOM     80  O   UNL     1      -5.340  -7.887  -9.591  1.00  0.00    -0.237 OA
ATOM     81  O   UNL     1      -3.272  -6.745 -10.296  1.00  0.00    -0.237 OA
ATOM     82  O   UNL     1      -4.311  -6.166  -8.149  1.00  0.00    -0.744 OA
ENDBRANCH  76  79
ENDBRANCH  48  72
BRANCH  60  83
ATOM     83  C   UNL     1     -13.194  -0.888 -10.007  1.00  0.00     0.023 A 
ATOM     84  C   UNL     1     -13.806  -1.975  -9.351  1.00  0.00     0.012 A 
ATOM     85  C   UNL     1     -13.873  -0.245 -11.061  1.00  0.00     0.148 A 
ATOM     86  C   UNL     1     -15.059  -2.433  -9.758  1.00  0.00     0.002 A 
ATOM     87  C   UNL     1     -15.142  -0.674 -11.427  1.00  0.00     0.091 A 
ATOM     88  F   UNL     1     -13.265   0.775 -11.685  1.00  0.00    -0.205 F 
ATOM     89  C   UNL     1     -15.732  -1.776 -10.786  1.00  0.00     0.022 A 
BRANCH  87  90
ATOM     90  S   UNL     1     -16.124   0.171 -12.672  1.00  0.00     0.127 S 
ATOM     91  O   UNL     1     -16.083  -0.781 -13.781  1.00  0.00    -0.237 OA
ATOM     92  O   UNL     1     -17.426   0.287 -12.015  1.00  0.00    -0.237 OA
ATOM     93  O   UNL     1     -15.455   1.442 -12.915  1.00  0.00    -0.744 OA
ENDBRANCH  87  90
ENDBRANCH  60  83
ENDBRANCH  34  35
ENDBRANCH  26  29
ENDBRANCH  24  25
ENDBRANCH  23  24
ENDBRANCH  22  23
ENDBRANCH   1  22
TORSDOF 20
