REMARK SMILES COc1cc([C@@H]2CC(=O)Nc3c(C(=O)NCCCCCCNC(=O)c4ccc(-c5c6nc(c(-c7cccc(S(=O)(=O)[O-])c7F)c7ccc([nH]7)c(-c7cccc(S(=O)(=O)[O-])c7F)c7nc(c(-c8cccc(S(=O)(=O)[O-])c8F)c8ccc5[nH]8)C=C7)C=C6)cc4)cn(-c4ccccc4)c32)cc(OC)c1OC
REMARK SMILES IDX 19 1 18 2 17 3 16 4 15 5 13 6 14 7 12 9 6 10 7 11 96 12 8 13
REMARK SMILES IDX 11 14 89 15 9 16 10 17 88 18 5 20 3 21 4 22 101 23 98 24
REMARK SMILES IDX 97 25 2 26 1 27 102 28 103 29 99 30 100 31 90 32 91 33 95 34
REMARK SMILES IDX 92 35 94 36 93 37 20 38 21 39 22 40 23 41 24 43 25 44 26 45
REMARK SMILES IDX 87 46 27 47 86 48 28 49 29 50 30 51 80 52 31 53 85 54 79 55
REMARK SMILES IDX 81 56 32 57 84 58 78 59 77 60 33 62 65 63 45 64 64 65 46 66
REMARK SMILES IDX 49 67 63 68 82 69 47 70 48 71 62 73 83 74 50 75 34 76 35 77
REMARK SMILES IDX 43 78 36 79 38 80 44 81 37 82 39 83 40 84 41 85 42 86 66 87
REMARK SMILES IDX 67 88 75 89 68 90 70 91 76 92 69 93 71 94 72 95 73 96 74 97
REMARK SMILES IDX 51 98 52 99 60 100 53 101 55 102 61 103 54 104 56 105 57 106
REMARK SMILES IDX 58 107 59 108
REMARK H PARENT 15 8 10 19 22 42 81 61 49 72
REMARK Flexibility Score: inf
ROOT
ATOM      1  C   UNL     1       3.121  11.265  -7.143  1.00  0.00     0.002 C 
ENDROOT
BRANCH   1   2
ATOM      2  C   UNL     1       1.603  11.018  -7.104  1.00  0.00     0.002 C 
BRANCH   2   3
ATOM      3  C   UNL     1       1.187   9.736  -6.378  1.00  0.00     0.021 C 
BRANCH   3   4
ATOM      4  C   UNL     1       1.640   9.706  -4.914  1.00  0.00     0.116 C 
BRANCH   4   5
ATOM      5  N   UNL     1       0.599  10.214  -4.065  1.00  0.00    -0.352 N 
ATOM      6  C   UNL     1      -0.379   9.607  -3.331  1.00  0.00     0.254 C 
ATOM      7  O   UNL     1      -1.093  10.387  -2.690  1.00  0.00    -0.269 OA
ATOM      8  H   UNL     1       0.588  11.197  -4.000  1.00  0.00     0.163 HD
BRANCH   6   9
ATOM      9  C   UNL     1      -0.560   8.153  -3.209  1.00  0.00     0.081 A 
ATOM     10  C   UNL     1      -0.457   4.419  -3.617  1.00  0.00     0.078 C 
ATOM     11  C   UNL     1      -0.097   4.362  -5.109  1.00  0.00     0.115 C 
ATOM     12  C   UNL     1      -0.617   5.857  -3.183  1.00  0.00     0.055 A 
ATOM     13  C   UNL     1       0.820   5.482  -5.547  1.00  0.00     0.225 C 
ATOM     14  C   UNL     1      -0.148   6.957  -3.882  1.00  0.00     0.076 A 
ATOM     15  N   UNL     1      -1.428   6.318  -2.173  1.00  0.00    -0.317 N 
ATOM     16  O   UNL     1       1.692   5.343  -6.403  1.00  0.00    -0.275 OA
ATOM     17  N   UNL     1       0.576   6.726  -5.027  1.00  0.00    -0.324 N 
ATOM     18  C   UNL     1      -1.411   7.687  -2.207  1.00  0.00     0.107 A 
ATOM     19  H   UNL     1       0.944   7.504  -5.504  1.00  0.00     0.170 HD
BRANCH  10  20
ATOM     20  C   UNL     1       0.553   3.603  -2.813  1.00  0.00    -0.031 A 
ATOM     21  C   UNL     1       1.158   1.492  -1.730  1.00  0.00     0.164 A 
ATOM     22  C   UNL     1       0.226   2.301  -2.401  1.00  0.00     0.055 A 
ATOM     23  C   UNL     1       2.469   1.942  -1.496  1.00  0.00     0.203 A 
ATOM     24  C   UNL     1       2.798   3.255  -1.901  1.00  0.00     0.164 A 
ATOM     25  C   UNL     1       1.841   4.068  -2.536  1.00  0.00     0.055 A 
BRANCH  21  26
ATOM     26  O   UNL     1       0.753   0.215  -1.432  1.00  0.00    -0.493 OA
ATOM     27  C   UNL     1       0.034   0.155  -0.201  1.00  0.00     0.278 C 
ENDBRANCH  21  26
BRANCH  23  28
ATOM     28  O   UNL     1       3.477   1.223  -0.915  1.00  0.00    -0.490 OA
ATOM     29  C   UNL     1       3.258  -0.069  -0.385  1.00  0.00     0.278 C 
ENDBRANCH  23  28
BRANCH  24  30
ATOM     30  O   UNL     1       3.994   3.916  -1.743  1.00  0.00    -0.493 OA
ATOM     31  C   UNL     1       5.161   3.155  -1.470  1.00  0.00     0.278 C 
ENDBRANCH  24  30
ENDBRANCH  10  20
BRANCH  15  32
ATOM     32  C   UNL     1      -2.246   5.549  -1.322  1.00  0.00     0.045 A 
ATOM     33  C   UNL     1      -1.696   4.499  -0.586  1.00  0.00     0.026 A 
ATOM     34  C   UNL     1      -3.621   5.798  -1.298  1.00  0.00     0.026 A 
ATOM     35  C   UNL     1      -2.535   3.634   0.109  1.00  0.00     0.002 A 
ATOM     36  C   UNL     1      -4.456   4.922  -0.608  1.00  0.00     0.002 A 
ATOM     37  C   UNL     1      -3.915   3.832   0.079  1.00  0.00     0.000 A 
ENDBRANCH  15  32
ENDBRANCH   6   9
ENDBRANCH   4   5
ENDBRANCH   3   4
ENDBRANCH   2   3
ENDBRANCH   1   2
BRANCH   1  38
ATOM     38  C   UNL     1       3.972  10.109  -7.692  1.00  0.00     0.021 C 
BRANCH  38  39
ATOM     39  C   UNL     1       3.811   9.944  -9.191  1.00  0.00     0.116 C 
BRANCH  39  40
ATOM     40  N   UNL     1       4.354  11.101  -9.915  1.00  0.00    -0.352 N 
ATOM     41  C   UNL     1       4.442  11.304 -11.280  1.00  0.00     0.251 C 
ATOM     42  H   UNL     1       4.702  11.829  -9.352  1.00  0.00     0.163 HD
ATOM     43  O   UNL     1       5.176  12.153 -11.749  1.00  0.00    -0.269 OA
BRANCH  41  44
ATOM     44  C   UNL     1       3.600  10.464 -12.146  1.00  0.00     0.039 A 
ATOM     45  C   UNL     1       4.079   9.912 -13.336  1.00  0.00     0.014 A 
ATOM     46  C   UNL     1       2.315  10.195 -11.691  1.00  0.00     0.014 A 
ATOM     47  C   UNL     1       3.256   9.034 -14.034  1.00  0.00     0.010 A 
ATOM     48  C   UNL     1       1.617   9.164 -12.242  1.00  0.00     0.010 A 
ATOM     49  C   UNL     1       2.027   8.664 -13.469  1.00  0.00    -0.014 A 
BRANCH  49  50
ATOM     50  C   UNL     1       1.145   7.700 -14.103  1.00  0.00     0.031 A 
ATOM     51  C   UNL     1       1.762   6.376 -14.362  1.00  0.00     0.074 A 
ATOM     52  C   UNL     1      -0.181   7.937 -14.217  1.00  0.00     0.049 A 
ATOM     53  N   UNL     1       2.045   5.858 -15.511  1.00  0.00    -0.248 NA
ATOM     54  C   UNL     1       2.269   5.602 -13.217  1.00  0.00     0.031 C 
ATOM     55  C   UNL     1      -0.952   9.087 -13.709  1.00  0.00     0.029 A 
ATOM     56  N   UNL     1      -1.158   7.114 -14.673  1.00  0.00    -0.354 N 
ATOM     57  C   UNL     1       2.526   4.581 -15.234  1.00  0.00     0.074 A 
ATOM     58  C   UNL     1       2.846   4.566 -13.831  1.00  0.00     0.031 C 
ATOM     59  C   UNL     1      -2.259   8.758 -13.632  1.00  0.00     0.029 A 
ATOM     60  C   UNL     1      -2.439   7.468 -14.264  1.00  0.00     0.049 A 
ATOM     61  H   UNL     1      -0.975   6.332 -15.243  1.00  0.00     0.167 HD
ATOM     62  C   UNL     1       2.358   3.561 -16.120  1.00  0.00     0.034 A 
ATOM     63  C   UNL     1      -3.563   6.725 -14.395  1.00  0.00     0.034 A 
ATOM     64  C   UNL     1       1.943   4.051 -17.412  1.00  0.00     0.049 A 
ATOM     65  C   UNL     1      -3.307   5.753 -15.481  1.00  0.00     0.074 A 
ATOM     66  C   UNL     1       2.474   4.908 -18.354  1.00  0.00     0.029 A 
ATOM     67  N   UNL     1       0.601   3.959 -17.697  1.00  0.00    -0.354 N 
ATOM     68  N   UNL     1      -3.082   6.110 -16.716  1.00  0.00    -0.248 NA
ATOM     69  C   UNL     1      -2.822   4.434 -15.112  1.00  0.00     0.031 C 
ATOM     70  C   UNL     1       1.357   5.647 -18.846  1.00  0.00     0.029 A 
ATOM     71  C   UNL     1       0.203   5.156 -18.230  1.00  0.00     0.049 A 
ATOM     72  H   UNL     1       0.029   3.172 -17.546  1.00  0.00     0.167 HD
ATOM     73  C   UNL     1      -2.037   5.291 -17.127  1.00  0.00     0.074 A 
ATOM     74  C   UNL     1      -2.000   4.208 -16.142  1.00  0.00     0.031 C 
ATOM     75  C   UNL     1      -1.117   5.723 -18.042  1.00  0.00     0.034 A 
BRANCH  62  76
ATOM     76  C   UNL     1       2.172   2.108 -15.749  1.00  0.00     0.023 A 
ATOM     77  C   UNL     1       2.203   1.166 -16.802  1.00  0.00     0.012 A 
ATOM     78  C   UNL     1       1.688   1.658 -14.499  1.00  0.00     0.148 A 
ATOM     79  C   UNL     1       1.722  -0.137 -16.636  1.00  0.00     0.002 A 
ATOM     80  C   UNL     1       1.280   0.341 -14.319  1.00  0.00     0.091 A 
ATOM     81  F   UNL     1       1.485   2.528 -13.507  1.00  0.00    -0.205 F 
ATOM     82  C   UNL     1       1.265  -0.552 -15.392  1.00  0.00     0.022 A 
BRANCH  80  83
ATOM     83  S   UNL     1       0.707  -0.261 -12.726  1.00  0.00     0.127 S 
ATOM     84  O   UNL     1      -0.730  -0.377 -12.959  1.00  0.00    -0.237 OA
ATOM     85  O   UNL     1       1.422  -1.533 -12.613  1.00  0.00    -0.237 OA
ATOM     86  O   UNL     1       1.122   0.745 -11.757  1.00  0.00    -0.744 OA
ENDBRANCH  80  83
ENDBRANCH  62  76
BRANCH  63  87
ATOM     87  C   UNL     1      -4.692   6.604 -13.446  1.00  0.00     0.023 A 
ATOM     88  C   UNL     1      -5.955   6.174 -13.893  1.00  0.00     0.012 A 
ATOM     89  C   UNL     1      -4.461   6.662 -12.051  1.00  0.00     0.148 A 
ATOM     90  C   UNL     1      -6.951   5.798 -12.981  1.00  0.00     0.002 A 
ATOM     91  C   UNL     1      -5.454   6.296 -11.149  1.00  0.00     0.091 A 
ATOM     92  F   UNL     1      -3.239   6.997 -11.616  1.00  0.00    -0.205 F 
ATOM     93  C   UNL     1      -6.699   5.852 -11.611  1.00  0.00     0.022 A 
BRANCH  91  94
ATOM     94  S   UNL     1      -5.197   6.327  -9.368  1.00  0.00     0.127 S 
ATOM     95  O   UNL     1      -6.326   7.141  -8.917  1.00  0.00    -0.237 OA
ATOM     96  O   UNL     1      -5.289   4.911  -9.021  1.00  0.00    -0.237 OA
ATOM     97  O   UNL     1      -3.893   6.941  -9.159  1.00  0.00    -0.744 OA
ENDBRANCH  91  94
ENDBRANCH  63  87
BRANCH  75  98
ATOM     98  C   UNL     1      -1.381   7.037 -18.743  1.00  0.00     0.023 A 
ATOM     99  C   UNL     1      -1.378   8.272 -18.059  1.00  0.00     0.012 A 
ATOM    100  C   UNL     1      -1.454   7.046 -20.145  1.00  0.00     0.148 A 
ATOM    101  C   UNL     1      -1.466   9.484 -18.752  1.00  0.00     0.002 A 
ATOM    102  C   UNL     1      -1.501   8.252 -20.834  1.00  0.00     0.091 A 
ATOM    103  F   UNL     1      -1.437   5.867 -20.784  1.00  0.00    -0.205 F 
ATOM    104  C   UNL     1      -1.516   9.474 -20.142  1.00  0.00     0.022 A 
BRANCH 102 105
ATOM    105  S   UNL     1      -1.448   8.319 -22.626  1.00  0.00     0.127 S 
ATOM    106  O   UNL     1      -2.802   8.762 -22.955  1.00  0.00    -0.237 OA
ATOM    107  O   UNL     1      -0.403   9.313 -22.871  1.00  0.00    -0.237 OA
ATOM    108  O   UNL     1      -1.108   6.973 -23.071  1.00  0.00    -0.744 OA
ENDBRANCH 102 105
ENDBRANCH  75  98
ENDBRANCH  49  50
ENDBRANCH  41  44
ENDBRANCH  39  40
ENDBRANCH  38  39
ENDBRANCH   1  38
TORSDOF 21
