REMARK SMILES Cc1cccc(N2C(=O)/C(=C/c3ccc(C(=O)NCCCCCCNC(=O)c4ccc(-c5c6nc(c(-c7cccc(S(=O)(=O)[O-])c7F)c7ccc([nH]7)c(-c7cccc(S(=O)(=O)[O-])c7F)c7nc(c(-c8cccc(S(=O)(=O)[O-])c8F)c8ccc5[nH]8)C=C7)C=C6)cc4)cc3)c3ccccc3C2=O)c1
REMARK SMILES IDX 22 1 21 2 20 3 19 4 18 5 16 6 17 7 15 9 12 10 13 11 92 12
REMARK SMILES IDX 14 13 91 14 11 15 7 16 8 17 99 18 9 19 10 20 98 21 100 22
REMARK SMILES IDX 93 23 97 24 94 25 96 26 95 27 6 28 1 29 2 30 3 31 101 32
REMARK SMILES IDX 4 33 5 34 23 35 24 36 25 37 26 38 27 40 28 41 29 42 90 43
REMARK SMILES IDX 30 44 89 45 31 46 32 47 33 48 83 49 34 50 88 51 82 52 84 53
REMARK SMILES IDX 35 54 87 55 81 56 80 57 36 59 68 60 48 61 67 62 49 63 52 64
REMARK SMILES IDX 66 65 85 66 50 67 51 68 65 70 86 71 53 72 37 73 38 74 46 75
REMARK SMILES IDX 39 76 41 77 47 78 40 79 42 80 43 81 44 82 45 83 69 84 70 85
REMARK SMILES IDX 78 86 71 87 73 88 79 89 72 90 74 91 75 92 76 93 77 94 54 95
REMARK SMILES IDX 55 96 63 97 56 98 58 99 64 100 57 101 59 102 60 103 61 104
REMARK SMILES IDX 62 105
REMARK H PARENT 18 8 25 39 84 58 52 69
REMARK Flexibility Score: inf
ROOT
ATOM      1  C   UNL     1      -8.237  12.199   1.278  1.00  0.00     0.002 C 
ENDROOT
BRANCH   1   2
ATOM      2  C   UNL     1      -6.917  12.380   2.041  1.00  0.00     0.002 C 
BRANCH   2   3
ATOM      3  C   UNL     1      -5.949  11.192   2.081  1.00  0.00     0.021 C 
BRANCH   3   4
ATOM      4  C   UNL     1      -5.604  10.526   0.750  1.00  0.00     0.116 C 
BRANCH   4   5
ATOM      5  N   UNL     1      -5.028  11.425  -0.234  1.00  0.00    -0.352 N 
ATOM      6  C   UNL     1      -4.074  11.165  -1.189  1.00  0.00     0.251 C 
ATOM      7  O   UNL     1      -3.681  12.059  -1.934  1.00  0.00    -0.269 OA
ATOM      8  H   UNL     1      -5.369  12.348  -0.216  1.00  0.00     0.163 HD
BRANCH   6   9
ATOM      9  C   UNL     1      -3.465   9.818  -1.287  1.00  0.00     0.039 A 
ATOM     10  C   UNL     1      -2.231   7.311  -1.173  1.00  0.00    -0.025 A 
ATOM     11  C   UNL     1      -1.455   8.474  -1.233  1.00  0.00     0.009 A 
ATOM     12  C   UNL     1      -3.623   7.407  -1.304  1.00  0.00     0.009 A 
ATOM     13  C   UNL     1      -2.070   9.726  -1.291  1.00  0.00     0.014 A 
ATOM     14  C   UNL     1      -4.241   8.658  -1.358  1.00  0.00     0.014 A 
BRANCH  10  15
ATOM     15  C   UNL     1      -1.561   6.021  -0.961  1.00  0.00     0.022 C 
ATOM     16  N   UNL     1      -1.731   2.655   0.309  1.00  0.00    -0.242 N 
ATOM     17  C   UNL     1      -1.050   3.810  -0.127  1.00  0.00     0.265 C 
ATOM     18  C   UNL     1      -3.079   2.728   0.717  1.00  0.00     0.265 C 
ATOM     19  O   UNL     1       0.053   3.848  -0.674  1.00  0.00    -0.268 OA
ATOM     20  C   UNL     1      -1.826   5.098  -0.007  1.00  0.00     0.049 C 
ATOM     21  C   UNL     1      -3.522   3.999   1.338  1.00  0.00     0.048 A 
ATOM     22  O   UNL     1      -3.943   1.861   0.611  1.00  0.00    -0.268 OA
ATOM     23  C   UNL     1      -2.857   5.181   1.030  1.00  0.00    -0.000 A 
ATOM     24  C   UNL     1      -4.597   3.996   2.239  1.00  0.00     0.014 A 
ATOM     25  C   UNL     1      -3.210   6.351   1.719  1.00  0.00     0.010 A 
ATOM     26  C   UNL     1      -4.980   5.177   2.872  1.00  0.00     0.001 A 
ATOM     27  C   UNL     1      -4.276   6.352   2.624  1.00  0.00     0.001 A 
BRANCH  16  28
ATOM     28  C   UNL     1      -1.074   1.352   0.187  1.00  0.00     0.053 A 
ATOM     29  C   UNL     1       2.492  -0.078   0.013  1.00  0.00     0.044 C 
ATOM     30  C   UNL     1       0.994  -0.002   0.041  1.00  0.00    -0.049 A 
ATOM     31  C   UNL     1       0.240  -1.170  -0.046  1.00  0.00     0.003 A 
ATOM     32  C   UNL     1       0.333   1.235   0.176  1.00  0.00     0.030 A 
ATOM     33  C   UNL     1      -1.145  -1.097  -0.003  1.00  0.00     0.002 A 
ATOM     34  C   UNL     1      -1.787   0.143   0.113  1.00  0.00     0.027 A 
ENDBRANCH  16  28
ENDBRANCH  10  15
ENDBRANCH   6   9
ENDBRANCH   4   5
ENDBRANCH   3   4
ENDBRANCH   2   3
ENDBRANCH   1   2
BRANCH   1  35
ATOM     35  C   UNL     1      -9.032  10.925   1.556  1.00  0.00     0.021 C 
BRANCH  35  36
ATOM     36  C   UNL     1      -9.474  10.737   3.000  1.00  0.00     0.116 C 
BRANCH  36  37
ATOM     37  N   UNL     1     -10.806  11.236   3.293  1.00  0.00    -0.352 N 
ATOM     38  C   UNL     1     -11.517  11.201   4.481  1.00  0.00     0.251 C 
ATOM     39  H   UNL     1     -11.272  11.662   2.537  1.00  0.00     0.163 HD
ATOM     40  O   UNL     1     -12.706  11.510   4.462  1.00  0.00    -0.269 OA
BRANCH  38  41
ATOM     41  C   UNL     1     -10.819  10.927   5.765  1.00  0.00     0.039 A 
ATOM     42  C   UNL     1     -11.131  11.729   6.872  1.00  0.00     0.014 A 
ATOM     43  C   UNL     1      -9.734  10.059   5.831  1.00  0.00     0.014 A 
ATOM     44  C   UNL     1     -10.215  11.858   7.916  1.00  0.00     0.010 A 
ATOM     45  C   UNL     1      -8.779  10.257   6.803  1.00  0.00     0.010 A 
ATOM     46  C   UNL     1      -8.992  11.208   7.805  1.00  0.00    -0.014 A 
BRANCH  46  47
ATOM     47  C   UNL     1      -7.823  11.479   8.624  1.00  0.00     0.031 A 
ATOM     48  C   UNL     1      -7.448  10.565   9.714  1.00  0.00     0.074 A 
ATOM     49  C   UNL     1      -6.952  12.423   8.205  1.00  0.00     0.049 A 
ATOM     50  N   UNL     1      -6.561  10.845  10.605  1.00  0.00    -0.248 NA
ATOM     51  C   UNL     1      -8.061   9.259   9.891  1.00  0.00     0.031 C 
ATOM     52  C   UNL     1      -5.543  12.548   8.559  1.00  0.00     0.029 A 
ATOM     53  N   UNL     1      -7.239  13.611   7.529  1.00  0.00    -0.354 N 
ATOM     54  C   UNL     1      -6.275   9.681  11.283  1.00  0.00     0.074 A 
ATOM     55  C   UNL     1      -7.295   8.749  10.860  1.00  0.00     0.031 C 
ATOM     56  C   UNL     1      -5.165  13.821   8.371  1.00  0.00     0.029 A 
ATOM     57  C   UNL     1      -6.365  14.576   8.061  1.00  0.00     0.049 A 
ATOM     58  H   UNL     1      -7.915  13.745   6.825  1.00  0.00     0.167 HD
ATOM     59  C   UNL     1      -5.119   9.614  12.003  1.00  0.00     0.034 A 
ATOM     60  C   UNL     1      -6.785  15.704   8.705  1.00  0.00     0.034 A 
ATOM     61  C   UNL     1      -4.405  10.902  11.984  1.00  0.00     0.049 A 
ATOM     62  C   UNL     1      -6.239  15.840  10.120  1.00  0.00     0.074 A 
ATOM     63  C   UNL     1      -3.296  11.385  11.306  1.00  0.00     0.029 A 
ATOM     64  N   UNL     1      -4.994  12.005  12.584  1.00  0.00    -0.354 N 
ATOM     65  N   UNL     1      -5.436  14.990  10.698  1.00  0.00    -0.248 NA
ATOM     66  C   UNL     1      -6.636  16.914  11.026  1.00  0.00     0.031 C 
ATOM     67  C   UNL     1      -3.219  12.792  11.517  1.00  0.00     0.029 A 
ATOM     68  C   UNL     1      -4.271  13.161  12.335  1.00  0.00     0.049 A 
ATOM     69  H   UNL     1      -5.821  11.970  13.117  1.00  0.00     0.167 HD
ATOM     70  C   UNL     1      -5.341  15.271  12.042  1.00  0.00     0.074 A 
ATOM     71  C   UNL     1      -6.078  16.517  12.182  1.00  0.00     0.031 C 
ATOM     72  C   UNL     1      -4.731  14.413  12.926  1.00  0.00     0.034 A 
BRANCH  59  73
ATOM     73  C   UNL     1      -4.469   8.333  12.506  1.00  0.00     0.023 A 
ATOM     74  C   UNL     1      -3.090   8.386  12.816  1.00  0.00     0.012 A 
ATOM     75  C   UNL     1      -5.076   7.065  12.645  1.00  0.00     0.148 A 
ATOM     76  C   UNL     1      -2.337   7.247  13.120  1.00  0.00     0.002 A 
ATOM     77  C   UNL     1      -4.316   5.914  12.876  1.00  0.00     0.091 A 
ATOM     78  F   UNL     1      -6.406   6.960  12.650  1.00  0.00    -0.205 F 
ATOM     79  C   UNL     1      -2.942   6.001  13.109  1.00  0.00     0.022 A 
BRANCH  77  80
ATOM     80  S   UNL     1      -5.024   4.258  12.795  1.00  0.00     0.127 S 
ATOM     81  O   UNL     1      -4.122   3.586  11.857  1.00  0.00    -0.237 OA
ATOM     82  O   UNL     1      -4.915   3.798  14.178  1.00  0.00    -0.237 OA
ATOM     83  O   UNL     1      -6.383   4.422  12.291  1.00  0.00    -0.744 OA
ENDBRANCH  77  80
ENDBRANCH  59  73
BRANCH  60  84
ATOM     84  C   UNL     1      -8.122  16.182   8.240  1.00  0.00     0.023 A 
ATOM     85  C   UNL     1      -8.223  16.579   6.885  1.00  0.00     0.012 A 
ATOM     86  C   UNL     1      -9.299  15.871   8.944  1.00  0.00     0.148 A 
ATOM     87  C   UNL     1      -9.444  16.530   6.211  1.00  0.00     0.002 A 
ATOM     88  C   UNL     1     -10.517  15.834   8.266  1.00  0.00     0.091 A 
ATOM     89  F   UNL     1      -9.204  15.532  10.236  1.00  0.00    -0.205 F 
ATOM     90  C   UNL     1     -10.585  16.124   6.894  1.00  0.00     0.022 A 
BRANCH  88  91
ATOM     91  S   UNL     1     -12.022  15.278   9.077  1.00  0.00     0.127 S 
ATOM     92  O   UNL     1     -12.613  16.545   9.494  1.00  0.00    -0.237 OA
ATOM     93  O   UNL     1     -12.728  14.593   7.994  1.00  0.00    -0.237 OA
ATOM     94  O   UNL     1     -11.564  14.394  10.139  1.00  0.00    -0.744 OA
ENDBRANCH  88  91
ENDBRANCH  60  84
BRANCH  72  95
ATOM     95  C   UNL     1      -4.583  14.605  14.438  1.00  0.00     0.023 A 
ATOM     96  C   UNL     1      -4.715  15.858  15.061  1.00  0.00     0.012 A 
ATOM     97  C   UNL     1      -4.241  13.523  15.303  1.00  0.00     0.148 A 
ATOM     98  C   UNL     1      -4.657  16.012  16.454  1.00  0.00     0.002 A 
ATOM     99  C   UNL     1      -4.188  13.673  16.687  1.00  0.00     0.091 A 
ATOM    100  F   UNL     1      -3.889  12.338  14.793  1.00  0.00    -0.205 F 
ATOM    101  C   UNL     1      -4.422  14.915  17.270  1.00  0.00     0.022 A 
BRANCH  99 102
ATOM    102  S   UNL     1      -3.833  12.286  17.778  1.00  0.00     0.127 S 
ATOM    103  O   UNL     1      -2.427  12.520  18.106  1.00  0.00    -0.237 OA
ATOM    104  O   UNL     1      -4.763  12.520  18.884  1.00  0.00    -0.237 OA
ATOM    105  O   UNL     1      -4.114  11.088  17.001  1.00  0.00    -0.744 OA
ENDBRANCH  99 102
ENDBRANCH  72  95
ENDBRANCH  46  47
ENDBRANCH  38  41
ENDBRANCH  36  37
ENDBRANCH  35  36
ENDBRANCH   1  35
TORSDOF 18
