REMARK SMILES O=C(Cc1ccc(S(=O)(=O)N2CCNC(=O)C2)cc1)NCCCCCCNC(=O)c1ccc(-c2c3nc(c(-c4cccc(S(=O)(=O)[O-])c4F)c4ccc([nH]4)c(-c4cccc(S(=O)(=O)[O-])c4F)c4nc(c(-c5cccc(S(=O)(=O)[O-])c5F)c5ccc2[nH]5)C=C4)C=C3)cc1
REMARK SMILES IDX 23 1 22 2 21 3 20 4 1 5 2 6 3 8 4 9 5 10 19 11 6 12 18 13
REMARK SMILES IDX 7 14 8 15 9 16 10 17 11 18 12 19 17 20 13 21 15 22 14 23
REMARK SMILES IDX 16 24 24 26 25 27 26 28 27 29 28 30 29 32 30 33 31 34 92 35
REMARK SMILES IDX 32 36 91 37 33 38 34 39 35 40 85 41 36 42 90 43 84 44 86 45
REMARK SMILES IDX 37 46 89 47 83 48 82 49 38 51 70 52 50 53 69 54 51 55 54 56
REMARK SMILES IDX 68 57 87 58 52 59 53 60 67 62 88 63 55 64 39 65 40 66 48 67
REMARK SMILES IDX 41 68 43 69 49 70 42 71 44 72 45 73 46 74 47 75 71 76 72 77
REMARK SMILES IDX 80 78 73 79 75 80 81 81 74 82 76 83 77 84 78 85 79 86 56 87
REMARK SMILES IDX 57 88 65 89 58 90 60 91 66 92 59 93 61 94 62 95 63 96 64 97
REMARK H PARENT 20 7 14 25 27 31 86 50 54 61
REMARK Flexibility Score: inf
ROOT
ATOM      1  C   UNL     1       4.125   0.708   3.749  1.00  0.00     0.002 C 
ENDROOT
BRANCH   1   2
ATOM      2  C   UNL     1       2.626   0.452   3.548  1.00  0.00     0.021 C 
BRANCH   2   3
ATOM      3  C   UNL     1       2.049   0.978   2.236  1.00  0.00     0.116 C 
BRANCH   3   4
ATOM      4  N   UNL     1       2.726   0.419   1.083  1.00  0.00    -0.356 N 
ATOM      5  O   UNL     1       0.864  -0.465   0.062  1.00  0.00    -0.275 OA
ATOM      6  C   UNL     1       2.065  -0.213   0.052  1.00  0.00     0.224 C 
ATOM      7  H   UNL     1       3.707   0.494   1.034  1.00  0.00     0.163 HD
BRANCH   6   8
ATOM      8  C   UNL     1       2.958  -0.611  -1.114  1.00  0.00     0.135 C 
BRANCH   8   9
ATOM      9  C   UNL     1       3.781   0.508  -1.723  1.00  0.00    -0.039 A 
ATOM     10  C   UNL     1       4.932   0.191  -2.459  1.00  0.00     0.005 A 
ATOM     11  C   UNL     1       3.412   1.856  -1.604  1.00  0.00     0.005 A 
ATOM     12  C   UNL     1       5.710   1.199  -3.035  1.00  0.00     0.022 A 
ATOM     13  C   UNL     1       4.212   2.868  -2.135  1.00  0.00     0.022 A 
ATOM     14  C   UNL     1       5.353   2.541  -2.863  1.00  0.00     0.082 A 
BRANCH  14  15
ATOM     15  S   UNL     1       6.379   3.789  -3.609  1.00  0.00     0.243 S 
ATOM     16  O   UNL     1       7.295   4.236  -2.583  1.00  0.00    -0.207 OA
ATOM     17  O   UNL     1       6.864   3.229  -4.854  1.00  0.00    -0.207 OA
BRANCH  15  18
ATOM     18  N   UNL     1       5.368   5.060  -4.013  1.00  0.00    -0.187 NA
ATOM     19  C   UNL     1       4.473   4.986  -5.180  1.00  0.00     0.124 C 
ATOM     20  C   UNL     1       5.042   6.101  -3.017  1.00  0.00     0.202 C 
ATOM     21  C   UNL     1       3.014   4.907  -4.738  1.00  0.00     0.132 C 
ATOM     22  C   UNL     1       3.567   6.448  -2.864  1.00  0.00     0.235 C 
ATOM     23  N   UNL     1       2.672   5.904  -3.746  1.00  0.00    -0.354 N 
ATOM     24  O   UNL     1       3.163   7.210  -1.989  1.00  0.00    -0.274 OA
ATOM     25  H   UNL     1       1.737   6.210  -3.702  1.00  0.00     0.163 HD
ENDBRANCH  15  18
ENDBRANCH  14  15
ENDBRANCH   8   9
ENDBRANCH   6   8
ENDBRANCH   3   4
ENDBRANCH   2   3
ENDBRANCH   1   2
BRANCH   1  26
ATOM     26  C   UNL     1       4.563   2.175   3.706  1.00  0.00     0.002 C 
BRANCH  26  27
ATOM     27  C   UNL     1       3.893   3.099   4.726  1.00  0.00     0.021 C 
BRANCH  27  28
ATOM     28  C   UNL     1       4.009   2.668   6.186  1.00  0.00     0.116 C 
BRANCH  28  29
ATOM     29  N   UNL     1       5.386   2.575   6.644  1.00  0.00    -0.352 N 
ATOM     30  C   UNL     1       5.946   2.999   7.826  1.00  0.00     0.251 C 
ATOM     31  H   UNL     1       6.009   2.146   6.015  1.00  0.00     0.163 HD
ATOM     32  O   UNL     1       7.163   2.933   7.976  1.00  0.00    -0.269 OA
BRANCH  30  33
ATOM     33  C   UNL     1       5.098   3.557   8.906  1.00  0.00     0.039 A 
ATOM     34  C   UNL     1       5.537   4.703   9.576  1.00  0.00     0.014 A 
ATOM     35  C   UNL     1       3.893   2.954   9.276  1.00  0.00     0.014 A 
ATOM     36  C   UNL     1       4.741   5.277  10.572  1.00  0.00     0.010 A 
ATOM     37  C   UNL     1       3.072   3.561  10.226  1.00  0.00     0.010 A 
ATOM     38  C   UNL     1       3.488   4.727  10.886  1.00  0.00    -0.014 A 
BRANCH  38  39
ATOM     39  C   UNL     1       2.594   5.378  11.880  1.00  0.00     0.031 A 
ATOM     40  C   UNL     1       2.240   4.686  13.168  1.00  0.00     0.074 A 
ATOM     41  C   UNL     1       2.033   6.568  11.585  1.00  0.00     0.049 A 
ATOM     42  N   UNL     1       1.481   5.107  14.147  1.00  0.00    -0.248 NA
ATOM     43  C   UNL     1       2.789   3.336  13.374  1.00  0.00     0.031 C 
ATOM     44  C   UNL     1       2.222   7.303  10.333  1.00  0.00     0.029 A 
ATOM     45  N   UNL     1       1.177   7.359  12.309  1.00  0.00    -0.354 N 
ATOM     46  C   UNL     1       1.429   4.065  15.065  1.00  0.00     0.074 A 
ATOM     47  C   UNL     1       2.211   2.980  14.514  1.00  0.00     0.031 C 
ATOM     48  C   UNL     1       1.516   8.444  10.383  1.00  0.00     0.029 A 
ATOM     49  C   UNL     1       0.812   8.516  11.660  1.00  0.00     0.049 A 
ATOM     50  H   UNL     1       0.854   7.121  13.208  1.00  0.00     0.167 HD
ATOM     51  C   UNL     1       0.812   4.024  16.271  1.00  0.00     0.034 A 
ATOM     52  C   UNL     1       0.013   9.526  12.053  1.00  0.00     0.034 A 
ATOM     53  C   UNL     1       0.086   5.125  16.846  1.00  0.00     0.049 A 
ATOM     54  C   UNL     1      -0.607   9.483  13.423  1.00  0.00     0.074 A 
ATOM     55  C   UNL     1      -0.468   5.224  18.111  1.00  0.00     0.029 A 
ATOM     56  N   UNL     1      -0.195   6.315  16.193  1.00  0.00    -0.354 N 
ATOM     57  N   UNL     1      -0.484   8.571  14.356  1.00  0.00    -0.248 NA
ATOM     58  C   UNL     1      -1.444  10.629  13.809  1.00  0.00     0.031 C 
ATOM     59  C   UNL     1      -1.096   6.471  18.217  1.00  0.00     0.029 A 
ATOM     60  C   UNL     1      -0.925   7.151  17.022  1.00  0.00     0.049 A 
ATOM     61  H   UNL     1       0.084   6.534  15.275  1.00  0.00     0.167 HD
ATOM     62  C   UNL     1      -1.199   9.046  15.450  1.00  0.00     0.074 A 
ATOM     63  C   UNL     1      -1.733  10.338  15.070  1.00  0.00     0.031 C 
ATOM     64  C   UNL     1      -1.409   8.457  16.653  1.00  0.00     0.034 A 
BRANCH  51  65
ATOM     65  C   UNL     1       0.955   2.763  17.083  1.00  0.00     0.023 A 
ATOM     66  C   UNL     1       2.190   2.473  17.698  1.00  0.00     0.012 A 
ATOM     67  C   UNL     1      -0.135   1.894  17.280  1.00  0.00     0.148 A 
ATOM     68  C   UNL     1       2.349   1.320  18.465  1.00  0.00     0.002 A 
ATOM     69  C   UNL     1       0.021   0.765  18.079  1.00  0.00     0.091 A 
ATOM     70  F   UNL     1      -1.296   2.169  16.668  1.00  0.00    -0.205 F 
ATOM     71  C   UNL     1       1.263   0.472  18.664  1.00  0.00     0.022 A 
BRANCH  69  72
ATOM     72  S   UNL     1      -1.345  -0.343  18.447  1.00  0.00     0.127 S 
ATOM     73  O   UNL     1      -1.088  -1.447  17.524  1.00  0.00    -0.237 OA
ATOM     74  O   UNL     1      -1.119  -0.663  19.857  1.00  0.00    -0.237 OA
ATOM     75  O   UNL     1      -2.555   0.427  18.193  1.00  0.00    -0.744 OA
ENDBRANCH  69  72
ENDBRANCH  51  65
BRANCH  52  76
ATOM     76  C   UNL     1      -0.158  10.718  11.176  1.00  0.00     0.023 A 
ATOM     77  C   UNL     1       0.466  11.927  11.541  1.00  0.00     0.012 A 
ATOM     78  C   UNL     1      -0.889  10.657   9.975  1.00  0.00     0.148 A 
ATOM     79  C   UNL     1       0.345  13.062  10.739  1.00  0.00     0.002 A 
ATOM     80  C   UNL     1      -0.965  11.778   9.155  1.00  0.00     0.091 A 
ATOM     81  F   UNL     1      -1.487   9.502   9.652  1.00  0.00    -0.205 F 
ATOM     82  C   UNL     1      -0.360  12.984   9.541  1.00  0.00     0.022 A 
BRANCH  80  83
ATOM     83  S   UNL     1      -1.745  11.735   7.537  1.00  0.00     0.127 S 
ATOM     84  O   UNL     1      -2.973  12.489   7.777  1.00  0.00    -0.237 OA
ATOM     85  O   UNL     1      -0.755  12.418   6.703  1.00  0.00    -0.237 OA
ATOM     86  O   UNL     1      -1.918  10.323   7.224  1.00  0.00    -0.744 OA
ENDBRANCH  80  83
ENDBRANCH  52  76
BRANCH  64  87
ATOM     87  C   UNL     1      -2.242   9.208  17.658  1.00  0.00     0.023 A 
ATOM     88  C   UNL     1      -3.635   9.303  17.472  1.00  0.00     0.012 A 
ATOM     89  C   UNL     1      -1.660   9.769  18.812  1.00  0.00     0.148 A 
ATOM     90  C   UNL     1      -4.432   9.973  18.401  1.00  0.00     0.002 A 
ATOM     91  C   UNL     1      -2.466  10.397  19.755  1.00  0.00     0.091 A 
ATOM     92  F   UNL     1      -0.329   9.691  18.963  1.00  0.00    -0.205 F 
ATOM     93  C   UNL     1      -3.849  10.509  19.547  1.00  0.00     0.022 A 
BRANCH  91  94
ATOM     94  S   UNL     1      -1.800  11.032  21.299  1.00  0.00     0.127 S 
ATOM     95  O   UNL     1      -1.645  12.453  20.997  1.00  0.00    -0.237 OA
ATOM     96  O   UNL     1      -2.865  10.725  22.255  1.00  0.00    -0.237 OA
ATOM     97  O   UNL     1      -0.565  10.293  21.525  1.00  0.00    -0.744 OA
ENDBRANCH  91  94
ENDBRANCH  64  87
ENDBRANCH  38  39
ENDBRANCH  30  33
ENDBRANCH  28  29
ENDBRANCH  27  28
ENDBRANCH  26  27
ENDBRANCH   1  26
TORSDOF 19
