REMARK SMILES COc1ccc(/C=C/c2ncc(C(=O)NCCCCCCNC(=O)c3ccc(-c4c5nc(c(-c6cccc(S(=O)(=O)[O-])c6F)c6ccc([nH]6)c(-c6cccc(S(=O)(=O)[O-])c6F)c6nc(c(-c7cccc(S(=O)(=O)[O-])c7F)c7ccc4[nH]7)C=C6)C=C5)cc3)s2)cc1O
REMARK SMILES IDX 18 1 17 2 16 3 15 4 13 5 14 6 12 8 9 9 10 10 88 11 11 12
REMARK SMILES IDX 8 13 7 14 6 15 3 16 4 17 90 18 5 19 89 20 2 21 1 22 91 23
REMARK SMILES IDX 19 25 20 26 21 27 22 28 23 29 24 31 25 32 26 33 87 34 27 35
REMARK SMILES IDX 86 36 28 37 29 38 30 39 80 40 31 41 85 42 79 43 81 44 32 45
REMARK SMILES IDX 84 46 78 47 77 48 33 50 65 51 45 52 64 53 46 54 49 55 63 56
REMARK SMILES IDX 82 57 47 58 48 59 62 61 83 62 50 63 34 64 35 65 43 66 36 67
REMARK SMILES IDX 38 68 44 69 37 70 39 71 40 72 41 73 42 74 66 75 67 76 75 77
REMARK SMILES IDX 68 78 70 79 76 80 69 81 71 82 72 83 73 84 74 85 51 86 52 87
REMARK SMILES IDX 60 88 53 89 55 90 61 91 54 92 56 93 57 94 58 95 59 96
REMARK H PARENT 15 7 91 24 22 30 81 49 49 60
REMARK Flexibility Score: inf
ROOT
ATOM      1  C   UNL     1     -11.583   5.452   7.962  1.00  0.00     0.002 C 
ENDROOT
BRANCH   1   2
ATOM      2  C   UNL     1     -10.264   4.836   7.470  1.00  0.00     0.021 C 
BRANCH   2   3
ATOM      3  C   UNL     1     -10.362   4.222   6.073  1.00  0.00     0.116 C 
BRANCH   3   4
ATOM      4  N   UNL     1     -10.331   5.257   5.059  1.00  0.00    -0.351 N 
ATOM      5  C   UNL     1      -9.373   5.644   4.153  1.00  0.00     0.263 C 
ATOM      6  O   UNL     1      -9.712   6.563   3.402  1.00  0.00    -0.268 OA
ATOM      7  H   UNL     1     -11.160   5.787   5.008  1.00  0.00     0.163 HD
BRANCH   5   8
ATOM      8  C   UNL     1      -8.078   4.997   4.076  1.00  0.00     0.112 A 
ATOM      9  C   UNL     1      -5.917   4.158   3.254  1.00  0.00     0.116 A 
ATOM     10  N   UNL     1      -6.143   3.736   4.481  1.00  0.00    -0.244 NA
ATOM     11  S   UNL     1      -7.154   5.186   2.629  1.00  0.00    -0.109 S 
ATOM     12  C   UNL     1      -7.335   4.246   4.961  1.00  0.00     0.137 A 
BRANCH   9  13
ATOM     13  C   UNL     1      -4.779   3.859   2.452  1.00  0.00     0.040 C 
ATOM     14  C   UNL     1      -4.076   2.735   2.668  1.00  0.00     0.011 C 
BRANCH  14  15
ATOM     15  C   UNL     1      -2.866   2.346   1.929  1.00  0.00    -0.022 A 
ATOM     16  C   UNL     1      -0.512   1.509   0.595  1.00  0.00     0.160 A 
ATOM     17  C   UNL     1      -0.781   2.867   0.797  1.00  0.00     0.051 A 
ATOM     18  C   UNL     1      -1.441   0.577   1.060  1.00  0.00     0.158 A 
ATOM     19  C   UNL     1      -1.942   3.284   1.458  1.00  0.00     0.012 A 
ATOM     20  C   UNL     1      -2.591   0.986   1.742  1.00  0.00     0.058 A 
BRANCH  16  21
ATOM     21  O   UNL     1       0.650   1.272  -0.083  1.00  0.00    -0.493 OA
ATOM     22  C   UNL     1       1.295   0.020   0.108  1.00  0.00     0.278 C 
ENDBRANCH  16  21
BRANCH  18  23
ATOM     23  O   UNL     1      -1.334  -0.767   0.841  1.00  0.00    -0.504 OA
ATOM     24  H   UNL     1      -0.588  -1.111   0.389  1.00  0.00     0.293 HD
ENDBRANCH  18  23
ENDBRANCH  14  15
ENDBRANCH   9  13
ENDBRANCH   5   8
ENDBRANCH   3   4
ENDBRANCH   2   3
ENDBRANCH   1   2
BRANCH   1  25
ATOM     25  C   UNL     1     -12.753   4.467   8.083  1.00  0.00     0.002 C 
BRANCH  25  26
ATOM     26  C   UNL     1     -12.478   3.225   8.937  1.00  0.00     0.021 C 
BRANCH  26  27
ATOM     27  C   UNL     1     -12.102   3.516  10.389  1.00  0.00     0.116 C 
BRANCH  27  28
ATOM     28  N   UNL     1     -13.164   4.218  11.091  1.00  0.00    -0.352 N 
ATOM     29  C   UNL     1     -13.794   3.909  12.269  1.00  0.00     0.251 C 
ATOM     30  H   UNL     1     -13.479   5.041  10.653  1.00  0.00     0.163 HD
ATOM     31  O   UNL     1     -14.817   4.515  12.579  1.00  0.00    -0.269 OA
BRANCH  29  32
ATOM     32  C   UNL     1     -13.260   2.856  13.162  1.00  0.00     0.039 A 
ATOM     33  C   UNL     1     -14.164   2.006  13.804  1.00  0.00     0.014 A 
ATOM     34  C   UNL     1     -11.889   2.732  13.409  1.00  0.00     0.014 A 
ATOM     35  C   UNL     1     -13.691   1.012  14.664  1.00  0.00     0.010 A 
ATOM     36  C   UNL     1     -11.415   1.696  14.213  1.00  0.00     0.010 A 
ATOM     37  C   UNL     1     -12.311   0.834  14.861  1.00  0.00    -0.014 A 
BRANCH  37  38
ATOM     38  C   UNL     1     -11.814  -0.272  15.718  1.00  0.00     0.031 A 
ATOM     39  C   UNL     1     -11.063   0.004  16.991  1.00  0.00     0.074 A 
ATOM     40  C   UNL     1     -11.990  -1.544  15.310  1.00  0.00     0.049 A 
ATOM     41  N   UNL     1     -10.629  -0.844  17.889  1.00  0.00    -0.248 NA
ATOM     42  C   UNL     1     -10.729   1.407  17.282  1.00  0.00     0.031 C 
ATOM     43  C   UNL     1     -12.588  -1.943  14.035  1.00  0.00     0.029 A 
ATOM     44  N   UNL     1     -11.668  -2.732  15.915  1.00  0.00    -0.354 N 
ATOM     45  C   UNL     1      -9.947  -0.086  18.832  1.00  0.00     0.074 A 
ATOM     46  C   UNL     1      -9.992   1.288  18.378  1.00  0.00     0.031 C 
ATOM     47  C   UNL     1     -12.598  -3.282  13.956  1.00  0.00     0.029 A 
ATOM     48  C   UNL     1     -12.001  -3.836  15.168  1.00  0.00     0.049 A 
ATOM     49  H   UNL     1     -11.238  -2.788  16.799  1.00  0.00     0.167 HD
ATOM     50  C   UNL     1      -9.363  -0.489  19.987  1.00  0.00     0.034 A 
ATOM     51  C   UNL     1     -11.857  -5.149  15.432  1.00  0.00     0.034 A 
ATOM     52  C   UNL     1      -9.354  -1.851  20.453  1.00  0.00     0.049 A 
ATOM     53  C   UNL     1     -11.310  -5.571  16.766  1.00  0.00     0.074 A 
ATOM     54  C   UNL     1      -8.898  -2.347  21.662  1.00  0.00     0.029 A 
ATOM     55  N   UNL     1      -9.810  -2.939  19.724  1.00  0.00    -0.354 N 
ATOM     56  N   UNL     1     -10.865  -4.823  17.747  1.00  0.00    -0.248 NA
ATOM     57  C   UNL     1     -11.297  -7.011  17.053  1.00  0.00     0.031 C 
ATOM     58  C   UNL     1      -9.059  -3.738  21.654  1.00  0.00     0.029 A 
ATOM     59  C   UNL     1      -9.637  -4.106  20.450  1.00  0.00     0.049 A 
ATOM     60  H   UNL     1     -10.201  -2.889  18.822  1.00  0.00     0.167 HD
ATOM     61  C   UNL     1     -10.538  -5.698  18.776  1.00  0.00     0.074 A 
ATOM     62  C   UNL     1     -10.869  -7.030  18.309  1.00  0.00     0.031 C 
ATOM     63  C   UNL     1      -9.998  -5.424  19.990  1.00  0.00     0.034 A 
BRANCH  50  64
ATOM     64  C   UNL     1      -8.734   0.573  20.854  1.00  0.00     0.023 A 
ATOM     65  C   UNL     1      -9.558   1.502  21.525  1.00  0.00     0.012 A 
ATOM     66  C   UNL     1      -7.339   0.637  21.035  1.00  0.00     0.148 A 
ATOM     67  C   UNL     1      -9.004   2.503  22.321  1.00  0.00     0.002 A 
ATOM     68  C   UNL     1      -6.796   1.611  21.867  1.00  0.00     0.091 A 
ATOM     69  F   UNL     1      -6.565  -0.234  20.372  1.00  0.00    -0.205 F 
ATOM     70  C   UNL     1      -7.624   2.552  22.499  1.00  0.00     0.022 A 
BRANCH  68  71
ATOM     71  S   UNL     1      -5.036   1.699  22.218  1.00  0.00     0.127 S 
ATOM     72  O   UNL     1      -4.614   2.795  21.347  1.00  0.00    -0.237 OA
ATOM     73  O   UNL     1      -5.017   2.016  23.647  1.00  0.00    -0.237 OA
ATOM     74  O   UNL     1      -4.502   0.385  21.887  1.00  0.00    -0.744 OA
ENDBRANCH  68  71
ENDBRANCH  50  64
BRANCH  51  75
ATOM     75  C   UNL     1     -12.337  -6.145  14.434  1.00  0.00     0.023 A 
ATOM     76  C   UNL     1     -13.523  -6.862  14.682  1.00  0.00     0.012 A 
ATOM     77  C   UNL     1     -11.673  -6.314  13.203  1.00  0.00     0.148 A 
ATOM     78  C   UNL     1     -14.031  -7.745  13.729  1.00  0.00     0.002 A 
ATOM     79  C   UNL     1     -12.215  -7.151  12.235  1.00  0.00     0.091 A 
ATOM     80  F   UNL     1     -10.543  -5.625  12.992  1.00  0.00    -0.205 F 
ATOM     81  C   UNL     1     -13.386  -7.879  12.502  1.00  0.00     0.022 A 
BRANCH  79  82
ATOM     82  S   UNL     1     -11.540  -7.269  10.575  1.00  0.00     0.127 S 
ATOM     83  O   UNL     1     -11.014  -8.632  10.562  1.00  0.00    -0.237 OA
ATOM     84  O   UNL     1     -12.730  -7.058   9.751  1.00  0.00    -0.237 OA
ATOM     85  O   UNL     1     -10.546  -6.208  10.477  1.00  0.00    -0.744 OA
ENDBRANCH  79  82
ENDBRANCH  51  75
BRANCH  63  86
ATOM     86  C   UNL     1      -9.733  -6.591  20.907  1.00  0.00     0.023 A 
ATOM     87  C   UNL     1      -8.688  -7.489  20.611  1.00  0.00     0.012 A 
ATOM     88  C   UNL     1     -10.488  -6.775  22.082  1.00  0.00     0.148 A 
ATOM     89  C   UNL     1      -8.425  -8.574  21.446  1.00  0.00     0.002 A 
ATOM     90  C   UNL     1     -10.189  -7.833  22.935  1.00  0.00     0.091 A 
ATOM     91  F   UNL     1     -11.494  -5.927  22.340  1.00  0.00    -0.205 F 
ATOM     92  C   UNL     1      -9.168  -8.741  22.612  1.00  0.00     0.022 A 
BRANCH  90  93
ATOM     93  S   UNL     1     -11.040  -8.059  24.501  1.00  0.00     0.127 S 
ATOM     94  O   UNL     1     -12.020  -9.089  24.164  1.00  0.00    -0.237 OA
ATOM     95  O   UNL     1      -9.963  -8.509  25.385  1.00  0.00    -0.237 OA
ATOM     96  O   UNL     1     -11.586  -6.752  24.843  1.00  0.00    -0.744 OA
ENDBRANCH  90  93
ENDBRANCH  63  86
ENDBRANCH  37  38
ENDBRANCH  29  32
ENDBRANCH  27  28
ENDBRANCH  26  27
ENDBRANCH  25  26
ENDBRANCH   1  25
TORSDOF 20
