REMARK SMILES Cc1ccccc1[C@@H](Cc1c(Cl)cccc1Cl)C(=O)NCCCCCCNC(=O)c1ccc(-c2c3nc(c(-c4cccc(S(=O)(=O)[O-])c4F)c4ccc([nH]4)c(-c4cccc(S(=O)(=O)[O-])c4F)c4nc(c(-c5cccc(S(=O)(=O)[O-])c5F)c5ccc2[nH]5)C=C4)C=C3)cc1
REMARK SMILES IDX 24 1 23 2 22 3 21 4 20 5 18 6 19 7 8 9 7 10 1 11 2 12 3 13
REMARK SMILES IDX 4 14 6 15 5 16 9 17 10 18 11 19 16 20 12 21 13 22 15 23
REMARK SMILES IDX 17 24 14 25 25 26 26 27 27 28 28 29 29 31 30 32 31 33 92 34
REMARK SMILES IDX 32 35 91 36 33 37 34 38 35 39 85 40 36 41 90 42 84 43 86 44
REMARK SMILES IDX 37 45 89 46 83 47 82 48 38 50 70 51 50 52 69 53 51 54 54 55
REMARK SMILES IDX 68 56 87 57 52 58 53 59 67 61 88 62 55 63 39 64 40 65 48 66
REMARK SMILES IDX 41 67 43 68 49 69 42 70 44 71 45 72 46 73 47 74 71 75 72 76
REMARK SMILES IDX 80 77 73 78 75 79 81 80 74 81 76 82 77 83 78 84 79 85 56 86
REMARK SMILES IDX 57 87 65 88 58 89 60 90 66 91 59 92 61 93 62 94 63 95 64 96
REMARK H PARENT 20 8 27 30 86 49 54 60
REMARK Flexibility Score: inf
ROOT
ATOM      1  C   UNL     1      -4.023   5.226   2.217  1.00  0.00     0.002 C 
ENDROOT
BRANCH   1   2
ATOM      2  C   UNL     1      -3.493   3.816   2.528  1.00  0.00     0.002 C 
BRANCH   2   3
ATOM      3  C   UNL     1      -2.796   3.099   1.365  1.00  0.00     0.021 C 
BRANCH   3   4
ATOM      4  C   UNL     1      -1.605   3.872   0.792  1.00  0.00     0.116 C 
BRANCH   4   5
ATOM      5  N   UNL     1      -0.441   3.656   1.616  1.00  0.00    -0.356 N 
ATOM      6  C   UNL     1       0.610   2.815   1.447  1.00  0.00     0.227 C 
ATOM      7  O   UNL     1       1.233   2.515   2.474  1.00  0.00    -0.274 OA
ATOM      8  H   UNL     1      -0.403   4.207   2.430  1.00  0.00     0.163 HD
BRANCH   6   9
ATOM      9  C   UNL     1       1.066   2.271   0.080  1.00  0.00     0.113 C 
BRANCH   9  10
ATOM     10  C   UNL     1       0.486   0.870  -0.191  1.00  0.00    -0.032 A 
ATOM     11  C   UNL     1       2.736  -0.366   0.156  1.00  0.00     0.044 C 
ATOM     12  C   UNL     1       1.245  -0.316  -0.046  1.00  0.00    -0.047 A 
ATOM     13  C   UNL     1       0.590  -1.567  -0.067  1.00  0.00     0.004 A 
ATOM     14  C   UNL     1      -0.779  -1.668  -0.286  1.00  0.00     0.000 A 
ATOM     15  C   UNL     1      -0.882   0.725  -0.502  1.00  0.00     0.005 A 
ATOM     16  C   UNL     1      -1.512  -0.521  -0.535  1.00  0.00     0.000 A 
ENDBRANCH   9  10
BRANCH   9  17
ATOM     17  C   UNL     1       1.069   3.231  -1.140  1.00  0.00     0.057 C 
BRANCH  17  18
ATOM     18  C   UNL     1       1.314   4.735  -0.991  1.00  0.00    -0.010 A 
ATOM     19  C   UNL     1       0.695   5.628  -1.901  1.00  0.00     0.045 A 
ATOM     20  C   UNL     1       2.159   5.329  -0.032  1.00  0.00     0.045 A 
ATOM     21  Cl  UNL     1      -0.183   5.078  -3.292  1.00  0.00    -0.084 Cl
ATOM     22  C   UNL     1       0.793   7.021  -1.761  1.00  0.00     0.021 A 
ATOM     23  C   UNL     1       2.210   6.723   0.139  1.00  0.00     0.021 A 
ATOM     24  Cl  UNL     1       3.303   4.448   0.916  1.00  0.00    -0.084 Cl
ATOM     25  C   UNL     1       1.514   7.571  -0.712  1.00  0.00     0.003 A 
ENDBRANCH  17  18
ENDBRANCH   9  17
ENDBRANCH   6   9
ENDBRANCH   4   5
ENDBRANCH   3   4
ENDBRANCH   2   3
ENDBRANCH   1   2
BRANCH   1  26
ATOM     26  C   UNL     1      -4.704   5.398   0.858  1.00  0.00     0.021 C 
BRANCH  26  27
ATOM     27  C   UNL     1      -5.963   4.559   0.696  1.00  0.00     0.116 C 
BRANCH  27  28
ATOM     28  N   UNL     1      -7.185   5.323   0.858  1.00  0.00    -0.352 N 
ATOM     29  C   UNL     1      -8.499   4.905   0.779  1.00  0.00     0.251 C 
ATOM     30  H   UNL     1      -7.059   6.280   1.053  1.00  0.00     0.163 HD
ATOM     31  O   UNL     1      -9.382   5.755   0.700  1.00  0.00    -0.269 OA
BRANCH  29  32
ATOM     32  C   UNL     1      -8.830   3.468   0.935  1.00  0.00     0.039 A 
ATOM     33  C   UNL     1      -9.870   3.142   1.815  1.00  0.00     0.014 A 
ATOM     34  C   UNL     1      -8.009   2.465   0.424  1.00  0.00     0.014 A 
ATOM     35  C   UNL     1      -9.922   1.872   2.383  1.00  0.00     0.010 A 
ATOM     36  C   UNL     1      -8.010   1.230   1.035  1.00  0.00     0.010 A 
ATOM     37  C   UNL     1      -8.915   0.969   2.068  1.00  0.00    -0.014 A 
BRANCH  37  38
ATOM     38  C   UNL     1      -8.682  -0.274   2.777  1.00  0.00     0.031 A 
ATOM     39  C   UNL     1      -9.412  -1.490   2.397  1.00  0.00     0.074 A 
ATOM     40  C   UNL     1      -7.658  -0.317   3.658  1.00  0.00     0.049 A 
ATOM     41  N   UNL     1      -9.417  -2.567   3.104  1.00  0.00    -0.248 NA
ATOM     42  C   UNL     1     -10.244  -1.573   1.199  1.00  0.00     0.031 C 
ATOM     43  C   UNL     1      -6.955  -1.489   4.160  1.00  0.00     0.029 A 
ATOM     44  N   UNL     1      -7.193   0.730   4.462  1.00  0.00    -0.354 N 
ATOM     45  C   UNL     1      -9.921  -3.557   2.296  1.00  0.00     0.074 A 
ATOM     46  C   UNL     1     -10.588  -2.864   1.224  1.00  0.00     0.031 C 
ATOM     47  C   UNL     1      -6.376  -1.175   5.330  1.00  0.00     0.029 A 
ATOM     48  C   UNL     1      -6.870   0.141   5.698  1.00  0.00     0.049 A 
ATOM     49  H   UNL     1      -7.109   1.679   4.215  1.00  0.00     0.167 HD
ATOM     50  C   UNL     1      -9.533  -4.839   2.529  1.00  0.00     0.034 A 
ATOM     51  C   UNL     1      -7.510   0.446   6.868  1.00  0.00     0.034 A 
ATOM     52  C   UNL     1      -8.894  -4.962   3.847  1.00  0.00     0.049 A 
ATOM     53  C   UNL     1      -8.128  -0.767   7.546  1.00  0.00     0.074 A 
ATOM     54  C   UNL     1      -7.588  -5.143   4.267  1.00  0.00     0.029 A 
ATOM     55  N   UNL     1      -9.625  -4.625   4.984  1.00  0.00    -0.354 N 
ATOM     56  N   UNL     1      -8.207  -1.951   7.005  1.00  0.00    -0.248 NA
ATOM     57  C   UNL     1      -8.730  -0.736   8.876  1.00  0.00     0.031 C 
ATOM     58  C   UNL     1      -7.520  -4.788   5.646  1.00  0.00     0.029 A 
ATOM     59  C   UNL     1      -8.792  -4.448   6.076  1.00  0.00     0.049 A 
ATOM     60  H   UNL     1     -10.604  -4.526   5.007  1.00  0.00     0.167 HD
ATOM     61  C   UNL     1      -8.950  -2.787   7.797  1.00  0.00     0.074 A 
ATOM     62  C   UNL     1      -9.179  -1.999   8.998  1.00  0.00     0.031 C 
ATOM     63  C   UNL     1      -9.356  -4.023   7.359  1.00  0.00     0.034 A 
BRANCH  50  64
ATOM     64  C   UNL     1      -9.533  -5.956   1.498  1.00  0.00     0.023 A 
ATOM     65  C   UNL     1      -9.113  -7.233   1.932  1.00  0.00     0.012 A 
ATOM     66  C   UNL     1      -9.799  -5.835   0.109  1.00  0.00     0.148 A 
ATOM     67  C   UNL     1      -8.960  -8.314   1.052  1.00  0.00     0.002 A 
ATOM     68  C   UNL     1      -9.726  -6.933  -0.754  1.00  0.00     0.091 A 
ATOM     69  F   UNL     1     -10.020  -4.637  -0.437  1.00  0.00    -0.205 F 
ATOM     70  C   UNL     1      -9.287  -8.172  -0.288  1.00  0.00     0.022 A 
BRANCH  68  71
ATOM     71  S   UNL     1     -10.206  -6.819  -2.489  1.00  0.00     0.127 S 
ATOM     72  O   UNL     1      -8.913  -6.856  -3.171  1.00  0.00    -0.237 OA
ATOM     73  O   UNL     1     -11.023  -8.020  -2.670  1.00  0.00    -0.237 OA
ATOM     74  O   UNL     1     -10.946  -5.570  -2.623  1.00  0.00    -0.744 OA
ENDBRANCH  68  71
ENDBRANCH  50  64
BRANCH  51  75
ATOM     75  C   UNL     1      -8.068   1.834   6.892  1.00  0.00     0.023 A 
ATOM     76  C   UNL     1      -7.140   2.894   6.736  1.00  0.00     0.012 A 
ATOM     77  C   UNL     1      -9.426   2.082   6.630  1.00  0.00     0.148 A 
ATOM     78  C   UNL     1      -7.526   4.106   6.162  1.00  0.00     0.002 A 
ATOM     79  C   UNL     1      -9.807   3.303   6.074  1.00  0.00     0.091 A 
ATOM     80  F   UNL     1     -10.314   1.103   6.848  1.00  0.00    -0.205 F 
ATOM     81  C   UNL     1      -8.853   4.294   5.791  1.00  0.00     0.022 A 
BRANCH  79  82
ATOM     82  S   UNL     1     -11.511   3.607   5.585  1.00  0.00     0.127 S 
ATOM     83  O   UNL     1     -12.071   4.168   6.811  1.00  0.00    -0.237 OA
ATOM     84  O   UNL     1     -11.367   4.559   4.485  1.00  0.00    -0.237 OA
ATOM     85  O   UNL     1     -12.012   2.302   5.179  1.00  0.00    -0.744 OA
ENDBRANCH  79  82
ENDBRANCH  51  75
BRANCH  63  86
ATOM     86  C   UNL     1     -10.349  -4.946   8.057  1.00  0.00     0.023 A 
ATOM     87  C   UNL     1     -11.228  -4.505   9.065  1.00  0.00     0.012 A 
ATOM     88  C   UNL     1     -10.528  -6.286   7.615  1.00  0.00     0.148 A 
ATOM     89  C   UNL     1     -12.189  -5.348   9.639  1.00  0.00     0.002 A 
ATOM     90  C   UNL     1     -11.560  -7.083   8.106  1.00  0.00     0.091 A 
ATOM     91  F   UNL     1      -9.678  -6.818   6.724  1.00  0.00    -0.205 F 
ATOM     92  C   UNL     1     -12.375  -6.629   9.142  1.00  0.00     0.022 A 
BRANCH  90  93
ATOM     93  S   UNL     1     -11.980  -8.647   7.319  1.00  0.00     0.127 S 
ATOM     94  O   UNL     1     -11.235  -9.606   8.130  1.00  0.00    -0.237 OA
ATOM     95  O   UNL     1     -13.434  -8.706   7.490  1.00  0.00    -0.237 OA
ATOM     96  O   UNL     1     -11.551  -8.502   5.934  1.00  0.00    -0.744 OA
ENDBRANCH  90  93
ENDBRANCH  63  86
ENDBRANCH  37  38
ENDBRANCH  29  32
ENDBRANCH  27  28
ENDBRANCH  26  27
ENDBRANCH   1  26
TORSDOF 19
