REMARK SMILES Cc1nc(-c2ccccc2)sc1C(=O)N[C@@H](CC1=c2ccccc2=NC1)C(=O)NCCCCCCNC(=O)c1ccc(-c2c3nc(c(-c4cccc(S(=O)(=O)[O-])c4F)c4ccc([nH]4)c(-c4cccc(S(=O)(=O)[O-])c4F)c4nc(c(-c5cccc(S(=O)(=O)[O-])c5F)c5ccc2[nH]5)C=C4)C=C3)cc1
REMARK SMILES IDX 32 1 31 2 30 3 29 4 27 5 28 6 16 8 15 9 13 10 14 11 12 13
REMARK SMILES IDX 1 14 2 15 3 16 4 17 11 18 5 19 6 20 10 21 7 22 9 23 8 24
REMARK SMILES IDX 17 25 18 26 19 27 26 28 20 29 24 30 25 31 21 32 23 33 22 34
REMARK SMILES IDX 33 35 34 36 35 37 36 38 37 39 38 41 39 42 40 43 101 44 41 45
REMARK SMILES IDX 100 46 42 47 43 48 44 49 94 50 45 51 99 52 93 53 95 54 46 55
REMARK SMILES IDX 98 56 92 57 91 58 47 60 79 61 59 62 78 63 60 64 63 65 77 66
REMARK SMILES IDX 96 67 61 68 62 69 76 71 97 72 64 73 48 74 49 75 57 76 50 77
REMARK SMILES IDX 52 78 58 79 51 80 53 81 54 82 55 83 56 84 80 85 81 86 89 87
REMARK SMILES IDX 82 88 84 89 90 90 83 91 85 92 86 93 87 94 88 95 65 96 66 97
REMARK SMILES IDX 74 98 67 99 69 100 75 101 68 102 70 103 71 104 72 105 73 106
REMARK H PARENT 29 7 15 12 36 40 95 59 63 70
REMARK Flexibility Score: inf
ROOT
ATOM      1  C   UNL     1      -4.512  -6.744   3.211  1.00  0.00     0.002 C 
ENDROOT
BRANCH   1   2
ATOM      2  C   UNL     1      -3.364  -6.275   2.317  1.00  0.00     0.021 C 
BRANCH   2   3
ATOM      3  C   UNL     1      -3.738  -5.173   1.345  1.00  0.00     0.116 C 
BRANCH   3   4
ATOM      4  N   UNL     1      -4.080  -3.930   1.984  1.00  0.00    -0.354 N 
ATOM      5  C   UNL     1      -3.958  -2.667   1.506  1.00  0.00     0.242 C 
ATOM      6  O   UNL     1      -4.593  -1.782   2.094  1.00  0.00    -0.273 OA
ATOM      7  H   UNL     1      -4.453  -4.006   2.891  1.00  0.00     0.163 HD
BRANCH   5   8
ATOM      8  C   UNL     1      -3.115  -2.305   0.265  1.00  0.00     0.175 C 
BRANCH   8   9
ATOM      9  N   UNL     1      -1.726  -2.720   0.299  1.00  0.00    -0.339 N 
ATOM     10  C   UNL     1      -0.546  -2.047   0.131  1.00  0.00     0.263 C 
ATOM     11  O   UNL     1       0.429  -2.812   0.139  1.00  0.00    -0.268 OA
ATOM     12  H   UNL     1      -1.608  -3.680   0.481  1.00  0.00     0.164 HD
BRANCH  10  13
ATOM     13  C   UNL     1      -0.400  -0.598  -0.013  1.00  0.00     0.115 A 
ATOM     14  C   UNL     1      -2.637   0.766  -0.492  1.00  0.00     0.068 C 
ATOM     15  C   UNL     1      -1.193   0.535  -0.227  1.00  0.00     0.062 A 
ATOM     16  N   UNL     1      -0.514   1.738  -0.179  1.00  0.00    -0.241 NA
ATOM     17  C   UNL     1       0.772   1.565  -0.047  1.00  0.00     0.124 A 
ATOM     18  S   UNL     1       1.275  -0.044   0.084  1.00  0.00    -0.108 S 
BRANCH  17  19
ATOM     19  C   UNL     1       1.679   2.699   0.002  1.00  0.00     0.010 A 
ATOM     20  C   UNL     1       1.474   3.667   0.997  1.00  0.00     0.011 A 
ATOM     21  C   UNL     1       2.593   2.947  -1.027  1.00  0.00     0.011 A 
ATOM     22  C   UNL     1       2.152   4.881   0.950  1.00  0.00     0.001 A 
ATOM     23  C   UNL     1       3.266   4.168  -1.076  1.00  0.00     0.001 A 
ATOM     24  C   UNL     1       3.038   5.135  -0.095  1.00  0.00     0.000 A 
ENDBRANCH  17  19
ENDBRANCH  10  13
ENDBRANCH   8   9
BRANCH   8  25
ATOM     25  C   UNL     1      -3.780  -2.504  -1.122  1.00  0.00     0.068 C 
BRANCH  25  26
ATOM     26  C   UNL     1      -3.992  -3.902  -1.609  1.00  0.00    -0.037 C 
ATOM     27  C   UNL     1      -3.092  -4.827  -1.943  1.00  0.00     0.001 A 
ATOM     28  C   UNL     1      -5.380  -4.468  -1.704  1.00  0.00     0.174 C 
ATOM     29  C   UNL     1      -1.669  -4.870  -2.043  1.00  0.00     0.010 A 
ATOM     30  C   UNL     1      -3.907  -6.055  -1.987  1.00  0.00     0.065 A 
ATOM     31  N   UNL     1      -5.191  -5.927  -1.849  1.00  0.00    -0.280 NA
ATOM     32  C   UNL     1      -1.060  -6.066  -2.068  1.00  0.00     0.001 A 
ATOM     33  C   UNL     1      -3.165  -7.333  -2.038  1.00  0.00     0.028 A 
ATOM     34  C   UNL     1      -1.821  -7.304  -2.031  1.00  0.00     0.002 A 
ENDBRANCH  25  26
ENDBRANCH   8  25
ENDBRANCH   5   8
ENDBRANCH   3   4
ENDBRANCH   2   3
ENDBRANCH   1   2
BRANCH   1  35
ATOM     35  C   UNL     1      -5.815  -7.107   2.489  1.00  0.00     0.002 C 
BRANCH  35  36
ATOM     36  C   UNL     1      -5.684  -8.101   1.333  1.00  0.00     0.021 C 
BRANCH  36  37
ATOM     37  C   UNL     1      -4.922  -9.377   1.659  1.00  0.00     0.116 C 
BRANCH  37  38
ATOM     38  N   UNL     1      -5.490 -10.079   2.798  1.00  0.00    -0.352 N 
ATOM     39  C   UNL     1      -5.925 -11.379   2.885  1.00  0.00     0.251 C 
ATOM     40  H   UNL     1      -5.574  -9.549   3.623  1.00  0.00     0.163 HD
ATOM     41  O   UNL     1      -6.548 -11.760   3.865  1.00  0.00    -0.269 OA
BRANCH  39  42
ATOM     42  C   UNL     1      -5.645 -12.302   1.767  1.00  0.00     0.039 A 
ATOM     43  C   UNL     1      -6.691 -13.066   1.247  1.00  0.00     0.014 A 
ATOM     44  C   UNL     1      -4.362 -12.383   1.219  1.00  0.00     0.014 A 
ATOM     45  C   UNL     1      -6.464 -13.867   0.127  1.00  0.00     0.010 A 
ATOM     46  C   UNL     1      -4.157 -13.124   0.061  1.00  0.00     0.010 A 
ATOM     47  C   UNL     1      -5.206 -13.870  -0.498  1.00  0.00    -0.014 A 
BRANCH  47  48
ATOM     48  C   UNL     1      -4.971 -14.620  -1.756  1.00  0.00     0.031 A 
ATOM     49  C   UNL     1      -3.975 -15.744  -1.790  1.00  0.00     0.074 A 
ATOM     50  C   UNL     1      -5.583 -14.220  -2.887  1.00  0.00     0.049 A 
ATOM     51  N   UNL     1      -3.573 -16.457  -2.809  1.00  0.00    -0.248 NA
ATOM     52  C   UNL     1      -3.328 -16.097  -0.516  1.00  0.00     0.031 C 
ATOM     53  C   UNL     1      -6.525 -13.103  -2.990  1.00  0.00     0.029 A 
ATOM     54  N   UNL     1      -5.483 -14.689  -4.173  1.00  0.00    -0.354 N 
ATOM     55  C   UNL     1      -2.607 -17.322  -2.309  1.00  0.00     0.074 A 
ATOM     56  C   UNL     1      -2.456 -17.017  -0.902  1.00  0.00     0.031 C 
ATOM     57  C   UNL     1      -6.922 -12.978  -4.266  1.00  0.00     0.029 A 
ATOM     58  C   UNL     1      -6.232 -13.974  -5.079  1.00  0.00     0.049 A 
ATOM     59  H   UNL     1      -4.928 -15.462  -4.423  1.00  0.00     0.167 HD
ATOM     60  C   UNL     1      -1.927 -18.298  -2.955  1.00  0.00     0.034 A 
ATOM     61  C   UNL     1      -6.338 -14.097  -6.416  1.00  0.00     0.034 A 
ATOM     62  C   UNL     1      -2.097 -18.608  -4.349  1.00  0.00     0.049 A 
ATOM     63  C   UNL     1      -5.555 -15.175  -7.115  1.00  0.00     0.074 A 
ATOM     64  C   UNL     1      -1.513 -19.625  -5.082  1.00  0.00     0.029 A 
ATOM     65  N   UNL     1      -2.897 -17.891  -5.227  1.00  0.00    -0.354 N 
ATOM     66  N   UNL     1      -4.760 -16.082  -6.601  1.00  0.00    -0.248 NA
ATOM     67  C   UNL     1      -5.701 -15.262  -8.575  1.00  0.00     0.031 C 
ATOM     68  C   UNL     1      -1.929 -19.500  -6.411  1.00  0.00     0.029 A 
ATOM     69  C   UNL     1      -2.801 -18.426  -6.500  1.00  0.00     0.049 A 
ATOM     70  H   UNL     1      -3.451 -17.116  -4.981  1.00  0.00     0.167 HD
ATOM     71  C   UNL     1      -4.335 -16.865  -7.667  1.00  0.00     0.074 A 
ATOM     72  C   UNL     1      -4.978 -16.339  -8.854  1.00  0.00     0.031 C 
ATOM     73  C   UNL     1      -3.478 -17.917  -7.666  1.00  0.00     0.034 A 
BRANCH  60  74
ATOM     74  C   UNL     1      -0.961 -19.125  -2.146  1.00  0.00     0.023 A 
ATOM     75  C   UNL     1      -1.453 -20.019  -1.171  1.00  0.00     0.012 A 
ATOM     76  C   UNL     1       0.427 -19.047  -2.369  1.00  0.00     0.148 A 
ATOM     77  C   UNL     1      -0.579 -20.785  -0.401  1.00  0.00     0.002 A 
ATOM     78  C   UNL     1       1.290 -19.849  -1.631  1.00  0.00     0.091 A 
ATOM     79  F   UNL     1       0.881 -18.178  -3.285  1.00  0.00    -0.205 F 
ATOM     80  C   UNL     1       0.790 -20.707  -0.637  1.00  0.00     0.022 A 
BRANCH  78  81
ATOM     81  S   UNL     1       3.063 -19.881  -1.913  1.00  0.00     0.127 S 
ATOM     82  O   UNL     1       3.564 -19.204  -0.717  1.00  0.00    -0.237 OA
ATOM     83  O   UNL     1       3.342 -21.316  -1.963  1.00  0.00    -0.237 OA
ATOM     84  O   UNL     1       3.283 -19.176  -3.168  1.00  0.00    -0.744 OA
ENDBRANCH  78  81
ENDBRANCH  60  74
BRANCH  61  85
ATOM     85  C   UNL     1      -7.259 -13.204  -7.176  1.00  0.00     0.023 A 
ATOM     86  C   UNL     1      -8.427 -13.746  -7.745  1.00  0.00     0.012 A 
ATOM     87  C   UNL     1      -7.003 -11.826  -7.311  1.00  0.00     0.148 A 
ATOM     88  C   UNL     1      -9.311 -12.938  -8.460  1.00  0.00     0.002 A 
ATOM     89  C   UNL     1      -7.914 -11.016  -7.979  1.00  0.00     0.091 A 
ATOM     90  F   UNL     1      -5.882 -11.332  -6.767  1.00  0.00    -0.205 F 
ATOM     91  C   UNL     1      -9.060 -11.572  -8.569  1.00  0.00     0.022 A 
BRANCH  89  92
ATOM     92  S   UNL     1      -7.739  -9.231  -8.070  1.00  0.00     0.127 S 
ATOM     93  O   UNL     1      -7.525  -9.024  -9.501  1.00  0.00    -0.237 OA
ATOM     94  O   UNL     1      -9.036  -8.777  -7.569  1.00  0.00    -0.237 OA
ATOM     95  O   UNL     1      -6.609  -8.900  -7.213  1.00  0.00    -0.744 OA
ENDBRANCH  89  92
ENDBRANCH  61  85
BRANCH  73  96
ATOM     96  C   UNL     1      -3.195 -18.591  -8.984  1.00  0.00     0.023 A 
ATOM     97  C   UNL     1      -2.390 -17.944  -9.942  1.00  0.00     0.012 A 
ATOM     98  C   UNL     1      -3.649 -19.901  -9.233  1.00  0.00     0.148 A 
ATOM     99  C   UNL     1      -2.062 -18.580 -11.138  1.00  0.00     0.002 A 
ATOM    100  C   UNL     1      -3.276 -20.549 -10.405  1.00  0.00     0.091 A 
ATOM    101  F   UNL     1      -4.425 -20.493  -8.314  1.00  0.00    -0.205 F 
ATOM    102  C   UNL     1      -2.493 -19.886 -11.363  1.00  0.00     0.022 A 
BRANCH 100 103
ATOM    103  S   UNL     1      -3.700 -22.261 -10.743  1.00  0.00     0.127 S 
ATOM    104  O   UNL     1      -4.595 -22.125 -11.892  1.00  0.00    -0.237 OA
ATOM    105  O   UNL     1      -2.395 -22.845 -11.053  1.00  0.00    -0.237 OA
ATOM    106  O   UNL     1      -4.324 -22.772  -9.530  1.00  0.00    -0.744 OA
ENDBRANCH 100 103
ENDBRANCH  73  96
ENDBRANCH  47  48
ENDBRANCH  39  42
ENDBRANCH  37  38
ENDBRANCH  36  37
ENDBRANCH  35  36
ENDBRANCH   1  35
TORSDOF 21
