REMARK SMILES Cc1cccc(NS(=O)(=O)c2ccc(Br)c(C(=O)NCCCCCCNC(=O)c3ccc(-c4c5nc(c(-c6cccc(S(=O)(=O)[O-])c6F)c6ccc([nH]6)c(-c6cccc(S(=O)(=O)[O-])c6F)c6nc(c(-c7cccc(S(=O)(=O)[O-])c7F)c7ccc4[nH]7)C=C6)C=C5)cc3)c2)c1
REMARK SMILES IDX 22 1 21 2 20 3 19 4 17 5 18 6 16 8 11 9 12 10 92 11 13 12
REMARK SMILES IDX 14 13 15 14 8 15 9 16 10 17 7 18 6 20 1 21 2 22 3 23 93 24
REMARK SMILES IDX 4 25 5 26 23 27 24 28 25 29 26 30 27 31 28 33 29 34 30 35
REMARK SMILES IDX 91 36 31 37 90 38 32 39 33 40 34 41 84 42 35 43 89 44 83 45
REMARK SMILES IDX 85 46 36 47 88 48 82 49 81 50 37 52 69 53 49 54 68 55 50 56
REMARK SMILES IDX 53 57 67 58 86 59 51 60 52 61 66 63 87 64 54 65 38 66 39 67
REMARK SMILES IDX 47 68 40 69 42 70 48 71 41 72 43 73 44 74 45 75 46 76 70 77
REMARK SMILES IDX 71 78 79 79 72 80 74 81 80 82 73 83 75 84 76 85 77 86 78 87
REMARK SMILES IDX 55 88 56 89 64 90 57 91 59 92 65 93 58 94 60 95 61 96 62 97
REMARK SMILES IDX 63 98
REMARK H PARENT 19 7 7 19 26 32 85 51 53 62
REMARK Flexibility Score: inf
ROOT
ATOM      1  C   UNL     1      -9.499  -4.766   0.970  1.00  0.00     0.002 C 
ENDROOT
BRANCH   1   2
ATOM      2  C   UNL     1      -8.181  -4.182   1.471  1.00  0.00     0.021 C 
BRANCH   2   3
ATOM      3  C   UNL     1      -7.364  -3.350   0.500  1.00  0.00     0.116 C 
BRANCH   3   4
ATOM      4  N   UNL     1      -7.952  -2.135  -0.023  1.00  0.00    -0.352 N 
ATOM      5  C   UNL     1      -7.314  -1.027  -0.555  1.00  0.00     0.252 C 
ATOM      6  O   UNL     1      -7.989  -0.161  -1.110  1.00  0.00    -0.269 OA
ATOM      7  H   UNL     1      -8.936  -2.090   0.002  1.00  0.00     0.163 HD
BRANCH   5   8
ATOM      8  C   UNL     1      -5.857  -0.779  -0.327  1.00  0.00     0.055 A 
ATOM      9  C   UNL     1      -4.173   0.791   0.441  1.00  0.00     0.088 A 
ATOM     10  C   UNL     1      -3.425  -0.260   0.955  1.00  0.00     0.023 A 
ATOM     11  C   UNL     1      -5.450   0.539  -0.084  1.00  0.00     0.037 A 
ATOM     12  C   UNL     1      -3.734  -1.547   0.521  1.00  0.00     0.018 A 
ATOM     13  C   UNL     1      -4.872  -1.761  -0.259  1.00  0.00     0.030 A 
ATOM     14  Br  UNL     1      -4.785  -3.195  -1.514  1.00  0.00    -0.050 Br
BRANCH   9  15
ATOM     15  S   UNL     1      -3.476   2.411   0.224  1.00  0.00     0.261 S 
ATOM     16  O   UNL     1      -3.575   3.078   1.493  1.00  0.00    -0.201 OA
ATOM     17  O   UNL     1      -4.113   2.982  -0.960  1.00  0.00    -0.201 OA
BRANCH  15  18
ATOM     18  N   UNL     1      -1.819   2.381  -0.134  1.00  0.00    -0.280 N 
ATOM     19  H   UNL     1      -1.371   3.257  -0.180  1.00  0.00     0.180 HD
BRANCH  18  20
ATOM     20  C   UNL     1      -0.991   1.239  -0.377  1.00  0.00     0.049 A 
ATOM     21  C   UNL     1       2.666   0.339   0.300  1.00  0.00     0.044 C 
ATOM     22  C   UNL     1       1.218   0.230  -0.079  1.00  0.00    -0.049 A 
ATOM     23  C   UNL     1       0.716  -0.979  -0.560  1.00  0.00     0.003 A 
ATOM     24  C   UNL     1       0.347   1.324   0.038  1.00  0.00     0.030 A 
ATOM     25  C   UNL     1      -0.570  -1.029  -1.093  1.00  0.00     0.002 A 
ATOM     26  C   UNL     1      -1.383   0.112  -1.090  1.00  0.00     0.027 A 
ENDBRANCH  18  20
ENDBRANCH  15  18
ENDBRANCH   9  15
ENDBRANCH   5   8
ENDBRANCH   3   4
ENDBRANCH   2   3
ENDBRANCH   1   2
BRANCH   1  27
ATOM     27  C   UNL     1      -9.540  -5.388  -0.433  1.00  0.00     0.002 C 
BRANCH  27  28
ATOM     28  C   UNL     1      -8.434  -6.364  -0.827  1.00  0.00     0.021 C 
BRANCH  28  29
ATOM     29  C   UNL     1      -8.233  -7.530   0.114  1.00  0.00     0.116 C 
BRANCH  29  30
ATOM     30  N   UNL     1      -9.173  -8.604  -0.102  1.00  0.00    -0.352 N 
ATOM     31  C   UNL     1      -9.094  -9.926   0.286  1.00  0.00     0.251 C 
ATOM     32  H   UNL     1      -9.988  -8.358  -0.598  1.00  0.00     0.163 HD
ATOM     33  O   UNL     1      -9.819 -10.732  -0.292  1.00  0.00    -0.269 OA
BRANCH  31  34
ATOM     34  C   UNL     1      -8.322 -10.319   1.500  1.00  0.00     0.039 A 
ATOM     35  C   UNL     1      -8.886 -11.343   2.272  1.00  0.00     0.014 A 
ATOM     36  C   UNL     1      -7.376  -9.477   2.073  1.00  0.00     0.014 A 
ATOM     37  C   UNL     1      -8.798 -11.280   3.655  1.00  0.00     0.010 A 
ATOM     38  C   UNL     1      -7.376  -9.335   3.434  1.00  0.00     0.010 A 
ATOM     39  C   UNL     1      -8.180 -10.173   4.205  1.00  0.00    -0.014 A 
BRANCH  39  40
ATOM     40  C   UNL     1      -8.205  -9.797   5.597  1.00  0.00     0.031 A 
ATOM     41  C   UNL     1      -7.133 -10.335   6.449  1.00  0.00     0.074 A 
ATOM     42  C   UNL     1      -8.947  -8.709   5.911  1.00  0.00     0.049 A 
ATOM     43  N   UNL     1      -7.003 -10.056   7.693  1.00  0.00    -0.248 NA
ATOM     44  C   UNL     1      -6.103 -11.249   5.950  1.00  0.00     0.031 C 
ATOM     45  C   UNL     1      -8.700  -7.745   6.977  1.00  0.00     0.029 A 
ATOM     46  N   UNL     1     -10.120  -8.214   5.345  1.00  0.00    -0.354 N 
ATOM     47  C   UNL     1      -5.743 -10.463   8.068  1.00  0.00     0.074 A 
ATOM     48  C   UNL     1      -5.293 -11.328   7.010  1.00  0.00     0.031 C 
ATOM     49  C   UNL     1      -9.810  -7.007   7.165  1.00  0.00     0.029 A 
ATOM     50  C   UNL     1     -10.858  -7.639   6.387  1.00  0.00     0.049 A 
ATOM     51  H   UNL     1     -10.379  -8.259   4.396  1.00  0.00     0.167 HD
ATOM     52  C   UNL     1      -5.188  -9.870   9.158  1.00  0.00     0.034 A 
ATOM     53  C   UNL     1     -11.970  -8.224   6.944  1.00  0.00     0.034 A 
ATOM     54  C   UNL     1      -6.211  -9.081   9.867  1.00  0.00     0.049 A 
ATOM     55  C   UNL     1     -11.775  -8.595   8.416  1.00  0.00     0.074 A 
ATOM     56  C   UNL     1      -6.507  -7.729   9.911  1.00  0.00     0.029 A 
ATOM     57  N   UNL     1      -7.325  -9.741  10.383  1.00  0.00    -0.354 N 
ATOM     58  N   UNL     1     -10.621  -8.595   9.029  1.00  0.00    -0.248 NA
ATOM     59  C   UNL     1     -12.861  -8.981   9.316  1.00  0.00     0.031 C 
ATOM     60  C   UNL     1      -7.861  -7.597  10.342  1.00  0.00     0.029 A 
ATOM     61  C   UNL     1      -8.369  -8.858  10.613  1.00  0.00     0.049 A 
ATOM     62  H   UNL     1      -7.365 -10.709  10.560  1.00  0.00     0.167 HD
ATOM     63  C   UNL     1     -10.750  -9.073  10.305  1.00  0.00     0.074 A 
ATOM     64  C   UNL     1     -12.190  -9.219  10.459  1.00  0.00     0.031 C 
ATOM     65  C   UNL     1      -9.662  -9.354  11.096  1.00  0.00     0.034 A 
BRANCH  52  66
ATOM     66  C   UNL     1      -3.708  -9.814   9.501  1.00  0.00     0.023 A 
ATOM     67  C   UNL     1      -3.359  -9.094  10.665  1.00  0.00     0.012 A 
ATOM     68  C   UNL     1      -2.621 -10.313   8.737  1.00  0.00     0.148 A 
ATOM     69  C   UNL     1      -2.030  -8.866  11.042  1.00  0.00     0.002 A 
ATOM     70  C   UNL     1      -1.293 -10.132   9.141  1.00  0.00     0.091 A 
ATOM     71  F   UNL     1      -2.835 -10.903   7.561  1.00  0.00    -0.205 F 
ATOM     72  C   UNL     1      -0.994  -9.395  10.287  1.00  0.00     0.022 A 
BRANCH  70  73
ATOM     73  S   UNL     1       0.108 -10.816   8.229  1.00  0.00     0.127 S 
ATOM     74  O   UNL     1       0.772  -9.608   7.737  1.00  0.00    -0.237 OA
ATOM     75  O   UNL     1       0.843 -11.530   9.272  1.00  0.00    -0.237 OA
ATOM     76  O   UNL     1      -0.453 -11.674   7.192  1.00  0.00    -0.744 OA
ENDBRANCH  70  73
ENDBRANCH  52  66
BRANCH  53  77
ATOM     77  C   UNL     1     -12.771  -9.007   5.952  1.00  0.00     0.023 A 
ATOM     78  C   UNL     1     -13.304  -8.276   4.862  1.00  0.00     0.012 A 
ATOM     79  C   UNL     1     -12.583 -10.393   5.811  1.00  0.00     0.148 A 
ATOM     80  C   UNL     1     -13.408  -8.861   3.600  1.00  0.00     0.002 A 
ATOM     81  C   UNL     1     -12.706 -10.974   4.550  1.00  0.00     0.091 A 
ATOM     82  F   UNL     1     -12.220 -11.106   6.885  1.00  0.00    -0.205 F 
ATOM     83  C   UNL     1     -13.052 -10.195   3.433  1.00  0.00     0.022 A 
BRANCH  81  84
ATOM     84  S   UNL     1     -12.299 -12.705   4.279  1.00  0.00     0.127 S 
ATOM     85  O   UNL     1     -13.600 -13.345   4.454  1.00  0.00    -0.237 OA
ATOM     86  O   UNL     1     -11.797 -12.709   2.906  1.00  0.00    -0.237 OA
ATOM     87  O   UNL     1     -11.290 -13.012   5.282  1.00  0.00    -0.744 OA
ENDBRANCH  81  84
ENDBRANCH  53  77
BRANCH  65  88
ATOM     88  C   UNL     1      -9.704 -10.139  12.404  1.00  0.00     0.023 A 
ATOM     89  C   UNL     1     -10.813 -10.917  12.787  1.00  0.00     0.012 A 
ATOM     90  C   UNL     1      -8.561 -10.230  13.245  1.00  0.00     0.148 A 
ATOM     91  C   UNL     1     -10.829 -11.670  13.967  1.00  0.00     0.002 A 
ATOM     92  C   UNL     1      -8.533 -11.089  14.342  1.00  0.00     0.091 A 
ATOM     93  F   UNL     1      -7.487  -9.463  13.009  1.00  0.00    -0.205 F 
ATOM     94  C   UNL     1      -9.680 -11.777  14.733  1.00  0.00     0.022 A 
BRANCH  92  95
ATOM     95  S   UNL     1      -6.994 -11.472  15.191  1.00  0.00     0.127 S 
ATOM     96  O   UNL     1      -7.063 -10.591  16.354  1.00  0.00    -0.237 OA
ATOM     97  O   UNL     1      -7.154 -12.896  15.495  1.00  0.00    -0.237 OA
ATOM     98  O   UNL     1      -5.941 -11.184  14.228  1.00  0.00    -0.744 OA
ENDBRANCH  92  95
ENDBRANCH  65  88
ENDBRANCH  39  40
ENDBRANCH  31  34
ENDBRANCH  29  30
ENDBRANCH  28  29
ENDBRANCH  27  28
ENDBRANCH   1  27
TORSDOF 19
