REMARK SMILES CCNS(=O)(=O)c1ccc(CC(=O)NCCCCCCNC(=O)c2ccc(-c3c4nc(c(-c5cccc(S(=O)(=O)[O-])c5F)c5ccc([nH]5)c(-c5cccc(S(=O)(=O)[O-])c5F)c5nc(c(-c6cccc(S(=O)(=O)[O-])c6F)c6ccc3[nH]6)C=C5)C=C4)cc2)cc1
REMARK SMILES IDX 17 1 16 2 15 3 14 4 12 5 13 6 11 8 10 9 7 10 8 11 88 12 9 13
REMARK SMILES IDX 87 14 4 15 5 16 6 17 3 18 2 20 1 21 18 22 19 23 20 24 21 25
REMARK SMILES IDX 22 26 23 28 24 29 25 30 86 31 26 32 85 33 27 34 28 35 29 36
REMARK SMILES IDX 79 37 30 38 84 39 78 40 80 41 31 42 83 43 77 44 76 45 32 47
REMARK SMILES IDX 64 48 44 49 63 50 45 51 48 52 62 53 81 54 46 55 47 56 61 58
REMARK SMILES IDX 82 59 49 60 33 61 34 62 42 63 35 64 37 65 43 66 36 67 38 68
REMARK SMILES IDX 39 69 40 70 41 71 65 72 66 73 74 74 67 75 69 76 75 77 68 78
REMARK SMILES IDX 70 79 71 80 72 81 73 82 50 83 51 84 59 85 52 86 54 87 60 88
REMARK SMILES IDX 53 89 55 90 56 91 57 92 58 93
REMARK H PARENT 14 7 3 19 21 27 80 46 48 57
REMARK Flexibility Score: inf
ROOT
ATOM      1  C   UNL     1      -4.359   3.846   5.121  1.00  0.00     0.002 C 
ENDROOT
BRANCH   1   2
ATOM      2  C   UNL     1      -4.078   3.316   3.708  1.00  0.00     0.021 C 
BRANCH   2   3
ATOM      3  C   UNL     1      -5.329   2.925   2.918  1.00  0.00     0.116 C 
BRANCH   3   4
ATOM      4  N   UNL     1      -6.136   4.087   2.590  1.00  0.00    -0.356 N 
ATOM      5  C   UNL     1      -6.310   4.706   1.386  1.00  0.00     0.224 C 
ATOM      6  O   UNL     1      -6.971   5.747   1.350  1.00  0.00    -0.275 OA
ATOM      7  H   UNL     1      -6.627   4.486   3.344  1.00  0.00     0.163 HD
BRANCH   5   8
ATOM      8  C   UNL     1      -5.744   4.088   0.118  1.00  0.00     0.135 C 
BRANCH   8   9
ATOM      9  C   UNL     1      -4.236   4.095   0.028  1.00  0.00    -0.039 A 
ATOM     10  C   UNL     1      -1.439   4.029  -0.020  1.00  0.00     0.082 A 
ATOM     11  C   UNL     1      -2.103   5.220   0.291  1.00  0.00     0.022 A 
ATOM     12  C   UNL     1      -2.159   2.886  -0.363  1.00  0.00     0.022 A 
ATOM     13  C   UNL     1      -3.498   5.255   0.303  1.00  0.00     0.005 A 
ATOM     14  C   UNL     1      -3.554   2.923  -0.341  1.00  0.00     0.005 A 
BRANCH  10  15
ATOM     15  S   UNL     1       0.331   4.024   0.088  1.00  0.00     0.240 S 
ATOM     16  O   UNL     1       0.683   4.288   1.465  1.00  0.00    -0.207 OA
ATOM     17  O   UNL     1       0.812   4.849  -1.000  1.00  0.00    -0.207 OA
BRANCH  15  18
ATOM     18  N   UNL     1       0.802   2.454  -0.288  1.00  0.00    -0.211 NA
ATOM     19  H   UNL     1       0.152   2.104  -0.992  1.00  0.00     0.141 HD
BRANCH  18  20
ATOM     20  C   UNL     1       0.848   1.461   0.793  1.00  0.00     0.095 C 
ATOM     21  C   UNL     1       1.096   0.090   0.186  1.00  0.00     0.022 C 
ENDBRANCH  18  20
ENDBRANCH  15  18
ENDBRANCH  10  15
ENDBRANCH   8   9
ENDBRANCH   5   8
ENDBRANCH   3   4
ENDBRANCH   2   3
ENDBRANCH   1   2
BRANCH   1  22
ATOM     22  C   UNL     1      -5.102   2.880   6.051  1.00  0.00     0.002 C 
BRANCH  22  23
ATOM     23  C   UNL     1      -4.440   1.513   6.244  1.00  0.00     0.021 C 
BRANCH  23  24
ATOM     24  C   UNL     1      -3.035   1.550   6.842  1.00  0.00     0.116 C 
BRANCH  24  25
ATOM     25  N   UNL     1      -3.024   2.080   8.197  1.00  0.00    -0.352 N 
ATOM     26  C   UNL     1      -2.443   1.566   9.331  1.00  0.00     0.251 C 
ATOM     27  H   UNL     1      -3.502   2.932   8.319  1.00  0.00     0.163 HD
ATOM     28  O   UNL     1      -2.684   2.072  10.423  1.00  0.00    -0.269 OA
BRANCH  26  29
ATOM     29  C   UNL     1      -1.546   0.392   9.243  1.00  0.00     0.039 A 
ATOM     30  C   UNL     1      -1.695  -0.643  10.172  1.00  0.00     0.014 A 
ATOM     31  C   UNL     1      -0.550   0.315   8.264  1.00  0.00     0.014 A 
ATOM     32  C   UNL     1      -0.887  -1.780  10.083  1.00  0.00     0.010 A 
ATOM     33  C   UNL     1       0.215  -0.843   8.142  1.00  0.00     0.010 A 
ATOM     34  C   UNL     1       0.056  -1.902   9.049  1.00  0.00    -0.014 A 
BRANCH  34  35
ATOM     35  C   UNL     1       0.867  -3.136   8.885  1.00  0.00     0.031 A 
ATOM     36  C   UNL     1       2.362  -3.093   9.048  1.00  0.00     0.074 A 
ATOM     37  C   UNL     1       0.267  -4.276   8.489  1.00  0.00     0.049 A 
ATOM     38  N   UNL     1       3.236  -4.051   8.877  1.00  0.00    -0.248 NA
ATOM     39  C   UNL     1       2.955  -1.800   9.425  1.00  0.00     0.031 C 
ATOM     40  C   UNL     1      -1.164  -4.426   8.214  1.00  0.00     0.029 A 
ATOM     41  N   UNL     1       0.789  -5.516   8.218  1.00  0.00    -0.354 N 
ATOM     42  C   UNL     1       4.481  -3.471   9.087  1.00  0.00     0.074 A 
ATOM     43  C   UNL     1       4.252  -2.072   9.373  1.00  0.00     0.031 C 
ATOM     44  C   UNL     1      -1.404  -5.683   7.808  1.00  0.00     0.029 A 
ATOM     45  C   UNL     1      -0.146  -6.423   7.774  1.00  0.00     0.049 A 
ATOM     46  H   UNL     1       1.742  -5.736   8.330  1.00  0.00     0.167 HD
ATOM     47  C   UNL     1       5.703  -4.056   9.073  1.00  0.00     0.034 A 
ATOM     48  C   UNL     1      -0.006  -7.705   7.382  1.00  0.00     0.034 A 
ATOM     49  C   UNL     1       5.925  -5.459   8.848  1.00  0.00     0.049 A 
ATOM     50  C   UNL     1       1.352  -8.348   7.441  1.00  0.00     0.074 A 
ATOM     51  C   UNL     1       7.115  -6.163   8.917  1.00  0.00     0.029 A 
ATOM     52  N   UNL     1       4.939  -6.372   8.511  1.00  0.00    -0.354 N 
ATOM     53  N   UNL     1       2.495  -7.824   7.812  1.00  0.00    -0.248 NA
ATOM     54  C   UNL     1       1.436  -9.767   7.067  1.00  0.00     0.031 C 
ATOM     55  C   UNL     1       6.848  -7.503   8.613  1.00  0.00     0.029 A 
ATOM     56  C   UNL     1       5.492  -7.633   8.363  1.00  0.00     0.049 A 
ATOM     57  H   UNL     1       3.986  -6.156   8.393  1.00  0.00     0.167 HD
ATOM     58  C   UNL     1       3.427  -8.854   7.745  1.00  0.00     0.074 A 
ATOM     59  C   UNL     1       2.710 -10.038   7.320  1.00  0.00     0.031 C 
ATOM     60  C   UNL     1       4.758  -8.817   7.996  1.00  0.00     0.034 A 
BRANCH  47  61
ATOM     61  C   UNL     1       6.895  -3.189   9.378  1.00  0.00     0.023 A 
ATOM     62  C   UNL     1       7.121  -2.769  10.704  1.00  0.00     0.012 A 
ATOM     63  C   UNL     1       7.821  -2.841   8.375  1.00  0.00     0.148 A 
ATOM     64  C   UNL     1       8.233  -1.992  11.024  1.00  0.00     0.002 A 
ATOM     65  C   UNL     1       8.948  -2.097   8.709  1.00  0.00     0.091 A 
ATOM     66  F   UNL     1       7.577  -3.227   7.115  1.00  0.00    -0.205 F 
ATOM     67  C   UNL     1       9.151  -1.665  10.030  1.00  0.00     0.022 A 
BRANCH  65  68
ATOM     68  S   UNL     1      10.222  -1.690   7.509  1.00  0.00     0.127 S 
ATOM     69  O   UNL     1       9.937  -0.282   7.242  1.00  0.00    -0.237 OA
ATOM     70  O   UNL     1      11.452  -1.931   8.265  1.00  0.00    -0.237 OA
ATOM     71  O   UNL     1      10.016  -2.598   6.389  1.00  0.00    -0.744 OA
ENDBRANCH  65  68
ENDBRANCH  47  61
BRANCH  48  72
ATOM     72  C   UNL     1      -1.208  -8.487   6.978  1.00  0.00     0.023 A 
ATOM     73  C   UNL     1      -1.698  -9.488   7.839  1.00  0.00     0.012 A 
ATOM     74  C   UNL     1      -1.893  -8.217   5.778  1.00  0.00     0.148 A 
ATOM     75  C   UNL     1      -2.835 -10.223   7.500  1.00  0.00     0.002 A 
ATOM     76  C   UNL     1      -3.055  -8.916   5.472  1.00  0.00     0.091 A 
ATOM     77  F   UNL     1      -1.402  -7.272   4.963  1.00  0.00    -0.205 F 
ATOM     78  C   UNL     1      -3.520  -9.929   6.324  1.00  0.00     0.022 A 
BRANCH  76  79
ATOM     79  S   UNL     1      -4.069  -8.505   4.046  1.00  0.00     0.127 S 
ATOM     80  O   UNL     1      -3.729  -9.578   3.116  1.00  0.00    -0.237 OA
ATOM     81  O   UNL     1      -5.422  -8.573   4.599  1.00  0.00    -0.237 OA
ATOM     82  O   UNL     1      -3.655  -7.164   3.651  1.00  0.00    -0.744 OA
ENDBRANCH  76  79
ENDBRANCH  48  72
BRANCH  60  83
ATOM     83  C   UNL     1       5.535 -10.096   7.837  1.00  0.00     0.023 A 
ATOM     84  C   UNL     1       5.833 -10.571   6.545  1.00  0.00     0.012 A 
ATOM     85  C   UNL     1       6.039 -10.782   8.960  1.00  0.00     0.148 A 
ATOM     86  C   UNL     1       6.599 -11.723   6.372  1.00  0.00     0.002 A 
ATOM     87  C   UNL     1       6.837 -11.906   8.780  1.00  0.00     0.091 A 
ATOM     88  F   UNL     1       5.726 -10.327  10.182  1.00  0.00    -0.205 F 
ATOM     89  C   UNL     1       7.111 -12.383   7.487  1.00  0.00     0.022 A 
BRANCH  87  90
ATOM     90  S   UNL     1       7.608 -12.762  10.159  1.00  0.00     0.127 S 
ATOM     91  O   UNL     1       6.741 -13.930  10.307  1.00  0.00    -0.237 OA
ATOM     92  O   UNL     1       8.944 -13.056   9.639  1.00  0.00    -0.237 OA
ATOM     93  O   UNL     1       7.590 -11.818  11.269  1.00  0.00    -0.744 OA
ENDBRANCH  87  90
ENDBRANCH  60  83
ENDBRANCH  34  35
ENDBRANCH  26  29
ENDBRANCH  24  25
ENDBRANCH  23  24
ENDBRANCH  22  23
ENDBRANCH   1  22
TORSDOF 20
