REMARK SMILES CS(=O)(=O)c1ccc(/C=C(/C(=O)NCCCCCCNC(=O)c2ccc(-c3c4nc(c(-c5cccc(S(=O)(=O)[O-])c5F)c5ccc([nH]5)c(-c5cccc(S(=O)(=O)[O-])c5F)c5nc(c(-c6cccc(S(=O)(=O)[O-])c6F)c6ccc3[nH]6)C=C5)C=C4)cc2)c2cccc(-c3ccc(S(C)(=O)=O)cc3)c2)cc1
REMARK SMILES IDX 16 1 15 2 14 3 13 4 11 5 12 6 10 8 9 9 8 10 5 11 6 12 103 13
REMARK SMILES IDX 7 14 102 15 2 16 1 17 3 18 4 19 86 20 87 21 101 22 88 23
REMARK SMILES IDX 90 24 89 25 91 26 92 27 100 28 93 29 99 30 94 31 95 32 96 33
REMARK SMILES IDX 97 34 98 35 17 36 18 37 19 38 20 39 21 40 22 42 23 43 24 44
REMARK SMILES IDX 85 45 25 46 84 47 26 48 27 49 28 50 78 51 29 52 83 53 77 54
REMARK SMILES IDX 79 55 30 56 82 57 76 58 75 59 31 61 63 62 43 63 62 64 44 65
REMARK SMILES IDX 47 66 61 67 80 68 45 69 46 70 60 72 81 73 48 74 32 75 33 76
REMARK SMILES IDX 41 77 34 78 36 79 42 80 35 81 37 82 38 83 39 84 40 85 64 86
REMARK SMILES IDX 65 87 73 88 66 89 68 90 74 91 67 92 69 93 70 94 71 95 72 96
REMARK SMILES IDX 49 97 50 98 58 99 51 100 53 101 59 102 52 103 54 104 55 105
REMARK SMILES IDX 56 106 57 107
REMARK H PARENT 13 7 20 41 79 60 47 71
REMARK Flexibility Score: inf
ROOT
ATOM      1  C   UNL     1       1.302   8.704   7.715  1.00  0.00     0.002 C 
ENDROOT
BRANCH   1   2
ATOM      2  C   UNL     1       1.181   7.756   6.510  1.00  0.00     0.021 C 
BRANCH   2   3
ATOM      3  C   UNL     1       2.436   6.911   6.268  1.00  0.00     0.116 C 
BRANCH   3   4
ATOM      4  N   UNL     1       2.547   5.902   7.304  1.00  0.00    -0.352 N 
ATOM      5  C   UNL     1       2.279   4.573   7.367  1.00  0.00     0.251 C 
ATOM      6  O   UNL     1       2.411   4.053   8.479  1.00  0.00    -0.269 OA
ATOM      7  H   UNL     1       2.897   6.261   8.151  1.00  0.00     0.163 HD
BRANCH   5   8
ATOM      8  C   UNL     1       1.936   3.723   6.162  1.00  0.00     0.047 C 
ATOM      9  C   UNL     1       1.218   4.193   5.115  1.00  0.00     0.022 C 
BRANCH   9  10
ATOM     10  C   UNL     1       0.911   3.537   3.821  1.00  0.00    -0.025 A 
ATOM     11  C   UNL     1       0.497   2.375   1.294  1.00  0.00     0.067 A 
ATOM     12  C   UNL     1       0.199   1.652   2.450  1.00  0.00     0.021 A 
ATOM     13  C   UNL     1       0.958   3.688   1.383  1.00  0.00     0.021 A 
ATOM     14  C   UNL     1       0.389   2.242   3.706  1.00  0.00     0.009 A 
ATOM     15  C   UNL     1       1.163   4.262   2.643  1.00  0.00     0.009 A 
BRANCH  11  16
ATOM     16  S   UNL     1       0.249   1.625  -0.299  1.00  0.00     0.175 S 
ATOM     17  C   UNL     1       1.210   0.135  -0.258  1.00  0.00     0.163 C 
ATOM     18  O   UNL     1       0.845   2.489  -1.298  1.00  0.00    -0.224 OA
ATOM     19  O   UNL     1      -1.151   1.249  -0.368  1.00  0.00    -0.224 OA
ENDBRANCH  11  16
ENDBRANCH   9  10
BRANCH   8  20
ATOM     20  C   UNL     1       2.283   2.279   6.248  1.00  0.00    -0.012 A 
ATOM     21  C   UNL     1       1.663   1.489   7.230  1.00  0.00     0.009 A 
ATOM     22  C   UNL     1       3.110   1.657   5.303  1.00  0.00     0.017 A 
ATOM     23  C   UNL     1       1.845   0.109   7.258  1.00  0.00     0.001 A 
ATOM     24  C   UNL     1       3.242   0.257   5.271  1.00  0.00    -0.018 A 
ATOM     25  C   UNL     1       2.618  -0.503   6.275  1.00  0.00     0.009 A 
BRANCH  24  26
ATOM     26  C   UNL     1       3.899  -0.398   4.133  1.00  0.00    -0.018 A 
ATOM     27  C   UNL     1       3.169  -1.298   3.334  1.00  0.00     0.010 A 
ATOM     28  C   UNL     1       5.220  -0.093   3.767  1.00  0.00     0.010 A 
ATOM     29  C   UNL     1       3.733  -1.868   2.195  1.00  0.00     0.021 A 
ATOM     30  C   UNL     1       5.796  -0.665   2.629  1.00  0.00     0.021 A 
ATOM     31  C   UNL     1       5.047  -1.550   1.852  1.00  0.00     0.067 A 
BRANCH  31  32
ATOM     32  S   UNL     1       5.731  -2.249   0.372  1.00  0.00     0.175 S 
ATOM     33  C   UNL     1       5.843  -3.980   0.741  1.00  0.00     0.163 C 
ATOM     34  O   UNL     1       4.743  -2.072  -0.671  1.00  0.00    -0.224 OA
ATOM     35  O   UNL     1       7.087  -1.749   0.225  1.00  0.00    -0.224 OA
ENDBRANCH  31  32
ENDBRANCH  24  26
ENDBRANCH   8  20
ENDBRANCH   5   8
ENDBRANCH   3   4
ENDBRANCH   2   3
ENDBRANCH   1   2
BRANCH   1  36
ATOM     36  C   UNL     1       2.397   9.770   7.597  1.00  0.00     0.002 C 
BRANCH  36  37
ATOM     37  C   UNL     1       2.324  10.633   6.335  1.00  0.00     0.021 C 
BRANCH  37  38
ATOM     38  C   UNL     1       1.029  11.425   6.187  1.00  0.00     0.116 C 
BRANCH  38  39
ATOM     39  N   UNL     1       0.898  12.448   7.216  1.00  0.00    -0.352 N 
ATOM     40  C   UNL     1       0.720  13.802   7.066  1.00  0.00     0.251 C 
ATOM     41  H   UNL     1       0.943  12.125   8.145  1.00  0.00     0.163 HD
ATOM     42  O   UNL     1       0.836  14.553   8.029  1.00  0.00    -0.269 OA
BRANCH  40  43
ATOM     43  C   UNL     1       0.402  14.347   5.730  1.00  0.00     0.039 A 
ATOM     44  C   UNL     1       1.135  15.432   5.243  1.00  0.00     0.014 A 
ATOM     45  C   UNL     1      -0.608  13.771   4.955  1.00  0.00     0.014 A 
ATOM     46  C   UNL     1       0.901  15.898   3.947  1.00  0.00     0.010 A 
ATOM     47  C   UNL     1      -0.798  14.196   3.644  1.00  0.00     0.010 A 
ATOM     48  C   UNL     1      -0.044  15.260   3.125  1.00  0.00    -0.014 A 
BRANCH  48  49
ATOM     49  C   UNL     1      -0.243  15.663   1.710  1.00  0.00     0.031 A 
ATOM     50  C   UNL     1      -1.567  16.217   1.261  1.00  0.00     0.074 A 
ATOM     51  C   UNL     1       0.729  15.419   0.809  1.00  0.00     0.049 A 
ATOM     52  N   UNL     1      -1.966  16.521   0.054  1.00  0.00    -0.248 NA
ATOM     53  C   UNL     1      -2.585  16.431   2.302  1.00  0.00     0.031 C 
ATOM     54  C   UNL     1       2.029  14.816   1.110  1.00  0.00     0.029 A 
ATOM     55  N   UNL     1       0.760  15.612  -0.550  1.00  0.00    -0.354 N 
ATOM     56  C   UNL     1      -3.288  16.926   0.182  1.00  0.00     0.074 A 
ATOM     57  C   UNL     1      -3.634  16.804   1.582  1.00  0.00     0.031 C 
ATOM     58  C   UNL     1       2.726  14.681  -0.030  1.00  0.00     0.029 A 
ATOM     59  C   UNL     1       1.913  15.157  -1.145  1.00  0.00     0.049 A 
ATOM     60  H   UNL     1       0.026  16.036  -1.051  1.00  0.00     0.167 HD
ATOM     61  C   UNL     1      -4.131  17.385  -0.774  1.00  0.00     0.034 A 
ATOM     62  C   UNL     1       2.272  15.114  -2.444  1.00  0.00     0.034 A 
ATOM     63  C   UNL     1      -3.768  17.550  -2.155  1.00  0.00     0.049 A 
ATOM     64  C   UNL     1       1.328  15.658  -3.482  1.00  0.00     0.074 A 
ATOM     65  C   UNL     1      -4.517  18.100  -3.181  1.00  0.00     0.029 A 
ATOM     66  N   UNL     1      -2.557  17.163  -2.707  1.00  0.00    -0.354 N 
ATOM     67  N   UNL     1       0.142  16.192  -3.318  1.00  0.00    -0.248 NA
ATOM     68  C   UNL     1       1.783  15.623  -4.880  1.00  0.00     0.031 C 
ATOM     69  C   UNL     1      -3.765  18.028  -4.358  1.00  0.00     0.029 A 
ATOM     70  C   UNL     1      -2.541  17.449  -4.061  1.00  0.00     0.049 A 
ATOM     71  H   UNL     1      -1.818  16.745  -2.210  1.00  0.00     0.167 HD
ATOM     72  C   UNL     1      -0.278  16.585  -4.583  1.00  0.00     0.074 A 
ATOM     73  C   UNL     1       0.791  16.247  -5.502  1.00  0.00     0.031 C 
ATOM     74  C   UNL     1      -1.449  17.158  -4.954  1.00  0.00     0.034 A 
BRANCH  61  75
ATOM     75  C   UNL     1      -5.514  17.800  -0.347  1.00  0.00     0.023 A 
ATOM     76  C   UNL     1      -5.681  18.992   0.388  1.00  0.00     0.012 A 
ATOM     77  C   UNL     1      -6.648  17.053  -0.719  1.00  0.00     0.148 A 
ATOM     78  C   UNL     1      -6.951  19.418   0.773  1.00  0.00     0.002 A 
ATOM     79  C   UNL     1      -7.915  17.505  -0.366  1.00  0.00     0.091 A 
ATOM     80  F   UNL     1      -6.468  15.911  -1.397  1.00  0.00    -0.205 F 
ATOM     81  C   UNL     1      -8.067  18.681   0.388  1.00  0.00     0.022 A 
BRANCH  79  82
ATOM     82  S   UNL     1      -9.419  16.666  -0.878  1.00  0.00     0.127 S 
ATOM     83  O   UNL     1      -9.855  16.053   0.376  1.00  0.00    -0.237 OA
ATOM     84  O   UNL     1     -10.253  17.778  -1.335  1.00  0.00    -0.237 OA
ATOM     85  O   UNL     1      -9.021  15.738  -1.926  1.00  0.00    -0.744 OA
ENDBRANCH  79  82
ENDBRANCH  61  75
BRANCH  62  86
ATOM     86  C   UNL     1       3.614  14.592  -2.826  1.00  0.00     0.023 A 
ATOM     87  C   UNL     1       4.594  15.489  -3.292  1.00  0.00     0.012 A 
ATOM     88  C   UNL     1       3.940  13.228  -2.693  1.00  0.00     0.148 A 
ATOM     89  C   UNL     1       5.865  15.035  -3.645  1.00  0.00     0.002 A 
ATOM     90  C   UNL     1       5.226  12.791  -2.993  1.00  0.00     0.091 A 
ATOM     91  F   UNL     1       2.990  12.386  -2.261  1.00  0.00    -0.205 F 
ATOM     92  C   UNL     1       6.184  13.690  -3.485  1.00  0.00     0.022 A 
BRANCH  90  93
ATOM     93  S   UNL     1       5.762  11.105  -2.683  1.00  0.00     0.127 S 
ATOM     94  O   UNL     1       5.824  10.557  -4.034  1.00  0.00    -0.237 OA
ATOM     95  O   UNL     1       7.061  11.312  -2.040  1.00  0.00    -0.237 OA
ATOM     96  O   UNL     1       4.750  10.529  -1.806  1.00  0.00    -0.744 OA
ENDBRANCH  90  93
ENDBRANCH  62  86
BRANCH  74  97
ATOM     97  C   UNL     1      -1.639  17.484  -6.412  1.00  0.00     0.023 A 
ATOM     98  C   UNL     1      -1.895  16.446  -7.329  1.00  0.00     0.012 A 
ATOM     99  C   UNL     1      -1.653  18.821  -6.856  1.00  0.00     0.148 A 
ATOM    100  C   UNL     1      -2.141  16.732  -8.671  1.00  0.00     0.002 A 
ATOM    101  C   UNL     1      -1.943  19.102  -8.186  1.00  0.00     0.091 A 
ATOM    102  F   UNL     1      -1.388  19.792  -5.970  1.00  0.00    -0.205 F 
ATOM    103  C   UNL     1      -2.177  18.058  -9.097  1.00  0.00     0.022 A 
BRANCH 101 104
ATOM    104  S   UNL     1      -2.103  20.781  -8.805  1.00  0.00     0.127 S 
ATOM    105  O   UNL     1      -0.895  20.915  -9.617  1.00  0.00    -0.237 OA
ATOM    106  O   UNL     1      -3.348  20.712  -9.570  1.00  0.00    -0.237 OA
ATOM    107  O   UNL     1      -2.163  21.638  -7.629  1.00  0.00    -0.744 OA
ENDBRANCH 101 104
ENDBRANCH  74  97
ENDBRANCH  48  49
ENDBRANCH  40  43
ENDBRANCH  38  39
ENDBRANCH  37  38
ENDBRANCH  36  37
ENDBRANCH   1  36
TORSDOF 21
