REMARK SMILES Cc1c(CC(=O)NCCCCCCNC(=O)c2ccc(-c3c4nc(c(-c5cccc(S(=O)(=O)[O-])c5F)c5ccc([nH]5)c(-c5cccc(S(=O)(=O)[O-])c5F)c5nc(c(-c6cccc(S(=O)(=O)[O-])c6F)c6ccc3[nH]6)C=C5)C=C4)cc2)c2ccccc2n1C(=O)c1ccc(Cl)cc1
REMARK SMILES IDX 10 1 9 2 8 3 7 4 5 5 6 6 4 8 3 9 1 10 2 11 86 12 80 13 85 14
REMARK SMILES IDX 81 15 84 16 82 17 83 18 87 19 88 20 89 21 90 22 95 23 91 24
REMARK SMILES IDX 94 25 92 26 93 27 11 28 12 29 13 30 14 31 15 32 16 34 17 35
REMARK SMILES IDX 18 36 79 37 19 38 78 39 20 40 21 41 22 42 72 43 23 44 77 45
REMARK SMILES IDX 71 46 73 47 24 48 76 49 70 50 69 51 25 53 57 54 37 55 56 56
REMARK SMILES IDX 38 57 41 58 55 59 74 60 39 61 40 62 54 64 75 65 42 66 26 67
REMARK SMILES IDX 27 68 35 69 28 70 30 71 36 72 29 73 31 74 32 75 33 76 34 77
REMARK SMILES IDX 58 78 59 79 67 80 60 81 62 82 68 83 61 84 63 85 64 86 65 87
REMARK SMILES IDX 66 88 43 89 44 90 52 91 45 92 47 93 53 94 46 95 48 96 49 97
REMARK SMILES IDX 50 98 51 99
REMARK H PARENT 7 7 14 33 73 52 41 63
REMARK Flexibility Score: inf
ROOT
ATOM      1  C   UNL     1      -4.425  -0.926  -0.504  1.00  0.00     0.002 C 
ENDROOT
BRANCH   1   2
ATOM      2  C   UNL     1      -2.921  -0.632  -0.566  1.00  0.00     0.021 C 
BRANCH   2   3
ATOM      3  C   UNL     1      -2.054  -1.779  -0.045  1.00  0.00     0.116 C 
BRANCH   3   4
ATOM      4  N   UNL     1      -2.015  -2.876  -0.993  1.00  0.00    -0.356 N 
ATOM      5  C   UNL     1      -1.009  -3.228  -1.845  1.00  0.00     0.224 C 
ATOM      6  O   UNL     1      -1.204  -4.153  -2.639  1.00  0.00    -0.275 OA
ATOM      7  H   UNL     1      -2.820  -3.442  -1.026  1.00  0.00     0.163 HD
BRANCH   5   8
ATOM      8  C   UNL     1       0.338  -2.527  -1.764  1.00  0.00     0.138 C 
BRANCH   8   9
ATOM      9  C   UNL     1       0.313  -1.096  -2.225  1.00  0.00    -0.010 A 
ATOM     10  C   UNL     1       1.326   0.096  -0.145  1.00  0.00     0.065 C 
ATOM     11  C   UNL     1       0.741   0.025  -1.522  1.00  0.00     0.028 A 
ATOM     12  N   UNL     1       0.505   1.167  -2.301  1.00  0.00    -0.280 N 
ATOM     13  C   UNL     1      -0.116  -0.647  -3.507  1.00  0.00     0.004 A 
ATOM     14  C   UNL     1       0.075   0.738  -3.566  1.00  0.00     0.056 A 
ATOM     15  C   UNL     1      -0.627  -1.323  -4.639  1.00  0.00     0.010 A 
ATOM     16  C   UNL     1      -0.163   1.428  -4.776  1.00  0.00     0.027 A 
ATOM     17  C   UNL     1      -0.926  -0.620  -5.806  1.00  0.00     0.001 A 
ATOM     18  C   UNL     1      -0.683   0.740  -5.875  1.00  0.00     0.002 A 
BRANCH  12  19
ATOM     19  C   UNL     1       0.690   2.516  -1.866  1.00  0.00     0.262 C 
ATOM     20  O   UNL     1       1.205   2.730  -0.780  1.00  0.00    -0.268 OA
BRANCH  19  21
ATOM     21  C   UNL     1       0.323   3.711  -2.649  1.00  0.00     0.040 A 
ATOM     22  C   UNL     1      -1.011   3.981  -2.970  1.00  0.00     0.015 A 
ATOM     23  C   UNL     1       1.353   4.549  -3.088  1.00  0.00     0.015 A 
ATOM     24  C   UNL     1      -1.304   5.057  -3.813  1.00  0.00     0.021 A 
ATOM     25  C   UNL     1       1.053   5.623  -3.926  1.00  0.00     0.021 A 
ATOM     26  C   UNL     1      -0.270   5.861  -4.300  1.00  0.00     0.041 A 
ATOM     27  Cl  UNL     1      -0.626   7.140  -5.393  1.00  0.00    -0.084 Cl
ENDBRANCH  19  21
ENDBRANCH  12  19
ENDBRANCH   8   9
ENDBRANCH   5   8
ENDBRANCH   3   4
ENDBRANCH   2   3
ENDBRANCH   1   2
BRANCH   1  28
ATOM     28  C   UNL     1      -4.986  -1.119   0.910  1.00  0.00     0.002 C 
BRANCH  28  29
ATOM     29  C   UNL     1      -4.732   0.044   1.878  1.00  0.00     0.021 C 
BRANCH  29  30
ATOM     30  C   UNL     1      -5.245   1.395   1.377  1.00  0.00     0.116 C 
BRANCH  30  31
ATOM     31  N   UNL     1      -6.668   1.398   1.113  1.00  0.00    -0.352 N 
ATOM     32  C   UNL     1      -7.791   1.489   1.889  1.00  0.00     0.251 C 
ATOM     33  H   UNL     1      -6.876   1.315   0.154  1.00  0.00     0.163 HD
ATOM     34  O   UNL     1      -8.864   1.452   1.279  1.00  0.00    -0.269 OA
BRANCH  32  35
ATOM     35  C   UNL     1      -7.805   1.596   3.376  1.00  0.00     0.039 A 
ATOM     36  C   UNL     1      -6.683   1.768   4.189  1.00  0.00     0.014 A 
ATOM     37  C   UNL     1      -9.067   1.515   3.995  1.00  0.00     0.014 A 
ATOM     38  C   UNL     1      -6.805   1.803   5.575  1.00  0.00     0.010 A 
ATOM     39  C   UNL     1      -9.197   1.573   5.382  1.00  0.00     0.010 A 
ATOM     40  C   UNL     1      -8.059   1.688   6.176  1.00  0.00    -0.014 A 
BRANCH  40  41
ATOM     41  C   UNL     1      -8.115   1.764   7.634  1.00  0.00     0.031 A 
ATOM     42  C   UNL     1      -7.664   3.045   8.257  1.00  0.00     0.074 A 
ATOM     43  C   UNL     1      -8.659   0.809   8.412  1.00  0.00     0.049 A 
ATOM     44  N   UNL     1      -6.705   3.236   9.108  1.00  0.00    -0.248 NA
ATOM     45  C   UNL     1      -8.353   4.272   7.834  1.00  0.00     0.031 C 
ATOM     46  C   UNL     1      -9.439  -0.355   7.990  1.00  0.00     0.029 A 
ATOM     47  N   UNL     1      -8.743   0.770   9.774  1.00  0.00    -0.354 N 
ATOM     48  C   UNL     1      -6.786   4.581   9.469  1.00  0.00     0.074 A 
ATOM     49  C   UNL     1      -7.744   5.193   8.579  1.00  0.00     0.031 C 
ATOM     50  C   UNL     1     -10.123  -0.831   9.053  1.00  0.00     0.029 A 
ATOM     51  C   UNL     1      -9.722  -0.096  10.240  1.00  0.00     0.049 A 
ATOM     52  H   UNL     1      -8.165   1.304  10.367  1.00  0.00     0.167 HD
ATOM     53  C   UNL     1      -6.207   5.100  10.585  1.00  0.00     0.034 A 
ATOM     54  C   UNL     1     -10.226  -0.131  11.495  1.00  0.00     0.034 A 
ATOM     55  C   UNL     1      -5.245   4.233  11.194  1.00  0.00     0.049 A 
ATOM     56  C   UNL     1      -9.237   0.510  12.392  1.00  0.00     0.074 A 
ATOM     57  C   UNL     1      -4.039   3.676  10.823  1.00  0.00     0.029 A 
ATOM     58  N   UNL     1      -5.636   3.570  12.328  1.00  0.00    -0.354 N 
ATOM     59  N   UNL     1      -8.060   0.021  12.665  1.00  0.00    -0.248 NA
ATOM     60  C   UNL     1      -9.448   1.891  12.796  1.00  0.00     0.031 C 
ATOM     61  C   UNL     1      -3.987   2.418  11.493  1.00  0.00     0.029 A 
ATOM     62  C   UNL     1      -5.171   2.286  12.223  1.00  0.00     0.049 A 
ATOM     63  H   UNL     1      -6.154   3.945  13.077  1.00  0.00     0.167 HD
ATOM     64  C   UNL     1      -7.262   1.130  12.904  1.00  0.00     0.074 A 
ATOM     65  C   UNL     1      -8.197   2.227  13.120  1.00  0.00     0.031 C 
ATOM     66  C   UNL     1      -5.926   1.116  12.622  1.00  0.00     0.034 A 
BRANCH  53  67
ATOM     67  C   UNL     1      -6.734   6.312  11.298  1.00  0.00     0.023 A 
ATOM     68  C   UNL     1      -5.860   7.082  12.091  1.00  0.00     0.012 A 
ATOM     69  C   UNL     1      -8.115   6.593  11.384  1.00  0.00     0.148 A 
ATOM     70  C   UNL     1      -6.342   8.111  12.910  1.00  0.00     0.002 A 
ATOM     71  C   UNL     1      -8.579   7.665  12.135  1.00  0.00     0.091 A 
ATOM     72  F   UNL     1      -8.992   5.748  10.825  1.00  0.00    -0.205 F 
ATOM     73  C   UNL     1      -7.699   8.419  12.914  1.00  0.00     0.022 A 
BRANCH  71  74
ATOM     74  S   UNL     1     -10.309   8.139  12.091  1.00  0.00     0.127 S 
ATOM     75  O   UNL     1     -10.820   7.505  13.302  1.00  0.00    -0.237 OA
ATOM     76  O   UNL     1     -10.229   9.600  12.141  1.00  0.00    -0.237 OA
ATOM     77  O   UNL     1     -10.802   7.617  10.822  1.00  0.00    -0.744 OA
ENDBRANCH  71  74
ENDBRANCH  53  67
BRANCH  54  78
ATOM     78  C   UNL     1     -11.591  -0.484  11.958  1.00  0.00     0.023 A 
ATOM     79  C   UNL     1     -11.799  -0.754  13.326  1.00  0.00     0.012 A 
ATOM     80  C   UNL     1     -12.728  -0.303  11.139  1.00  0.00     0.148 A 
ATOM     81  C   UNL     1     -13.089  -0.797  13.868  1.00  0.00     0.002 A 
ATOM     82  C   UNL     1     -14.011  -0.371  11.679  1.00  0.00     0.091 A 
ATOM     83  F   UNL     1     -12.564   0.036   9.854  1.00  0.00    -0.205 F 
ATOM     84  C   UNL     1     -14.194  -0.601  13.047  1.00  0.00     0.022 A 
BRANCH  82  85
ATOM     85  S   UNL     1     -15.472  -0.145  10.656  1.00  0.00     0.127 S 
ATOM     86  O   UNL     1     -16.421  -1.088  11.252  1.00  0.00    -0.237 OA
ATOM     87  O   UNL     1     -15.788   1.262  10.879  1.00  0.00    -0.237 OA
ATOM     88  O   UNL     1     -15.054  -0.504   9.306  1.00  0.00    -0.744 OA
ENDBRANCH  82  85
ENDBRANCH  54  78
BRANCH  66  89
ATOM     89  C   UNL     1      -5.270  -0.215  12.359  1.00  0.00     0.023 A 
ATOM     90  C   UNL     1      -5.605  -0.986  11.226  1.00  0.00     0.012 A 
ATOM     91  C   UNL     1      -4.170  -0.600  13.145  1.00  0.00     0.148 A 
ATOM     92  C   UNL     1      -4.872  -2.127  10.895  1.00  0.00     0.002 A 
ATOM     93  C   UNL     1      -3.418  -1.715  12.789  1.00  0.00     0.091 A 
ATOM     94  F   UNL     1      -3.852   0.158  14.206  1.00  0.00    -0.205 F 
ATOM     95  C   UNL     1      -3.772  -2.485  11.669  1.00  0.00     0.022 A 
BRANCH  93  96
ATOM     96  S   UNL     1      -1.914  -2.172  13.657  1.00  0.00     0.127 S 
ATOM     97  O   UNL     1      -2.298  -3.430  14.295  1.00  0.00    -0.237 OA
ATOM     98  O   UNL     1      -0.954  -2.311  12.561  1.00  0.00    -0.237 OA
ATOM     99  O   UNL     1      -1.623  -1.075  14.572  1.00  0.00    -0.744 OA
ENDBRANCH  93  96
ENDBRANCH  66  89
ENDBRANCH  40  41
ENDBRANCH  32  35
ENDBRANCH  30  31
ENDBRANCH  29  30
ENDBRANCH  28  29
ENDBRANCH   1  28
TORSDOF 19
