REMARK SMILES C[C@H](CNC(=O)[C@H]1CCCCC[C@@H]1[NH3+])C(=O)NCCCCCCNC(=O)c1ccc(-c2c3nc(c(-c4cccc(S(=O)(=O)[O-])c4F)c4ccc([nH]4)c(-c4cccc(S(=O)(=O)[O-])c4F)c4nc(c(-c5cccc(S(=O)(=O)[O-])c5F)c5ccc2[nH]5)C=C4)C=C3)cc1
REMARK SMILES IDX 19 1 18 2 17 3 15 4 16 5 2 7 1 8 3 9 4 10 5 11 6 13 7 14
REMARK SMILES IDX 8 15 9 16 10 17 13 19 12 20 11 21 14 23 20 27 21 28 22 29
REMARK SMILES IDX 23 30 24 31 25 32 26 34 27 35 28 36 89 37 29 38 88 39 30 40
REMARK SMILES IDX 31 41 32 42 82 43 33 44 87 45 81 46 83 47 34 48 86 49 80 50
REMARK SMILES IDX 79 51 35 53 67 54 47 55 66 56 48 57 51 58 65 59 84 60 49 61
REMARK SMILES IDX 50 62 64 64 85 65 52 66 36 67 37 68 45 69 38 70 40 71 46 72
REMARK SMILES IDX 39 73 41 74 42 75 43 76 44 77 68 78 69 79 77 80 70 81 72 82
REMARK SMILES IDX 78 83 71 84 73 85 74 86 75 87 76 88 53 89 54 90 62 91 55 92
REMARK SMILES IDX 57 93 63 94 56 95 58 96 59 97 60 98 61 99
REMARK H PARENT 17 6 4 12 14 24 14 25 14 26 24 33 83 52 51 63
REMARK Flexibility Score: 90.00
ROOT
ATOM      1  C   UNL     1      -4.937  -3.998  -0.957  1.00  0.00     0.021 C 
ENDROOT
BRANCH   1   2
ATOM      2  C   UNL     1      -3.645  -4.547  -1.569  1.00  0.00     0.116 C 
BRANCH   2   3
ATOM      3  N   UNL     1      -2.862  -5.287  -0.592  1.00  0.00    -0.356 N 
ATOM      4  C   UNL     1      -2.201  -6.471  -0.644  1.00  0.00     0.224 C 
ATOM      5  O   UNL     1      -1.621  -6.822   0.390  1.00  0.00    -0.275 OA
ATOM      6  H   UNL     1      -2.799  -4.838   0.282  1.00  0.00     0.163 HD
BRANCH   4   7
ATOM      7  C   UNL     1      -2.122  -7.350  -1.885  1.00  0.00     0.094 C 
ATOM      8  C   UNL     1      -1.576  -6.592  -3.098  1.00  0.00     0.020 C 
BRANCH   7   9
ATOM      9  C   UNL     1      -3.411  -8.097  -2.232  1.00  0.00     0.129 C 
BRANCH   9  10
ATOM     10  N   UNL     1      -3.754  -9.199  -1.337  1.00  0.00    -0.355 N 
ATOM     11  C   UNL     1      -4.773  -9.453  -0.470  1.00  0.00     0.229 C 
ATOM     12  H   UNL     1      -3.094  -9.929  -1.367  1.00  0.00     0.163 HD
ATOM     13  O   UNL     1      -4.876 -10.633  -0.113  1.00  0.00    -0.275 OA
BRANCH  11  14
ATOM     14  C   UNL     1      -5.654  -8.362   0.167  1.00  0.00     0.136 C 
BRANCH  14  15
ATOM     15  C   UNL     1      -6.147  -7.245  -0.740  1.00  0.00     0.020 C 
BRANCH  15  16
ATOM     16  C   UNL     1      -6.849  -7.691  -2.012  1.00  0.00     0.001 C 
BRANCH  16  17
ATOM     17  C   UNL     1      -8.354  -7.841  -1.874  1.00  0.00     0.000 CG0
ATOM     18  G   UNL     1      -8.869  -8.373  -0.539  1.00  0.00     0.000 G0
ENDBRANCH  16  17
ENDBRANCH  15  16
ENDBRANCH  14  15
BRANCH  14  19
ATOM     19  C   UNL     1      -6.823  -8.981   0.982  1.00  0.00     0.193 C 
BRANCH  19  20
ATOM     20  C   UNL     1      -8.018  -9.464   0.124  1.00  0.00     0.066 C 
BRANCH  20  21
ATOM     21  C   UNL     1      -8.869  -8.373  -0.539  1.00  0.00     0.006 CG0
ATOM     22  G   UNL     1      -8.354  -7.841  -1.874  1.00  0.00     0.000 G0
ENDBRANCH  20  21
ENDBRANCH  19  20
BRANCH  19  23
ATOM     23  N   UNL     1      -7.304  -8.024   2.002  1.00  0.00    -0.354 N 
ATOM     24  H   UNL     1      -7.690  -7.201   1.540  1.00  0.00     0.344 HD
ATOM     25  H   UNL     1      -6.526  -7.746   2.599  1.00  0.00     0.344 HD
ATOM     26  H   UNL     1      -8.027  -8.467   2.569  1.00  0.00     0.344 HD
ENDBRANCH  19  23
ENDBRANCH  14  19
ENDBRANCH  11  14
ENDBRANCH   9  10
ENDBRANCH   7   9
ENDBRANCH   4   7
ENDBRANCH   2   3
ENDBRANCH   1   2
BRANCH   1  27
ATOM     27  C   UNL     1      -4.777  -2.895   0.088  1.00  0.00     0.002 C 
BRANCH  27  28
ATOM     28  C   UNL     1      -4.433  -1.521  -0.474  1.00  0.00     0.002 C 
BRANCH  28  29
ATOM     29  C   UNL     1      -5.372  -1.009  -1.570  1.00  0.00     0.021 C 
BRANCH  29  30
ATOM     30  C   UNL     1      -6.866  -1.111  -1.266  1.00  0.00     0.116 C 
BRANCH  30  31
ATOM     31  N   UNL     1      -7.248  -0.342  -0.093  1.00  0.00    -0.352 N 
ATOM     32  C   UNL     1      -8.183   0.654   0.018  1.00  0.00     0.251 C 
ATOM     33  H   UNL     1      -6.769  -0.568   0.736  1.00  0.00     0.163 HD
ATOM     34  O   UNL     1      -8.249   1.322   1.052  1.00  0.00    -0.269 OA
BRANCH  32  35
ATOM     35  C   UNL     1      -9.094   0.943  -1.108  1.00  0.00     0.039 A 
ATOM     36  C   UNL     1      -9.268   2.269  -1.509  1.00  0.00     0.014 A 
ATOM     37  C   UNL     1      -9.773  -0.087  -1.769  1.00  0.00     0.014 A 
ATOM     38  C   UNL     1     -10.082   2.558  -2.607  1.00  0.00     0.010 A 
ATOM     39  C   UNL     1     -10.527   0.197  -2.906  1.00  0.00     0.010 A 
ATOM     40  C   UNL     1     -10.695   1.522  -3.333  1.00  0.00    -0.014 A 
BRANCH  40  41
ATOM     41  C   UNL     1     -11.482   1.825  -4.558  1.00  0.00     0.031 A 
ATOM     42  C   UNL     1     -12.957   1.538  -4.621  1.00  0.00     0.074 A 
ATOM     43  C   UNL     1     -10.848   2.312  -5.643  1.00  0.00     0.049 A 
ATOM     44  N   UNL     1     -13.803   1.788  -5.588  1.00  0.00    -0.248 NA
ATOM     45  C   UNL     1     -13.559   0.861  -3.461  1.00  0.00     0.031 C 
ATOM     46  C   UNL     1      -9.406   2.547  -5.743  1.00  0.00     0.029 A 
ATOM     47  N   UNL     1     -11.331   2.690  -6.870  1.00  0.00    -0.354 N 
ATOM     48  C   UNL     1     -15.024   1.274  -5.170  1.00  0.00     0.074 A 
ATOM     49  C   UNL     1     -14.803   0.667  -3.875  1.00  0.00     0.031 C 
ATOM     50  C   UNL     1      -9.125   3.052  -6.954  1.00  0.00     0.029 A 
ATOM     51  C   UNL     1     -10.360   3.156  -7.725  1.00  0.00     0.049 A 
ATOM     52  H   UNL     1     -12.282   2.631  -7.116  1.00  0.00     0.167 HD
ATOM     53  C   UNL     1     -16.227   1.326  -5.792  1.00  0.00     0.034 A 
ATOM     54  C   UNL     1     -10.453   3.627  -8.984  1.00  0.00     0.034 A 
ATOM     55  C   UNL     1     -16.451   1.964  -7.063  1.00  0.00     0.049 A 
ATOM     56  C   UNL     1     -11.807   3.723  -9.631  1.00  0.00     0.074 A 
ATOM     57  C   UNL     1     -17.649   2.168  -7.724  1.00  0.00     0.029 A 
ATOM     58  N   UNL     1     -15.454   2.484  -7.875  1.00  0.00    -0.354 N 
ATOM     59  N   UNL     1     -12.982   3.408  -9.140  1.00  0.00    -0.248 NA
ATOM     60  C   UNL     1     -11.853   4.275 -10.992  1.00  0.00     0.031 C 
ATOM     61  C   UNL     1     -17.372   2.783  -8.952  1.00  0.00     0.029 A 
ATOM     62  C   UNL     1     -16.005   2.989  -9.041  1.00  0.00     0.049 A 
ATOM     63  H   UNL     1     -14.495   2.493  -7.654  1.00  0.00     0.167 HD
ATOM     64  C   UNL     1     -13.908   3.750 -10.118  1.00  0.00     0.074 A 
ATOM     65  C   UNL     1     -13.159   4.325 -11.217  1.00  0.00     0.031 C 
ATOM     66  C   UNL     1     -15.255   3.589 -10.115  1.00  0.00     0.034 A 
BRANCH  53  67
ATOM     67  C   UNL     1     -17.407   0.711  -5.083  1.00  0.00     0.023 A 
ATOM     68  C   UNL     1     -17.926   1.328  -3.925  1.00  0.00     0.012 A 
ATOM     69  C   UNL     1     -18.034  -0.446  -5.586  1.00  0.00     0.148 A 
ATOM     70  C   UNL     1     -19.021   0.781  -3.257  1.00  0.00     0.002 A 
ATOM     71  C   UNL     1     -19.153  -0.959  -4.941  1.00  0.00     0.091 A 
ATOM     72  F   UNL     1     -17.515  -1.033  -6.674  1.00  0.00    -0.205 F 
ATOM     73  C   UNL     1     -19.640  -0.355  -3.769  1.00  0.00     0.022 A 
BRANCH  71  74
ATOM     74  S   UNL     1     -20.069  -2.371  -5.570  1.00  0.00     0.127 S 
ATOM     75  O   UNL     1     -19.685  -3.417  -4.623  1.00  0.00    -0.237 OA
ATOM     76  O   UNL     1     -21.455  -1.919  -5.449  1.00  0.00    -0.237 OA
ATOM     77  O   UNL     1     -19.613  -2.565  -6.939  1.00  0.00    -0.744 OA
ENDBRANCH  71  74
ENDBRANCH  53  67
BRANCH  54  78
ATOM     78  C   UNL     1      -9.234   4.128  -9.681  1.00  0.00     0.023 A 
ATOM     79  C   UNL     1      -9.091   5.511  -9.907  1.00  0.00     0.012 A 
ATOM     80  C   UNL     1      -8.206   3.255 -10.083  1.00  0.00     0.148 A 
ATOM     81  C   UNL     1      -7.958   6.013 -10.548  1.00  0.00     0.002 A 
ATOM     82  C   UNL     1      -7.055   3.767 -10.670  1.00  0.00     0.091 A 
ATOM     83  F   UNL     1      -8.367   1.942  -9.866  1.00  0.00    -0.205 F 
ATOM     84  C   UNL     1      -6.936   5.143 -10.919  1.00  0.00     0.022 A 
BRANCH  82  85
ATOM     85  S   UNL     1      -5.632   2.741 -11.058  1.00  0.00     0.127 S 
ATOM     86  O   UNL     1      -5.640   2.757 -12.518  1.00  0.00    -0.237 OA
ATOM     87  O   UNL     1      -4.541   3.494 -10.438  1.00  0.00    -0.237 OA
ATOM     88  O   UNL     1      -5.896   1.449 -10.439  1.00  0.00    -0.744 OA
ENDBRANCH  82  85
ENDBRANCH  54  78
BRANCH  66  89
ATOM     89  C   UNL     1     -16.010   4.053 -11.335  1.00  0.00     0.023 A 
ATOM     90  C   UNL     1     -15.885   3.344 -12.547  1.00  0.00     0.012 A 
ATOM     91  C   UNL     1     -16.875   5.163 -11.273  1.00  0.00     0.148 A 
ATOM     92  C   UNL     1     -16.570   3.761 -13.688  1.00  0.00     0.002 A 
ATOM     93  C   UNL     1     -17.595   5.541 -12.400  1.00  0.00     0.091 A 
ATOM     94  F   UNL     1     -16.969   5.839 -10.118  1.00  0.00    -0.205 F 
ATOM     95  C   UNL     1     -17.433   4.851 -13.612  1.00  0.00     0.022 A 
BRANCH  93  96
ATOM     96  S   UNL     1     -18.800   6.874 -12.366  1.00  0.00     0.127 S 
ATOM     97  O   UNL     1     -18.077   7.947 -13.046  1.00  0.00    -0.237 OA
ATOM     98  O   UNL     1     -19.913   6.309 -13.130  1.00  0.00    -0.237 OA
ATOM     99  O   UNL     1     -19.095   7.107 -10.959  1.00  0.00    -0.744 OA
ENDBRANCH  93  96
ENDBRANCH  66  89
ENDBRANCH  40  41
ENDBRANCH  32  35
ENDBRANCH  30  31
ENDBRANCH  29  30
ENDBRANCH  28  29
ENDBRANCH  27  28
ENDBRANCH   1  27
TORSDOF 20
