REMARK SMILES Cc1nn(C(C)C)c(C)c1S(=O)(=O)Nc1cccc(C(=O)NCCCCCCNC(=O)c2ccc(-c3c4nc(c(-c5cccc(S(=O)(=O)[O-])c5F)c5ccc([nH]5)c(-c5cccc(S(=O)(=O)[O-])c5F)c5nc(c(-c6cccc(S(=O)(=O)[O-])c6F)c6ccc3[nH]6)C=C5)C=C4)cc2)c1C
REMARK SMILES IDX 25 1 24 2 23 3 22 4 20 5 21 6 19 8 15 9 16 10 95 11 17 12
REMARK SMILES IDX 96 13 18 14 14 15 11 17 12 18 13 19 10 20 1 21 2 22 3 23
REMARK SMILES IDX 4 24 8 25 9 26 5 27 6 28 7 29 26 30 27 31 28 32 29 33 30 34
REMARK SMILES IDX 31 36 32 37 33 38 94 39 34 40 93 41 35 42 36 43 37 44 87 45
REMARK SMILES IDX 38 46 92 47 86 48 88 49 39 50 91 51 85 52 84 53 40 55 72 56
REMARK SMILES IDX 52 57 71 58 53 59 56 60 70 61 89 62 54 63 55 64 69 66 90 67
REMARK SMILES IDX 57 68 41 69 42 70 50 71 43 72 45 73 51 74 44 75 46 76 47 77
REMARK SMILES IDX 48 78 49 79 73 80 74 81 82 82 75 83 77 84 83 85 76 86 78 87
REMARK SMILES IDX 79 88 80 89 81 90 58 91 59 92 67 93 60 94 62 95 68 96 61 97
REMARK SMILES IDX 63 98 64 99 65 100 66 101
REMARK H PARENT 22 7 14 16 29 35 88 54 56 65
REMARK Flexibility Score: inf
ROOT
ATOM      1  C   UNL     1       5.984   4.729  -2.187  1.00  0.00     0.002 C 
ENDROOT
BRANCH   1   2
ATOM      2  C   UNL     1       4.839   3.741  -2.471  1.00  0.00     0.021 C 
BRANCH   2   3
ATOM      3  C   UNL     1       4.528   2.766  -1.333  1.00  0.00     0.116 C 
BRANCH   3   4
ATOM      4  N   UNL     1       3.992   3.472  -0.188  1.00  0.00    -0.352 N 
ATOM      5  C   UNL     1       2.765   3.558   0.411  1.00  0.00     0.251 C 
ATOM      6  O   UNL     1       2.726   4.279   1.408  1.00  0.00    -0.269 OA
ATOM      7  H   UNL     1       4.671   4.021   0.267  1.00  0.00     0.163 HD
BRANCH   5   8
ATOM      8  C   UNL     1       1.556   2.780  -0.031  1.00  0.00     0.044 A 
ATOM      9  C   UNL     1      -0.345   1.359   0.543  1.00  0.00     0.053 A 
ATOM     10  C   UNL     1      -0.520   1.019  -0.796  1.00  0.00     0.027 A 
ATOM     11  C   UNL     1       0.590   2.356   0.917  1.00  0.00    -0.014 A 
ATOM     12  C   UNL     1       0.322   1.574  -1.756  1.00  0.00     0.003 A 
ATOM     13  C   UNL     1       0.559   2.879   2.337  1.00  0.00     0.047 C 
ATOM     14  C   UNL     1       1.360   2.430  -1.374  1.00  0.00     0.014 A 
BRANCH   9  15
ATOM     15  N   UNL     1      -1.101   0.771   1.599  1.00  0.00    -0.279 N 
ATOM     16  H   UNL     1      -1.277   1.330   2.390  1.00  0.00     0.180 HD
BRANCH  15  17
ATOM     17  S   UNL     1      -1.711  -0.777   1.612  1.00  0.00     0.265 S 
ATOM     18  O   UNL     1      -2.700  -0.877   0.558  1.00  0.00    -0.201 OA
ATOM     19  O   UNL     1      -2.104  -1.007   2.990  1.00  0.00    -0.201 OA
BRANCH  17  20
ATOM     20  C   UNL     1      -0.634  -2.082   1.286  1.00  0.00     0.131 A 
ATOM     21  C   UNL     1       1.735  -1.034   0.699  1.00  0.00     0.070 C 
ATOM     22  C   UNL     1       0.724  -2.099   0.882  1.00  0.00     0.080 A 
ATOM     23  N   UNL     1       1.136  -3.351   0.636  1.00  0.00    -0.176 NA
ATOM     24  N   UNL     1       0.089  -4.131   0.943  1.00  0.00    -0.266 N 
ATOM     25  C   UNL     1      -0.991  -3.424   1.397  1.00  0.00     0.056 A 
ATOM     26  C   UNL     1      -2.238  -4.066   1.889  1.00  0.00     0.068 C 
BRANCH  24  27
ATOM     27  C   UNL     1       0.212  -5.578   0.771  1.00  0.00     0.101 C 
ATOM     28  C   UNL     1       0.106  -5.965  -0.704  1.00  0.00     0.033 C 
ATOM     29  C   UNL     1       1.500  -6.116   1.396  1.00  0.00     0.033 C 
ENDBRANCH  24  27
ENDBRANCH  17  20
ENDBRANCH  15  17
ENDBRANCH   9  15
ENDBRANCH   5   8
ENDBRANCH   3   4
ENDBRANCH   2   3
ENDBRANCH   1   2
BRANCH   1  30
ATOM     30  C   UNL     1       7.334   4.129  -1.761  1.00  0.00     0.002 C 
BRANCH  30  31
ATOM     31  C   UNL     1       7.809   2.894  -2.528  1.00  0.00     0.021 C 
BRANCH  31  32
ATOM     32  C   UNL     1       8.005   3.113  -4.022  1.00  0.00     0.116 C 
BRANCH  32  33
ATOM     33  N   UNL     1       9.398   3.194  -4.426  1.00  0.00    -0.352 N 
ATOM     34  C   UNL     1       9.934   3.384  -5.684  1.00  0.00     0.251 C 
ATOM     35  H   UNL     1      10.054   3.101  -3.698  1.00  0.00     0.163 HD
ATOM     36  O   UNL     1      11.150   3.256  -5.832  1.00  0.00    -0.269 OA
BRANCH  34  37
ATOM     37  C   UNL     1       9.075   3.857  -6.798  1.00  0.00     0.039 A 
ATOM     38  C   UNL     1       9.545   4.918  -7.584  1.00  0.00     0.014 A 
ATOM     39  C   UNL     1       7.760   3.418  -6.941  1.00  0.00     0.014 A 
ATOM     40  C   UNL     1       8.643   5.696  -8.307  1.00  0.00     0.010 A 
ATOM     41  C   UNL     1       6.852   4.227  -7.591  1.00  0.00     0.010 A 
ATOM     42  C   UNL     1       7.286   5.406  -8.202  1.00  0.00    -0.014 A 
BRANCH  42  43
ATOM     43  C   UNL     1       6.220   6.316  -8.591  1.00  0.00     0.031 A 
ATOM     44  C   UNL     1       5.598   6.231  -9.919  1.00  0.00     0.074 A 
ATOM     45  C   UNL     1       5.705   7.125  -7.640  1.00  0.00     0.049 A 
ATOM     46  N   UNL     1       4.847   7.146 -10.428  1.00  0.00    -0.248 NA
ATOM     47  C   UNL     1       5.819   5.096 -10.800  1.00  0.00     0.031 C 
ATOM     48  C   UNL     1       4.430   7.830  -7.657  1.00  0.00     0.029 A 
ATOM     49  N   UNL     1       6.380   7.662  -6.540  1.00  0.00    -0.354 N 
ATOM     50  C   UNL     1       4.250   6.610 -11.550  1.00  0.00     0.074 A 
ATOM     51  C   UNL     1       4.975   5.385 -11.794  1.00  0.00     0.031 C 
ATOM     52  C   UNL     1       4.515   8.883  -6.828  1.00  0.00     0.029 A 
ATOM     53  C   UNL     1       5.905   8.977  -6.412  1.00  0.00     0.049 A 
ATOM     54  H   UNL     1       7.048   7.212  -5.973  1.00  0.00     0.167 HD
ATOM     55  C   UNL     1       3.112   7.194 -12.025  1.00  0.00     0.034 A 
ATOM     56  C   UNL     1       6.701  10.078  -6.550  1.00  0.00     0.034 A 
ATOM     57  C   UNL     1       2.852   8.471 -11.337  1.00  0.00     0.049 A 
ATOM     58  C   UNL     1       6.209  11.047  -7.611  1.00  0.00     0.074 A 
ATOM     59  C   UNL     1       1.991   8.848 -10.318  1.00  0.00     0.029 A 
ATOM     60  N   UNL     1       3.741   9.528 -11.504  1.00  0.00    -0.354 N 
ATOM     61  N   UNL     1       5.252  10.794  -8.461  1.00  0.00    -0.248 NA
ATOM     62  C   UNL     1       6.785  12.373  -7.812  1.00  0.00     0.031 C 
ATOM     63  C   UNL     1       2.423  10.108  -9.818  1.00  0.00     0.029 A 
ATOM     64  C   UNL     1       3.527  10.512 -10.551  1.00  0.00     0.049 A 
ATOM     65  H   UNL     1       4.430   9.572 -12.205  1.00  0.00     0.167 HD
ATOM     66  C   UNL     1       5.163  11.808  -9.383  1.00  0.00     0.074 A 
ATOM     67  C   UNL     1       6.085  12.810  -8.874  1.00  0.00     0.031 C 
ATOM     68  C   UNL     1       4.387  11.694 -10.510  1.00  0.00     0.034 A 
BRANCH  55  69
ATOM     69  C   UNL     1       2.057   6.492 -12.879  1.00  0.00     0.023 A 
ATOM     70  C   UNL     1       0.763   7.064 -12.910  1.00  0.00     0.012 A 
ATOM     71  C   UNL     1       2.193   5.269 -13.577  1.00  0.00     0.148 A 
ATOM     72  C   UNL     1      -0.338   6.420 -13.489  1.00  0.00     0.002 A 
ATOM     73  C   UNL     1       1.087   4.595 -14.107  1.00  0.00     0.091 A 
ATOM     74  F   UNL     1       3.402   4.767 -13.817  1.00  0.00    -0.205 F 
ATOM     75  C   UNL     1      -0.184   5.166 -14.058  1.00  0.00     0.022 A 
BRANCH  73  76
ATOM     76  S   UNL     1       1.214   2.937 -14.807  1.00  0.00     0.127 S 
ATOM     77  O   UNL     1       0.186   2.209 -14.060  1.00  0.00    -0.237 OA
ATOM     78  O   UNL     1       0.894   3.166 -16.215  1.00  0.00    -0.237 OA
ATOM     79  O   UNL     1       2.574   2.482 -14.541  1.00  0.00    -0.744 OA
ENDBRANCH  73  76
ENDBRANCH  55  69
BRANCH  56  80
ATOM     80  C   UNL     1       8.137   9.832  -6.212  1.00  0.00     0.023 A 
ATOM     81  C   UNL     1       8.424   9.388  -4.897  1.00  0.00     0.012 A 
ATOM     82  C   UNL     1       9.112   9.658  -7.209  1.00  0.00     0.148 A 
ATOM     83  C   UNL     1       9.583   8.661  -4.620  1.00  0.00     0.002 A 
ATOM     84  C   UNL     1      10.276   8.944  -6.919  1.00  0.00     0.091 A 
ATOM     85  F   UNL     1       8.866  10.123  -8.440  1.00  0.00    -0.205 F 
ATOM     86  C   UNL     1      10.493   8.409  -5.640  1.00  0.00     0.022 A 
BRANCH  84  87
ATOM     87  S   UNL     1      11.480   8.576  -8.203  1.00  0.00     0.127 S 
ATOM     88  O   UNL     1      12.369   9.730  -8.110  1.00  0.00    -0.237 OA
ATOM     89  O   UNL     1      12.061   7.314  -7.746  1.00  0.00    -0.237 OA
ATOM     90  O   UNL     1      10.690   8.458  -9.420  1.00  0.00    -0.744 OA
ENDBRANCH  84  87
ENDBRANCH  56  80
BRANCH  68  91
ATOM     91  C   UNL     1       4.371  12.651 -11.700  1.00  0.00     0.023 A 
ATOM     92  C   UNL     1       5.371  13.618 -11.919  1.00  0.00     0.012 A 
ATOM     93  C   UNL     1       3.396  12.523 -12.729  1.00  0.00     0.148 A 
ATOM     94  C   UNL     1       5.385  14.441 -13.053  1.00  0.00     0.002 A 
ATOM     95  C   UNL     1       3.478  13.266 -13.907  1.00  0.00     0.091 A 
ATOM     96  F   UNL     1       2.356  11.693 -12.569  1.00  0.00    -0.205 F 
ATOM     97  C   UNL     1       4.454  14.249 -14.060  1.00  0.00     0.022 A 
BRANCH  95  98
ATOM     98  S   UNL     1       2.432  12.882 -15.320  1.00  0.00     0.127 S 
ATOM     99  O   UNL     1       1.304  13.789 -15.122  1.00  0.00    -0.237 OA
ATOM    100  O   UNL     1       3.294  13.223 -16.454  1.00  0.00    -0.237 OA
ATOM    101  O   UNL     1       2.146  11.459 -15.201  1.00  0.00    -0.744 OA
ENDBRANCH  95  98
ENDBRANCH  68  91
ENDBRANCH  42  43
ENDBRANCH  34  37
ENDBRANCH  32  33
ENDBRANCH  31  32
ENDBRANCH  30  31
ENDBRANCH   1  30
TORSDOF 20
