REMARK SMILES CCCCCCNC(=O)Nc1cccc(-c2ccc([C@@H](C)C(=O)NCCCCCCNC(=O)c3ccc(-c4c5nc(c(-c6cccc(S(=O)(=O)[O-])c6F)c6ccc([nH]6)c(-c6cccc(S(=O)(=O)[O-])c6F)c6nc(c(-c7cccc(S(=O)(=O)[O-])c7F)c7ccc4[nH]7)C=C6)C=C5)cc3)cc2F)c1
REMARK SMILES IDX 25 1 24 2 22 3 23 4 20 6 21 7 19 8 16 9 17 10 98 11 18 12
REMARK SMILES IDX 97 13 99 14 15 15 11 16 12 17 100 18 13 19 14 20 10 21 7 22
REMARK SMILES IDX 8 23 9 25 6 27 5 28 4 29 3 30 2 31 1 32 26 33 27 34 28 35
REMARK SMILES IDX 29 36 30 37 31 38 32 39 33 41 34 42 35 43 96 44 36 45 95 46
REMARK SMILES IDX 37 47 38 48 39 49 89 50 40 51 94 52 88 53 90 54 41 55 93 56
REMARK SMILES IDX 87 57 86 58 42 60 74 61 54 62 73 63 55 64 58 65 72 66 91 67
REMARK SMILES IDX 56 68 57 69 71 71 92 72 59 73 43 74 44 75 52 76 45 77 47 78
REMARK SMILES IDX 53 79 46 80 48 81 49 82 50 83 51 84 75 85 76 86 84 87 77 88
REMARK SMILES IDX 79 89 85 90 78 91 80 92 81 93 82 94 83 95 60 96 61 97 69 98
REMARK SMILES IDX 62 99 64 100 70 101 63 102 65 103 66 104 67 105 68 106
REMARK H PARENT 24 5 7 24 10 26 31 40 90 59 58 70
REMARK Flexibility Score: inf
ROOT
ATOM      1  C   UNL     1      -0.816   1.132  -4.721  1.00  0.00     0.116 C 
ENDROOT
BRANCH   1   2
ATOM      2  N   UNL     1      -0.280  -0.009  -5.437  1.00  0.00    -0.356 N 
ATOM      3  C   UNL     1      -0.869  -1.137  -5.915  1.00  0.00     0.227 C 
ATOM      4  O   UNL     1      -0.104  -2.014  -6.339  1.00  0.00    -0.274 OA
ATOM      5  H   UNL     1       0.688   0.043  -5.608  1.00  0.00     0.163 HD
BRANCH   3   6
ATOM      6  C   UNL     1      -2.387  -1.356  -5.971  1.00  0.00     0.105 C 
ATOM      7  C   UNL     1      -3.166  -0.256  -6.691  1.00  0.00     0.023 C 
BRANCH   6   8
ATOM      8  C   UNL     1      -3.004  -1.838  -4.666  1.00  0.00    -0.033 A 
ATOM      9  C   UNL     1      -4.125  -2.834  -2.224  1.00  0.00     0.018 A 
ATOM     10  C   UNL     1      -3.885  -1.466  -2.422  1.00  0.00     0.012 A 
ATOM     11  C   UNL     1      -3.804  -3.687  -3.288  1.00  0.00     0.131 A 
ATOM     12  C   UNL     1      -3.359  -0.976  -3.625  1.00  0.00     0.005 A 
ATOM     13  C   UNL     1      -3.243  -3.208  -4.478  1.00  0.00     0.044 A 
ATOM     14  F   UNL     1      -4.027  -5.007  -3.192  1.00  0.00    -0.206 F 
BRANCH   9  15
ATOM     15  C   UNL     1      -4.638  -3.323  -0.928  1.00  0.00    -0.013 A 
ATOM     16  C   UNL     1      -4.383  -4.775   1.022  1.00  0.00     0.043 A 
ATOM     17  C   UNL     1      -5.427  -4.120   1.671  1.00  0.00     0.026 A 
ATOM     18  C   UNL     1      -4.051  -4.431  -0.294  1.00  0.00     0.035 A 
ATOM     19  C   UNL     1      -6.044  -3.036   1.053  1.00  0.00     0.003 A 
ATOM     20  C   UNL     1      -5.641  -2.633  -0.224  1.00  0.00     0.009 A 
BRANCH  16  21
ATOM     21  N   UNL     1      -3.632  -5.703   1.758  1.00  0.00    -0.308 N 
ATOM     22  N   UNL     1      -1.391  -5.085   1.300  1.00  0.00    -0.338 N 
ATOM     23  C   UNL     1      -2.309  -5.998   1.701  1.00  0.00     0.319 C 
ATOM     24  H   UNL     1      -0.498  -5.457   1.117  1.00  0.00     0.165 HD
ATOM     25  O   UNL     1      -1.908  -7.087   2.115  1.00  0.00    -0.249 OA
ATOM     26  H   UNL     1      -4.144  -6.221   2.419  1.00  0.00     0.171 HD
BRANCH  22  27
ATOM     27  C   UNL     1      -1.502  -3.649   1.094  1.00  0.00     0.117 C 
BRANCH  27  28
ATOM     28  C   UNL     1      -0.547  -2.832   1.953  1.00  0.00     0.021 C 
BRANCH  28  29
ATOM     29  C   UNL     1       0.933  -2.968   1.601  1.00  0.00     0.002 C 
BRANCH  29  30
ATOM     30  C   UNL     1       1.312  -2.618   0.157  1.00  0.00    -0.000 C 
BRANCH  30  31
ATOM     31  C   UNL     1       0.751  -1.300  -0.378  1.00  0.00    -0.003 C 
ATOM     32  C   UNL     1       1.106  -0.087   0.468  1.00  0.00     0.004 C 
ENDBRANCH  30  31
ENDBRANCH  29  30
ENDBRANCH  28  29
ENDBRANCH  27  28
ENDBRANCH  22  27
ENDBRANCH  16  21
ENDBRANCH   9  15
ENDBRANCH   6   8
ENDBRANCH   3   6
ENDBRANCH   1   2
BRANCH   1  33
ATOM     33  C   UNL     1      -0.474   1.046  -3.233  1.00  0.00     0.021 C 
BRANCH  33  34
ATOM     34  C   UNL     1       0.878   1.678  -2.893  1.00  0.00     0.002 C 
BRANCH  34  35
ATOM     35  C   UNL     1       0.939   3.202  -3.039  1.00  0.00     0.002 C 
BRANCH  35  36
ATOM     36  C   UNL     1      -0.142   3.989  -2.289  1.00  0.00     0.021 C 
BRANCH  36  37
ATOM     37  C   UNL     1      -0.236   3.715  -0.790  1.00  0.00     0.116 C 
BRANCH  37  38
ATOM     38  N   UNL     1       1.017   3.979  -0.101  1.00  0.00    -0.352 N 
ATOM     39  C   UNL     1       1.290   4.870   0.908  1.00  0.00     0.251 C 
ATOM     40  H   UNL     1       1.784   3.439  -0.402  1.00  0.00     0.163 HD
ATOM     41  O   UNL     1       2.453   5.108   1.216  1.00  0.00    -0.269 OA
BRANCH  39  42
ATOM     42  C   UNL     1       0.182   5.548   1.615  1.00  0.00     0.039 A 
ATOM     43  C   UNL     1       0.266   6.923   1.844  1.00  0.00     0.014 A 
ATOM     44  C   UNL     1      -0.926   4.826   2.067  1.00  0.00     0.014 A 
ATOM     45  C   UNL     1      -0.790   7.585   2.475  1.00  0.00     0.010 A 
ATOM     46  C   UNL     1      -2.006   5.498   2.635  1.00  0.00     0.010 A 
ATOM     47  C   UNL     1      -1.949   6.884   2.849  1.00  0.00    -0.014 A 
BRANCH  47  48
ATOM     48  C   UNL     1      -3.117   7.594   3.433  1.00  0.00     0.031 A 
ATOM     49  C   UNL     1      -3.578   7.296   4.833  1.00  0.00     0.074 A 
ATOM     50  C   UNL     1      -3.813   8.458   2.668  1.00  0.00     0.049 A 
ATOM     51  N   UNL     1      -4.577   7.816   5.500  1.00  0.00    -0.248 NA
ATOM     52  C   UNL     1      -2.840   6.261   5.574  1.00  0.00     0.031 C 
ATOM     53  C   UNL     1      -3.518   8.774   1.270  1.00  0.00     0.029 A 
ATOM     54  N   UNL     1      -4.923   9.215   2.952  1.00  0.00    -0.354 N 
ATOM     55  C   UNL     1      -4.610   7.151   6.719  1.00  0.00     0.074 A 
ATOM     56  C   UNL     1      -3.551   6.165   6.687  1.00  0.00     0.031 C 
ATOM     57  C   UNL     1      -4.410   9.673   0.824  1.00  0.00     0.029 A 
ATOM     58  C   UNL     1      -5.358   9.974   1.892  1.00  0.00     0.049 A 
ATOM     59  H   UNL     1      -5.365   9.214   3.832  1.00  0.00     0.167 HD
ATOM     60  C   UNL     1      -5.430   7.356   7.778  1.00  0.00     0.034 A 
ATOM     61  C   UNL     1      -6.402  10.819   1.789  1.00  0.00     0.034 A 
ATOM     62  C   UNL     1      -6.461   8.360   7.819  1.00  0.00     0.049 A 
ATOM     63  C   UNL     1      -7.277  11.054   2.989  1.00  0.00     0.074 A 
ATOM     64  C   UNL     1      -7.273   8.717   8.880  1.00  0.00     0.029 A 
ATOM     65  N   UNL     1      -6.836   9.153   6.745  1.00  0.00    -0.354 N 
ATOM     66  N   UNL     1      -7.183  10.543   4.192  1.00  0.00    -0.248 NA
ATOM     67  C   UNL     1      -8.382  12.010   2.826  1.00  0.00     0.031 C 
ATOM     68  C   UNL     1      -8.165   9.701   8.437  1.00  0.00     0.029 A 
ATOM     69  C   UNL     1      -7.885   9.982   7.110  1.00  0.00     0.049 A 
ATOM     70  H   UNL     1      -6.419   9.131   5.854  1.00  0.00     0.167 HD
ATOM     71  C   UNL     1      -8.192  11.138   4.940  1.00  0.00     0.074 A 
ATOM     72  C   UNL     1      -8.872  12.066   4.058  1.00  0.00     0.031 C 
ATOM     73  C   UNL     1      -8.532  10.928   6.236  1.00  0.00     0.034 A 
BRANCH  60  74
ATOM     74  C   UNL     1      -5.222   6.494   8.998  1.00  0.00     0.023 A 
ATOM     75  C   UNL     1      -4.064   6.661   9.786  1.00  0.00     0.012 A 
ATOM     76  C   UNL     1      -6.188   5.545   9.387  1.00  0.00     0.148 A 
ATOM     77  C   UNL     1      -3.847   5.867  10.912  1.00  0.00     0.002 A 
ATOM     78  C   UNL     1      -5.988   4.791  10.539  1.00  0.00     0.091 A 
ATOM     79  F   UNL     1      -7.273   5.383   8.617  1.00  0.00    -0.205 F 
ATOM     80  C   UNL     1      -4.813   4.940  11.293  1.00  0.00     0.022 A 
BRANCH  78  81
ATOM     81  S   UNL     1      -7.212   3.630  11.155  1.00  0.00     0.127 S 
ATOM     82  O   UNL     1      -6.596   2.347  10.819  1.00  0.00    -0.237 OA
ATOM     83  O   UNL     1      -7.238   3.938  12.585  1.00  0.00    -0.237 OA
ATOM     84  O   UNL     1      -8.447   3.938  10.447  1.00  0.00    -0.744 OA
ENDBRANCH  78  81
ENDBRANCH  60  74
BRANCH  61  85
ATOM     85  C   UNL     1      -6.624  11.568   0.520  1.00  0.00     0.023 A 
ATOM     86  C   UNL     1      -6.375  12.954   0.486  1.00  0.00     0.012 A 
ATOM     87  C   UNL     1      -7.035  10.915  -0.658  1.00  0.00     0.148 A 
ATOM     88  C   UNL     1      -6.557  13.681  -0.691  1.00  0.00     0.002 A 
ATOM     89  C   UNL     1      -7.161  11.634  -1.840  1.00  0.00     0.091 A 
ATOM     90  F   UNL     1      -7.273   9.597  -0.601  1.00  0.00    -0.205 F 
ATOM     91  C   UNL     1      -6.939  13.020  -1.855  1.00  0.00     0.022 A 
BRANCH  89  92
ATOM     92  S   UNL     1      -7.518  10.850  -3.416  1.00  0.00     0.127 S 
ATOM     93  O   UNL     1      -8.839  11.390  -3.726  1.00  0.00    -0.237 OA
ATOM     94  O   UNL     1      -6.431  11.355  -4.255  1.00  0.00    -0.237 OA
ATOM     95  O   UNL     1      -7.468   9.416  -3.165  1.00  0.00    -0.744 OA
ENDBRANCH  89  92
ENDBRANCH  61  85
BRANCH  73  96
ATOM     96  C   UNL     1      -9.678  11.733   6.795  1.00  0.00     0.023 A 
ATOM     97  C   UNL     1     -10.997  11.465   6.376  1.00  0.00     0.012 A 
ATOM     98  C   UNL     1      -9.454  12.718   7.778  1.00  0.00     0.148 A 
ATOM     99  C   UNL     1     -12.069  12.190   6.897  1.00  0.00     0.002 A 
ATOM    100  C   UNL     1     -10.532  13.399   8.331  1.00  0.00     0.091 A 
ATOM    101  F   UNL     1      -8.192  12.974   8.152  1.00  0.00    -0.205 F 
ATOM    102  C   UNL     1     -11.838  13.147   7.881  1.00  0.00     0.022 A 
BRANCH 100 103
ATOM    103  S   UNL     1     -10.340  14.578   9.673  1.00  0.00     0.127 S 
ATOM    104  O   UNL     1     -10.578  15.848   8.990  1.00  0.00    -0.237 OA
ATOM    105  O   UNL     1     -11.401  14.174  10.596  1.00  0.00    -0.237 OA
ATOM    106  O   UNL     1      -8.990  14.386  10.185  1.00  0.00    -0.744 OA
ENDBRANCH 100 103
ENDBRANCH  73  96
ENDBRANCH  47  48
ENDBRANCH  39  42
ENDBRANCH  37  38
ENDBRANCH  36  37
ENDBRANCH  35  36
ENDBRANCH  34  35
ENDBRANCH  33  34
ENDBRANCH   1  33
TORSDOF 24
