REMARK SMILES O=C(NCCCCCCNC(=O)C1(Cc2nccs2)CC1)c1ccc(-c2c3nc(c(-c4cccc(S(=O)(=O)[O-])c4F)c4ccc([nH]4)c(-c4cccc(S(=O)(=O)[O-])c4F)c4nc(c(-c5cccc(S(=O)(=O)[O-])c5F)c5ccc2[nH]5)C=C4)C=C3)cc1
REMARK SMILES IDX 6 1 5 2 4 3 3 4 1 5 2 6 22 8 23 9 84 10 24 11 83 12 25 13
REMARK SMILES IDX 26 14 27 15 77 16 28 17 82 18 76 19 78 20 29 21 81 22 75 23
REMARK SMILES IDX 74 24 30 26 62 27 42 28 61 29 43 30 46 31 60 32 79 33 44 34
REMARK SMILES IDX 45 35 59 37 80 38 47 39 31 40 32 41 40 42 33 43 35 44 41 45
REMARK SMILES IDX 34 46 36 47 37 48 38 49 39 50 63 51 64 52 72 53 65 54 67 55
REMARK SMILES IDX 73 56 66 57 68 58 69 59 70 60 71 61 48 62 49 63 57 64 50 65
REMARK SMILES IDX 52 66 58 67 51 68 53 69 54 70 55 71 56 72 7 73 8 74 9 75
REMARK SMILES IDX 10 76 11 77 12 79 13 80 20 81 21 82 14 83 15 84 16 85 19 86
REMARK SMILES IDX 17 87 18 88
REMARK H PARENT 3 7 78 25 46 36 10 78
REMARK Flexibility Score: inf
ROOT
ATOM      1  C   UNL     1       3.944   0.656  -3.985  1.00  0.00     0.002 C 
ENDROOT
BRANCH   1   2
ATOM      2  C   UNL     1       4.316  -0.295  -2.849  1.00  0.00     0.021 C 
BRANCH   2   3
ATOM      3  C   UNL     1       4.219   0.313  -1.455  1.00  0.00     0.116 C 
BRANCH   3   4
ATOM      4  N   UNL     1       2.842   0.534  -1.044  1.00  0.00    -0.352 N 
ATOM      5  O   UNL     1       0.977   0.169   0.177  1.00  0.00    -0.269 OA
ATOM      6  C   UNL     1       2.195   0.053   0.071  1.00  0.00     0.251 C 
ATOM      7  H   UNL     1       2.303   1.103  -1.640  1.00  0.00     0.163 HD
BRANCH   6   8
ATOM      8  C   UNL     1       2.982  -0.625   1.125  1.00  0.00     0.039 A 
ATOM      9  C   UNL     1       4.181  -0.064   1.569  1.00  0.00     0.014 A 
ATOM     10  C   UNL     1       2.534  -1.837   1.656  1.00  0.00     0.014 A 
ATOM     11  C   UNL     1       5.001  -0.784   2.428  1.00  0.00     0.010 A 
ATOM     12  C   UNL     1       3.318  -2.515   2.597  1.00  0.00     0.010 A 
ATOM     13  C   UNL     1       4.572  -2.009   2.969  1.00  0.00    -0.014 A 
BRANCH  13  14
ATOM     14  C   UNL     1       5.425  -2.672   3.991  1.00  0.00     0.031 A 
ATOM     15  C   UNL     1       6.038  -4.025   3.761  1.00  0.00     0.074 A 
ATOM     16  C   UNL     1       5.672  -2.004   5.136  1.00  0.00     0.049 A 
ATOM     17  N   UNL     1       6.868  -4.688   4.527  1.00  0.00    -0.248 NA
ATOM     18  C   UNL     1       5.673  -4.734   2.524  1.00  0.00     0.031 C 
ATOM     19  C   UNL     1       5.080  -0.712   5.496  1.00  0.00     0.029 A 
ATOM     20  N   UNL     1       6.485  -2.302   6.198  1.00  0.00    -0.354 N 
ATOM     21  C   UNL     1       7.105  -5.897   3.884  1.00  0.00     0.074 A 
ATOM     22  C   UNL     1       6.317  -5.885   2.669  1.00  0.00     0.031 C 
ATOM     23  C   UNL     1       5.578  -0.310   6.673  1.00  0.00     0.029 A 
ATOM     24  C   UNL     1       6.483  -1.336   7.177  1.00  0.00     0.049 A 
ATOM     25  H   UNL     1       7.019  -3.127   6.255  1.00  0.00     0.167 HD
ATOM     26  C   UNL     1       7.919  -6.914   4.262  1.00  0.00     0.034 A 
ATOM     27  C   UNL     1       7.127  -1.281   8.358  1.00  0.00     0.034 A 
ATOM     28  C   UNL     1       8.717  -6.908   5.462  1.00  0.00     0.049 A 
ATOM     29  C   UNL     1       8.057  -2.400   8.725  1.00  0.00     0.074 A 
ATOM     30  C   UNL     1       9.599  -7.875   5.914  1.00  0.00     0.029 A 
ATOM     31  N   UNL     1       8.732  -5.887   6.401  1.00  0.00    -0.354 N 
ATOM     32  N   UNL     1       8.359  -3.477   8.042  1.00  0.00    -0.248 NA
ATOM     33  C   UNL     1       8.761  -2.281  10.008  1.00  0.00     0.031 C 
ATOM     34  C   UNL     1      10.139  -7.443   7.131  1.00  0.00     0.029 A 
ATOM     35  C   UNL     1       9.608  -6.198   7.428  1.00  0.00     0.049 A 
ATOM     36  H   UNL     1       8.198  -5.062   6.346  1.00  0.00     0.167 HD
ATOM     37  C   UNL     1       9.295  -4.160   8.806  1.00  0.00     0.074 A 
ATOM     38  C   UNL     1       9.543  -3.351   9.982  1.00  0.00     0.031 C 
ATOM     39  C   UNL     1       9.875  -5.363   8.571  1.00  0.00     0.034 A 
BRANCH  26  40
ATOM     40  C   UNL     1       8.036  -8.103   3.343  1.00  0.00     0.023 A 
ATOM     41  C   UNL     1       8.772  -7.979   2.146  1.00  0.00     0.012 A 
ATOM     42  C   UNL     1       7.500  -9.358   3.695  1.00  0.00     0.148 A 
ATOM     43  C   UNL     1       8.952  -9.075   1.304  1.00  0.00     0.002 A 
ATOM     44  C   UNL     1       7.716 -10.456   2.868  1.00  0.00     0.091 A 
ATOM     45  F   UNL     1       6.790  -9.455   4.827  1.00  0.00    -0.205 F 
ATOM     46  C   UNL     1       8.434 -10.314   1.669  1.00  0.00     0.022 A 
BRANCH  44  47
ATOM     47  S   UNL     1       7.156 -12.113   3.282  1.00  0.00     0.127 S 
ATOM     48  O   UNL     1       6.089 -12.316   2.303  1.00  0.00    -0.237 OA
ATOM     49  O   UNL     1       8.358 -12.913   3.048  1.00  0.00    -0.237 OA
ATOM     50  O   UNL     1       6.725 -12.055   4.672  1.00  0.00    -0.744 OA
ENDBRANCH  44  47
ENDBRANCH  26  40
BRANCH  27  51
ATOM     51  C   UNL     1       6.936  -0.102   9.247  1.00  0.00     0.023 A 
ATOM     52  C   UNL     1       7.998   0.799   9.453  1.00  0.00     0.012 A 
ATOM     53  C   UNL     1       5.689   0.158   9.847  1.00  0.00     0.148 A 
ATOM     54  C   UNL     1       7.827   1.924  10.261  1.00  0.00     0.002 A 
ATOM     55  C   UNL     1       5.507   1.313  10.596  1.00  0.00     0.091 A 
ATOM     56  F   UNL     1       4.694  -0.722   9.658  1.00  0.00    -0.205 F 
ATOM     57  C   UNL     1       6.579   2.189  10.821  1.00  0.00     0.022 A 
BRANCH  55  58
ATOM     58  S   UNL     1       3.888   1.797  11.206  1.00  0.00     0.127 S 
ATOM     59  O   UNL     1       3.959   1.384  12.604  1.00  0.00    -0.237 OA
ATOM     60  O   UNL     1       3.896   3.244  10.989  1.00  0.00    -0.237 OA
ATOM     61  O   UNL     1       2.935   1.078  10.370  1.00  0.00    -0.744 OA
ENDBRANCH  55  58
ENDBRANCH  27  51
BRANCH  39  62
ATOM     62  C   UNL     1      10.843  -5.868   9.607  1.00  0.00     0.023 A 
ATOM     63  C   UNL     1      10.357  -6.327  10.848  1.00  0.00     0.012 A 
ATOM     64  C   UNL     1      12.225  -5.922   9.343  1.00  0.00     0.148 A 
ATOM     65  C   UNL     1      11.234  -6.793  11.825  1.00  0.00     0.002 A 
ATOM     66  C   UNL     1      13.089  -6.430  10.305  1.00  0.00     0.091 A 
ATOM     67  F   UNL     1      12.671  -5.459   8.166  1.00  0.00    -0.205 F 
ATOM     68  C   UNL     1      12.598  -6.854  11.550  1.00  0.00     0.022 A 
BRANCH  66  69
ATOM     69  S   UNL     1      14.849  -6.623  10.001  1.00  0.00     0.127 S 
ATOM     70  O   UNL     1      15.405  -5.489  10.736  1.00  0.00    -0.237 OA
ATOM     71  O   UNL     1      15.129  -7.931  10.596  1.00  0.00    -0.237 OA
ATOM     72  O   UNL     1      15.009  -6.576   8.554  1.00  0.00    -0.744 OA
ENDBRANCH  66  69
ENDBRANCH  39  62
ENDBRANCH  13  14
ENDBRANCH   6   8
ENDBRANCH   3   4
ENDBRANCH   2   3
ENDBRANCH   1   2
BRANCH   1  73
ATOM     73  C   UNL     1       4.749   1.958  -4.028  1.00  0.00     0.002 C 
BRANCH  73  74
ATOM     74  C   UNL     1       6.274   1.787  -4.003  1.00  0.00     0.021 C 
BRANCH  74  75
ATOM     75  C   UNL     1       6.856   1.058  -5.217  1.00  0.00     0.116 C 
BRANCH  75  76
ATOM     76  N   UNL     1       6.607   1.780  -6.445  1.00  0.00    -0.356 N 
ATOM     77  C   UNL     1       7.400   2.618  -7.179  1.00  0.00     0.226 C 
ATOM     78  H   UNL     1       5.706   1.645  -6.819  1.00  0.00     0.163 HD
ATOM     79  O   UNL     1       6.925   3.136  -8.189  1.00  0.00    -0.274 OA
BRANCH  77  80
ATOM     80  C   UNL     1       8.863   2.809  -6.847  1.00  0.00     0.056 C 
ATOM     81  C   UNL     1       9.829   1.844  -7.537  1.00  0.00     0.018 C 
ATOM     82  C   UNL     1       9.761   3.262  -8.006  1.00  0.00     0.018 C 
BRANCH  80  83
ATOM     83  C   UNL     1       9.278   3.337  -5.476  1.00  0.00     0.084 C 
BRANCH  83  84
ATOM     84  C   UNL     1       8.492   4.483  -4.906  1.00  0.00     0.094 A 
ATOM     85  N   UNL     1       7.391   4.988  -5.421  1.00  0.00    -0.250 NA
ATOM     86  S   UNL     1       8.971   5.166  -3.396  1.00  0.00    -0.127 S 
ATOM     87  C   UNL     1       6.861   5.934  -4.569  1.00  0.00     0.123 A 
ATOM     88  C   UNL     1       7.578   6.162  -3.416  1.00  0.00     0.087 A 
ENDBRANCH  83  84
ENDBRANCH  80  83
ENDBRANCH  77  80
ENDBRANCH  75  76
ENDBRANCH  74  75
ENDBRANCH  73  74
ENDBRANCH   1  73
TORSDOF 18
