REMARK SMILES Cc1ccc(N2C(=O)[NH+]=C(NCCCCCCNC(=O)c3ccc(-c4c5nc(c(-c6cccc(S(=O)(=O)[O-])c6F)c6ccc([nH]6)c(-c6cccc(S(=O)(=O)[O-])c6F)c6nc(c(-c7cccc(S(=O)(=O)[O-])c7F)c7ccc4[nH]7)C=C6)C=C5)cc3)/C(=C\c3ccccc3OCc3cccc(C(=O)[O-])c3)C2=O)cc1
REMARK SMILES IDX 14 1 13 2 12 3 11 4 6 5 7 6 103 7 8 8 9 9 84 10 104 11 10 12
REMARK SMILES IDX 85 14 5 16 1 17 2 18 3 19 106 20 4 21 105 22 86 23 87 24
REMARK SMILES IDX 91 25 88 26 90 27 89 28 92 29 93 30 94 31 95 32 102 33 96 34
REMARK SMILES IDX 98 35 97 36 99 37 100 38 101 39 15 40 16 41 17 42 18 43
REMARK SMILES IDX 19 44 20 46 21 47 22 48 83 49 23 50 82 51 24 52 25 53 26 54
REMARK SMILES IDX 76 55 27 56 81 57 75 58 77 59 28 60 80 61 74 62 73 63 29 65
REMARK SMILES IDX 61 66 41 67 60 68 42 69 45 70 59 71 78 72 43 73 44 74 58 76
REMARK SMILES IDX 79 77 46 78 30 79 31 80 39 81 32 82 34 83 40 84 33 85 35 86
REMARK SMILES IDX 36 87 37 88 38 89 62 90 63 91 71 92 64 93 66 94 72 95 65 96
REMARK SMILES IDX 67 97 68 98 69 99 70 100 47 101 48 102 56 103 49 104 51 105
REMARK SMILES IDX 57 106 50 107 52 108 53 109 54 110 55 111
REMARK H PARENT 9 13 11 15 18 45 77 64 45 75
REMARK Flexibility Score: inf
ROOT
ATOM      1  C   UNL     1     -10.254   0.889   0.884  1.00  0.00     0.003 C 
ENDROOT
BRANCH   1   2
ATOM      2  C   UNL     1      -9.288   0.651   2.050  1.00  0.00     0.037 C 
BRANCH   2   3
ATOM      3  C   UNL     1      -7.922   0.099   1.652  1.00  0.00     0.194 C 
BRANCH   3   4
ATOM      4  N   UNL     1      -7.184   1.048   0.833  1.00  0.00    -0.305 N 
ATOM      5  N   UNL     1      -3.072   0.780   0.325  1.00  0.00    -0.155 N 
ATOM      6  C   UNL     1      -3.780   0.079   1.316  1.00  0.00     0.448 C 
ATOM      7  C   UNL     1      -3.697   1.637  -0.578  1.00  0.00     0.328 C 
ATOM      8  O   UNL     1      -3.220  -0.670   2.118  1.00  0.00    -0.212 OA
ATOM      9  N   UNL     1      -5.125   0.260   1.445  1.00  0.00    -0.209 N 
ATOM     10  C   UNL     1      -5.181   1.530  -0.594  1.00  0.00     0.129 C 
ATOM     11  O   UNL     1      -3.128   2.335  -1.420  1.00  0.00    -0.249 OA
ATOM     12  C   UNL     1      -5.836   0.926   0.592  1.00  0.00     0.236 C 
ATOM     13  H   UNL     1      -5.579  -0.135   2.224  1.00  0.00     0.270 HD
ATOM     14  C   UNL     1      -5.766   1.778  -1.787  1.00  0.00     0.034 C 
ATOM     15  H   UNL     1      -7.669   1.806   0.435  1.00  0.00     0.256 HD
BRANCH   5  16
ATOM     16  C   UNL     1      -1.649   0.580   0.222  1.00  0.00     0.111 A 
ATOM     17  C   UNL     1       2.626  -0.053  -0.054  1.00  0.00     0.044 C 
ATOM     18  C   UNL     1       1.147   0.173   0.034  1.00  0.00    -0.051 A 
ATOM     19  C   UNL     1       0.288  -0.907   0.247  1.00  0.00     0.007 A 
ATOM     20  C   UNL     1       0.603   1.452  -0.106  1.00  0.00     0.007 A 
ATOM     21  C   UNL     1      -1.090  -0.703   0.349  1.00  0.00     0.044 A 
ATOM     22  C   UNL     1      -0.779   1.651  -0.020  1.00  0.00     0.044 A 
ENDBRANCH   5  16
BRANCH  14  23
ATOM     23  C   UNL     1      -7.123   1.456  -2.259  1.00  0.00     0.018 A 
ATOM     24  C   UNL     1      -7.839   2.506  -2.862  1.00  0.00     0.012 A 
ATOM     25  C   UNL     1      -7.722   0.184  -2.199  1.00  0.00     0.127 A 
ATOM     26  C   UNL     1      -9.148   2.325  -3.316  1.00  0.00     0.001 A 
ATOM     27  C   UNL     1      -9.032   0.012  -2.668  1.00  0.00     0.047 A 
ATOM     28  C   UNL     1      -9.751   1.079  -3.203  1.00  0.00     0.004 A 
BRANCH  25  29
ATOM     29  O   UNL     1      -7.202  -0.912  -1.559  1.00  0.00    -0.488 OA
BRANCH  29  30
ATOM     30  C   UNL     1      -5.943  -1.380  -2.037  1.00  0.00     0.265 C 
BRANCH  30  31
ATOM     31  C   UNL     1      -5.533  -2.637  -1.298  1.00  0.00    -0.010 A 
ATOM     32  C   UNL     1      -4.170  -2.912  -1.097  1.00  0.00     0.007 A 
ATOM     33  C   UNL     1      -6.481  -3.578  -0.870  1.00  0.00     0.017 A 
ATOM     34  C   UNL     1      -3.761  -4.099  -0.486  1.00  0.00     0.001 A 
ATOM     35  C   UNL     1      -6.073  -4.784  -0.281  1.00  0.00    -0.002 A 
ATOM     36  C   UNL     1      -4.710  -5.039  -0.090  1.00  0.00     0.010 A 
BRANCH  35  37
ATOM     37  C   UNL     1      -7.047  -5.828   0.099  1.00  0.00     0.071 C 
ATOM     38  O   UNL     1      -6.768  -6.981   0.426  1.00  0.00    -0.545 OA
ATOM     39  O   UNL     1      -8.319  -5.413   0.037  1.00  0.00    -0.545 OA
ENDBRANCH  35  37
ENDBRANCH  30  31
ENDBRANCH  29  30
ENDBRANCH  25  29
ENDBRANCH  14  23
ENDBRANCH   3   4
ENDBRANCH   2   3
ENDBRANCH   1   2
BRANCH   1  40
ATOM     40  C   UNL     1     -10.722  -0.370   0.141  1.00  0.00     0.002 C 
BRANCH  40  41
ATOM     41  C   UNL     1     -11.455  -1.434   0.949  1.00  0.00     0.021 C 
BRANCH  41  42
ATOM     42  C   UNL     1     -12.625  -0.898   1.740  1.00  0.00     0.116 C 
BRANCH  42  43
ATOM     43  N   UNL     1     -13.812  -0.625   0.958  1.00  0.00    -0.352 N 
ATOM     44  C   UNL     1     -15.082  -0.281   1.388  1.00  0.00     0.251 C 
ATOM     45  H   UNL     1     -13.700  -0.693  -0.018  1.00  0.00     0.163 HD
ATOM     46  O   UNL     1     -16.001  -0.377   0.577  1.00  0.00    -0.269 OA
BRANCH  44  47
ATOM     47  C   UNL     1     -15.296   0.376   2.713  1.00  0.00     0.039 A 
ATOM     48  C   UNL     1     -16.370   1.271   2.808  1.00  0.00     0.014 A 
ATOM     49  C   UNL     1     -14.258   0.478   3.625  1.00  0.00     0.014 A 
ATOM     50  C   UNL     1     -16.220   2.436   3.549  1.00  0.00     0.010 A 
ATOM     51  C   UNL     1     -14.000   1.705   4.161  1.00  0.00     0.010 A 
ATOM     52  C   UNL     1     -14.969   2.703   4.073  1.00  0.00    -0.014 A 
BRANCH  52  53
ATOM     53  C   UNL     1     -14.568   3.902   4.761  1.00  0.00     0.031 A 
ATOM     54  C   UNL     1     -14.673   3.857   6.234  1.00  0.00     0.074 A 
ATOM     55  C   UNL     1     -13.762   4.760   4.093  1.00  0.00     0.049 A 
ATOM     56  N   UNL     1     -14.377   4.842   6.996  1.00  0.00    -0.248 NA
ATOM     57  C   UNL     1     -15.119   2.674   6.974  1.00  0.00     0.031 C 
ATOM     58  C   UNL     1     -12.742   5.628   4.670  1.00  0.00     0.029 A 
ATOM     59  N   UNL     1     -13.692   5.086   2.737  1.00  0.00    -0.354 N 
ATOM     60  C   UNL     1     -14.276   4.351   8.281  1.00  0.00     0.074 A 
ATOM     61  C   UNL     1     -14.882   3.047   8.236  1.00  0.00     0.031 C 
ATOM     62  C   UNL     1     -12.404   6.562   3.764  1.00  0.00     0.029 A 
ATOM     63  C   UNL     1     -13.367   6.451   2.687  1.00  0.00     0.049 A 
ATOM     64  H   UNL     1     -13.841   4.483   1.973  1.00  0.00     0.167 HD
ATOM     65  C   UNL     1     -13.542   5.072   9.171  1.00  0.00     0.034 A 
ATOM     66  C   UNL     1     -14.257   7.442   2.351  1.00  0.00     0.034 A 
ATOM     67  C   UNL     1     -13.080   6.319   8.534  1.00  0.00     0.049 A 
ATOM     68  C   UNL     1     -14.496   8.461   3.471  1.00  0.00     0.074 A 
ATOM     69  C   UNL     1     -11.875   6.736   7.994  1.00  0.00     0.029 A 
ATOM     70  N   UNL     1     -14.031   7.230   8.102  1.00  0.00    -0.354 N 
ATOM     71  N   UNL     1     -13.994   8.376   4.674  1.00  0.00    -0.248 NA
ATOM     72  C   UNL     1     -15.355   9.635   3.337  1.00  0.00     0.031 C 
ATOM     73  C   UNL     1     -12.119   7.917   7.232  1.00  0.00     0.029 A 
ATOM     74  C   UNL     1     -13.462   8.235   7.339  1.00  0.00     0.049 A 
ATOM     75  H   UNL     1     -14.991   7.170   8.312  1.00  0.00     0.167 HD
ATOM     76  C   UNL     1     -14.545   9.325   5.503  1.00  0.00     0.074 A 
ATOM     77  C   UNL     1     -15.357  10.120   4.593  1.00  0.00     0.031 C 
ATOM     78  C   UNL     1     -14.321   9.315   6.862  1.00  0.00     0.034 A 
BRANCH  65  79
ATOM     79  C   UNL     1     -13.036   4.638  10.536  1.00  0.00     0.023 A 
ATOM     80  C   UNL     1     -12.152   5.535  11.182  1.00  0.00     0.012 A 
ATOM     81  C   UNL     1     -13.293   3.429  11.227  1.00  0.00     0.148 A 
ATOM     82  C   UNL     1     -11.512   5.237  12.388  1.00  0.00     0.002 A 
ATOM     83  C   UNL     1     -12.660   3.130  12.441  1.00  0.00     0.091 A 
ATOM     84  F   UNL     1     -14.148   2.538  10.731  1.00  0.00    -0.205 F 
ATOM     85  C   UNL     1     -11.759   4.029  13.015  1.00  0.00     0.022 A 
BRANCH  83  86
ATOM     86  S   UNL     1     -12.926   1.585  13.334  1.00  0.00     0.127 S 
ATOM     87  O   UNL     1     -11.583   1.003  13.342  1.00  0.00    -0.237 OA
ATOM     88  O   UNL     1     -13.392   2.050  14.639  1.00  0.00    -0.237 OA
ATOM     89  O   UNL     1     -13.908   0.824  12.570  1.00  0.00    -0.744 OA
ENDBRANCH  83  86
ENDBRANCH  65  79
BRANCH  66  90
ATOM     90  C   UNL     1     -15.280   6.985   1.359  1.00  0.00     0.023 A 
ATOM     91  C   UNL     1     -14.788   6.591   0.091  1.00  0.00     0.012 A 
ATOM     92  C   UNL     1     -16.527   6.496   1.786  1.00  0.00     0.148 A 
ATOM     93  C   UNL     1     -15.405   5.562  -0.621  1.00  0.00     0.002 A 
ATOM     94  C   UNL     1     -17.148   5.482   1.058  1.00  0.00     0.091 A 
ATOM     95  F   UNL     1     -17.047   6.969   2.926  1.00  0.00    -0.205 F 
ATOM     96  C   UNL     1     -16.554   4.970  -0.107  1.00  0.00     0.022 A 
BRANCH  94  97
ATOM     97  S   UNL     1     -18.660   4.695   1.633  1.00  0.00     0.127 S 
ATOM     98  O   UNL     1     -19.675   5.428   0.884  1.00  0.00    -0.237 OA
ATOM     99  O   UNL     1     -18.474   3.306   1.215  1.00  0.00    -0.237 OA
ATOM    100  O   UNL     1     -18.661   4.889   3.076  1.00  0.00    -0.744 OA
ENDBRANCH  94  97
ENDBRANCH  66  90
BRANCH  78 101
ATOM    101  C   UNL     1     -14.941  10.243   7.918  1.00  0.00     0.023 A 
ATOM    102  C   UNL     1     -15.593  11.442   7.593  1.00  0.00     0.012 A 
ATOM    103  C   UNL     1     -14.870   9.949   9.315  1.00  0.00     0.148 A 
ATOM    104  C   UNL     1     -16.245  12.226   8.558  1.00  0.00     0.002 A 
ATOM    105  C   UNL     1     -15.550  10.701  10.268  1.00  0.00     0.091 A 
ATOM    106  F   UNL     1     -14.065   8.982   9.767  1.00  0.00    -0.205 F 
ATOM    107  C   UNL     1     -16.255  11.837   9.890  1.00  0.00     0.022 A 
BRANCH 105 108
ATOM    108  S   UNL     1     -15.574  10.231  12.006  1.00  0.00     0.127 S 
ATOM    109  O   UNL     1     -14.636  11.192  12.584  1.00  0.00    -0.237 OA
ATOM    110  O   UNL     1     -16.976  10.457  12.361  1.00  0.00    -0.237 OA
ATOM    111  O   UNL     1     -15.161   8.836  12.047  1.00  0.00    -0.744 OA
ENDBRANCH 105 108
ENDBRANCH  78 101
ENDBRANCH  52  53
ENDBRANCH  44  47
ENDBRANCH  42  43
ENDBRANCH  41  42
ENDBRANCH  40  41
ENDBRANCH   1  40
TORSDOF 21
