REMARK SMILES O=C(C[C@H]1CN(c2nc(C3CC3)ns2)CCO1)NCCCCCCNC(=O)c1ccc(-c2c3nc(c(-c4cccc(S(=O)(=O)[O-])c4F)c4ccc([nH]4)c(-c4cccc(S(=O)(=O)[O-])c4F)c4nc(c(-c5cccc(S(=O)(=O)[O-])c5F)c5ccc2[nH]5)C=C4)C=C3)cc1
REMARK SMILES IDX 21 1 20 2 19 3 18 4 1 5 2 6 3 8 4 9 5 10 17 11 6 12 16 13
REMARK SMILES IDX 15 14 7 15 8 16 14 17 9 18 13 19 10 20 11 21 12 22 22 23
REMARK SMILES IDX 23 24 24 25 25 26 26 27 27 29 28 30 29 31 90 32 30 33 89 34
REMARK SMILES IDX 31 35 32 36 33 37 83 38 34 39 88 40 82 41 84 42 35 43 87 44
REMARK SMILES IDX 81 45 80 46 36 48 68 49 48 50 67 51 49 52 52 53 66 54 85 55
REMARK SMILES IDX 50 56 51 57 65 59 86 60 53 61 37 62 38 63 46 64 39 65 41 66
REMARK SMILES IDX 47 67 40 68 42 69 43 70 44 71 45 72 69 73 70 74 78 75 71 76
REMARK SMILES IDX 73 77 79 78 72 79 74 80 75 81 76 82 77 83 54 84 55 85 63 86
REMARK SMILES IDX 56 87 58 88 64 89 57 90 59 91 60 92 61 93 62 94
REMARK H PARENT 18 7 25 28 84 47 52 58
REMARK Flexibility Score: inf
ROOT
ATOM      1  C   UNL     1       6.916   6.324   2.232  1.00  0.00     0.002 C 
ENDROOT
BRANCH   1   2
ATOM      2  C   UNL     1       8.086   5.383   1.925  1.00  0.00     0.021 C 
BRANCH   2   3
ATOM      3  C   UNL     1       7.718   3.918   1.726  1.00  0.00     0.116 C 
BRANCH   3   4
ATOM      4  N   UNL     1       6.769   3.696   0.655  1.00  0.00    -0.356 N 
ATOM      5  O   UNL     1       7.429   1.548   0.158  1.00  0.00    -0.275 OA
ATOM      6  C   UNL     1       6.626   2.470   0.049  1.00  0.00     0.222 C 
ATOM      7  H   UNL     1       6.208   4.446   0.352  1.00  0.00     0.163 HD
BRANCH   6   8
ATOM      8  C   UNL     1       5.407   2.343  -0.840  1.00  0.00     0.133 C 
BRANCH   8   9
ATOM      9  C   UNL     1       4.095   1.927  -0.155  1.00  0.00     0.147 C 
ATOM     10  C   UNL     1       4.207   1.083   1.127  1.00  0.00     0.151 C 
ATOM     11  O   UNL     1       3.162   3.024  -0.013  1.00  0.00    -0.374 OA
ATOM     12  N   UNL     1       4.414   1.930   2.298  1.00  0.00    -0.342 N 
ATOM     13  C   UNL     1       3.368   3.827   1.154  1.00  0.00     0.182 C 
ATOM     14  C   UNL     1       3.464   3.020   2.462  1.00  0.00     0.147 C 
BRANCH  12  15
ATOM     15  C   UNL     1       5.363   1.586   3.209  1.00  0.00     0.205 A 
ATOM     16  N   UNL     1       6.454   0.917   2.907  1.00  0.00    -0.203 NA
ATOM     17  S   UNL     1       5.347   1.966   4.901  1.00  0.00     0.004 S 
ATOM     18  C   UNL     1       7.266   0.796   4.024  1.00  0.00     0.147 A 
ATOM     19  N   UNL     1       6.816   1.239   5.198  1.00  0.00    -0.174 NA
BRANCH  18  20
ATOM     20  C   UNL     1       8.662   0.174   3.931  1.00  0.00     0.059 C 
ATOM     21  C   UNL     1       9.028  -0.658   2.716  1.00  0.00     0.012 C 
ATOM     22  C   UNL     1       9.639   0.688   2.893  1.00  0.00     0.012 C 
ENDBRANCH  18  20
ENDBRANCH  12  15
ENDBRANCH   8   9
ENDBRANCH   6   8
ENDBRANCH   3   4
ENDBRANCH   2   3
ENDBRANCH   1   2
BRANCH   1  23
ATOM     23  C   UNL     1       6.110   6.011   3.495  1.00  0.00     0.002 C 
BRANCH  23  24
ATOM     24  C   UNL     1       6.886   6.006   4.812  1.00  0.00     0.021 C 
BRANCH  24  25
ATOM     25  C   UNL     1       7.761   7.228   5.070  1.00  0.00     0.116 C 
BRANCH  25  26
ATOM     26  N   UNL     1       7.028   8.484   5.022  1.00  0.00    -0.352 N 
ATOM     27  C   UNL     1       7.159   9.595   5.820  1.00  0.00     0.251 C 
ATOM     28  H   UNL     1       6.342   8.547   4.318  1.00  0.00     0.163 HD
ATOM     29  O   UNL     1       6.379  10.536   5.687  1.00  0.00    -0.269 OA
BRANCH  27  30
ATOM     30  C   UNL     1       8.216   9.645   6.856  1.00  0.00     0.039 A 
ATOM     31  C   UNL     1       7.894  10.132   8.126  1.00  0.00     0.014 A 
ATOM     32  C   UNL     1       9.517   9.215   6.582  1.00  0.00     0.014 A 
ATOM     33  C   UNL     1       8.862  10.138   9.133  1.00  0.00     0.010 A 
ATOM     34  C   UNL     1      10.455   9.146   7.608  1.00  0.00     0.010 A 
ATOM     35  C   UNL     1      10.145   9.622   8.890  1.00  0.00    -0.014 A 
BRANCH  35  36
ATOM     36  C   UNL     1      11.187   9.601   9.949  1.00  0.00     0.031 A 
ATOM     37  C   UNL     1      12.460  10.388   9.762  1.00  0.00     0.074 A 
ATOM     38  C   UNL     1      11.027   8.822  11.038  1.00  0.00     0.049 A 
ATOM     39  N   UNL     1      13.520  10.437  10.526  1.00  0.00    -0.248 NA
ATOM     40  C   UNL     1      12.567  11.203   8.540  1.00  0.00     0.031 C 
ATOM     41  C   UNL     1       9.879   7.951  11.297  1.00  0.00     0.029 A 
ATOM     42  N   UNL     1      11.849   8.614  12.118  1.00  0.00    -0.354 N 
ATOM     43  C   UNL     1      14.426  11.259   9.866  1.00  0.00     0.074 A 
ATOM     44  C   UNL     1      13.812  11.649   8.616  1.00  0.00     0.031 C 
ATOM     45  C   UNL     1      10.070   7.302  12.458  1.00  0.00     0.029 A 
ATOM     46  C   UNL     1      11.362   7.691  13.014  1.00  0.00     0.049 A 
ATOM     47  H   UNL     1      12.707   9.082  12.239  1.00  0.00     0.167 HD
ATOM     48  C   UNL     1      15.643  11.688  10.278  1.00  0.00     0.034 A 
ATOM     49  C   UNL     1      11.900   7.209  14.152  1.00  0.00     0.034 A 
ATOM     50  C   UNL     1      16.230  11.340  11.543  1.00  0.00     0.049 A 
ATOM     51  C   UNL     1      13.228   7.748  14.615  1.00  0.00     0.074 A 
ATOM     52  C   UNL     1      17.436  11.759  12.077  1.00  0.00     0.029 A 
ATOM     53  N   UNL     1      15.648  10.501  12.479  1.00  0.00    -0.354 N 
ATOM     54  N   UNL     1      14.009   8.628  14.036  1.00  0.00    -0.248 NA
ATOM     55  C   UNL     1      13.728   7.266  15.911  1.00  0.00     0.031 C 
ATOM     56  C   UNL     1      17.583  11.171  13.338  1.00  0.00     0.029 A 
ATOM     57  C   UNL     1      16.459  10.404  13.595  1.00  0.00     0.049 A 
ATOM     58  H   UNL     1      14.784  10.041  12.366  1.00  0.00     0.167 HD
ATOM     59  C   UNL     1      15.064   8.841  14.917  1.00  0.00     0.074 A 
ATOM     60  C   UNL     1      14.812   8.012  16.077  1.00  0.00     0.031 C 
ATOM     61  C   UNL     1      16.151   9.636  14.774  1.00  0.00     0.034 A 
BRANCH  48  62
ATOM     62  C   UNL     1      16.386  12.648   9.386  1.00  0.00     0.023 A 
ATOM     63  C   UNL     1      15.918  13.973   9.263  1.00  0.00     0.012 A 
ATOM     64  C   UNL     1      17.573  12.271   8.727  1.00  0.00     0.148 A 
ATOM     65  C   UNL     1      16.599  14.898   8.474  1.00  0.00     0.002 A 
ATOM     66  C   UNL     1      18.271  13.212   7.979  1.00  0.00     0.091 A 
ATOM     67  F   UNL     1      17.993  11.003   8.843  1.00  0.00    -0.205 F 
ATOM     68  C   UNL     1      17.780  14.521   7.842  1.00  0.00     0.022 A 
BRANCH  66  69
ATOM     69  S   UNL     1      19.844  12.855   7.187  1.00  0.00     0.127 S 
ATOM     70  O   UNL     1      19.485  12.933   5.771  1.00  0.00    -0.237 OA
ATOM     71  O   UNL     1      20.683  13.953   7.664  1.00  0.00    -0.237 OA
ATOM     72  O   UNL     1      20.241  11.534   7.655  1.00  0.00    -0.744 OA
ENDBRANCH  66  69
ENDBRANCH  48  62
BRANCH  49  73
ATOM     73  C   UNL     1      11.157   6.212  14.975  1.00  0.00     0.023 A 
ATOM     74  C   UNL     1      10.643   6.593  16.231  1.00  0.00     0.012 A 
ATOM     75  C   UNL     1      10.960   4.892  14.528  1.00  0.00     0.148 A 
ATOM     76  C   UNL     1       9.991   5.667  17.046  1.00  0.00     0.002 A 
ATOM     77  C   UNL     1      10.260   3.989  15.321  1.00  0.00     0.091 A 
ATOM     78  F   UNL     1      11.466   4.540  13.337  1.00  0.00    -0.205 F 
ATOM     79  C   UNL     1       9.793   4.367  16.588  1.00  0.00     0.022 A 
BRANCH  77  80
ATOM     80  S   UNL     1       9.849   2.336  14.748  1.00  0.00     0.127 S 
ATOM     81  O   UNL     1      10.824   1.520  15.465  1.00  0.00    -0.237 OA
ATOM     82  O   UNL     1       8.466   2.188  15.206  1.00  0.00    -0.237 OA
ATOM     83  O   UNL     1       9.995   2.383  13.300  1.00  0.00    -0.744 OA
ENDBRANCH  77  80
ENDBRANCH  49  73
BRANCH  61  84
ATOM     84  C   UNL     1      17.122   9.710  15.922  1.00  0.00     0.023 A 
ATOM     85  C   UNL     1      17.969   8.619  16.201  1.00  0.00     0.012 A 
ATOM     86  C   UNL     1      17.240  10.891  16.681  1.00  0.00     0.148 A 
ATOM     87  C   UNL     1      18.895   8.691  17.241  1.00  0.00     0.002 A 
ATOM     88  C   UNL     1      18.199  10.973  17.683  1.00  0.00     0.091 A 
ATOM     89  F   UNL     1      16.411  11.911  16.413  1.00  0.00    -0.205 F 
ATOM     90  C   UNL     1      19.018   9.870  17.973  1.00  0.00     0.022 A 
BRANCH  88  91
ATOM     91  S   UNL     1      18.491  12.485  18.607  1.00  0.00     0.127 S 
ATOM     92  O   UNL     1      17.867  12.175  19.892  1.00  0.00    -0.237 OA
ATOM     93  O   UNL     1      19.953  12.553  18.640  1.00  0.00    -0.237 OA
ATOM     94  O   UNL     1      17.858  13.550  17.841  1.00  0.00    -0.744 OA
ENDBRANCH  88  91
ENDBRANCH  61  84
ENDBRANCH  35  36
ENDBRANCH  27  30
ENDBRANCH  25  26
ENDBRANCH  24  25
ENDBRANCH  23  24
ENDBRANCH   1  23
TORSDOF 19
