REMARK SMILES COc1ccc2cc([C@H](C)C(=O)NCCCCCCNC(=O)c3ccc(-c4c5nc(c(-c6cccc(S(=O)(=O)[O-])c6F)c6ccc([nH]6)c(-c6cccc(S(=O)(=O)[O-])c6F)c6nc(c(-c7cccc(S(=O)(=O)[O-])c7F)c7ccc4[nH]7)C=C6)C=C5)cc3)ccc2c1
REMARK SMILES IDX 17 1 16 2 15 3 14 4 13 5 11 6 12 7 9 9 10 10 8 11 3 12 4 13
REMARK SMILES IDX 89 14 5 15 88 16 6 17 87 18 7 19 86 20 2 21 1 22 18 23 19 24
REMARK SMILES IDX 20 25 21 26 22 28 23 29 24 30 85 31 25 32 84 33 26 34 27 35
REMARK SMILES IDX 28 36 78 37 29 38 83 39 77 40 79 41 30 42 82 43 76 44 75 45
REMARK SMILES IDX 31 47 63 48 43 49 62 50 44 51 47 52 61 53 80 54 45 55 46 56
REMARK SMILES IDX 60 58 81 59 48 60 32 61 33 62 41 63 34 64 36 65 42 66 35 67
REMARK SMILES IDX 37 68 38 69 39 70 40 71 64 72 65 73 73 74 66 75 68 76 74 77
REMARK SMILES IDX 67 78 69 79 70 80 71 81 72 82 49 83 50 84 58 85 51 86 53 87
REMARK SMILES IDX 59 88 52 89 54 90 55 91 56 92 57 93
REMARK H PARENT 13 8 20 27 79 46 47 57
REMARK Flexibility Score: inf
ROOT
ATOM      1  C   UNL     1       6.927   3.976  -5.624  1.00  0.00     0.002 C 
ENDROOT
BRANCH   1   2
ATOM      2  C   UNL     1       5.718   3.068  -5.878  1.00  0.00     0.002 C 
BRANCH   2   3
ATOM      3  C   UNL     1       4.423   3.514  -5.189  1.00  0.00     0.021 C 
BRANCH   3   4
ATOM      4  C   UNL     1       3.969   4.911  -5.594  1.00  0.00     0.116 C 
BRANCH   4   5
ATOM      5  N   UNL     1       3.493   4.923  -6.967  1.00  0.00    -0.356 N 
ATOM      6  C   UNL     1       2.382   5.508  -7.498  1.00  0.00     0.227 C 
ATOM      7  O   UNL     1       2.224   5.434  -8.720  1.00  0.00    -0.274 OA
ATOM      8  H   UNL     1       4.058   4.437  -7.610  1.00  0.00     0.163 HD
BRANCH   6   9
ATOM      9  C   UNL     1       1.353   6.217  -6.612  1.00  0.00     0.105 C 
ATOM     10  C   UNL     1       0.609   5.167  -5.771  1.00  0.00     0.023 C 
BRANCH   9  11
ATOM     11  C   UNL     1       1.886   7.429  -5.848  1.00  0.00    -0.035 A 
ATOM     12  C   UNL     1       2.586  11.395  -2.720  1.00  0.00     0.119 A 
ATOM     13  C   UNL     1       1.322  10.890  -2.425  1.00  0.00     0.047 A 
ATOM     14  C   UNL     1       3.350  10.794  -3.720  1.00  0.00     0.055 A 
ATOM     15  C   UNL     1       0.835   9.774  -3.115  1.00  0.00     0.012 A 
ATOM     16  C   UNL     1       2.867   9.685  -4.428  1.00  0.00    -0.015 A 
ATOM     17  C   UNL     1       1.597   9.156  -4.120  1.00  0.00    -0.018 A 
ATOM     18  C   UNL     1       3.618   9.107  -5.455  1.00  0.00     0.009 A 
ATOM     19  C   UNL     1       1.126   8.032  -4.830  1.00  0.00     0.013 A 
ATOM     20  C   UNL     1       3.118   8.021  -6.175  1.00  0.00     0.005 A 
BRANCH  12  21
ATOM     21  O   UNL     1       3.144  12.505  -2.150  1.00  0.00    -0.497 OA
ATOM     22  C   UNL     1       2.800  12.731  -0.787  1.00  0.00     0.278 C 
ENDBRANCH  12  21
ENDBRANCH   9  11
ENDBRANCH   6   9
ENDBRANCH   4   5
ENDBRANCH   3   4
ENDBRANCH   2   3
ENDBRANCH   1   2
BRANCH   1  23
ATOM     23  C   UNL     1       7.251   4.219  -4.148  1.00  0.00     0.021 C 
BRANCH  23  24
ATOM     24  C   UNL     1       7.473   2.949  -3.334  1.00  0.00     0.116 C 
BRANCH  24  25
ATOM     25  N   UNL     1       8.582   2.160  -3.849  1.00  0.00    -0.352 N 
ATOM     26  C   UNL     1       9.659   1.646  -3.176  1.00  0.00     0.251 C 
ATOM     27  H   UNL     1       8.555   1.970  -4.814  1.00  0.00     0.163 HD
ATOM     28  O   UNL     1      10.608   1.175  -3.801  1.00  0.00    -0.269 OA
BRANCH  26  29
ATOM     29  C   UNL     1       9.681   1.674  -1.700  1.00  0.00     0.039 A 
ATOM     30  C   UNL     1      10.847   2.075  -1.046  1.00  0.00     0.014 A 
ATOM     31  C   UNL     1       8.550   1.308  -0.963  1.00  0.00     0.014 A 
ATOM     32  C   UNL     1      10.864   2.156   0.347  1.00  0.00     0.010 A 
ATOM     33  C   UNL     1       8.544   1.466   0.419  1.00  0.00     0.010 A 
ATOM     34  C   UNL     1       9.704   1.880   1.090  1.00  0.00    -0.014 A 
BRANCH  34  35
ATOM     35  C   UNL     1       9.687   2.023   2.568  1.00  0.00     0.031 A 
ATOM     36  C   UNL     1       9.428   0.827   3.444  1.00  0.00     0.074 A 
ATOM     37  C   UNL     1       9.835   3.245   3.118  1.00  0.00     0.049 A 
ATOM     38  N   UNL     1       9.343   0.765   4.748  1.00  0.00    -0.248 NA
ATOM     39  C   UNL     1       9.211  -0.463   2.769  1.00  0.00     0.031 C 
ATOM     40  C   UNL     1      10.015   4.492   2.372  1.00  0.00     0.029 A 
ATOM     41  N   UNL     1       9.835   3.642   4.432  1.00  0.00    -0.354 N 
ATOM     42  C   UNL     1       9.031  -0.556   5.046  1.00  0.00     0.074 A 
ATOM     43  C   UNL     1       8.904  -1.255   3.786  1.00  0.00     0.031 C 
ATOM     44  C   UNL     1      10.119   5.513   3.238  1.00  0.00     0.029 A 
ATOM     45  C   UNL     1       9.979   5.000   4.597  1.00  0.00     0.049 A 
ATOM     46  H   UNL     1       9.740   3.014   5.184  1.00  0.00     0.167 HD
ATOM     47  C   UNL     1       8.891  -1.142   6.259  1.00  0.00     0.034 A 
ATOM     48  C   UNL     1       9.988   5.749   5.717  1.00  0.00     0.034 A 
ATOM     49  C   UNL     1       9.052  -0.451   7.509  1.00  0.00     0.049 A 
ATOM     50  C   UNL     1       9.858   5.068   7.052  1.00  0.00     0.074 A 
ATOM     51  C   UNL     1       9.014  -0.972   8.790  1.00  0.00     0.029 A 
ATOM     52  N   UNL     1       9.270   0.912   7.638  1.00  0.00    -0.354 N 
ATOM     53  N   UNL     1       9.718   3.792   7.318  1.00  0.00    -0.248 NA
ATOM     54  C   UNL     1       9.924   5.926   8.245  1.00  0.00     0.031 C 
ATOM     55  C   UNL     1       9.173   0.082   9.695  1.00  0.00     0.029 A 
ATOM     56  C   UNL     1       9.354   1.253   8.977  1.00  0.00     0.049 A 
ATOM     57  H   UNL     1       9.352   1.544   6.888  1.00  0.00     0.167 HD
ATOM     58  C   UNL     1       9.719   3.689   8.704  1.00  0.00     0.074 A 
ATOM     59  C   UNL     1       9.893   5.030   9.222  1.00  0.00     0.031 C 
ATOM     60  C   UNL     1       9.577   2.585   9.479  1.00  0.00     0.034 A 
BRANCH  47  61
ATOM     61  C   UNL     1       8.589  -2.619   6.294  1.00  0.00     0.023 A 
ATOM     62  C   UNL     1       9.579  -3.545   5.906  1.00  0.00     0.012 A 
ATOM     63  C   UNL     1       7.350  -3.093   6.769  1.00  0.00     0.148 A 
ATOM     64  C   UNL     1       9.330  -4.915   5.953  1.00  0.00     0.002 A 
ATOM     65  C   UNL     1       7.126  -4.462   6.860  1.00  0.00     0.091 A 
ATOM     66  F   UNL     1       6.414  -2.199   7.116  1.00  0.00    -0.205 F 
ATOM     67  C   UNL     1       8.109  -5.373   6.441  1.00  0.00     0.022 A 
BRANCH  65  68
ATOM     68  S   UNL     1       5.620  -5.155   7.550  1.00  0.00     0.127 S 
ATOM     69  O   UNL     1       5.000  -5.749   6.367  1.00  0.00    -0.237 OA
ATOM     70  O   UNL     1       6.143  -6.122   8.516  1.00  0.00    -0.237 OA
ATOM     71  O   UNL     1       4.895  -4.038   8.139  1.00  0.00    -0.744 OA
ENDBRANCH  65  68
ENDBRANCH  47  61
BRANCH  48  72
ATOM     72  C   UNL     1      10.185   7.224   5.627  1.00  0.00     0.023 A 
ATOM     73  C   UNL     1      11.384   7.794   6.098  1.00  0.00     0.012 A 
ATOM     74  C   UNL     1       9.202   8.061   5.064  1.00  0.00     0.148 A 
ATOM     75  C   UNL     1      11.586   9.173   6.044  1.00  0.00     0.002 A 
ATOM     76  C   UNL     1       9.433   9.428   4.961  1.00  0.00     0.091 A 
ATOM     77  F   UNL     1       8.065   7.500   4.629  1.00  0.00    -0.205 F 
ATOM     78  C   UNL     1      10.616   9.988   5.468  1.00  0.00     0.022 A 
BRANCH  76  79
ATOM     79  S   UNL     1       8.297  10.537   4.121  1.00  0.00     0.127 S 
ATOM     80  O   UNL     1       7.782  11.335   5.231  1.00  0.00    -0.237 OA
ATOM     81  O   UNL     1       9.193  11.251   3.211  1.00  0.00    -0.237 OA
ATOM     82  O   UNL     1       7.325   9.679   3.458  1.00  0.00    -0.744 OA
ENDBRANCH  76  79
ENDBRANCH  48  72
BRANCH  60  83
ATOM     83  C   UNL     1       9.650   2.764  10.973  1.00  0.00     0.023 A 
ATOM     84  C   UNL     1       8.597   3.398  11.661  1.00  0.00     0.012 A 
ATOM     85  C   UNL     1      10.733   2.235  11.703  1.00  0.00     0.148 A 
ATOM     86  C   UNL     1       8.639   3.536  13.048  1.00  0.00     0.002 A 
ATOM     87  C   UNL     1      10.742   2.328  13.089  1.00  0.00     0.091 A 
ATOM     88  F   UNL     1      11.734   1.650  11.028  1.00  0.00    -0.205 F 
ATOM     89  C   UNL     1       9.704   2.991  13.762  1.00  0.00     0.022 A 
BRANCH  87  90
ATOM     90  S   UNL     1      12.020   1.569  14.098  1.00  0.00     0.127 S 
ATOM     91  O   UNL     1      12.740   2.740  14.596  1.00  0.00    -0.237 OA
ATOM     92  O   UNL     1      11.234   0.861  15.109  1.00  0.00    -0.237 OA
ATOM     93  O   UNL     1      12.778   0.704  13.205  1.00  0.00    -0.744 OA
ENDBRANCH  87  90
ENDBRANCH  60  83
ENDBRANCH  34  35
ENDBRANCH  26  29
ENDBRANCH  24  25
ENDBRANCH  23  24
ENDBRANCH   1  23
TORSDOF 18
