REMARK SMILES NS(=O)(=O)c1ccc(-n2nc(C(F)(F)F)cc2-c2ccc(C(=O)NCCCCCCNC(=O)c3ccc(-c4c5nc(c(-c6cccc(S(=O)(=O)[O-])c6F)c6ccc([nH]6)c(-c6cccc(S(=O)(=O)[O-])c6F)c6nc(c(-c7cccc(S(=O)(=O)[O-])c7F)c7ccc4[nH]7)C=C6)C=C5)cc3)cc2)cc1
REMARK SMILES IDX 27 1 26 2 25 3 24 4 22 5 23 6 21 8 18 9 19 10 98 11 20 12
REMARK SMILES IDX 97 13 17 14 9 15 10 16 11 17 16 18 8 19 5 20 6 21 100 22
REMARK SMILES IDX 7 23 99 24 2 25 3 26 4 27 1 28 12 31 13 32 14 33 15 34 28 35
REMARK SMILES IDX 29 36 30 37 31 38 32 39 33 41 34 42 35 43 96 44 36 45 95 46
REMARK SMILES IDX 37 47 38 48 39 49 89 50 40 51 94 52 88 53 90 54 41 55 93 56
REMARK SMILES IDX 87 57 86 58 42 60 74 61 54 62 73 63 55 64 58 65 72 66 91 67
REMARK SMILES IDX 56 68 57 69 71 71 92 72 59 73 43 74 44 75 52 76 45 77 47 78
REMARK SMILES IDX 53 79 46 80 48 81 49 82 50 83 51 84 75 85 76 86 84 87 77 88
REMARK SMILES IDX 79 89 85 90 78 91 80 92 81 93 82 94 83 95 60 96 61 97 69 98
REMARK SMILES IDX 62 99 64 100 70 101 63 102 65 103 66 104 67 105 68 106
REMARK H PARENT 24 7 1 29 1 30 31 40 90 59 58 70
REMARK Flexibility Score: inf
ROOT
ATOM      1  C   UNL     1      -5.961  -7.755  -3.872  1.00  0.00     0.002 C 
ENDROOT
BRANCH   1   2
ATOM      2  C   UNL     1      -4.690  -7.902  -3.027  1.00  0.00     0.021 C 
BRANCH   2   3
ATOM      3  C   UNL     1      -3.432  -8.050  -3.884  1.00  0.00     0.116 C 
BRANCH   3   4
ATOM      4  N   UNL     1      -3.022  -6.753  -4.388  1.00  0.00    -0.352 N 
ATOM      5  C   UNL     1      -2.010  -5.907  -4.020  1.00  0.00     0.251 C 
ATOM      6  O   UNL     1      -1.883  -4.853  -4.644  1.00  0.00    -0.269 OA
ATOM      7  H   UNL     1      -3.573  -6.420  -5.132  1.00  0.00     0.163 HD
BRANCH   5   8
ATOM      8  C   UNL     1      -1.006  -6.272  -2.985  1.00  0.00     0.039 A 
ATOM      9  C   UNL     1       1.058  -7.064  -1.266  1.00  0.00     0.000 A 
ATOM     10  C   UNL     1       1.304  -6.115  -2.266  1.00  0.00     0.011 A 
ATOM     11  C   UNL     1      -0.225  -7.577  -1.096  1.00  0.00     0.011 A 
ATOM     12  C   UNL     1       0.278  -5.731  -3.128  1.00  0.00     0.014 A 
ATOM     13  C   UNL     1      -1.262  -7.127  -1.909  1.00  0.00     0.014 A 
BRANCH   9  14
ATOM     14  C   UNL     1       2.100  -7.430  -0.323  1.00  0.00     0.075 A 
ATOM     15  N   UNL     1       2.627  -6.564   0.623  1.00  0.00    -0.233 N 
ATOM     16  N   UNL     1       3.760  -7.069   1.181  1.00  0.00    -0.163 NA
ATOM     17  C   UNL     1       3.764  -8.370   0.816  1.00  0.00     0.167 A 
ATOM     18  C   UNL     1       2.777  -8.618  -0.170  1.00  0.00     0.064 A 
BRANCH  15  19
ATOM     19  C   UNL     1       2.153  -5.264   0.938  1.00  0.00     0.065 A 
ATOM     20  C   UNL     1       1.203  -2.674   1.299  1.00  0.00     0.082 A 
ATOM     21  C   UNL     1       0.294  -3.729   1.252  1.00  0.00     0.024 A 
ATOM     22  C   UNL     1       2.583  -2.908   1.200  1.00  0.00     0.024 A 
ATOM     23  C   UNL     1       0.773  -5.026   1.068  1.00  0.00     0.030 A 
ATOM     24  C   UNL     1       3.064  -4.210   1.042  1.00  0.00     0.030 A 
BRANCH  20  25
ATOM     25  S   UNL     1       0.631  -1.018   1.511  1.00  0.00     0.238 S 
ATOM     26  O   UNL     1       1.294  -0.431   2.644  1.00  0.00    -0.207 OA
ATOM     27  O   UNL     1      -0.797  -0.940   1.289  1.00  0.00    -0.207 OA
BRANCH  25  28
ATOM     28  N   UNL     1       1.285  -0.236   0.163  1.00  0.00    -0.225 NA
ATOM     29  H   UNL     1       1.016   0.748   0.178  1.00  0.00     0.137 HD
ATOM     30  H   UNL     1       0.930  -0.672  -0.688  1.00  0.00     0.137 HD
ENDBRANCH  25  28
ENDBRANCH  20  25
ENDBRANCH  15  19
BRANCH  17  31
ATOM     31  C   UNL     1       4.722  -9.388   1.371  1.00  0.00     0.435 C 
ATOM     32  F   UNL     1       6.017  -8.974   1.337  1.00  0.00    -0.164 F 
ATOM     33  F   UNL     1       4.443  -9.721   2.658  1.00  0.00    -0.164 F 
ATOM     34  F   UNL     1       4.682 -10.553   0.660  1.00  0.00    -0.164 F 
ENDBRANCH  17  31
ENDBRANCH   9  14
ENDBRANCH   5   8
ENDBRANCH   3   4
ENDBRANCH   2   3
ENDBRANCH   1   2
BRANCH   1  35
ATOM     35  C   UNL     1      -6.204  -8.892  -4.878  1.00  0.00     0.002 C 
BRANCH  35  36
ATOM     36  C   UNL     1      -6.141 -10.316  -4.302  1.00  0.00     0.021 C 
BRANCH  36  37
ATOM     37  C   UNL     1      -7.306 -10.627  -3.379  1.00  0.00     0.116 C 
BRANCH  37  38
ATOM     38  N   UNL     1      -8.572 -10.676  -4.117  1.00  0.00    -0.352 N 
ATOM     39  C   UNL     1      -9.845 -10.889  -3.631  1.00  0.00     0.251 C 
ATOM     40  H   UNL     1      -8.505 -10.538  -5.090  1.00  0.00     0.163 HD
ATOM     41  O   UNL     1     -10.745 -11.273  -4.369  1.00  0.00    -0.269 OA
BRANCH  39  42
ATOM     42  C   UNL     1     -10.103 -10.616  -2.210  1.00  0.00     0.039 A 
ATOM     43  C   UNL     1     -10.942 -11.424  -1.437  1.00  0.00     0.014 A 
ATOM     44  C   UNL     1      -9.453  -9.518  -1.654  1.00  0.00     0.014 A 
ATOM     45  C   UNL     1     -11.073 -11.140  -0.081  1.00  0.00     0.010 A 
ATOM     46  C   UNL     1      -9.418  -9.370  -0.299  1.00  0.00     0.010 A 
ATOM     47  C   UNL     1     -10.299 -10.111   0.475  1.00  0.00    -0.014 A 
BRANCH  47  48
ATOM     48  C   UNL     1     -10.273  -9.848   1.905  1.00  0.00     0.031 A 
ATOM     49  C   UNL     1      -9.780 -11.006   2.695  1.00  0.00     0.074 A 
ATOM     50  C   UNL     1     -10.416  -8.594   2.393  1.00  0.00     0.049 A 
ATOM     51  N   UNL     1     -10.463 -11.764   3.488  1.00  0.00    -0.248 NA
ATOM     52  C   UNL     1      -8.425 -11.515   2.413  1.00  0.00     0.031 C 
ATOM     53  C   UNL     1     -10.562  -7.344   1.629  1.00  0.00     0.029 A 
ATOM     54  N   UNL     1     -10.296  -8.138   3.668  1.00  0.00    -0.354 N 
ATOM     55  C   UNL     1      -9.535 -12.654   4.025  1.00  0.00     0.074 A 
ATOM     56  C   UNL     1      -8.410 -12.639   3.133  1.00  0.00     0.031 C 
ATOM     57  C   UNL     1     -10.251  -6.291   2.417  1.00  0.00     0.029 A 
ATOM     58  C   UNL     1     -10.048  -6.768   3.770  1.00  0.00     0.049 A 
ATOM     59  H   UNL     1     -10.378  -8.726   4.453  1.00  0.00     0.167 HD
ATOM     60  C   UNL     1      -9.632 -13.056   5.323  1.00  0.00     0.034 A 
ATOM     61  C   UNL     1      -9.645  -6.092   4.877  1.00  0.00     0.034 A 
ATOM     62  C   UNL     1     -10.931 -12.727   5.862  1.00  0.00     0.049 A 
ATOM     63  C   UNL     1      -9.950  -6.952   6.042  1.00  0.00     0.074 A 
ATOM     64  C   UNL     1     -12.237 -13.018   5.521  1.00  0.00     0.029 A 
ATOM     65  N   UNL     1     -10.987 -11.621   6.677  1.00  0.00    -0.354 N 
ATOM     66  N   UNL     1     -11.164  -7.264   6.400  1.00  0.00    -0.248 NA
ATOM     67  C   UNL     1      -8.904  -7.844   6.510  1.00  0.00     0.031 C 
ATOM     68  C   UNL     1     -12.955 -11.808   5.759  1.00  0.00     0.029 A 
ATOM     69  C   UNL     1     -12.077 -10.878   6.318  1.00  0.00     0.049 A 
ATOM     70  H   UNL     1     -10.351 -11.402   7.395  1.00  0.00     0.167 HD
ATOM     71  C   UNL     1     -11.087  -8.618   6.698  1.00  0.00     0.074 A 
ATOM     72  C   UNL     1      -9.658  -8.892   6.857  1.00  0.00     0.031 C 
ATOM     73  C   UNL     1     -12.152  -9.442   6.476  1.00  0.00     0.034 A 
BRANCH  60  74
ATOM     74  C   UNL     1      -8.458 -13.333   6.247  1.00  0.00     0.023 A 
ATOM     75  C   UNL     1      -8.772 -13.803   7.543  1.00  0.00     0.012 A 
ATOM     76  C   UNL     1      -7.128 -12.900   6.036  1.00  0.00     0.148 A 
ATOM     77  C   UNL     1      -7.843 -13.765   8.588  1.00  0.00     0.002 A 
ATOM     78  C   UNL     1      -6.185 -12.933   7.059  1.00  0.00     0.091 A 
ATOM     79  F   UNL     1      -6.775 -12.329   4.885  1.00  0.00    -0.205 F 
ATOM     80  C   UNL     1      -6.547 -13.330   8.346  1.00  0.00     0.022 A 
BRANCH  78  81
ATOM     81  S   UNL     1      -4.482 -12.418   6.791  1.00  0.00     0.127 S 
ATOM     82  O   UNL     1      -4.430 -11.176   7.556  1.00  0.00    -0.237 OA
ATOM     83  O   UNL     1      -3.741 -13.539   7.370  1.00  0.00    -0.237 OA
ATOM     84  O   UNL     1      -4.329 -12.284   5.347  1.00  0.00    -0.744 OA
ENDBRANCH  78  81
ENDBRANCH  60  74
BRANCH  61  85
ATOM     85  C   UNL     1      -8.764  -4.904   5.010  1.00  0.00     0.023 A 
ATOM     86  C   UNL     1      -8.772  -4.152   6.204  1.00  0.00     0.012 A 
ATOM     87  C   UNL     1      -7.707  -4.688   4.099  1.00  0.00     0.148 A 
ATOM     88  C   UNL     1      -7.745  -3.244   6.496  1.00  0.00     0.002 A 
ATOM     89  C   UNL     1      -6.689  -3.786   4.392  1.00  0.00     0.091 A 
ATOM     90  F   UNL     1      -7.652  -5.438   2.991  1.00  0.00    -0.205 F 
ATOM     91  C   UNL     1      -6.697  -3.069   5.596  1.00  0.00     0.022 A 
BRANCH  89  92
ATOM     92  S   UNL     1      -5.288  -3.534   3.292  1.00  0.00     0.127 S 
ATOM     93  O   UNL     1      -5.281  -2.078   3.151  1.00  0.00    -0.237 OA
ATOM     94  O   UNL     1      -4.184  -4.084   4.074  1.00  0.00    -0.237 OA
ATOM     95  O   UNL     1      -5.606  -4.258   2.067  1.00  0.00    -0.744 OA
ENDBRANCH  89  92
ENDBRANCH  61  85
BRANCH  73  96
ATOM     96  C   UNL     1     -13.484  -8.807   6.160  1.00  0.00     0.023 A 
ATOM     97  C   UNL     1     -13.727  -8.062   4.986  1.00  0.00     0.012 A 
ATOM     98  C   UNL     1     -14.564  -9.123   6.998  1.00  0.00     0.148 A 
ATOM     99  C   UNL     1     -15.018  -7.628   4.668  1.00  0.00     0.002 A 
ATOM    100  C   UNL     1     -15.851  -8.733   6.656  1.00  0.00     0.091 A 
ATOM    101  F   UNL     1     -14.313  -9.833   8.108  1.00  0.00    -0.205 F 
ATOM    102  C   UNL     1     -16.083  -7.976   5.497  1.00  0.00     0.022 A 
BRANCH 100 103
ATOM    103  S   UNL     1     -17.268  -9.261   7.617  1.00  0.00     0.127 S 
ATOM    104  O   UNL     1     -17.637  -8.032   8.316  1.00  0.00    -0.237 OA
ATOM    105  O   UNL     1     -18.211  -9.684   6.581  1.00  0.00    -0.237 OA
ATOM    106  O   UNL     1     -16.794 -10.347   8.468  1.00  0.00    -0.744 OA
ENDBRANCH 100 103
ENDBRANCH  73  96
ENDBRANCH  47  48
ENDBRANCH  39  42
ENDBRANCH  37  38
ENDBRANCH  36  37
ENDBRANCH  35  36
ENDBRANCH   1  35
TORSDOF 21
