REMARK SMILES O=C(NCCCCCCNC(=O)c1ccc(-c2c3nc(c(-c4cccc(S(=O)(=O)[O-])c4F)c4ccc([nH]4)c(-c4cccc(S(=O)(=O)[O-])c4F)c4nc(c(-c5cccc(S(=O)(=O)[O-])c5F)c5ccc2[nH]5)C=C4)C=C3)cc1)C1=NN(c2ccc(S(=O)(=O)[O-])cc2)C(=O)/C1=C/Nc1ccccc1
REMARK SMILES IDX 7 1 6 2 5 3 4 4 3 5 1 6 2 7 76 9 77 10 91 11 78 12 89 13
REMARK SMILES IDX 92 14 90 15 79 16 80 17 88 18 81 19 87 20 82 21 83 22 84 23
REMARK SMILES IDX 85 24 86 25 93 26 94 28 95 29 99 30 96 31 98 32 97 33 8 34
REMARK SMILES IDX 9 35 10 36 11 37 12 39 13 40 14 41 75 42 15 43 74 44 16 45
REMARK SMILES IDX 17 46 18 47 68 48 19 49 73 50 67 51 69 52 20 53 72 54 66 55
REMARK SMILES IDX 65 56 21 58 53 59 33 60 52 61 34 62 37 63 51 64 70 65 35 66
REMARK SMILES IDX 36 67 50 69 71 70 38 71 22 72 23 73 31 74 24 75 26 76 32 77
REMARK SMILES IDX 25 78 27 79 28 80 29 81 30 82 54 83 55 84 63 85 56 86 58 87
REMARK SMILES IDX 64 88 57 89 59 90 60 91 61 92 62 93 39 94 40 95 48 96 41 97
REMARK SMILES IDX 43 98 49 99 42 100 44 101 45 102 46 103 47 104
REMARK H PARENT 3 8 93 27 10 38 69 57 37 68
REMARK Flexibility Score: inf
ROOT
ATOM      1  C   UNL     1       4.731   2.847   3.098  1.00  0.00     0.002 C 
ENDROOT
BRANCH   1   2
ATOM      2  C   UNL     1       4.254   3.349   1.732  1.00  0.00     0.002 C 
BRANCH   2   3
ATOM      3  C   UNL     1       4.768   2.582   0.507  1.00  0.00     0.021 C 
BRANCH   3   4
ATOM      4  C   UNL     1       4.471   1.085   0.492  1.00  0.00     0.116 C 
BRANCH   4   5
ATOM      5  N   UNL     1       3.049   0.798   0.471  1.00  0.00    -0.351 N 
ATOM      6  O   UNL     1       1.219  -0.462   0.015  1.00  0.00    -0.267 OA
ATOM      7  C   UNL     1       2.406  -0.228  -0.174  1.00  0.00     0.272 C 
ATOM      8  H   UNL     1       2.475   1.414   0.982  1.00  0.00     0.163 HD
BRANCH   7   9
ATOM      9  C   UNL     1       3.180  -1.142  -1.071  1.00  0.00     0.163 C 
ATOM     10  N   UNL     1       3.043  -1.177  -2.373  1.00  0.00    -0.158 NA
ATOM     11  C   UNL     1       4.140  -2.126  -0.572  1.00  0.00     0.091 C 
ATOM     12  N   UNL     1       3.879  -2.214  -2.803  1.00  0.00    -0.196 N 
ATOM     13  C   UNL     1       4.647  -2.796  -1.781  1.00  0.00     0.282 C 
ATOM     14  C   UNL     1       4.509  -2.459   0.666  1.00  0.00     0.099 C 
ATOM     15  O   UNL     1       5.491  -3.675  -1.803  1.00  0.00    -0.267 OA
BRANCH  12  16
ATOM     16  C   UNL     1       3.727  -2.710  -4.120  1.00  0.00     0.069 A 
ATOM     17  C   UNL     1       3.138  -1.928  -5.125  1.00  0.00     0.030 A 
ATOM     18  C   UNL     1       4.091  -4.031  -4.428  1.00  0.00     0.030 A 
ATOM     19  C   UNL     1       2.923  -2.453  -6.407  1.00  0.00     0.021 A 
ATOM     20  C   UNL     1       3.852  -4.573  -5.692  1.00  0.00     0.021 A 
ATOM     21  C   UNL     1       3.276  -3.778  -6.679  1.00  0.00     0.054 A 
BRANCH  21  22
ATOM     22  S   UNL     1       2.928  -4.457  -8.275  1.00  0.00     0.124 S 
ATOM     23  O   UNL     1       1.542  -4.183  -8.587  1.00  0.00    -0.237 OA
ATOM     24  O   UNL     1       4.003  -4.076  -9.164  1.00  0.00    -0.237 OA
ATOM     25  O   UNL     1       3.065  -6.058  -8.108  1.00  0.00    -0.744 OA
ENDBRANCH  21  22
ENDBRANCH  12  16
BRANCH  14  26
ATOM     26  N   UNL     1       3.979  -2.057   1.865  1.00  0.00    -0.361 N 
ATOM     27  H   UNL     1       3.095  -1.625   1.834  1.00  0.00     0.166 HD
BRANCH  26  28
ATOM     28  C   UNL     1       4.567  -2.200   3.131  1.00  0.00     0.038 A 
ATOM     29  C   UNL     1       3.744  -2.453   4.236  1.00  0.00     0.026 A 
ATOM     30  C   UNL     1       5.953  -2.163   3.324  1.00  0.00     0.026 A 
ATOM     31  C   UNL     1       4.290  -2.639   5.508  1.00  0.00     0.002 A 
ATOM     32  C   UNL     1       6.501  -2.326   4.599  1.00  0.00     0.002 A 
ATOM     33  C   UNL     1       5.669  -2.566   5.690  1.00  0.00     0.000 A 
ENDBRANCH  26  28
ENDBRANCH  14  26
ENDBRANCH   7   9
ENDBRANCH   4   5
ENDBRANCH   3   4
ENDBRANCH   2   3
ENDBRANCH   1   2
BRANCH   1  34
ATOM     34  C   UNL     1       6.245   2.722   3.281  1.00  0.00     0.021 C 
BRANCH  34  35
ATOM     35  C   UNL     1       7.062   3.971   2.960  1.00  0.00     0.116 C 
BRANCH  35  36
ATOM     36  N   UNL     1       6.713   5.113   3.790  1.00  0.00    -0.352 N 
ATOM     37  C   UNL     1       7.537   6.003   4.437  1.00  0.00     0.251 C 
ATOM     38  H   UNL     1       5.748   5.271   3.905  1.00  0.00     0.163 HD
ATOM     39  O   UNL     1       7.053   6.845   5.189  1.00  0.00    -0.269 OA
BRANCH  37  40
ATOM     40  C   UNL     1       9.006   5.934   4.255  1.00  0.00     0.039 A 
ATOM     41  C   UNL     1       9.828   6.024   5.383  1.00  0.00     0.014 A 
ATOM     42  C   UNL     1       9.576   5.789   2.987  1.00  0.00     0.014 A 
ATOM     43  C   UNL     1      11.214   5.904   5.247  1.00  0.00     0.010 A 
ATOM     44  C   UNL     1      10.953   5.606   2.861  1.00  0.00     0.010 A 
ATOM     45  C   UNL     1      11.787   5.662   3.989  1.00  0.00    -0.014 A 
BRANCH  45  46
ATOM     46  C   UNL     1      13.250   5.443   3.833  1.00  0.00     0.031 A 
ATOM     47  C   UNL     1      14.084   6.406   3.032  1.00  0.00     0.074 A 
ATOM     48  C   UNL     1      13.812   4.324   4.334  1.00  0.00     0.049 A 
ATOM     49  N   UNL     1      15.358   6.347   2.740  1.00  0.00    -0.248 NA
ATOM     50  C   UNL     1      13.394   7.575   2.462  1.00  0.00     0.031 C 
ATOM     51  C   UNL     1      13.099   3.273   5.064  1.00  0.00     0.029 A 
ATOM     52  N   UNL     1      15.106   3.870   4.282  1.00  0.00    -0.354 N 
ATOM     53  C   UNL     1      15.613   7.440   1.921  1.00  0.00     0.074 A 
ATOM     54  C   UNL     1      14.357   8.136   1.744  1.00  0.00     0.031 C 
ATOM     55  C   UNL     1      13.964   2.300   5.392  1.00  0.00     0.029 A 
ATOM     56  C   UNL     1      15.287   2.642   4.877  1.00  0.00     0.049 A 
ATOM     57  H   UNL     1      15.837   4.375   3.857  1.00  0.00     0.167 HD
ATOM     58  C   UNL     1      16.790   7.844   1.385  1.00  0.00     0.034 A 
ATOM     59  C   UNL     1      16.390   1.877   4.994  1.00  0.00     0.034 A 
ATOM     60  C   UNL     1      18.049   7.189   1.615  1.00  0.00     0.049 A 
ATOM     61  C   UNL     1      17.694   2.380   4.434  1.00  0.00     0.074 A 
ATOM     62  C   UNL     1      19.311   7.588   1.212  1.00  0.00     0.029 A 
ATOM     63  N   UNL     1      18.208   5.997   2.303  1.00  0.00    -0.354 N 
ATOM     64  N   UNL     1      17.947   3.509   3.817  1.00  0.00    -0.248 NA
ATOM     65  C   UNL     1      18.873   1.520   4.619  1.00  0.00     0.031 C 
ATOM     66  C   UNL     1      20.233   6.628   1.643  1.00  0.00     0.029 A 
ATOM     67  C   UNL     1      19.545   5.639   2.327  1.00  0.00     0.049 A 
ATOM     68  H   UNL     1      17.477   5.481   2.715  1.00  0.00     0.167 HD
ATOM     69  C   UNL     1      19.316   3.513   3.576  1.00  0.00     0.074 A 
ATOM     70  C   UNL     1      19.842   2.283   4.130  1.00  0.00     0.031 C 
ATOM     71  C   UNL     1      20.067   4.444   2.938  1.00  0.00     0.034 A 
BRANCH  58  72
ATOM     72  C   UNL     1      16.789   9.093   0.544  1.00  0.00     0.023 A 
ATOM     73  C   UNL     1      16.653  10.349   1.167  1.00  0.00     0.012 A 
ATOM     74  C   UNL     1      16.998   9.030  -0.848  1.00  0.00     0.148 A 
ATOM     75  C   UNL     1      16.698  11.523   0.417  1.00  0.00     0.002 A 
ATOM     76  C   UNL     1      17.082  10.206  -1.584  1.00  0.00     0.091 A 
ATOM     77  F   UNL     1      17.103   7.825  -1.426  1.00  0.00    -0.205 F 
ATOM     78  C   UNL     1      16.924  11.452  -0.955  1.00  0.00     0.022 A 
BRANCH  76  79
ATOM     79  S   UNL     1      17.445  10.223  -3.344  1.00  0.00     0.127 S 
ATOM     80  O   UNL     1      16.147  10.591  -3.908  1.00  0.00    -0.237 OA
ATOM     81  O   UNL     1      18.468  11.265  -3.439  1.00  0.00    -0.237 OA
ATOM     82  O   UNL     1      17.913   8.883  -3.669  1.00  0.00    -0.744 OA
ENDBRANCH  76  79
ENDBRANCH  58  72
BRANCH  59  83
ATOM     83  C   UNL     1      16.331   0.590   5.743  1.00  0.00     0.023 A 
ATOM     84  C   UNL     1      16.973   0.495   6.994  1.00  0.00     0.012 A 
ATOM     85  C   UNL     1      15.633  -0.526   5.244  1.00  0.00     0.148 A 
ATOM     86  C   UNL     1      16.950  -0.697   7.718  1.00  0.00     0.002 A 
ATOM     87  C   UNL     1      15.567  -1.694   5.997  1.00  0.00     0.091 A 
ATOM     88  F   UNL     1      15.042  -0.424   4.045  1.00  0.00    -0.205 F 
ATOM     89  C   UNL     1      16.239  -1.788   7.225  1.00  0.00     0.022 A 
BRANCH  87  90
ATOM     90  S   UNL     1      14.562  -3.096   5.497  1.00  0.00     0.127 S 
ATOM     91  O   UNL     1      15.570  -4.028   5.001  1.00  0.00    -0.237 OA
ATOM     92  O   UNL     1      13.929  -3.486   6.758  1.00  0.00    -0.237 OA
ATOM     93  O   UNL     1      13.633  -2.571   4.504  1.00  0.00    -0.744 OA
ENDBRANCH  87  90
ENDBRANCH  59  83
BRANCH  71  94
ATOM     94  C   UNL     1      21.548   4.197   2.830  1.00  0.00     0.023 A 
ATOM     95  C   UNL     1      22.030   3.227   1.929  1.00  0.00     0.012 A 
ATOM     96  C   UNL     1      22.465   4.979   3.561  1.00  0.00     0.148 A 
ATOM     97  C   UNL     1      23.400   3.020   1.777  1.00  0.00     0.002 A 
ATOM     98  C   UNL     1      23.830   4.798   3.370  1.00  0.00     0.091 A 
ATOM     99  F   UNL     1      21.987   5.882   4.429  1.00  0.00    -0.205 F 
ATOM    100  C   UNL     1      24.299   3.813   2.487  1.00  0.00     0.022 A 
BRANCH  98 101
ATOM    101  S   UNL     1      25.055   5.840   4.171  1.00  0.00     0.127 S 
ATOM    102  O   UNL     1      25.564   4.953   5.216  1.00  0.00    -0.237 OA
ATOM    103  O   UNL     1      25.999   6.106   3.085  1.00  0.00    -0.237 OA
ATOM    104  O   UNL     1      24.333   7.015   4.640  1.00  0.00    -0.744 OA
ENDBRANCH  98 101
ENDBRANCH  71  94
ENDBRANCH  45  46
ENDBRANCH  37  40
ENDBRANCH  35  36
ENDBRANCH  34  35
ENDBRANCH   1  34
TORSDOF 20
