REMARK SMILES COC[C@@H](C)CC(=O)N1[C@@H](C2CC2)SC[C@H]1C(=O)NCCCCCCNC(=O)c1ccc(-c2c3nc(c(-c4cccc(S(=O)(=O)[O-])c4F)c4ccc([nH]4)c(-c4cccc(S(=O)(=O)[O-])c4F)c4nc(c(-c5cccc(S(=O)(=O)[O-])c5F)c5ccc2[nH]5)C=C4)C=C3)cc1
REMARK SMILES IDX 21 1 20 2 19 3 17 4 18 5 16 7 9 8 10 9 14 10 15 11 7 12 8 13
REMARK SMILES IDX 6 14 4 15 5 16 3 17 2 18 1 19 11 20 12 21 13 22 22 23 23 24
REMARK SMILES IDX 24 25 25 26 26 27 27 28 28 30 29 31 30 32 91 33 31 34 90 35
REMARK SMILES IDX 32 36 33 37 34 38 84 39 35 40 89 41 83 42 85 43 36 44 88 45
REMARK SMILES IDX 82 46 81 47 37 49 69 50 49 51 68 52 50 53 53 54 67 55 86 56
REMARK SMILES IDX 51 57 52 58 66 60 87 61 54 62 38 63 39 64 47 65 40 66 42 67
REMARK SMILES IDX 48 68 41 69 43 70 44 71 45 72 46 73 70 74 71 75 79 76 72 77
REMARK SMILES IDX 74 78 80 79 73 80 75 81 76 82 77 83 78 84 55 85 56 86 64 87
REMARK SMILES IDX 57 88 59 89 65 90 58 91 60 92 61 93 62 94 63 95
REMARK H PARENT 19 6 26 29 85 48 53 59
REMARK Flexibility Score: inf
ROOT
ATOM      1  C   UNL     1      -2.742  -4.752  -3.654  1.00  0.00     0.021 C 
ENDROOT
BRANCH   1   2
ATOM      2  C   UNL     1      -1.538  -5.563  -4.131  1.00  0.00     0.116 C 
BRANCH   2   3
ATOM      3  N   UNL     1      -1.111  -5.229  -5.469  1.00  0.00    -0.354 N 
ATOM      4  C   UNL     1       0.103  -4.794  -5.905  1.00  0.00     0.243 C 
ATOM      5  O   UNL     1       0.354  -4.968  -7.105  1.00  0.00    -0.273 OA
ATOM      6  H   UNL     1      -1.798  -5.331  -6.167  1.00  0.00     0.163 HD
BRANCH   4   7
ATOM      7  C   UNL     1       1.220  -4.302  -4.957  1.00  0.00     0.185 C 
ATOM      8  N   UNL     1       0.906  -3.342  -3.881  1.00  0.00    -0.318 N 
ATOM      9  C   UNL     1       1.499  -3.656  -2.581  1.00  0.00     0.147 C 
ATOM     10  S   UNL     1       2.808  -4.841  -2.923  1.00  0.00    -0.134 SA
ATOM     11  C   UNL     1       1.962  -5.503  -4.373  1.00  0.00     0.107 C 
BRANCH   8  12
ATOM     12  C   UNL     1       0.470  -2.094  -4.289  1.00  0.00     0.224 C 
ATOM     13  O   UNL     1      -0.333  -1.974  -5.216  1.00  0.00    -0.275 OA
BRANCH  12  14
ATOM     14  C   UNL     1       1.155  -0.856  -3.728  1.00  0.00     0.106 C 
BRANCH  14  15
ATOM     15  C   UNL     1       0.345  -0.021  -2.730  1.00  0.00     0.021 C 
ATOM     16  C   UNL     1       0.869   1.426  -2.747  1.00  0.00     0.010 C 
BRANCH  15  17
ATOM     17  C   UNL     1       0.421  -0.601  -1.310  1.00  0.00     0.163 C 
BRANCH  17  18
ATOM     18  O   UNL     1      -0.092   0.343  -0.377  1.00  0.00    -0.384 OA
ATOM     19  C   UNL     1       0.761   0.562   0.739  1.00  0.00     0.194 C 
ENDBRANCH  17  18
ENDBRANCH  15  17
ENDBRANCH  14  15
ENDBRANCH  12  14
ENDBRANCH   8  12
BRANCH   9  20
ATOM     20  C   UNL     1       0.406  -4.142  -1.658  1.00  0.00     0.022 C 
ATOM     21  C   UNL     1       0.338  -5.523  -1.031  1.00  0.00     0.007 C 
ATOM     22  C   UNL     1       0.619  -4.327  -0.172  1.00  0.00     0.007 C 
ENDBRANCH   9  20
ENDBRANCH   4   7
ENDBRANCH   2   3
ENDBRANCH   1   2
BRANCH   1  23
ATOM     23  C   UNL     1      -4.047  -5.556  -3.612  1.00  0.00     0.002 C 
BRANCH  23  24
ATOM     24  C   UNL     1      -4.046  -6.771  -2.673  1.00  0.00     0.002 C 
BRANCH  24  25
ATOM     25  C   UNL     1      -3.808  -6.476  -1.189  1.00  0.00     0.021 C 
BRANCH  25  26
ATOM     26  C   UNL     1      -4.826  -5.553  -0.525  1.00  0.00     0.116 C 
BRANCH  26  27
ATOM     27  N   UNL     1      -6.183  -6.062  -0.631  1.00  0.00    -0.352 N 
ATOM     28  C   UNL     1      -7.096  -6.390   0.338  1.00  0.00     0.251 C 
ATOM     29  H   UNL     1      -6.499  -6.194  -1.554  1.00  0.00     0.163 HD
ATOM     30  O   UNL     1      -8.117  -6.993   0.011  1.00  0.00    -0.269 OA
BRANCH  28  31
ATOM     31  C   UNL     1      -6.876  -6.038   1.761  1.00  0.00     0.039 A 
ATOM     32  C   UNL     1      -7.314  -6.932   2.744  1.00  0.00     0.014 A 
ATOM     33  C   UNL     1      -6.316  -4.816   2.142  1.00  0.00     0.014 A 
ATOM     34  C   UNL     1      -7.161  -6.617   4.097  1.00  0.00     0.010 A 
ATOM     35  C   UNL     1      -6.092  -4.537   3.491  1.00  0.00     0.010 A 
ATOM     36  C   UNL     1      -6.533  -5.423   4.485  1.00  0.00    -0.014 A 
BRANCH  36  37
ATOM     37  C   UNL     1      -6.354  -5.086   5.923  1.00  0.00     0.031 A 
ATOM     38  C   UNL     1      -7.029  -3.876   6.516  1.00  0.00     0.074 A 
ATOM     39  C   UNL     1      -5.538  -5.838   6.688  1.00  0.00     0.049 A 
ATOM     40  N   UNL     1      -6.987  -3.427   7.744  1.00  0.00    -0.248 NA
ATOM     41  C   UNL     1      -7.838  -3.047   5.606  1.00  0.00     0.031 C 
ATOM     42  C   UNL     1      -4.761  -6.987   6.219  1.00  0.00     0.029 A 
ATOM     43  N   UNL     1      -5.213  -5.739   8.018  1.00  0.00    -0.354 N 
ATOM     44  C   UNL     1      -7.730  -2.251   7.748  1.00  0.00     0.074 A 
ATOM     45  C   UNL     1      -8.181  -2.035   6.391  1.00  0.00     0.031 C 
ATOM     46  C   UNL     1      -4.058  -7.492   7.245  1.00  0.00     0.029 A 
ATOM     47  C   UNL     1      -4.315  -6.692   8.439  1.00  0.00     0.049 A 
ATOM     48  H   UNL     1      -5.587  -5.051   8.614  1.00  0.00     0.167 HD
ATOM     49  C   UNL     1      -8.039  -1.442   8.789  1.00  0.00     0.034 A 
ATOM     50  C   UNL     1      -3.762  -6.901   9.650  1.00  0.00     0.034 A 
ATOM     51  C   UNL     1      -7.631  -1.684  10.147  1.00  0.00     0.049 A 
ATOM     52  C   UNL     1      -4.165  -6.020  10.802  1.00  0.00     0.074 A 
ATOM     53  C   UNL     1      -7.969  -0.974  11.287  1.00  0.00     0.029 A 
ATOM     54  N   UNL     1      -6.792  -2.710  10.551  1.00  0.00    -0.354 N 
ATOM     55  N   UNL     1      -5.003  -5.013  10.817  1.00  0.00    -0.248 NA
ATOM     56  C   UNL     1      -3.577  -6.331  12.114  1.00  0.00     0.031 C 
ATOM     57  C   UNL     1      -7.316  -1.560  12.377  1.00  0.00     0.029 A 
ATOM     58  C   UNL     1      -6.593  -2.650  11.920  1.00  0.00     0.049 A 
ATOM     59  H   UNL     1      -6.396  -3.384   9.952  1.00  0.00     0.167 HD
ATOM     60  C   UNL     1      -5.071  -4.592  12.140  1.00  0.00     0.074 A 
ATOM     61  C   UNL     1      -4.207  -5.471  12.902  1.00  0.00     0.031 C 
ATOM     62  C   UNL     1      -5.771  -3.561  12.675  1.00  0.00     0.034 A 
BRANCH  49  63
ATOM     63  C   UNL     1      -8.911  -0.243   8.511  1.00  0.00     0.023 A 
ATOM     64  C   UNL     1     -10.275  -0.433   8.205  1.00  0.00     0.012 A 
ATOM     65  C   UNL     1      -8.402   1.066   8.607  1.00  0.00     0.148 A 
ATOM     66  C   UNL     1     -11.108   0.658   7.963  1.00  0.00     0.002 A 
ATOM     67  C   UNL     1      -9.250   2.151   8.410  1.00  0.00     0.091 A 
ATOM     68  F   UNL     1      -7.099   1.229   8.880  1.00  0.00    -0.205 F 
ATOM     69  C   UNL     1     -10.599   1.948   8.076  1.00  0.00     0.022 A 
BRANCH  67  70
ATOM     70  S   UNL     1      -8.711   3.853   8.611  1.00  0.00     0.127 S 
ATOM     71  O   UNL     1      -8.704   4.325   7.227  1.00  0.00    -0.237 OA
ATOM     72  O   UNL     1      -9.776   4.417   9.441  1.00  0.00    -0.237 OA
ATOM     73  O   UNL     1      -7.408   3.788   9.257  1.00  0.00    -0.744 OA
ENDBRANCH  67  70
ENDBRANCH  49  63
BRANCH  50  74
ATOM     74  C   UNL     1      -2.823  -8.042   9.852  1.00  0.00     0.023 A 
ATOM     75  C   UNL     1      -3.235  -9.148  10.621  1.00  0.00     0.012 A 
ATOM     76  C   UNL     1      -1.542  -8.050   9.268  1.00  0.00     0.148 A 
ATOM     77  C   UNL     1      -2.375 -10.226  10.833  1.00  0.00     0.002 A 
ATOM     78  C   UNL     1      -0.712  -9.152   9.436  1.00  0.00     0.091 A 
ATOM     79  F   UNL     1      -1.165  -6.983   8.550  1.00  0.00    -0.205 F 
ATOM     80  C   UNL     1      -1.119 -10.233  10.233  1.00  0.00     0.022 A 
BRANCH  78  81
ATOM     81  S   UNL     1       0.866  -9.302   8.591  1.00  0.00     0.127 S 
ATOM     82  O   UNL     1       1.812  -9.133   9.693  1.00  0.00    -0.237 OA
ATOM     83  O   UNL     1       0.790 -10.662   8.049  1.00  0.00    -0.237 OA
ATOM     84  O   UNL     1       0.873  -8.256   7.582  1.00  0.00    -0.744 OA
ENDBRANCH  78  81
ENDBRANCH  50  74
BRANCH  62  85
ATOM     85  C   UNL     1      -5.661  -3.339  14.161  1.00  0.00     0.023 A 
ATOM     86  C   UNL     1      -4.466  -2.827  14.706  1.00  0.00     0.012 A 
ATOM     87  C   UNL     1      -6.761  -3.577  15.009  1.00  0.00     0.148 A 
ATOM     88  C   UNL     1      -4.356  -2.592  16.076  1.00  0.00     0.002 A 
ATOM     89  C   UNL     1      -6.659  -3.293  16.366  1.00  0.00     0.091 A 
ATOM     90  F   UNL     1      -7.883  -4.082  14.476  1.00  0.00    -0.205 F 
ATOM     91  C   UNL     1      -5.454  -2.814  16.903  1.00  0.00     0.022 A 
BRANCH  89  92
ATOM     92  S   UNL     1      -8.053  -3.457  17.488  1.00  0.00     0.127 S 
ATOM     93  O   UNL     1      -7.705  -4.673  18.220  1.00  0.00    -0.237 OA
ATOM     94  O   UNL     1      -7.967  -2.226  18.274  1.00  0.00    -0.237 OA
ATOM     95  O   UNL     1      -9.236  -3.549  16.643  1.00  0.00    -0.744 OA
ENDBRANCH  89  92
ENDBRANCH  62  85
ENDBRANCH  36  37
ENDBRANCH  28  31
ENDBRANCH  26  27
ENDBRANCH  25  26
ENDBRANCH  24  25
ENDBRANCH  23  24
ENDBRANCH   1  23
TORSDOF 22
