REMARK SMILES O=C(NCCCCCCNC(=O)[C@H]1C[C@H]1c1ccc(C2CC2)cc1)c1ccc(-c2c3nc(c(-c4cccc(S(=O)(=O)[O-])c4F)c4ccc([nH]4)c(-c4cccc(S(=O)(=O)[O-])c4F)c4nc(c(-c5cccc(S(=O)(=O)[O-])c5F)c5ccc2[nH]5)C=C4)C=C3)cc1
REMARK SMILES IDX 6 1 5 2 4 3 3 4 1 5 2 6 25 8 26 9 87 10 27 11 86 12 28 13
REMARK SMILES IDX 29 14 30 15 80 16 31 17 85 18 79 19 81 20 32 21 84 22 78 23
REMARK SMILES IDX 77 24 33 26 65 27 45 28 64 29 46 30 49 31 63 32 82 33 47 34
REMARK SMILES IDX 48 35 62 37 83 38 50 39 34 40 35 41 43 42 36 43 38 44 44 45
REMARK SMILES IDX 37 46 39 47 40 48 41 49 42 50 66 51 67 52 75 53 68 54 70 55
REMARK SMILES IDX 76 56 69 57 71 58 72 59 73 60 74 61 51 62 52 63 60 64 53 65
REMARK SMILES IDX 55 66 61 67 54 68 56 69 57 70 58 71 59 72 7 73 8 74 9 75
REMARK SMILES IDX 10 76 11 77 12 79 13 80 14 81 15 82 16 83 17 84 24 85 18 86
REMARK SMILES IDX 23 87 19 88 20 89 21 90 22 91
REMARK H PARENT 3 7 81 25 49 36 10 78
REMARK Flexibility Score: inf
ROOT
ATOM      1  C   UNL     1      11.428  -2.145  -0.522  1.00  0.00     0.002 C 
ENDROOT
BRANCH   1   2
ATOM      2  C   UNL     1      12.543  -1.405  -1.259  1.00  0.00     0.021 C 
BRANCH   2   3
ATOM      3  C   UNL     1      12.327   0.086  -1.483  1.00  0.00     0.116 C 
BRANCH   3   4
ATOM      4  N   UNL     1      12.330   0.859  -0.254  1.00  0.00    -0.352 N 
ATOM      5  O   UNL     1      13.025   2.403   1.230  1.00  0.00    -0.269 OA
ATOM      6  C   UNL     1      13.088   1.956   0.089  1.00  0.00     0.251 C 
ATOM      7  H   UNL     1      11.697   0.554   0.436  1.00  0.00     0.163 HD
BRANCH   6   8
ATOM      8  C   UNL     1      14.007   2.569  -0.901  1.00  0.00     0.039 A 
ATOM      9  C   UNL     1      13.605   2.795  -2.220  1.00  0.00     0.014 A 
ATOM     10  C   UNL     1      15.300   2.921  -0.501  1.00  0.00     0.014 A 
ATOM     11  C   UNL     1      14.538   3.208  -3.168  1.00  0.00     0.010 A 
ATOM     12  C   UNL     1      16.212   3.418  -1.439  1.00  0.00     0.010 A 
ATOM     13  C   UNL     1      15.855   3.520  -2.792  1.00  0.00    -0.014 A 
BRANCH  13  14
ATOM     14  C   UNL     1      16.822   3.978  -3.826  1.00  0.00     0.031 A 
ATOM     15  C   UNL     1      18.050   3.173  -4.163  1.00  0.00     0.074 A 
ATOM     16  C   UNL     1      16.575   5.127  -4.486  1.00  0.00     0.049 A 
ATOM     17  N   UNL     1      18.946   3.392  -5.093  1.00  0.00    -0.248 NA
ATOM     18  C   UNL     1      18.318   1.976  -3.350  1.00  0.00     0.031 C 
ATOM     19  C   UNL     1      15.451   6.026  -4.216  1.00  0.00     0.029 A 
ATOM     20  N   UNL     1      17.242   5.732  -5.522  1.00  0.00    -0.354 N 
ATOM     21  C   UNL     1      19.902   2.392  -4.951  1.00  0.00     0.074 A 
ATOM     22  C   UNL     1      19.482   1.567  -3.839  1.00  0.00     0.031 C 
ATOM     23  C   UNL     1      15.482   7.045  -5.088  1.00  0.00     0.029 A 
ATOM     24  C   UNL     1      16.646   6.894  -5.955  1.00  0.00     0.049 A 
ATOM     25  H   UNL     1      18.068   5.370  -5.917  1.00  0.00     0.167 HD
ATOM     26  C   UNL     1      21.016   2.169  -5.689  1.00  0.00     0.034 A 
ATOM     27  C   UNL     1      16.990   7.741  -6.944  1.00  0.00     0.034 A 
ATOM     28  C   UNL     1      21.404   2.956  -6.830  1.00  0.00     0.049 A 
ATOM     29  C   UNL     1      18.195   7.432  -7.786  1.00  0.00     0.074 A 
ATOM     30  C   UNL     1      22.472   2.759  -7.689  1.00  0.00     0.029 A 
ATOM     31  N   UNL     1      20.741   4.090  -7.274  1.00  0.00    -0.354 N 
ATOM     32  N   UNL     1      18.998   6.398  -7.728  1.00  0.00    -0.248 NA
ATOM     33  C   UNL     1      18.523   8.390  -8.852  1.00  0.00     0.031 C 
ATOM     34  C   UNL     1      22.459   3.779  -8.647  1.00  0.00     0.029 A 
ATOM     35  C   UNL     1      21.378   4.606  -8.390  1.00  0.00     0.049 A 
ATOM     36  H   UNL     1      19.936   4.473  -6.856  1.00  0.00     0.167 HD
ATOM     37  C   UNL     1      19.910   6.566  -8.763  1.00  0.00     0.074 A 
ATOM     38  C   UNL     1      19.542   7.787  -9.450  1.00  0.00     0.031 C 
ATOM     39  C   UNL     1      20.968   5.789  -9.101  1.00  0.00     0.034 A 
BRANCH  26  40
ATOM     40  C   UNL     1      21.878   0.988  -5.324  1.00  0.00     0.023 A 
ATOM     41  C   UNL     1      21.451  -0.312  -5.661  1.00  0.00     0.012 A 
ATOM     42  C   UNL     1      23.138   1.166  -4.719  1.00  0.00     0.148 A 
ATOM     43  C   UNL     1      22.252  -1.418  -5.380  1.00  0.00     0.002 A 
ATOM     44  C   UNL     1      23.947   0.061  -4.474  1.00  0.00     0.091 A 
ATOM     45  F   UNL     1      23.519   2.407  -4.384  1.00  0.00    -0.205 F 
ATOM     46  C   UNL     1      23.503  -1.231  -4.797  1.00  0.00     0.022 A 
BRANCH  44  47
ATOM     47  S   UNL     1      25.603   0.214  -3.794  1.00  0.00     0.127 S 
ATOM     48  O   UNL     1      25.388  -0.174  -2.402  1.00  0.00    -0.237 OA
ATOM     49  O   UNL     1      26.359  -0.757  -4.587  1.00  0.00    -0.237 OA
ATOM     50  O   UNL     1      25.993   1.601  -4.011  1.00  0.00    -0.744 OA
ENDBRANCH  44  47
ENDBRANCH  26  40
BRANCH  27  51
ATOM     51  C   UNL     1      16.125   8.917  -7.240  1.00  0.00     0.023 A 
ATOM     52  C   UNL     1      15.359   8.928  -8.422  1.00  0.00     0.012 A 
ATOM     53  C   UNL     1      16.011   9.992  -6.338  1.00  0.00     0.148 A 
ATOM     54  C   UNL     1      14.511   9.997  -8.710  1.00  0.00     0.002 A 
ATOM     55  C   UNL     1      15.121  11.026  -6.603  1.00  0.00     0.091 A 
ATOM     56  F   UNL     1      16.764   9.975  -5.229  1.00  0.00    -0.205 F 
ATOM     57  C   UNL     1      14.381  11.038  -7.795  1.00  0.00     0.022 A 
BRANCH  55  58
ATOM     58  S   UNL     1      14.791  12.324  -5.406  1.00  0.00     0.127 S 
ATOM     59  O   UNL     1      15.574  13.434  -5.943  1.00  0.00    -0.237 OA
ATOM     60  O   UNL     1      13.340  12.483  -5.515  1.00  0.00    -0.237 OA
ATOM     61  O   UNL     1      15.235  11.787  -4.126  1.00  0.00    -0.744 OA
ENDBRANCH  55  58
ENDBRANCH  27  51
BRANCH  39  62
ATOM     62  C   UNL     1      21.797   6.222 -10.280  1.00  0.00     0.023 A 
ATOM     63  C   UNL     1      22.677   7.314 -10.146  1.00  0.00     0.012 A 
ATOM     64  C   UNL     1      21.752   5.515 -11.496  1.00  0.00     0.148 A 
ATOM     65  C   UNL     1      23.478   7.714 -11.215  1.00  0.00     0.002 A 
ATOM     66  C   UNL     1      22.583   5.893 -12.545  1.00  0.00     0.091 A 
ATOM     67  F   UNL     1      20.889   4.494 -11.615  1.00  0.00    -0.205 F 
ATOM     68  C   UNL     1      23.439   6.998 -12.410  1.00  0.00     0.022 A 
BRANCH  66  69
ATOM     69  S   UNL     1      22.650   4.965 -14.081  1.00  0.00     0.127 S 
ATOM     70  O   UNL     1      21.767   5.747 -14.944  1.00  0.00    -0.237 OA
ATOM     71  O   UNL     1      24.068   5.036 -14.435  1.00  0.00    -0.237 OA
ATOM     72  O   UNL     1      22.185   3.624 -13.747  1.00  0.00    -0.744 OA
ENDBRANCH  66  69
ENDBRANCH  39  62
ENDBRANCH  13  14
ENDBRANCH   6   8
ENDBRANCH   3   4
ENDBRANCH   2   3
ENDBRANCH   1   2
BRANCH   1  73
ATOM     73  C   UNL     1      10.011  -1.988  -1.080  1.00  0.00     0.002 C 
BRANCH  73  74
ATOM     74  C   UNL     1       9.824  -2.209  -2.583  1.00  0.00     0.021 C 
BRANCH  74  75
ATOM     75  C   UNL     1      10.381  -3.505  -3.163  1.00  0.00     0.116 C 
BRANCH  75  76
ATOM     76  N   UNL     1       9.807  -4.694  -2.575  1.00  0.00    -0.356 N 
ATOM     77  C   UNL     1       9.204  -5.770  -3.165  1.00  0.00     0.223 C 
ATOM     78  H   UNL     1       9.858  -4.735  -1.593  1.00  0.00     0.163 HD
ATOM     79  O   UNL     1       8.785  -6.683  -2.458  1.00  0.00    -0.275 OA
BRANCH  77  80
ATOM     80  C   UNL     1       8.931  -5.804  -4.622  1.00  0.00     0.086 C 
ATOM     81  C   UNL     1       9.845  -5.377  -5.734  1.00  0.00     0.023 C 
ATOM     82  C   UNL     1       9.603  -6.847  -5.509  1.00  0.00     0.032 C 
BRANCH  82  83
ATOM     83  C   UNL     1      10.779  -7.702  -5.086  1.00  0.00    -0.044 A 
ATOM     84  C   UNL     1      12.046  -7.546  -5.668  1.00  0.00     0.004 A 
ATOM     85  C   UNL     1      10.642  -8.735  -4.152  1.00  0.00     0.004 A 
ATOM     86  C   UNL     1      13.118  -8.381  -5.334  1.00  0.00     0.004 A 
ATOM     87  C   UNL     1      11.717  -9.574  -3.819  1.00  0.00     0.004 A 
ATOM     88  C   UNL     1      12.980  -9.428  -4.412  1.00  0.00    -0.045 A 
BRANCH  88  89
ATOM     89  C   UNL     1      14.162 -10.335  -4.139  1.00  0.00     0.019 C 
ATOM     90  C   UNL     1      14.135 -11.508  -3.193  1.00  0.00     0.009 C 
ATOM     91  C   UNL     1      14.103 -11.750  -4.672  1.00  0.00     0.009 C 
ENDBRANCH  88  89
ENDBRANCH  82  83
ENDBRANCH  77  80
ENDBRANCH  75  76
ENDBRANCH  74  75
ENDBRANCH  73  74
ENDBRANCH   1  73
TORSDOF 18
