REMARK SMILES O=C(CCc1ccccc1)Nc1ccccc1Oc1ccsc1C(=O)NCCCCCCNC(=O)c1ccc(-c2c3nc(c(-c4cccc(S(=O)(=O)[O-])c4F)c4ccc([nH]4)c(-c4cccc(S(=O)(=O)[O-])c4F)c4nc(c(-c5cccc(S(=O)(=O)[O-])c5F)c5ccc2[nH]5)C=C4)C=C3)cc1
REMARK SMILES IDX 28 1 27 2 26 3 24 4 25 5 23 7 19 8 20 9 21 10 22 11 18 12
REMARK SMILES IDX 17 13 12 14 13 15 14 16 16 17 15 18 11 19 1 20 2 21 3 23
REMARK SMILES IDX 4 24 5 25 6 26 10 27 7 28 9 29 8 30 29 31 30 32 31 33 32 34
REMARK SMILES IDX 33 35 34 36 35 38 36 39 37 40 98 41 38 42 97 43 39 44 40 45
REMARK SMILES IDX 41 46 91 47 42 48 96 49 90 50 92 51 43 52 95 53 89 54 88 55
REMARK SMILES IDX 44 57 76 58 56 59 75 60 57 61 60 62 74 63 93 64 58 65 59 66
REMARK SMILES IDX 73 68 94 69 61 70 45 71 46 72 54 73 47 74 49 75 55 76 48 77
REMARK SMILES IDX 50 78 51 79 52 80 53 81 77 82 78 83 86 84 79 85 81 86 87 87
REMARK SMILES IDX 80 88 82 89 83 90 84 91 85 92 62 93 63 94 71 95 64 96 66 97
REMARK SMILES IDX 72 98 65 99 67 100 68 101 69 102 70 103
REMARK H PARENT 26 6 11 22 33 37 92 56 60 67
REMARK Flexibility Score: inf
ROOT
ATOM      1  C   UNL     1      -1.964   1.316   2.285  1.00  0.00     0.021 C 
ENDROOT
BRANCH   1   2
ATOM      2  C   UNL     1      -1.256   0.062   1.798  1.00  0.00     0.116 C 
BRANCH   2   3
ATOM      3  N   UNL     1      -1.692  -0.514   0.561  1.00  0.00    -0.351 N 
ATOM      4  C   UNL     1      -1.009  -1.365  -0.286  1.00  0.00     0.265 C 
ATOM      5  O   UNL     1      -1.650  -1.644  -1.310  1.00  0.00    -0.268 OA
ATOM      6  H   UNL     1      -2.602  -0.271   0.276  1.00  0.00     0.163 HD
BRANCH   4   7
ATOM      7  C   UNL     1       0.346  -1.899  -0.041  1.00  0.00     0.135 A 
ATOM      8  C   UNL     1       1.243  -1.960   1.024  1.00  0.00     0.151 A 
ATOM      9  C   UNL     1       2.453  -2.663   0.725  1.00  0.00     0.059 A 
ATOM     10  C   UNL     1       2.492  -3.103  -0.573  1.00  0.00     0.069 A 
ATOM     11  S   UNL     1       1.074  -2.695  -1.420  1.00  0.00    -0.135 S 
BRANCH   8  12
ATOM     12  O   UNL     1       0.962  -1.550   2.276  1.00  0.00    -0.453 OA
BRANCH  12  13
ATOM     13  C   UNL     1       1.581  -0.506   2.936  1.00  0.00     0.151 A 
ATOM     14  C   UNL     1       2.430   0.490   2.423  1.00  0.00     0.084 A 
ATOM     15  C   UNL     1       2.856   1.531   3.264  1.00  0.00     0.030 A 
ATOM     16  C   UNL     1       2.402   1.623   4.581  1.00  0.00     0.002 A 
ATOM     17  C   UNL     1       1.175  -0.424   4.280  1.00  0.00     0.049 A 
ATOM     18  C   UNL     1       1.569   0.637   5.094  1.00  0.00     0.004 A 
BRANCH  14  19
ATOM     19  N   UNL     1       2.996   0.466   1.139  1.00  0.00    -0.323 N 
ATOM     20  O   UNL     1       1.226   1.323  -0.091  1.00  0.00    -0.275 OA
ATOM     21  C   UNL     1       2.341   0.812  -0.029  1.00  0.00     0.224 C 
ATOM     22  H   UNL     1       3.935   0.180   1.063  1.00  0.00     0.170 HD
BRANCH  21  23
ATOM     23  C   UNL     1       3.129   0.476  -1.292  1.00  0.00     0.105 C 
BRANCH  23  24
ATOM     24  C   UNL     1       4.221   1.471  -1.681  1.00  0.00     0.045 C 
BRANCH  24  25
ATOM     25  C   UNL     1       5.264   1.659  -0.607  1.00  0.00    -0.048 A 
ATOM     26  C   UNL     1       6.037   0.577  -0.153  1.00  0.00     0.004 A 
ATOM     27  C   UNL     1       5.368   2.894   0.045  1.00  0.00     0.004 A 
ATOM     28  C   UNL     1       6.821   0.708   0.993  1.00  0.00     0.000 A 
ATOM     29  C   UNL     1       6.174   3.027   1.175  1.00  0.00     0.000 A 
ATOM     30  C   UNL     1       6.880   1.929   1.662  1.00  0.00     0.000 A 
ENDBRANCH  24  25
ENDBRANCH  23  24
ENDBRANCH  21  23
ENDBRANCH  14  19
ENDBRANCH  12  13
ENDBRANCH   8  12
ENDBRANCH   4   7
ENDBRANCH   2   3
ENDBRANCH   1   2
BRANCH   1  31
ATOM     31  C   UNL     1      -3.431   1.187   2.676  1.00  0.00     0.002 C 
BRANCH  31  32
ATOM     32  C   UNL     1      -3.813   0.038   3.611  1.00  0.00     0.002 C 
BRANCH  32  33
ATOM     33  C   UNL     1      -3.017  -0.118   4.909  1.00  0.00     0.021 C 
BRANCH  33  34
ATOM     34  C   UNL     1      -2.868   1.123   5.783  1.00  0.00     0.116 C 
BRANCH  34  35
ATOM     35  N   UNL     1      -4.142   1.697   6.179  1.00  0.00    -0.352 N 
ATOM     36  C   UNL     1      -4.633   1.994   7.426  1.00  0.00     0.251 C 
ATOM     37  H   UNL     1      -4.750   1.907   5.434  1.00  0.00     0.163 HD
ATOM     38  O   UNL     1      -5.802   2.358   7.541  1.00  0.00    -0.269 OA
BRANCH  36  39
ATOM     39  C   UNL     1      -3.786   1.861   8.635  1.00  0.00     0.039 A 
ATOM     40  C   UNL     1      -4.349   1.300   9.786  1.00  0.00     0.014 A 
ATOM     41  C   UNL     1      -2.465   2.318   8.662  1.00  0.00     0.014 A 
ATOM     42  C   UNL     1      -3.576   1.147  10.941  1.00  0.00     0.010 A 
ATOM     43  C   UNL     1      -1.676   2.104   9.793  1.00  0.00     0.010 A 
ATOM     44  C   UNL     1      -2.223   1.522  10.947  1.00  0.00    -0.014 A 
BRANCH  44  45
ATOM     45  C   UNL     1      -1.368   1.299  12.144  1.00  0.00     0.031 A 
ATOM     46  C   UNL     1      -0.763   2.464  12.882  1.00  0.00     0.074 A 
ATOM     47  C   UNL     1      -1.071   0.040  12.524  1.00  0.00     0.049 A 
ATOM     48  N   UNL     1       0.042   2.458  13.914  1.00  0.00    -0.248 NA
ATOM     49  C   UNL     1      -1.085   3.810  12.382  1.00  0.00     0.031 C 
ATOM     50  C   UNL     1      -1.531  -1.176  11.850  1.00  0.00     0.029 A 
ATOM     51  N   UNL     1      -0.290  -0.427  13.553  1.00  0.00    -0.354 N 
ATOM     52  C   UNL     1       0.351   3.790  14.165  1.00  0.00     0.074 A 
ATOM     53  C   UNL     1      -0.329   4.575  13.158  1.00  0.00     0.031 C 
ATOM     54  C   UNL     1      -1.026  -2.248  12.482  1.00  0.00     0.029 A 
ATOM     55  C   UNL     1      -0.185  -1.798  13.588  1.00  0.00     0.049 A 
ATOM     56  H   UNL     1       0.152   0.164  14.204  1.00  0.00     0.167 HD
ATOM     57  C   UNL     1       1.108   4.316  15.158  1.00  0.00     0.034 A 
ATOM     58  C   UNL     1       0.514  -2.605  14.411  1.00  0.00     0.034 A 
ATOM     59  C   UNL     1       1.748   3.537  16.185  1.00  0.00     0.049 A 
ATOM     60  C   UNL     1       1.313  -1.996  15.531  1.00  0.00     0.074 A 
ATOM     61  C   UNL     1       2.460   3.983  17.284  1.00  0.00     0.029 A 
ATOM     62  N   UNL     1       1.758   2.152  16.239  1.00  0.00    -0.354 N 
ATOM     63  N   UNL     1       1.462  -0.732  15.846  1.00  0.00    -0.248 NA
ATOM     64  C   UNL     1       2.010  -2.925  16.433  1.00  0.00     0.031 C 
ATOM     65  C   UNL     1       2.922   2.867  17.990  1.00  0.00     0.029 A 
ATOM     66  C   UNL     1       2.474   1.726  17.345  1.00  0.00     0.049 A 
ATOM     67  H   UNL     1       1.322   1.558  15.586  1.00  0.00     0.167 HD
ATOM     68  C   UNL     1       2.237  -0.715  17.000  1.00  0.00     0.074 A 
ATOM     69  C   UNL     1       2.509  -2.096  17.341  1.00  0.00     0.031 C 
ATOM     70  C   UNL     1       2.694   0.349  17.706  1.00  0.00     0.034 A 
BRANCH  57  71
ATOM     71  C   UNL     1       1.245   5.816  15.216  1.00  0.00     0.023 A 
ATOM     72  C   UNL     1       0.140   6.600  15.606  1.00  0.00     0.012 A 
ATOM     73  C   UNL     1       2.477   6.445  14.948  1.00  0.00     0.148 A 
ATOM     74  C   UNL     1       0.248   7.987  15.694  1.00  0.00     0.002 A 
ATOM     75  C   UNL     1       2.589   7.824  15.081  1.00  0.00     0.091 A 
ATOM     76  F   UNL     1       3.512   5.686  14.559  1.00  0.00    -0.205 F 
ATOM     77  C   UNL     1       1.473   8.598  15.442  1.00  0.00     0.022 A 
BRANCH  75  78
ATOM     78  S   UNL     1       4.143   8.697  14.854  1.00  0.00     0.127 S 
ATOM     79  O   UNL     1       3.910   9.390  13.587  1.00  0.00    -0.237 OA
ATOM     80  O   UNL     1       4.181   9.570  16.028  1.00  0.00    -0.237 OA
ATOM     81  O   UNL     1       5.177   7.673  14.825  1.00  0.00    -0.744 OA
ENDBRANCH  75  78
ENDBRANCH  57  71
BRANCH  58  82
ATOM     82  C   UNL     1       0.436  -4.084  14.245  1.00  0.00     0.023 A 
ATOM     83  C   UNL     1      -0.248  -4.853  15.207  1.00  0.00     0.012 A 
ATOM     84  C   UNL     1       1.007  -4.728  13.130  1.00  0.00     0.148 A 
ATOM     85  C   UNL     1      -0.335  -6.239  15.079  1.00  0.00     0.002 A 
ATOM     86  C   UNL     1       0.869  -6.104  12.981  1.00  0.00     0.091 A 
ATOM     87  F   UNL     1       1.665  -3.981  12.233  1.00  0.00    -0.205 F 
ATOM     88  C   UNL     1       0.214  -6.863  13.962  1.00  0.00     0.022 A 
BRANCH  86  89
ATOM     89  S   UNL     1       1.428  -6.968  11.509  1.00  0.00     0.127 S 
ATOM     90  O   UNL     1       2.581  -7.710  12.019  1.00  0.00    -0.237 OA
ATOM     91  O   UNL     1       0.263  -7.794  11.182  1.00  0.00    -0.237 OA
ATOM     92  O   UNL     1       1.722  -5.934  10.532  1.00  0.00    -0.744 OA
ENDBRANCH  86  89
ENDBRANCH  58  82
BRANCH  70  93
ATOM     93  C   UNL     1       3.511   0.070  18.941  1.00  0.00     0.023 A 
ATOM     94  C   UNL     1       4.828  -0.413  18.817  1.00  0.00     0.012 A 
ATOM     95  C   UNL     1       2.997   0.356  20.222  1.00  0.00     0.148 A 
ATOM     96  C   UNL     1       5.610  -0.639  19.949  1.00  0.00     0.002 A 
ATOM     97  C   UNL     1       3.799   0.175  21.342  1.00  0.00     0.091 A 
ATOM     98  F   UNL     1       1.735   0.797  20.321  1.00  0.00    -0.205 F 
ATOM     99  C   UNL     1       5.101  -0.334  21.209  1.00  0.00     0.022 A 
BRANCH  97 100
ATOM    100  S   UNL     1       3.261   0.631  22.994  1.00  0.00     0.127 S 
ATOM    101  O   UNL     1       3.022  -0.676  23.602  1.00  0.00    -0.237 OA
ATOM    102  O   UNL     1       4.429   1.342  23.517  1.00  0.00    -0.237 OA
ATOM    103  O   UNL     1       2.079   1.464  22.815  1.00  0.00    -0.744 OA
ENDBRANCH  97 100
ENDBRANCH  70  93
ENDBRANCH  44  45
ENDBRANCH  36  39
ENDBRANCH  34  35
ENDBRANCH  33  34
ENDBRANCH  32  33
ENDBRANCH  31  32
ENDBRANCH   1  31
TORSDOF 22
