REMARK SMILES O=C(NCCCCCCNC(=O)c1ccc(N2C(=O)[C@@H]3N=NC(c4ccccc4)=C3[C@H]2c2cccc(Br)c2)cc1)c1ccc(-c2c3nc(c(-c4cccc(S(=O)(=O)[O-])c4F)c4ccc([nH]4)c(-c4cccc(S(=O)(=O)[O-])c4F)c4nc(c(-c5cccc(S(=O)(=O)[O-])c5F)c5ccc2[nH]5)C=C4)C=C3)cc1
REMARK SMILES IDX 6 1 5 2 4 3 3 4 1 5 2 6 41 8 42 9 103 10 43 11 102 12 44 13
REMARK SMILES IDX 45 14 46 15 96 16 47 17 101 18 95 19 97 20 48 21 100 22
REMARK SMILES IDX 94 23 93 24 49 26 81 27 61 28 80 29 62 30 65 31 79 32 98 33
REMARK SMILES IDX 63 34 64 35 78 37 99 38 66 39 50 40 51 41 59 42 52 43 54 44
REMARK SMILES IDX 60 45 53 46 55 47 56 48 57 49 58 50 82 51 83 52 91 53 84 54
REMARK SMILES IDX 86 55 92 56 85 57 87 58 88 59 89 60 90 61 67 62 68 63 76 64
REMARK SMILES IDX 69 65 71 66 77 67 70 68 72 69 73 70 74 71 75 72 7 73 8 74
REMARK SMILES IDX 9 75 10 76 11 77 12 79 13 80 14 81 40 82 15 83 39 84 16 85
REMARK SMILES IDX 17 86 18 87 31 88 20 89 19 90 30 91 21 92 23 93 22 94 32 95
REMARK SMILES IDX 33 96 38 97 34 98 36 99 35 100 37 101 24 102 25 103 29 104
REMARK SMILES IDX 26 105 28 106 27 107
REMARK H PARENT 3 7 97 25 65 36 10 78
REMARK Flexibility Score: inf
ROOT
ATOM      1  C   UNL     1       4.381  -3.552  -0.422  1.00  0.00     0.002 C 
ENDROOT
BRANCH   1   2
ATOM      2  C   UNL     1       4.876  -2.263   0.242  1.00  0.00     0.021 C 
BRANCH   2   3
ATOM      3  C   UNL     1       4.714  -0.994  -0.596  1.00  0.00     0.116 C 
BRANCH   3   4
ATOM      4  N   UNL     1       3.351  -0.670  -0.956  1.00  0.00    -0.352 N 
ATOM      5  O   UNL     1       1.317   0.187  -0.996  1.00  0.00    -0.269 OA
ATOM      6  C   UNL     1       2.307  -0.071  -0.306  1.00  0.00     0.251 C 
ATOM      7  H   UNL     1       3.123  -0.943  -1.874  1.00  0.00     0.163 HD
BRANCH   6   8
ATOM      8  C   UNL     1       2.268   0.214   1.153  1.00  0.00     0.039 A 
ATOM      9  C   UNL     1       3.377   0.248   2.002  1.00  0.00     0.014 A 
ATOM     10  C   UNL     1       0.993   0.450   1.701  1.00  0.00     0.014 A 
ATOM     11  C   UNL     1       3.214   0.420   3.372  1.00  0.00     0.010 A 
ATOM     12  C   UNL     1       0.825   0.645   3.067  1.00  0.00     0.010 A 
ATOM     13  C   UNL     1       1.937   0.601   3.903  1.00  0.00    -0.014 A 
BRANCH  13  14
ATOM     14  C   UNL     1       1.831   0.947   5.318  1.00  0.00     0.031 A 
ATOM     15  C   UNL     1       2.376   2.292   5.656  1.00  0.00     0.074 A 
ATOM     16  C   UNL     1       1.151   0.204   6.212  1.00  0.00     0.049 A 
ATOM     17  N   UNL     1       3.338   2.588   6.469  1.00  0.00    -0.248 NA
ATOM     18  C   UNL     1       1.873   3.439   4.884  1.00  0.00     0.031 C 
ATOM     19  C   UNL     1       0.325  -0.970   5.923  1.00  0.00     0.029 A 
ATOM     20  N   UNL     1       0.921   0.433   7.540  1.00  0.00    -0.354 N 
ATOM     21  C   UNL     1       3.392   3.985   6.486  1.00  0.00     0.074 A 
ATOM     22  C   UNL     1       2.635   4.427   5.349  1.00  0.00     0.031 C 
ATOM     23  C   UNL     1      -0.507  -1.188   6.965  1.00  0.00     0.029 A 
ATOM     24  C   UNL     1      -0.194  -0.246   8.026  1.00  0.00     0.049 A 
ATOM     25  H   UNL     1       1.486   1.017   8.096  1.00  0.00     0.167 HD
ATOM     26  C   UNL     1       3.806   4.663   7.593  1.00  0.00     0.034 A 
ATOM     27  C   UNL     1      -0.875   0.015   9.168  1.00  0.00     0.034 A 
ATOM     28  C   UNL     1       4.561   3.807   8.477  1.00  0.00     0.049 A 
ATOM     29  C   UNL     1       0.005   0.810  10.050  1.00  0.00     0.074 A 
ATOM     30  C   UNL     1       5.701   3.035   8.382  1.00  0.00     0.029 A 
ATOM     31  N   UNL     1       3.929   3.409   9.627  1.00  0.00    -0.354 N 
ATOM     32  N   UNL     1       1.074   0.339  10.628  1.00  0.00    -0.248 NA
ATOM     33  C   UNL     1      -0.106   2.259  10.022  1.00  0.00     0.031 C 
ATOM     34  C   UNL     1       5.476   1.925   9.251  1.00  0.00     0.029 A 
ATOM     35  C   UNL     1       4.230   2.099   9.856  1.00  0.00     0.049 A 
ATOM     36  H   UNL     1       3.354   3.974  10.193  1.00  0.00     0.167 HD
ATOM     37  C   UNL     1       1.967   1.401  10.610  1.00  0.00     0.074 A 
ATOM     38  C   UNL     1       1.141   2.581  10.371  1.00  0.00     0.031 C 
ATOM     39  C   UNL     1       3.309   1.179  10.485  1.00  0.00     0.034 A 
BRANCH  26  40
ATOM     40  C   UNL     1       3.143   5.934   8.127  1.00  0.00     0.023 A 
ATOM     41  C   UNL     1       3.661   6.452   9.341  1.00  0.00     0.012 A 
ATOM     42  C   UNL     1       1.879   6.426   7.726  1.00  0.00     0.148 A 
ATOM     43  C   UNL     1       2.899   7.270  10.182  1.00  0.00     0.002 A 
ATOM     44  C   UNL     1       1.148   7.288   8.538  1.00  0.00     0.091 A 
ATOM     45  F   UNL     1       1.307   6.000   6.602  1.00  0.00    -0.205 F 
ATOM     46  C   UNL     1       1.633   7.675   9.788  1.00  0.00     0.022 A 
BRANCH  44  47
ATOM     47  S   UNL     1      -0.484   7.878   8.062  1.00  0.00     0.127 S 
ATOM     48  O   UNL     1      -1.338   7.126   8.975  1.00  0.00    -0.237 OA
ATOM     49  O   UNL     1      -0.375   9.309   8.347  1.00  0.00    -0.237 OA
ATOM     50  O   UNL     1      -0.624   7.560   6.646  1.00  0.00    -0.744 OA
ENDBRANCH  44  47
ENDBRANCH  26  40
BRANCH  27  51
ATOM     51  C   UNL     1      -2.313  -0.173   9.478  1.00  0.00     0.023 A 
ATOM     52  C   UNL     1      -2.739  -0.200  10.822  1.00  0.00     0.012 A 
ATOM     53  C   UNL     1      -3.299  -0.065   8.472  1.00  0.00     0.148 A 
ATOM     54  C   UNL     1      -4.095  -0.091  11.153  1.00  0.00     0.002 A 
ATOM     55  C   UNL     1      -4.647   0.024   8.805  1.00  0.00     0.091 A 
ATOM     56  F   UNL     1      -2.913   0.049   7.195  1.00  0.00    -0.205 F 
ATOM     57  C   UNL     1      -5.048   0.025  10.146  1.00  0.00     0.022 A 
BRANCH  55  58
ATOM     58  S   UNL     1      -5.929   0.174   7.553  1.00  0.00     0.127 S 
ATOM     59  O   UNL     1      -6.920  -0.799   8.014  1.00  0.00    -0.237 OA
ATOM     60  O   UNL     1      -6.331   1.570   7.695  1.00  0.00    -0.237 OA
ATOM     61  O   UNL     1      -5.292  -0.179   6.290  1.00  0.00    -0.744 OA
ENDBRANCH  55  58
ENDBRANCH  27  51
BRANCH  39  62
ATOM     62  C   UNL     1       3.830  -0.206  10.757  1.00  0.00     0.023 A 
ATOM     63  C   UNL     1       3.434  -1.327   9.999  1.00  0.00     0.012 A 
ATOM     64  C   UNL     1       4.856  -0.351  11.705  1.00  0.00     0.148 A 
ATOM     65  C   UNL     1       4.027  -2.574  10.209  1.00  0.00     0.002 A 
ATOM     66  C   UNL     1       5.479  -1.581  11.874  1.00  0.00     0.091 A 
ATOM     67  F   UNL     1       5.223   0.726  12.417  1.00  0.00    -0.205 F 
ATOM     68  C   UNL     1       5.059  -2.698  11.137  1.00  0.00     0.022 A 
BRANCH  66  69
ATOM     69  S   UNL     1       6.898  -1.767  12.956  1.00  0.00     0.127 S 
ATOM     70  O   UNL     1       6.306  -2.398  14.133  1.00  0.00    -0.237 OA
ATOM     71  O   UNL     1       7.780  -2.636  12.174  1.00  0.00    -0.237 OA
ATOM     72  O   UNL     1       7.423  -0.421  13.158  1.00  0.00    -0.744 OA
ENDBRANCH  66  69
ENDBRANCH  39  62
ENDBRANCH  13  14
ENDBRANCH   6   8
ENDBRANCH   3   4
ENDBRANCH   2   3
ENDBRANCH   1   2
BRANCH   1  73
ATOM     73  C   UNL     1       4.948  -3.849  -1.813  1.00  0.00     0.002 C 
BRANCH  73  74
ATOM     74  C   UNL     1       6.477  -3.839  -1.931  1.00  0.00     0.021 C 
BRANCH  74  75
ATOM     75  C   UNL     1       7.217  -4.848  -1.049  1.00  0.00     0.116 C 
BRANCH  75  76
ATOM     76  N   UNL     1       6.980  -6.219  -1.465  1.00  0.00    -0.352 N 
ATOM     77  C   UNL     1       7.884  -7.208  -1.756  1.00  0.00     0.251 C 
ATOM     78  H   UNL     1       6.033  -6.475  -1.550  1.00  0.00     0.163 HD
ATOM     79  O   UNL     1       7.503  -8.264  -2.256  1.00  0.00    -0.269 OA
BRANCH  77  80
ATOM     80  C   UNL     1       9.333  -7.003  -1.525  1.00  0.00     0.039 A 
ATOM     81  C   UNL     1      10.191  -7.215  -2.602  1.00  0.00     0.016 A 
ATOM     82  C   UNL     1       9.862  -6.650  -0.275  1.00  0.00     0.016 A 
ATOM     83  C   UNL     1      11.561  -7.001  -2.446  1.00  0.00     0.027 A 
ATOM     84  C   UNL     1      11.249  -6.451  -0.115  1.00  0.00     0.027 A 
ATOM     85  C   UNL     1      12.103  -6.597  -1.210  1.00  0.00     0.045 A 
BRANCH  85  86
ATOM     86  N   UNL     1      13.493  -6.254  -1.133  1.00  0.00    -0.299 N 
ATOM     87  C   UNL     1      13.991  -5.498  -2.247  1.00  0.00     0.259 C 
ATOM     88  C   UNL     1      14.486  -7.275  -0.713  1.00  0.00     0.152 C 
ATOM     89  C   UNL     1      15.312  -6.079  -2.652  1.00  0.00     0.248 C 
ATOM     90  O   UNL     1      13.414  -4.583  -2.825  1.00  0.00    -0.271 OA
ATOM     91  C   UNL     1      15.153  -7.409  -2.025  1.00  0.00     0.021 C 
ATOM     92  N   UNL     1      15.463  -6.433  -4.072  1.00  0.00    -0.170 NA
ATOM     93  C   UNL     1      15.446  -8.309  -2.958  1.00  0.00     0.097 C 
ATOM     94  N   UNL     1      15.669  -7.682  -4.169  1.00  0.00    -0.154 NA
BRANCH  88  95
ATOM     95  C   UNL     1      15.504  -6.814   0.354  1.00  0.00    -0.020 A 
ATOM     96  C   UNL     1      16.902  -6.855   0.105  1.00  0.00     0.006 A 
ATOM     97  C   UNL     1      15.104  -6.410   1.636  1.00  0.00     0.022 A 
ATOM     98  C   UNL     1      17.849  -6.474   1.056  1.00  0.00     0.002 A 
ATOM     99  C   UNL     1      16.064  -6.059   2.603  1.00  0.00     0.018 A 
ATOM    100  C   UNL     1      17.429  -6.080   2.316  1.00  0.00     0.016 A 
ATOM    101  Br  UNL     1      15.518  -5.575   4.349  1.00  0.00    -0.051 Br
ENDBRANCH  88  95
BRANCH  93 102
ATOM    102  C   UNL     1      15.391  -9.767  -2.906  1.00  0.00     0.002 A 
ATOM    103  C   UNL     1      16.463 -10.497  -2.375  1.00  0.00     0.010 A 
ATOM    104  C   UNL     1      14.366 -10.446  -3.576  1.00  0.00     0.010 A 
ATOM    105  C   UNL     1      16.548 -11.876  -2.589  1.00  0.00     0.001 A 
ATOM    106  C   UNL     1      14.451 -11.823  -3.784  1.00  0.00     0.001 A 
ATOM    107  C   UNL     1      15.554 -12.533  -3.313  1.00  0.00     0.000 A 
ENDBRANCH  93 102
ENDBRANCH  85  86
ENDBRANCH  77  80
ENDBRANCH  75  76
ENDBRANCH  74  75
ENDBRANCH  73  74
ENDBRANCH   1  73
TORSDOF 19
