REMARK SMILES Cc1ccc(S(=O)(=O)n2cc(C(=O)C(=O)N[C@@H](Cc3cnc[nH]3)C(=O)NCCCCCCNC(=O)c3ccc(-c4c5nc(c(-c6cccc(S(=O)(=O)[O-])c6F)c6ccc([nH]6)c(-c6cccc(S(=O)(=O)[O-])c6F)c6nc(c(-c7cccc(S(=O)(=O)[O-])c7F)c7ccc4[nH]7)C=C6)C=C5)cc3)c3ccccc32)cc1
REMARK SMILES IDX 28 1 27 2 26 3 24 4 25 5 17 7 16 8 14 9 15 10 12 12 13 13
REMARK SMILES IDX 11 14 9 15 10 16 104 17 99 18 103 19 100 20 102 21 101 22
REMARK SMILES IDX 6 23 7 24 8 25 5 26 1 27 2 28 3 29 106 30 4 31 105 32 18 33
REMARK SMILES IDX 19 34 20 35 23 36 21 37 22 38 29 40 30 41 31 42 32 43 33 44
REMARK SMILES IDX 34 45 35 47 36 48 37 49 98 50 38 51 97 52 39 53 40 54 41 55
REMARK SMILES IDX 91 56 42 57 96 58 90 59 92 60 43 61 95 62 89 63 88 64 44 66
REMARK SMILES IDX 76 67 56 68 75 69 57 70 60 71 74 72 93 73 58 74 59 75 73 77
REMARK SMILES IDX 94 78 61 79 45 80 46 81 54 82 47 83 49 84 55 85 48 86 50 87
REMARK SMILES IDX 51 88 52 89 53 90 77 91 78 92 86 93 79 94 81 95 87 96 80 97
REMARK SMILES IDX 82 98 83 99 84 100 85 101 62 102 63 103 71 104 64 105 66 106
REMARK SMILES IDX 72 107 65 108 67 109 68 110 69 111 70 112
REMARK H PARENT 26 6 16 11 23 39 33 46 92 65 60 76
REMARK Flexibility Score: inf
ROOT
ATOM      1  C   UNL     1      -7.897   5.664   7.325  1.00  0.00     0.021 C 
ENDROOT
BRANCH   1   2
ATOM      2  C   UNL     1      -8.332   6.205   5.974  1.00  0.00     0.116 C 
BRANCH   2   3
ATOM      3  N   UNL     1      -7.346   6.994   5.278  1.00  0.00    -0.354 N 
ATOM      4  C   UNL     1      -7.294   7.260   3.940  1.00  0.00     0.242 C 
ATOM      5  O   UNL     1      -6.798   8.343   3.606  1.00  0.00    -0.273 OA
ATOM      6  H   UNL     1      -6.630   7.384   5.830  1.00  0.00     0.163 HD
BRANCH   4   7
ATOM      7  C   UNL     1      -7.926   6.330   2.873  1.00  0.00     0.177 C 
BRANCH   7   8
ATOM      8  N   UNL     1      -7.665   4.901   3.091  1.00  0.00    -0.337 N 
ATOM      9  C   UNL     1      -6.763   4.042   2.502  1.00  0.00     0.293 C 
ATOM     10  O   UNL     1      -6.602   2.941   3.017  1.00  0.00    -0.265 OA
ATOM     11  H   UNL     1      -8.233   4.484   3.779  1.00  0.00     0.164 HD
BRANCH   9  12
ATOM     12  C   UNL     1      -6.008   4.415   1.204  1.00  0.00     0.252 C 
ATOM     13  O   UNL     1      -6.138   5.548   0.752  1.00  0.00    -0.283 OA
BRANCH  12  14
ATOM     14  C   UNL     1      -5.183   3.445   0.471  1.00  0.00     0.054 A 
ATOM     15  N   UNL     1      -4.139   1.589  -0.197  1.00  0.00    -0.240 N 
ATOM     16  C   UNL     1      -4.904   2.131   0.803  1.00  0.00     0.117 A 
ATOM     17  C   UNL     1      -3.881   2.512  -1.188  1.00  0.00     0.065 A 
ATOM     18  C   UNL     1      -4.499   3.699  -0.773  1.00  0.00     0.012 A 
ATOM     19  C   UNL     1      -3.152   2.439  -2.389  1.00  0.00     0.028 A 
ATOM     20  C   UNL     1      -4.364   4.846  -1.587  1.00  0.00     0.011 A 
ATOM     21  C   UNL     1      -3.027   3.597  -3.163  1.00  0.00     0.002 A 
ATOM     22  C   UNL     1      -3.623   4.787  -2.768  1.00  0.00     0.001 A 
BRANCH  15  23
ATOM     23  S   UNL     1      -3.553  -0.009  -0.179  1.00  0.00     0.268 S 
ATOM     24  O   UNL     1      -3.849  -0.534  -1.495  1.00  0.00    -0.201 OA
ATOM     25  O   UNL     1      -4.082  -0.615   1.032  1.00  0.00    -0.201 OA
BRANCH  23  26
ATOM     26  C   UNL     1      -1.789   0.053  -0.010  1.00  0.00     0.088 A 
ATOM     27  C   UNL     1       2.510  -0.044   0.032  1.00  0.00     0.044 C 
ATOM     28  C   UNL     1       1.011  -0.005   0.042  1.00  0.00    -0.051 A 
ATOM     29  C   UNL     1       0.282  -1.198  -0.036  1.00  0.00     0.005 A 
ATOM     30  C   UNL     1       0.323   1.212   0.133  1.00  0.00     0.005 A 
ATOM     31  C   UNL     1      -1.112  -1.171  -0.067  1.00  0.00     0.022 A 
ATOM     32  C   UNL     1      -1.074   1.244   0.122  1.00  0.00     0.022 A 
ENDBRANCH  23  26
ENDBRANCH  15  23
ENDBRANCH  12  14
ENDBRANCH   9  12
ENDBRANCH   7   8
BRANCH   7  33
ATOM     33  C   UNL     1      -9.388   6.651   2.509  1.00  0.00     0.090 C 
BRANCH  33  34
ATOM     34  C   UNL     1     -10.428   6.348   3.532  1.00  0.00     0.037 A 
ATOM     35  C   UNL     1     -10.989   5.167   3.974  1.00  0.00     0.134 A 
ATOM     36  N   UNL     1     -11.097   7.327   4.229  1.00  0.00    -0.348 N 
ATOM     37  N   UNL     1     -11.905   5.406   4.964  1.00  0.00    -0.245 NA
ATOM     38  C   UNL     1     -11.960   6.710   5.088  1.00  0.00     0.196 A 
ATOM     39  H   UNL     1     -10.975   8.299   4.127  1.00  0.00     0.167 HD
ENDBRANCH  33  34
ENDBRANCH   7  33
ENDBRANCH   4   7
ENDBRANCH   2   3
ENDBRANCH   1   2
BRANCH   1  40
ATOM     40  C   UNL     1      -7.840   6.691   8.459  1.00  0.00     0.002 C 
BRANCH  40  41
ATOM     41  C   UNL     1      -9.046   7.632   8.620  1.00  0.00     0.002 C 
BRANCH  41  42
ATOM     42  C   UNL     1     -10.438   7.016   8.497  1.00  0.00     0.021 C 
BRANCH  42  43
ATOM     43  C   UNL     1     -10.745   5.905   9.475  1.00  0.00     0.116 C 
BRANCH  43  44
ATOM     44  N   UNL     1     -11.360   6.361  10.700  1.00  0.00    -0.352 N 
ATOM     45  C   UNL     1     -12.031   5.616  11.653  1.00  0.00     0.251 C 
ATOM     46  H   UNL     1     -11.292   7.327  10.880  1.00  0.00     0.163 HD
ATOM     47  O   UNL     1     -12.766   6.202  12.442  1.00  0.00    -0.269 OA
BRANCH  45  48
ATOM     48  C   UNL     1     -11.710   4.171  11.825  1.00  0.00     0.039 A 
ATOM     49  C   UNL     1     -11.470   3.759  13.141  1.00  0.00     0.014 A 
ATOM     50  C   UNL     1     -11.260   3.391  10.765  1.00  0.00     0.014 A 
ATOM     51  C   UNL     1     -10.477   2.824  13.385  1.00  0.00     0.010 A 
ATOM     52  C   UNL     1     -10.213   2.539  10.993  1.00  0.00     0.010 A 
ATOM     53  C   UNL     1      -9.754   2.362  12.298  1.00  0.00    -0.014 A 
BRANCH  53  54
ATOM     54  C   UNL     1      -8.526   1.608  12.380  1.00  0.00     0.031 A 
ATOM     55  C   UNL     1      -8.646   0.162  12.621  1.00  0.00     0.074 A 
ATOM     56  C   UNL     1      -7.402   2.227  11.946  1.00  0.00     0.049 A 
ATOM     57  N   UNL     1      -7.690  -0.600  13.012  1.00  0.00    -0.248 NA
ATOM     58  C   UNL     1      -9.920  -0.538  12.462  1.00  0.00     0.031 C 
ATOM     59  C   UNL     1      -6.186   1.600  11.454  1.00  0.00     0.029 A 
ATOM     60  N   UNL     1      -7.089   3.596  11.926  1.00  0.00    -0.354 N 
ATOM     61  C   UNL     1      -8.123  -1.901  12.833  1.00  0.00     0.074 A 
ATOM     62  C   UNL     1      -9.548  -1.806  12.651  1.00  0.00     0.031 C 
ATOM     63  C   UNL     1      -5.199   2.514  11.448  1.00  0.00     0.029 A 
ATOM     64  C   UNL     1      -5.705   3.679  12.156  1.00  0.00     0.049 A 
ATOM     65  H   UNL     1      -7.712   4.345  11.780  1.00  0.00     0.167 HD
ATOM     66  C   UNL     1      -7.189  -2.876  12.646  1.00  0.00     0.034 A 
ATOM     67  C   UNL     1      -5.147   4.197  13.299  1.00  0.00     0.034 A 
ATOM     68  C   UNL     1      -5.840  -2.288  12.742  1.00  0.00     0.049 A 
ATOM     69  C   UNL     1      -4.341   3.161  14.077  1.00  0.00     0.074 A 
ATOM     70  C   UNL     1      -4.970  -1.814  11.773  1.00  0.00     0.029 A 
ATOM     71  N   UNL     1      -5.395  -1.770  13.954  1.00  0.00    -0.354 N 
ATOM     72  N   UNL     1      -4.354   1.883  13.813  1.00  0.00    -0.248 NA
ATOM     73  C   UNL     1      -3.490   3.471  15.225  1.00  0.00     0.031 C 
ATOM     74  C   UNL     1      -4.057  -0.925  12.402  1.00  0.00     0.029 A 
ATOM     75  C   UNL     1      -4.343  -0.884  13.757  1.00  0.00     0.049 A 
ATOM     76  H   UNL     1      -5.774  -2.001  14.833  1.00  0.00     0.167 HD
ATOM     77  C   UNL     1      -3.690   1.194  14.789  1.00  0.00     0.074 A 
ATOM     78  C   UNL     1      -3.088   2.242  15.598  1.00  0.00     0.031 C 
ATOM     79  C   UNL     1      -3.753  -0.172  14.890  1.00  0.00     0.034 A 
BRANCH  66  80
ATOM     80  C   UNL     1      -7.442  -4.252  12.037  1.00  0.00     0.023 A 
ATOM     81  C   UNL     1      -6.314  -4.928  11.514  1.00  0.00     0.012 A 
ATOM     82  C   UNL     1      -8.680  -4.926  11.886  1.00  0.00     0.148 A 
ATOM     83  C   UNL     1      -6.407  -6.139  10.819  1.00  0.00     0.002 A 
ATOM     84  C   UNL     1      -8.783  -6.118  11.155  1.00  0.00     0.091 A 
ATOM     85  F   UNL     1      -9.770  -4.471  12.504  1.00  0.00    -0.205 F 
ATOM     86  C   UNL     1      -7.646  -6.723  10.616  1.00  0.00     0.022 A 
BRANCH  84  87
ATOM     87  S   UNL     1     -10.359  -6.932  10.824  1.00  0.00     0.127 S 
ATOM     88  O   UNL     1     -10.329  -7.083   9.368  1.00  0.00    -0.237 OA
ATOM     89  O   UNL     1     -10.225  -8.185  11.565  1.00  0.00    -0.237 OA
ATOM     90  O   UNL     1     -11.397  -6.030  11.308  1.00  0.00    -0.744 OA
ENDBRANCH  84  87
ENDBRANCH  66  80
BRANCH  67  91
ATOM     91  C   UNL     1      -5.978   5.265  13.935  1.00  0.00     0.023 A 
ATOM     92  C   UNL     1      -6.213   6.434  13.174  1.00  0.00     0.012 A 
ATOM     93  C   UNL     1      -6.861   4.944  14.980  1.00  0.00     0.148 A 
ATOM     94  C   UNL     1      -7.418   7.126  13.296  1.00  0.00     0.002 A 
ATOM     95  C   UNL     1      -8.062   5.639  15.094  1.00  0.00     0.091 A 
ATOM     96  F   UNL     1      -6.554   3.929  15.796  1.00  0.00    -0.205 F 
ATOM     97  C   UNL     1      -8.369   6.688  14.214  1.00  0.00     0.022 A 
BRANCH  95  98
ATOM     98  S   UNL     1      -9.310   5.109  16.272  1.00  0.00     0.127 S 
ATOM     99  O   UNL     1      -8.942   5.875  17.458  1.00  0.00    -0.237 OA
ATOM    100  O   UNL     1     -10.555   5.532  15.635  1.00  0.00    -0.237 OA
ATOM    101  O   UNL     1      -9.143   3.665  16.356  1.00  0.00    -0.744 OA
ENDBRANCH  95  98
ENDBRANCH  67  91
BRANCH  79 102
ATOM    102  C   UNL     1      -3.252  -0.966  16.080  1.00  0.00     0.023 A 
ATOM    103  C   UNL     1      -3.120  -0.395  17.360  1.00  0.00     0.012 A 
ATOM    104  C   UNL     1      -3.018  -2.362  15.978  1.00  0.00     0.148 A 
ATOM    105  C   UNL     1      -2.674  -1.136  18.458  1.00  0.00     0.002 A 
ATOM    106  C   UNL     1      -2.702  -3.120  17.100  1.00  0.00     0.091 A 
ATOM    107  F   UNL     1      -3.078  -2.965  14.782  1.00  0.00    -0.205 F 
ATOM    108  C   UNL     1      -2.481  -2.503  18.333  1.00  0.00     0.022 A 
BRANCH 106 109
ATOM    109  S   UNL     1      -2.710  -4.917  17.050  1.00  0.00     0.127 S 
ATOM    110  O   UNL     1      -1.289  -5.220  16.902  1.00  0.00    -0.237 OA
ATOM    111  O   UNL     1      -3.274  -5.262  18.357  1.00  0.00    -0.237 OA
ATOM    112  O   UNL     1      -3.562  -5.269  15.922  1.00  0.00    -0.744 OA
ENDBRANCH 106 109
ENDBRANCH  79 102
ENDBRANCH  53  54
ENDBRANCH  45  48
ENDBRANCH  43  44
ENDBRANCH  42  43
ENDBRANCH  41  42
ENDBRANCH  40  41
ENDBRANCH   1  40
TORSDOF 23
