REMARK SMILES CC(C)(C[NH2+]CCc1cccnc1)C(=O)NCCCCCCNC(=O)c1ccc(-c2c3nc(c(-c4cccc(S(=O)(=O)[O-])c4F)c4ccc([nH]4)c(-c4cccc(S(=O)(=O)[O-])c4F)c4nc(c(-c5cccc(S(=O)(=O)[O-])c5F)c5ccc2[nH]5)C=C4)C=C3)cc1
REMARK SMILES IDX 18 1 17 2 16 3 14 4 15 5 2 7 1 8 3 9 4 10 5 11 6 14 7 15
REMARK SMILES IDX 8 16 9 17 13 18 10 19 12 20 11 21 19 22 20 23 21 24 22 25
REMARK SMILES IDX 23 26 24 27 25 29 26 30 27 31 88 32 28 33 87 34 29 35 30 36
REMARK SMILES IDX 31 37 81 38 32 39 86 40 80 41 82 42 33 43 85 44 79 45 78 46
REMARK SMILES IDX 34 48 66 49 46 50 65 51 47 52 50 53 64 54 83 55 48 56 49 57
REMARK SMILES IDX 63 59 84 60 51 61 35 62 36 63 44 64 37 65 39 66 45 67 38 68
REMARK SMILES IDX 40 69 41 70 42 71 43 72 67 73 68 74 76 75 69 76 71 77 77 78
REMARK SMILES IDX 70 79 72 80 73 81 74 82 75 83 52 84 53 85 61 86 54 87 56 88
REMARK SMILES IDX 62 89 55 90 57 91 58 92 59 93 60 94
REMARK H PARENT 16 6 5 12 5 13 23 28 82 47 50 58
REMARK Flexibility Score: inf
ROOT
ATOM      1  C   UNL     1      -1.316   4.502  -1.908  1.00  0.00     0.021 C 
ENDROOT
BRANCH   1   2
ATOM      2  C   UNL     1      -0.137   3.628  -2.331  1.00  0.00     0.116 C 
BRANCH   2   3
ATOM      3  N   UNL     1       0.780   3.412  -1.231  1.00  0.00    -0.355 N 
ATOM      4  C   UNL     1       1.091   2.303  -0.511  1.00  0.00     0.231 C 
ATOM      5  O   UNL     1       1.886   2.473   0.422  1.00  0.00    -0.274 OA
ATOM      6  H   UNL     1       1.269   4.220  -0.954  1.00  0.00     0.163 HD
BRANCH   4   7
ATOM      7  C   UNL     1       0.554   0.899  -0.862  1.00  0.00     0.092 C 
ATOM      8  C   UNL     1       1.131  -0.110   0.166  1.00  0.00     0.027 C 
ATOM      9  C   UNL     1       1.102   0.474  -2.238  1.00  0.00     0.027 C 
BRANCH   7  10
ATOM     10  C   UNL     1      -0.994   0.800  -0.832  1.00  0.00     0.276 C 
BRANCH  10  11
ATOM     11  N   UNL     1      -1.582   1.300   0.415  1.00  0.00    -0.345 N 
ATOM     12  H   UNL     1      -1.285   2.267   0.544  1.00  0.00     0.346 HD
ATOM     13  H   UNL     1      -1.257   0.686   1.161  1.00  0.00     0.346 HD
BRANCH  11  14
ATOM     14  C   UNL     1      -3.047   1.260   0.440  1.00  0.00     0.265 C 
BRANCH  14  15
ATOM     15  C   UNL     1      -3.714  -0.116   0.254  1.00  0.00     0.098 C 
BRANCH  15  16
ATOM     16  C   UNL     1      -3.256  -1.243   1.147  1.00  0.00    -0.024 A 
ATOM     17  C   UNL     1      -2.709  -1.059   2.419  1.00  0.00     0.007 A 
ATOM     18  C   UNL     1      -3.418  -2.560   0.717  1.00  0.00     0.114 A 
ATOM     19  C   UNL     1      -2.301  -2.161   3.167  1.00  0.00     0.020 A 
ATOM     20  N   UNL     1      -3.046  -3.650   1.427  1.00  0.00    -0.264 NA
ATOM     21  C   UNL     1      -2.489  -3.424   2.633  1.00  0.00     0.111 A 
ENDBRANCH  15  16
ENDBRANCH  14  15
ENDBRANCH  11  14
ENDBRANCH  10  11
ENDBRANCH   7  10
ENDBRANCH   4   7
ENDBRANCH   2   3
ENDBRANCH   1   2
BRANCH   1  22
ATOM     22  C   UNL     1      -0.939   5.962  -1.632  1.00  0.00     0.002 C 
BRANCH  22  23
ATOM     23  C   UNL     1      -0.214   6.671  -2.782  1.00  0.00     0.002 C 
BRANCH  23  24
ATOM     24  C   UNL     1      -0.930   6.606  -4.133  1.00  0.00     0.021 C 
BRANCH  24  25
ATOM     25  C   UNL     1      -2.329   7.210  -4.133  1.00  0.00     0.116 C 
BRANCH  25  26
ATOM     26  N   UNL     1      -2.305   8.633  -3.828  1.00  0.00    -0.352 N 
ATOM     27  C   UNL     1      -2.809   9.679  -4.557  1.00  0.00     0.251 C 
ATOM     28  H   UNL     1      -1.866   8.878  -2.981  1.00  0.00     0.163 HD
ATOM     29  O   UNL     1      -2.515  10.836  -4.264  1.00  0.00    -0.269 OA
BRANCH  27  30
ATOM     30  C   UNL     1      -3.697   9.405  -5.705  1.00  0.00     0.039 A 
ATOM     31  C   UNL     1      -3.480  10.076  -6.911  1.00  0.00     0.014 A 
ATOM     32  C   UNL     1      -4.735   8.476  -5.591  1.00  0.00     0.014 A 
ATOM     33  C   UNL     1      -4.271   9.773  -8.021  1.00  0.00     0.010 A 
ATOM     34  C   UNL     1      -5.469   8.120  -6.716  1.00  0.00     0.010 A 
ATOM     35  C   UNL     1      -5.251   8.769  -7.941  1.00  0.00    -0.014 A 
BRANCH  35  36
ATOM     36  C   UNL     1      -6.057   8.376  -9.125  1.00  0.00     0.031 A 
ATOM     37  C   UNL     1      -7.552   8.547  -9.109  1.00  0.00     0.074 A 
ATOM     38  C   UNL     1      -5.456   7.780 -10.173  1.00  0.00     0.049 A 
ATOM     39  N   UNL     1      -8.432   8.187 -10.005  1.00  0.00    -0.248 NA
ATOM     40  C   UNL     1      -8.137   9.181  -7.915  1.00  0.00     0.031 C 
ATOM     41  C   UNL     1      -4.023   7.497 -10.279  1.00  0.00     0.029 A 
ATOM     42  N   UNL     1      -5.979   7.276 -11.338  1.00  0.00    -0.354 N 
ATOM     43  C   UNL     1      -9.673   8.514  -9.472  1.00  0.00     0.074 A 
ATOM     44  C   UNL     1      -9.434   9.069  -8.158  1.00  0.00     0.031 C 
ATOM     45  C   UNL     1      -3.781   6.875 -11.443  1.00  0.00     0.029 A 
ATOM     46  C   UNL     1      -5.043   6.677 -12.149  1.00  0.00     0.049 A 
ATOM     47  H   UNL     1      -6.934   7.336 -11.570  1.00  0.00     0.167 HD
ATOM     48  C   UNL     1     -10.899   8.390 -10.034  1.00  0.00     0.034 A 
ATOM     49  C   UNL     1      -5.187   6.029 -13.322  1.00  0.00     0.034 A 
ATOM     50  C   UNL     1     -11.127   7.867 -11.354  1.00  0.00     0.049 A 
ATOM     51  C   UNL     1      -6.558   5.915 -13.932  1.00  0.00     0.074 A 
ATOM     52  C   UNL     1     -12.321   7.774 -12.046  1.00  0.00     0.029 A 
ATOM     53  N   UNL     1     -10.145   7.337 -12.177  1.00  0.00    -0.354 N 
ATOM     54  N   UNL     1      -7.703   6.362 -13.476  1.00  0.00    -0.248 NA
ATOM     55  C   UNL     1      -6.653   5.237 -15.233  1.00  0.00     0.031 C 
ATOM     56  C   UNL     1     -12.067   7.154 -13.274  1.00  0.00     0.029 A 
ATOM     57  C   UNL     1     -10.707   6.900 -13.364  1.00  0.00     0.049 A 
ATOM     58  H   UNL     1      -9.189   7.279 -11.950  1.00  0.00     0.167 HD
ATOM     59  C   UNL     1      -8.646   6.058 -14.451  1.00  0.00     0.074 A 
ATOM     60  C   UNL     1      -7.936   5.401 -15.529  1.00  0.00     0.031 C 
ATOM     61  C   UNL     1      -9.981   6.295 -14.450  1.00  0.00     0.034 A 
BRANCH  48  62
ATOM     62  C   UNL     1     -12.086   8.863  -9.236  1.00  0.00     0.023 A 
ATOM     63  C   UNL     1     -12.269  10.242  -9.003  1.00  0.00     0.012 A 
ATOM     64  C   UNL     1     -13.048   7.950  -8.759  1.00  0.00     0.148 A 
ATOM     65  C   UNL     1     -13.365  10.701  -8.274  1.00  0.00     0.002 A 
ATOM     66  C   UNL     1     -14.163   8.419  -8.076  1.00  0.00     0.091 A 
ATOM     67  F   UNL     1     -12.848   6.641  -8.972  1.00  0.00    -0.205 F 
ATOM     68  C   UNL     1     -14.316   9.792  -7.820  1.00  0.00     0.022 A 
BRANCH  66  69
ATOM     69  S   UNL     1     -15.486   7.338  -7.522  1.00  0.00     0.127 S 
ATOM     70  O   UNL     1     -15.309   7.375  -6.071  1.00  0.00    -0.237 OA
ATOM     71  O   UNL     1     -16.677   8.037  -8.008  1.00  0.00    -0.237 OA
ATOM     72  O   UNL     1     -15.240   6.047  -8.148  1.00  0.00    -0.744 OA
ENDBRANCH  66  69
ENDBRANCH  48  62
BRANCH  49  73
ATOM     73  C   UNL     1      -3.990   5.482 -14.022  1.00  0.00     0.023 A 
ATOM     74  C   UNL     1      -3.556   6.079 -15.221  1.00  0.00     0.012 A 
ATOM     75  C   UNL     1      -3.267   4.394 -13.496  1.00  0.00     0.148 A 
ATOM     76  C   UNL     1      -2.445   5.582 -15.903  1.00  0.00     0.002 A 
ATOM     77  C   UNL     1      -2.128   3.939 -14.149  1.00  0.00     0.091 A 
ATOM     78  F   UNL     1      -3.700   3.835 -12.357  1.00  0.00    -0.205 F 
ATOM     79  C   UNL     1      -1.726   4.519 -15.363  1.00  0.00     0.022 A 
BRANCH  77  80
ATOM     80  S   UNL     1      -1.067   2.662 -13.464  1.00  0.00     0.127 S 
ATOM     81  O   UNL     1      -1.272   1.565 -14.406  1.00  0.00    -0.237 OA
ATOM     82  O   UNL     1       0.250   3.297 -13.533  1.00  0.00    -0.237 OA
ATOM     83  O   UNL     1      -1.551   2.430 -12.110  1.00  0.00    -0.744 OA
ENDBRANCH  77  80
ENDBRANCH  49  73
BRANCH  61  84
ATOM     84  C   UNL     1     -10.768   5.891 -15.670  1.00  0.00     0.023 A 
ATOM     85  C   UNL     1     -11.018   4.530 -15.932  1.00  0.00     0.012 A 
ATOM     86  C   UNL     1     -11.336   6.873 -16.506  1.00  0.00     0.148 A 
ATOM     87  C   UNL     1     -11.798   4.152 -17.025  1.00  0.00     0.002 A 
ATOM     88  C   UNL     1     -12.156   6.491 -17.560  1.00  0.00     0.091 A 
ATOM     89  F   UNL     1     -11.072   8.162 -16.248  1.00  0.00    -0.205 F 
ATOM     90  C   UNL     1     -12.377   5.131 -17.829  1.00  0.00     0.022 A 
BRANCH  88  91
ATOM     91  S   UNL     1     -13.026   7.680 -18.587  1.00  0.00     0.127 S 
ATOM     92  O   UNL     1     -12.343   7.521 -19.871  1.00  0.00    -0.237 OA
ATOM     93  O   UNL     1     -14.396   7.169 -18.557  1.00  0.00    -0.237 OA
ATOM     94  O   UNL     1     -12.847   8.976 -17.946  1.00  0.00    -0.744 OA
ENDBRANCH  88  91
ENDBRANCH  61  84
ENDBRANCH  35  36
ENDBRANCH  27  30
ENDBRANCH  25  26
ENDBRANCH  24  25
ENDBRANCH  23  24
ENDBRANCH  22  23
ENDBRANCH   1  22
TORSDOF 21
