REMARK SMILES [NH3+]Cc1c(-c2ccccc2)c(C(=O)NCCCCCCNC(=O)c2ccc(-c3c4nc(c(-c5cccc(S(=O)(=O)[O-])c5F)c5ccc([nH]5)c(-c5cccc(S(=O)(=O)[O-])c5F)c5nc(c(-c6cccc(S(=O)(=O)[O-])c6F)c6ccc3[nH]6)C=C5)C=C4)cc2)c2ccccn12
REMARK SMILES IDX 18 1 17 2 16 3 15 4 14 5 12 6 13 7 11 9 3 10 4 11 92 12
REMARK SMILES IDX 87 13 91 14 88 15 90 16 89 17 2 18 1 19 5 23 6 24 10 25 7 26
REMARK SMILES IDX 9 27 8 28 19 29 20 30 21 31 22 32 23 34 24 35 25 36 86 37
REMARK SMILES IDX 26 38 85 39 27 40 28 41 29 42 79 43 30 44 84 45 78 46 80 47
REMARK SMILES IDX 31 48 83 49 77 50 76 51 32 53 64 54 44 55 63 56 45 57 48 58
REMARK SMILES IDX 62 59 81 60 46 61 47 62 61 64 82 65 49 66 33 67 34 68 42 69
REMARK SMILES IDX 35 70 37 71 43 72 36 73 38 74 39 75 40 76 41 77 65 78 66 79
REMARK SMILES IDX 74 80 67 81 69 82 75 83 68 84 70 85 71 86 72 87 73 88 50 89
REMARK SMILES IDX 51 90 59 91 52 92 54 93 60 94 53 95 55 96 56 97 57 98 58 99
REMARK H PARENT 14 8 1 20 1 21 1 22 21 33 80 52 48 63
REMARK Flexibility Score: inf
ROOT
ATOM      1  C   UNL     1       3.019   9.425   2.927  1.00  0.00     0.002 C 
ENDROOT
BRANCH   1   2
ATOM      2  C   UNL     1       2.681   8.614   4.181  1.00  0.00     0.002 C 
BRANCH   2   3
ATOM      3  C   UNL     1       1.622   7.517   4.041  1.00  0.00     0.021 C 
BRANCH   3   4
ATOM      4  C   UNL     1       1.800   6.529   2.893  1.00  0.00     0.116 C 
BRANCH   4   5
ATOM      5  N   UNL     1       3.003   5.734   2.946  1.00  0.00    -0.352 N 
ATOM      6  C   UNL     1       3.269   4.473   2.460  1.00  0.00     0.254 C 
ATOM      7  O   UNL     1       4.437   4.094   2.573  1.00  0.00    -0.269 OA
ATOM      8  H   UNL     1       3.759   6.164   3.407  1.00  0.00     0.163 HD
BRANCH   6   9
ATOM      9  C   UNL     1       2.223   3.591   1.921  1.00  0.00     0.073 A 
ATOM     10  C   UNL     1       1.071   1.644   1.459  1.00  0.00     0.086 A 
ATOM     11  C   UNL     1       2.229   2.149   2.040  1.00  0.00     0.022 A 
ATOM     12  N   UNL     1       0.334   2.727   1.014  1.00  0.00    -0.314 N 
ATOM     13  C   UNL     1       1.117   3.880   1.124  1.00  0.00     0.059 A 
ATOM     14  C   UNL     1      -0.969   2.747   0.498  1.00  0.00     0.092 A 
ATOM     15  C   UNL     1       0.617   5.039   0.450  1.00  0.00     0.027 A 
ATOM     16  C   UNL     1      -1.489   3.891   0.029  1.00  0.00     0.018 A 
ATOM     17  C   UNL     1      -0.640   5.062  -0.030  1.00  0.00     0.004 A 
BRANCH  10  18
ATOM     18  C   UNL     1       0.599   0.237   1.301  1.00  0.00     0.315 C 
BRANCH  18  19
ATOM     19  N   UNL     1       0.875  -0.237  -0.051  1.00  0.00    -0.353 N 
ATOM     20  H   UNL     1       0.549  -1.199  -0.147  1.00  0.00     0.344 HD
ATOM     21  H   UNL     1       1.879  -0.199  -0.226  1.00  0.00     0.344 HD
ATOM     22  H   UNL     1       0.390   0.356  -0.724  1.00  0.00     0.344 HD
ENDBRANCH  18  19
ENDBRANCH  10  18
BRANCH  11  23
ATOM     23  C   UNL     1       3.245   1.293   2.638  1.00  0.00    -0.016 A 
ATOM     24  C   UNL     1       3.476   1.317   4.017  1.00  0.00     0.009 A 
ATOM     25  C   UNL     1       4.033   0.467   1.824  1.00  0.00     0.009 A 
ATOM     26  C   UNL     1       4.487   0.528   4.573  1.00  0.00     0.001 A 
ATOM     27  C   UNL     1       5.034  -0.329   2.383  1.00  0.00     0.001 A 
ATOM     28  C   UNL     1       5.263  -0.295   3.757  1.00  0.00     0.000 A 
ENDBRANCH  11  23
ENDBRANCH   6   9
ENDBRANCH   4   5
ENDBRANCH   3   4
ENDBRANCH   2   3
ENDBRANCH   1   2
BRANCH   1  29
ATOM     29  C   UNL     1       1.847  10.054   2.171  1.00  0.00     0.021 C 
BRANCH  29  30
ATOM     30  C   UNL     1       0.884  10.895   3.002  1.00  0.00     0.116 C 
BRANCH  30  31
ATOM     31  N   UNL     1       1.540  11.994   3.690  1.00  0.00    -0.352 N 
ATOM     32  C   UNL     1       1.225  13.332   3.703  1.00  0.00     0.251 C 
ATOM     33  H   UNL     1       2.326  11.744   4.226  1.00  0.00     0.163 HD
ATOM     34  O   UNL     1       1.986  14.133   4.234  1.00  0.00    -0.269 OA
BRANCH  32  35
ATOM     35  C   UNL     1      -0.019  13.810   3.056  1.00  0.00     0.039 A 
ATOM     36  C   UNL     1       0.040  14.948   2.247  1.00  0.00     0.014 A 
ATOM     37  C   UNL     1      -1.235  13.149   3.246  1.00  0.00     0.014 A 
ATOM     38  C   UNL     1      -1.107  15.386   1.580  1.00  0.00     0.010 A 
ATOM     39  C   UNL     1      -2.358  13.541   2.521  1.00  0.00     0.010 A 
ATOM     40  C   UNL     1      -2.309  14.665   1.683  1.00  0.00    -0.014 A 
BRANCH  40  41
ATOM     41  C   UNL     1      -3.513  15.060   0.906  1.00  0.00     0.031 A 
ATOM     42  C   UNL     1      -4.776  15.472   1.612  1.00  0.00     0.074 A 
ATOM     43  C   UNL     1      -3.495  14.966  -0.439  1.00  0.00     0.049 A 
ATOM     44  N   UNL     1      -5.936  15.798   1.103  1.00  0.00    -0.248 NA
ATOM     45  C   UNL     1      -4.740  15.496   3.083  1.00  0.00     0.031 C 
ATOM     46  C   UNL     1      -2.356  14.509  -1.238  1.00  0.00     0.029 A 
ATOM     47  N   UNL     1      -4.470  15.224  -1.369  1.00  0.00    -0.354 N 
ATOM     48  C   UNL     1      -6.775  16.032   2.186  1.00  0.00     0.074 A 
ATOM     49  C   UNL     1      -6.000  15.777   3.381  1.00  0.00     0.031 C 
ATOM     50  C   UNL     1      -2.695  14.525  -2.537  1.00  0.00     0.029 A 
ATOM     51  C   UNL     1      -4.084  14.957  -2.662  1.00  0.00     0.049 A 
ATOM     52  H   UNL     1      -5.362  15.568  -1.134  1.00  0.00     0.167 HD
ATOM     53  C   UNL     1      -8.065  16.448   2.188  1.00  0.00     0.034 A 
ATOM     54  C   UNL     1      -4.771  15.037  -3.818  1.00  0.00     0.034 A 
ATOM     55  C   UNL     1      -8.822  16.729   0.998  1.00  0.00     0.049 A 
ATOM     56  C   UNL     1      -6.196  15.519  -3.791  1.00  0.00     0.074 A 
ATOM     57  C   UNL     1     -10.105  17.236   0.895  1.00  0.00     0.029 A 
ATOM     58  N   UNL     1      -8.375  16.512  -0.296  1.00  0.00    -0.354 N 
ATOM     59  N   UNL     1      -6.923  15.886  -2.764  1.00  0.00    -0.248 NA
ATOM     60  C   UNL     1      -6.885  15.631  -5.085  1.00  0.00     0.031 C 
ATOM     61  C   UNL     1     -10.447  17.291  -0.460  1.00  0.00     0.029 A 
ATOM     62  C   UNL     1      -9.362  16.857  -1.204  1.00  0.00     0.049 A 
ATOM     63  H   UNL     1      -7.485  16.164  -0.535  1.00  0.00     0.167 HD
ATOM     64  C   UNL     1      -8.140  16.305  -3.288  1.00  0.00     0.074 A 
ATOM     65  C   UNL     1      -8.044  16.166  -4.727  1.00  0.00     0.031 C 
ATOM     66  C   UNL     1      -9.241  16.755  -2.636  1.00  0.00     0.034 A 
BRANCH  53  67
ATOM     67  C   UNL     1      -8.729  16.659   3.525  1.00  0.00     0.023 A 
ATOM     68  C   UNL     1      -8.321  17.729   4.348  1.00  0.00     0.012 A 
ATOM     69  C   UNL     1      -9.788  15.831   3.946  1.00  0.00     0.148 A 
ATOM     70  C   UNL     1      -8.925  17.946   5.586  1.00  0.00     0.002 A 
ATOM     71  C   UNL     1     -10.419  16.084   5.159  1.00  0.00     0.091 A 
ATOM     72  F   UNL     1     -10.152  14.807   3.161  1.00  0.00    -0.205 F 
ATOM     73  C   UNL     1      -9.979  17.130   5.986  1.00  0.00     0.022 A 
BRANCH  71  74
ATOM     74  S   UNL     1     -11.839  15.143   5.728  1.00  0.00     0.127 S 
ATOM     75  O   UNL     1     -11.265  14.385   6.839  1.00  0.00    -0.237 OA
ATOM     76  O   UNL     1     -12.769  16.200   6.126  1.00  0.00    -0.237 OA
ATOM     77  O   UNL     1     -12.276  14.347   4.589  1.00  0.00    -0.744 OA
ENDBRANCH  71  74
ENDBRANCH  53  67
BRANCH  54  78
ATOM     78  C   UNL     1      -4.101  14.702  -5.106  1.00  0.00     0.023 A 
ATOM     79  C   UNL     1      -3.815  15.729  -6.027  1.00  0.00     0.012 A 
ATOM     80  C   UNL     1      -3.718  13.381  -5.410  1.00  0.00     0.148 A 
ATOM     81  C   UNL     1      -3.188  15.442  -7.240  1.00  0.00     0.002 A 
ATOM     82  C   UNL     1      -3.043  13.111  -6.594  1.00  0.00     0.091 A 
ATOM     83  F   UNL     1      -4.006  12.418  -4.523  1.00  0.00    -0.205 F 
ATOM     84  C   UNL     1      -2.793  14.136  -7.519  1.00  0.00     0.022 A 
BRANCH  82  85
ATOM     85  S   UNL     1      -2.381  11.486  -6.977  1.00  0.00     0.127 S 
ATOM     86  O   UNL     1      -3.213  11.083  -8.108  1.00  0.00    -0.237 OA
ATOM     87  O   UNL     1      -0.992  11.800  -7.313  1.00  0.00    -0.237 OA
ATOM     88  O   UNL     1      -2.542  10.696  -5.763  1.00  0.00    -0.744 OA
ENDBRANCH  82  85
ENDBRANCH  54  78
BRANCH  66  89
ATOM     89  C   UNL     1     -10.427  17.170  -3.469  1.00  0.00     0.023 A 
ATOM     90  C   UNL     1     -11.202  16.196  -4.129  1.00  0.00     0.012 A 
ATOM     91  C   UNL     1     -10.816  18.523  -3.535  1.00  0.00     0.148 A 
ATOM     92  C   UNL     1     -12.324  16.565  -4.870  1.00  0.00     0.002 A 
ATOM     93  C   UNL     1     -11.965  18.877  -4.231  1.00  0.00     0.091 A 
ATOM     94  F   UNL     1     -10.056  19.437  -2.915  1.00  0.00    -0.205 F 
ATOM     95  C   UNL     1     -12.712  17.902  -4.910  1.00  0.00     0.022 A 
BRANCH  93  96
ATOM     96  S   UNL     1     -12.598  20.558  -4.256  1.00  0.00     0.127 S 
ATOM     97  O   UNL     1     -12.354  20.947  -5.644  1.00  0.00    -0.237 OA
ATOM     98  O   UNL     1     -14.008  20.362  -3.917  1.00  0.00    -0.237 OA
ATOM     99  O   UNL     1     -11.832  21.293  -3.260  1.00  0.00    -0.744 OA
ENDBRANCH  93  96
ENDBRANCH  66  89
ENDBRANCH  40  41
ENDBRANCH  32  35
ENDBRANCH  30  31
ENDBRANCH  29  30
ENDBRANCH   1  29
TORSDOF 19
