REMARK SMILES COc1c(Cl)cc(C(=O)NCCCCCCNC(=O)c2ccc(-c3c4nc(c(-c5cccc(S(=O)(=O)[O-])c5F)c5ccc([nH]5)c(-c5cccc(S(=O)(=O)[O-])c5F)c5nc(c(-c6cccc(S(=O)(=O)[O-])c6F)c6ccc3[nH]6)C=C5)C=C4)cc2)cc1NC(=O)C(C)(C)Oc1ccc(Br)cc1
REMARK SMILES IDX 13 1 12 2 11 3 10 4 8 5 9 6 7 8 3 9 4 10 84 11 5 12 6 13
REMARK SMILES IDX 83 14 2 15 1 16 85 17 86 18 87 20 88 21 89 22 90 23 91 24
REMARK SMILES IDX 92 25 93 26 98 27 94 28 97 29 95 30 96 31 14 32 15 33 16 34
REMARK SMILES IDX 17 35 18 36 19 38 20 39 21 40 82 41 22 42 81 43 23 44 24 45
REMARK SMILES IDX 25 46 75 47 26 48 80 49 74 50 76 51 27 52 79 53 73 54 72 55
REMARK SMILES IDX 28 57 60 58 40 59 59 60 41 61 44 62 58 63 77 64 42 65 43 66
REMARK SMILES IDX 57 68 78 69 45 70 29 71 30 72 38 73 31 74 33 75 39 76 32 77
REMARK SMILES IDX 34 78 35 79 36 80 37 81 61 82 62 83 70 84 63 85 65 86 71 87
REMARK SMILES IDX 64 88 66 89 67 90 68 91 69 92 46 93 47 94 55 95 48 96 50 97
REMARK SMILES IDX 56 98 49 99 51 100 52 101 53 102 54 103
REMARK H PARENT 10 7 85 19 17 37 76 56 44 67
REMARK Flexibility Score: inf
ROOT
ATOM      1  C   UNL     1      -0.012  -6.860  -7.467  1.00  0.00     0.002 C 
ENDROOT
BRANCH   1   2
ATOM      2  C   UNL     1       0.049  -5.828  -6.330  1.00  0.00     0.021 C 
BRANCH   2   3
ATOM      3  C   UNL     1       0.737  -6.320  -5.050  1.00  0.00     0.116 C 
BRANCH   3   4
ATOM      4  N   UNL     1       2.063  -5.746  -4.881  1.00  0.00    -0.352 N 
ATOM      5  C   UNL     1       2.660  -4.757  -4.143  1.00  0.00     0.251 C 
ATOM      6  O   UNL     1       3.873  -4.626  -4.341  1.00  0.00    -0.269 OA
ATOM      7  H   UNL     1       2.719  -6.196  -5.462  1.00  0.00     0.163 HD
BRANCH   5   8
ATOM      8  C   UNL     1       2.027  -3.853  -3.123  1.00  0.00     0.043 A 
ATOM      9  C   UNL     1       1.061  -2.148  -1.063  1.00  0.00     0.160 A 
ATOM     10  C   UNL     1       2.419  -2.141  -1.423  1.00  0.00     0.086 A 
ATOM     11  C   UNL     1       0.172  -3.039  -1.706  1.00  0.00     0.086 A 
ATOM     12  Cl  UNL     1       3.617  -1.205  -0.599  1.00  0.00    -0.080 Cl
ATOM     13  C   UNL     1       2.886  -2.982  -2.439  1.00  0.00     0.038 A 
ATOM     14  C   UNL     1       0.679  -3.829  -2.759  1.00  0.00     0.044 A 
BRANCH   9  15
ATOM     15  O   UNL     1       0.553  -1.439   0.002  1.00  0.00    -0.493 OA
ATOM     16  C   UNL     1       0.694  -0.024  -0.116  1.00  0.00     0.278 C 
ENDBRANCH   9  15
BRANCH  11  17
ATOM     17  N   UNL     1      -1.168  -3.095  -1.198  1.00  0.00    -0.319 N 
ATOM     18  C   UNL     1      -2.252  -3.966  -1.274  1.00  0.00     0.268 C 
ATOM     19  H   UNL     1      -1.378  -2.306  -0.649  1.00  0.00     0.170 HD
ATOM     20  O   UNL     1      -3.273  -3.627  -0.669  1.00  0.00    -0.270 OA
BRANCH  18  21
ATOM     21  C   UNL     1      -2.185  -5.318  -2.068  1.00  0.00     0.181 C 
ATOM     22  C   UNL     1      -2.298  -4.826  -3.527  1.00  0.00     0.067 C 
ATOM     23  C   UNL     1      -0.949  -6.003  -1.447  1.00  0.00     0.067 C 
BRANCH  21  24
ATOM     24  O   UNL     1      -3.289  -6.256  -1.935  1.00  0.00    -0.478 OA
BRANCH  24  25
ATOM     25  C   UNL     1      -3.277  -7.435  -2.668  1.00  0.00     0.120 A 
ATOM     26  C   UNL     1      -4.454  -7.772  -3.344  1.00  0.00     0.047 A 
ATOM     27  C   UNL     1      -2.235  -8.374  -2.679  1.00  0.00     0.047 A 
ATOM     28  C   UNL     1      -4.586  -9.012  -3.997  1.00  0.00     0.019 A 
ATOM     29  C   UNL     1      -2.354  -9.605  -3.335  1.00  0.00     0.019 A 
ATOM     30  C   UNL     1      -3.540  -9.930  -3.975  1.00  0.00     0.018 A 
ATOM     31  Br  UNL     1      -3.706 -11.614  -4.819  1.00  0.00    -0.051 Br
ENDBRANCH  24  25
ENDBRANCH  21  24
ENDBRANCH  18  21
ENDBRANCH  11  17
ENDBRANCH   5   8
ENDBRANCH   3   4
ENDBRANCH   2   3
ENDBRANCH   1   2
BRANCH   1  32
ATOM     32  C   UNL     1      -0.726  -8.185  -7.163  1.00  0.00     0.002 C 
BRANCH  32  33
ATOM     33  C   UNL     1      -2.152  -8.083  -6.618  1.00  0.00     0.021 C 
BRANCH  33  34
ATOM     34  C   UNL     1      -3.244  -7.733  -7.625  1.00  0.00     0.116 C 
BRANCH  34  35
ATOM     35  N   UNL     1      -3.583  -8.875  -8.462  1.00  0.00    -0.352 N 
ATOM     36  C   UNL     1      -4.624  -9.772  -8.437  1.00  0.00     0.251 C 
ATOM     37  H   UNL     1      -2.939  -9.037  -9.189  1.00  0.00     0.163 HD
ATOM     38  O   UNL     1      -4.498 -10.801  -9.104  1.00  0.00    -0.269 OA
BRANCH  36  39
ATOM     39  C   UNL     1      -5.887  -9.566  -7.670  1.00  0.00     0.039 A 
ATOM     40  C   UNL     1      -6.606 -10.703  -7.268  1.00  0.00     0.014 A 
ATOM     41  C   UNL     1      -6.455  -8.311  -7.444  1.00  0.00     0.014 A 
ATOM     42  C   UNL     1      -7.858 -10.585  -6.643  1.00  0.00     0.010 A 
ATOM     43  C   UNL     1      -7.670  -8.190  -6.752  1.00  0.00     0.010 A 
ATOM     44  C   UNL     1      -8.405  -9.324  -6.369  1.00  0.00    -0.014 A 
BRANCH  44  45
ATOM     45  C   UNL     1      -9.756  -9.173  -5.745  1.00  0.00     0.031 A 
ATOM     46  C   UNL     1     -10.867  -8.471  -6.495  1.00  0.00     0.074 A 
ATOM     47  C   UNL     1      -9.990  -9.617  -4.492  1.00  0.00     0.049 A 
ATOM     48  N   UNL     1     -12.073  -8.157  -6.090  1.00  0.00    -0.248 NA
ATOM     49  C   UNL     1     -10.579  -8.051  -7.877  1.00  0.00     0.031 C 
ATOM     50  C   UNL     1      -9.012 -10.284  -3.631  1.00  0.00     0.029 A 
ATOM     51  N   UNL     1     -11.122  -9.547  -3.711  1.00  0.00    -0.354 N 
ATOM     52  C   UNL     1     -12.670  -7.474  -7.146  1.00  0.00     0.074 A 
ATOM     53  C   UNL     1     -11.683  -7.392  -8.200  1.00  0.00     0.031 C 
ATOM     54  C   UNL     1      -9.580 -10.553  -2.443  1.00  0.00     0.029 A 
ATOM     55  C   UNL     1     -10.950 -10.047  -2.439  1.00  0.00     0.049 A 
ATOM     56  H   UNL     1     -11.975  -9.175  -4.032  1.00  0.00     0.167 HD
ATOM     57  C   UNL     1     -13.930  -6.986  -7.248  1.00  0.00     0.034 A 
ATOM     58  C   UNL     1     -11.789 -10.079  -1.383  1.00  0.00     0.034 A 
ATOM     59  C   UNL     1     -14.935  -7.104  -6.226  1.00  0.00     0.049 A 
ATOM     60  C   UNL     1     -13.185  -9.525  -1.527  1.00  0.00     0.074 A 
ATOM     61  C   UNL     1     -16.256  -6.688  -6.266  1.00  0.00     0.029 A 
ATOM     62  N   UNL     1     -14.739  -7.682  -4.982  1.00  0.00    -0.354 N 
ATOM     63  N   UNL     1     -13.762  -8.994  -2.577  1.00  0.00    -0.248 NA
ATOM     64  C   UNL     1     -14.059  -9.609  -0.345  1.00  0.00     0.031 C 
ATOM     65  C   UNL     1     -16.851  -6.993  -5.039  1.00  0.00     0.029 A 
ATOM     66  C   UNL     1     -15.912  -7.631  -4.247  1.00  0.00     0.049 A 
ATOM     67  H   UNL     1     -13.891  -8.071  -4.668  1.00  0.00     0.167 HD
ATOM     68  C   UNL     1     -15.073  -8.726  -2.197  1.00  0.00     0.074 A 
ATOM     69  C   UNL     1     -15.214  -9.173  -0.829  1.00  0.00     0.031 C 
ATOM     70  C   UNL     1     -16.068  -8.145  -2.912  1.00  0.00     0.034 A 
BRANCH  57  71
ATOM     71  C   UNL     1     -14.329  -6.321  -8.543  1.00  0.00     0.023 A 
ATOM     72  C   UNL     1     -14.530  -7.110  -9.694  1.00  0.00     0.012 A 
ATOM     73  C   UNL     1     -14.600  -4.938  -8.598  1.00  0.00     0.148 A 
ATOM     74  C   UNL     1     -14.965  -6.532 -10.885  1.00  0.00     0.002 A 
ATOM     75  C   UNL     1     -15.077  -4.377  -9.777  1.00  0.00     0.091 A 
ATOM     76  F   UNL     1     -14.395  -4.203  -7.496  1.00  0.00    -0.205 F 
ATOM     77  C   UNL     1     -15.250  -5.170 -10.924  1.00  0.00     0.022 A 
BRANCH  75  78
ATOM     78  S   UNL     1     -15.552  -2.649  -9.912  1.00  0.00     0.127 S 
ATOM     79  O   UNL     1     -14.556  -2.143 -10.858  1.00  0.00    -0.237 OA
ATOM     80  O   UNL     1     -16.909  -2.746 -10.451  1.00  0.00    -0.237 OA
ATOM     81  O   UNL     1     -15.465  -2.098  -8.569  1.00  0.00    -0.744 OA
ENDBRANCH  75  78
ENDBRANCH  57  71
BRANCH  58  82
ATOM     82  C   UNL     1     -11.358 -10.682  -0.087  1.00  0.00     0.023 A 
ATOM     83  C   UNL     1     -11.983 -11.859   0.374  1.00  0.00     0.012 A 
ATOM     84  C   UNL     1     -10.363 -10.082   0.708  1.00  0.00     0.148 A 
ATOM     85  C   UNL     1     -11.666 -12.393   1.624  1.00  0.00     0.002 A 
ATOM     86  C   UNL     1     -10.008 -10.654   1.925  1.00  0.00     0.091 A 
ATOM     87  F   UNL     1      -9.789  -8.954   0.264  1.00  0.00    -0.205 F 
ATOM     88  C   UNL     1     -10.674 -11.796   2.395  1.00  0.00     0.022 A 
BRANCH  86  89
ATOM     89  S   UNL     1      -8.655 -10.024   2.924  1.00  0.00     0.127 S 
ATOM     90  O   UNL     1      -9.371  -9.393   4.032  1.00  0.00    -0.237 OA
ATOM     91  O   UNL     1      -7.939 -11.252   3.274  1.00  0.00    -0.237 OA
ATOM     92  O   UNL     1      -7.913  -9.126   2.052  1.00  0.00    -0.744 OA
ENDBRANCH  86  89
ENDBRANCH  58  82
BRANCH  70  93
ATOM     93  C   UNL     1     -17.422  -8.013  -2.263  1.00  0.00     0.023 A 
ATOM     94  C   UNL     1     -17.620  -7.089  -1.218  1.00  0.00     0.012 A 
ATOM     95  C   UNL     1     -18.519  -8.761  -2.739  1.00  0.00     0.148 A 
ATOM     96  C   UNL     1     -18.877  -6.937  -0.633  1.00  0.00     0.002 A 
ATOM     97  C   UNL     1     -19.779  -8.566  -2.187  1.00  0.00     0.091 A 
ATOM     98  F   UNL     1     -18.309  -9.647  -3.724  1.00  0.00    -0.205 F 
ATOM     99  C   UNL     1     -19.958  -7.666  -1.124  1.00  0.00     0.022 A 
BRANCH  97 100
ATOM    100  S   UNL     1     -21.248  -9.387  -2.819  1.00  0.00     0.127 S 
ATOM    101  O   UNL     1     -21.556 -10.321  -1.738  1.00  0.00    -0.237 OA
ATOM    102  O   UNL     1     -22.190  -8.275  -2.951  1.00  0.00    -0.237 OA
ATOM    103  O   UNL     1     -20.855 -10.000  -4.080  1.00  0.00    -0.744 OA
ENDBRANCH  97 100
ENDBRANCH  70  93
ENDBRANCH  44  45
ENDBRANCH  36  39
ENDBRANCH  34  35
ENDBRANCH  33  34
ENDBRANCH  32  33
ENDBRANCH   1  32
TORSDOF 21
