REMARK SMILES O=C(NCCCCCCNC(=O)[C@@H](Cc1ccc(O)cc1)Nc1c2ccccc2nc2ccccc12)c1ccc(-c2c3nc(c(-c4cccc(S(=O)(=O)[O-])c4F)c4ccc([nH]4)c(-c4cccc(S(=O)(=O)[O-])c4F)c4nc(c(-c5cccc(S(=O)(=O)[O-])c5F)c5ccc2[nH]5)C=C4)C=C3)cc1
REMARK SMILES IDX 6 1 5 2 4 3 3 4 1 5 2 6 37 8 38 9 99 10 39 11 98 12 40 13
REMARK SMILES IDX 41 14 42 15 92 16 43 17 97 18 91 19 93 20 44 21 96 22 90 23
REMARK SMILES IDX 89 24 45 26 77 27 57 28 76 29 58 30 61 31 75 32 94 33 59 34
REMARK SMILES IDX 60 35 74 37 95 38 62 39 46 40 47 41 55 42 48 43 50 44 56 45
REMARK SMILES IDX 49 46 51 47 52 48 53 49 54 50 78 51 79 52 87 53 80 54 82 55
REMARK SMILES IDX 88 56 81 57 83 58 84 59 85 60 86 61 63 62 64 63 72 64 65 65
REMARK SMILES IDX 67 66 73 67 66 68 68 69 69 70 70 71 71 72 7 73 8 74 9 75
REMARK SMILES IDX 10 76 11 77 12 79 13 80 14 81 15 82 16 83 21 84 17 85 20 86
REMARK SMILES IDX 18 87 19 88 22 90 23 92 24 93 36 94 25 95 29 96 31 97 35 98
REMARK SMILES IDX 26 99 28 100 30 101 32 102 34 103 27 104 33 105
REMARK H PARENT 3 7 93 25 61 36 10 78 19 89 22 91
REMARK Flexibility Score: inf
ROOT
ATOM      1  C   UNL     1       3.731   3.830   1.045  1.00  0.00     0.002 C 
ENDROOT
BRANCH   1   2
ATOM      2  C   UNL     1       4.408   2.776   0.163  1.00  0.00     0.021 C 
BRANCH   2   3
ATOM      3  C   UNL     1       4.329   1.353   0.706  1.00  0.00     0.116 C 
BRANCH   3   4
ATOM      4  N   UNL     1       2.953   0.887   0.750  1.00  0.00    -0.352 N 
ATOM      5  O   UNL     1       1.116  -0.128  -0.052  1.00  0.00    -0.269 OA
ATOM      6  C   UNL     1       2.341  -0.084  -0.002  1.00  0.00     0.251 C 
ATOM      7  H   UNL     1       2.377   1.332   1.414  1.00  0.00     0.163 HD
BRANCH   6   8
ATOM      8  C   UNL     1       3.158  -1.073  -0.742  1.00  0.00     0.039 A 
ATOM      9  C   UNL     1       4.291  -1.643  -0.152  1.00  0.00     0.014 A 
ATOM     10  C   UNL     1       2.741  -1.496  -2.008  1.00  0.00     0.014 A 
ATOM     11  C   UNL     1       5.052  -2.570  -0.856  1.00  0.00     0.010 A 
ATOM     12  C   UNL     1       3.464  -2.484  -2.683  1.00  0.00     0.010 A 
ATOM     13  C   UNL     1       4.624  -3.029  -2.111  1.00  0.00    -0.014 A 
BRANCH  13  14
ATOM     14  C   UNL     1       5.307  -4.193  -2.728  1.00  0.00     0.031 A 
ATOM     15  C   UNL     1       6.055  -4.075  -4.023  1.00  0.00     0.074 A 
ATOM     16  C   UNL     1       5.204  -5.385  -2.105  1.00  0.00     0.049 A 
ATOM     17  N   UNL     1       6.703  -5.003  -4.678  1.00  0.00    -0.248 NA
ATOM     18  C   UNL     1       6.078  -2.755  -4.674  1.00  0.00     0.031 C 
ATOM     19  C   UNL     1       4.446  -5.625  -0.872  1.00  0.00     0.029 A 
ATOM     20  N   UNL     1       5.713  -6.617  -2.423  1.00  0.00    -0.354 N 
ATOM     21  C   UNL     1       7.178  -4.397  -5.835  1.00  0.00     0.074 A 
ATOM     22  C   UNL     1       6.749  -3.015  -5.790  1.00  0.00     0.031 C 
ATOM     23  C   UNL     1       4.543  -6.919  -0.538  1.00  0.00     0.029 A 
ATOM     24  C   UNL     1       5.323  -7.611  -1.555  1.00  0.00     0.049 A 
ATOM     25  H   UNL     1       6.301  -6.775  -3.196  1.00  0.00     0.167 HD
ATOM     26  C   UNL     1       7.909  -4.947  -6.833  1.00  0.00     0.034 A 
ATOM     27  C   UNL     1       5.539  -8.939  -1.589  1.00  0.00     0.034 A 
ATOM     28  C   UNL     1       8.356  -6.316  -6.849  1.00  0.00     0.049 A 
ATOM     29  C   UNL     1       6.368  -9.508  -2.704  1.00  0.00     0.074 A 
ATOM     30  C   UNL     1       9.190  -6.935  -7.764  1.00  0.00     0.029 A 
ATOM     31  N   UNL     1       7.987  -7.284  -5.928  1.00  0.00    -0.354 N 
ATOM     32  N   UNL     1       6.963  -8.881  -3.689  1.00  0.00    -0.248 NA
ATOM     33  C   UNL     1       6.578 -10.962  -2.700  1.00  0.00     0.031 C 
ATOM     34  C   UNL     1       9.297  -8.285  -7.416  1.00  0.00     0.029 A 
ATOM     35  C   UNL     1       8.550  -8.502  -6.270  1.00  0.00     0.049 A 
ATOM     36  H   UNL     1       7.409  -7.128  -5.146  1.00  0.00     0.167 HD
ATOM     37  C   UNL     1       7.628  -9.860  -4.415  1.00  0.00     0.074 A 
ATOM     38  C   UNL     1       7.397 -11.116  -3.731  1.00  0.00     0.031 C 
ATOM     39  C   UNL     1       8.344  -9.736  -5.558  1.00  0.00     0.034 A 
BRANCH  26  40
ATOM     40  C   UNL     1       8.316  -4.073  -7.990  1.00  0.00     0.023 A 
ATOM     41  C   UNL     1       9.368  -3.150  -7.829  1.00  0.00     0.012 A 
ATOM     42  C   UNL     1       7.745  -4.260  -9.265  1.00  0.00     0.148 A 
ATOM     43  C   UNL     1       9.840  -2.418  -8.918  1.00  0.00     0.002 A 
ATOM     44  C   UNL     1       8.246  -3.553 -10.353  1.00  0.00     0.091 A 
ATOM     45  F   UNL     1       6.736  -5.132  -9.391  1.00  0.00    -0.205 F 
ATOM     46  C   UNL     1       9.289  -2.628 -10.180  1.00  0.00     0.022 A 
BRANCH  44  47
ATOM     47  S   UNL     1       7.658  -3.805 -12.032  1.00  0.00     0.127 S 
ATOM     48  O   UNL     1       7.026  -2.517 -12.317  1.00  0.00    -0.237 OA
ATOM     49  O   UNL     1       8.904  -4.046 -12.759  1.00  0.00    -0.237 OA
ATOM     50  O   UNL     1       6.751  -4.942 -11.976  1.00  0.00    -0.744 OA
ENDBRANCH  44  47
ENDBRANCH  26  40
BRANCH  27  51
ATOM     51  C   UNL     1       4.968  -9.815  -0.528  1.00  0.00     0.023 A 
ATOM     52  C   UNL     1       5.826 -10.461   0.381  1.00  0.00     0.012 A 
ATOM     53  C   UNL     1       3.576  -9.994  -0.404  1.00  0.00     0.148 A 
ATOM     54  C   UNL     1       5.311 -11.295   1.373  1.00  0.00     0.002 A 
ATOM     55  C   UNL     1       3.066 -10.776   0.625  1.00  0.00     0.091 A 
ATOM     56  F   UNL     1       2.773  -9.389  -1.291  1.00  0.00    -0.205 F 
ATOM     57  C   UNL     1       3.932 -11.444   1.503  1.00  0.00     0.022 A 
BRANCH  55  58
ATOM     58  S   UNL     1       1.302 -10.893   0.941  1.00  0.00     0.127 S 
ATOM     59  O   UNL     1       0.977 -12.188   0.349  1.00  0.00    -0.237 OA
ATOM     60  O   UNL     1       1.247 -10.852   2.403  1.00  0.00    -0.237 OA
ATOM     61  O   UNL     1       0.719  -9.726   0.292  1.00  0.00    -0.744 OA
ENDBRANCH  55  58
ENDBRANCH  27  51
BRANCH  39  62
ATOM     62  C   UNL     1       8.935 -10.991  -6.141  1.00  0.00     0.023 A 
ATOM     63  C   UNL     1       8.089 -11.932  -6.762  1.00  0.00     0.012 A 
ATOM     64  C   UNL     1      10.325 -11.211  -6.128  1.00  0.00     0.148 A 
ATOM     65  C   UNL     1       8.615 -13.091  -7.331  1.00  0.00     0.002 A 
ATOM     66  C   UNL     1      10.848 -12.344  -6.740  1.00  0.00     0.091 A 
ATOM     67  F   UNL     1      11.110 -10.312  -5.517  1.00  0.00    -0.205 F 
ATOM     68  C   UNL     1       9.994 -13.291  -7.330  1.00  0.00     0.022 A 
BRANCH  66  69
ATOM     69  S   UNL     1      12.614 -12.642  -6.871  1.00  0.00     0.127 S 
ATOM     70  O   UNL     1      12.798 -13.753  -5.939  1.00  0.00    -0.237 OA
ATOM     71  O   UNL     1      12.765 -12.996  -8.282  1.00  0.00    -0.237 OA
ATOM     72  O   UNL     1      13.261 -11.393  -6.489  1.00  0.00    -0.744 OA
ENDBRANCH  66  69
ENDBRANCH  39  62
ENDBRANCH  13  14
ENDBRANCH   6   8
ENDBRANCH   3   4
ENDBRANCH   2   3
ENDBRANCH   1   2
BRANCH   1  73
ATOM     73  C   UNL     1       4.264   3.927   2.482  1.00  0.00     0.002 C 
BRANCH  73  74
ATOM     74  C   UNL     1       5.780   4.105   2.589  1.00  0.00     0.021 C 
BRANCH  74  75
ATOM     75  C   UNL     1       6.292   5.424   2.011  1.00  0.00     0.116 C 
BRANCH  75  76
ATOM     76  N   UNL     1       6.522   6.391   3.061  1.00  0.00    -0.354 N 
ATOM     77  C   UNL     1       7.651   6.784   3.706  1.00  0.00     0.242 C 
ATOM     78  H   UNL     1       5.707   6.852   3.365  1.00  0.00     0.163 HD
ATOM     79  O   UNL     1       7.475   7.514   4.692  1.00  0.00    -0.273 OA
BRANCH  77  80
ATOM     80  C   UNL     1       9.096   6.394   3.283  1.00  0.00     0.173 C 
BRANCH  80  81
ATOM     81  C   UNL     1       9.492   4.931   3.615  1.00  0.00     0.070 C 
BRANCH  81  82
ATOM     82  C   UNL     1       9.170   3.731   2.745  1.00  0.00    -0.045 A 
ATOM     83  C   UNL     1       9.229   3.732   1.345  1.00  0.00     0.007 A 
ATOM     84  C   UNL     1       8.899   2.506   3.385  1.00  0.00     0.007 A 
ATOM     85  C   UNL     1       8.863   2.599   0.605  1.00  0.00     0.046 A 
ATOM     86  C   UNL     1       8.571   1.363   2.651  1.00  0.00     0.046 A 
ATOM     87  C   UNL     1       8.513   1.430   1.268  1.00  0.00     0.115 A 
BRANCH  87  88
ATOM     88  O   UNL     1       8.095   0.321   0.597  1.00  0.00    -0.508 OA
ATOM     89  H   UNL     1       8.044   0.331  -0.339  1.00  0.00     0.293 HD
ENDBRANCH  87  88
ENDBRANCH  81  82
ENDBRANCH  80  81
BRANCH  80  90
ATOM     90  N   UNL     1       9.405   6.827   1.916  1.00  0.00    -0.372 N 
ATOM     91  H   UNL     1       8.838   6.427   1.218  1.00  0.00     0.161 HD
BRANCH  90  92
ATOM     92  C   UNL     1      10.380   7.718   1.446  1.00  0.00     0.054 A 
ATOM     93  C   UNL     1      11.650   7.967   2.082  1.00  0.00     0.024 A 
ATOM     94  C   UNL     1      10.076   8.434   0.229  1.00  0.00     0.024 A 
ATOM     95  C   UNL     1      12.170   7.358   3.260  1.00  0.00     0.012 A 
ATOM     96  C   UNL     1      12.511   8.897   1.455  1.00  0.00     0.073 A 
ATOM     97  C   UNL     1      11.057   9.307  -0.281  1.00  0.00     0.073 A 
ATOM     98  C   UNL     1       8.857   8.346  -0.506  1.00  0.00     0.012 A 
ATOM     99  C   UNL     1      13.416   7.677   3.806  1.00  0.00     0.001 A 
ATOM    100  C   UNL     1      13.751   9.199   2.003  1.00  0.00     0.029 A 
ATOM    101  N   UNL     1      12.224   9.530   0.319  1.00  0.00    -0.248 NA
ATOM    102  C   UNL     1      10.834   9.995  -1.467  1.00  0.00     0.029 A 
ATOM    103  C   UNL     1       8.647   9.051  -1.694  1.00  0.00     0.001 A 
ATOM    104  C   UNL     1      14.213   8.608   3.175  1.00  0.00     0.002 A 
ATOM    105  C   UNL     1       9.646   9.873  -2.182  1.00  0.00     0.002 A 
ENDBRANCH  90  92
ENDBRANCH  80  90
ENDBRANCH  77  80
ENDBRANCH  75  76
ENDBRANCH  74  75
ENDBRANCH  73  74
ENDBRANCH   1  73
TORSDOF 21
