REMARK SMILES Cc1cc(C)cc(Oc2nc3ccccn3c(=O)c2/C=C2\SC(=S)N(CCC(=O)NCCCCCCNC(=O)c3ccc(-c4c5nc(c(-c6cccc(S(=O)(=O)[O-])c6F)c6ccc([nH]6)c(-c6cccc(S(=O)(=O)[O-])c6F)c6nc(c(-c7cccc(S(=O)(=O)[O-])c7F)c7ccc4[nH]7)C=C6)C=C5)cc3)C2=O)c1
REMARK SMILES IDX 32 1 31 2 30 3 28 4 29 5 27 7 26 8 25 9 20 10 21 11 22 12
REMARK SMILES IDX 103 13 23 14 104 15 24 16 19 17 9 18 10 19 11 20 17 21 12 22
REMARK SMILES IDX 16 23 18 24 13 25 15 26 14 27 8 28 7 29 1 30 2 31 3 32
REMARK SMILES IDX 105 33 4 34 5 35 6 36 33 37 34 38 35 39 36 40 37 41 38 42
REMARK SMILES IDX 39 44 40 45 41 46 102 47 42 48 101 49 43 50 44 51 45 52
REMARK SMILES IDX 95 53 46 54 100 55 94 56 96 57 47 58 99 59 93 60 92 61 48 63
REMARK SMILES IDX 80 64 60 65 79 66 61 67 64 68 78 69 97 70 62 71 63 72 77 74
REMARK SMILES IDX 98 75 65 76 49 77 50 78 58 79 51 80 53 81 59 82 52 83 54 84
REMARK SMILES IDX 55 85 56 86 57 87 81 88 82 89 90 90 83 91 85 92 91 93 84 94
REMARK SMILES IDX 86 95 87 96 88 97 89 98 66 99 67 100 75 101 68 102 70 103
REMARK SMILES IDX 76 104 69 105 71 106 72 107 73 108 74 109
REMARK H PARENT 30 6 37 43 96 62 64 73
REMARK Flexibility Score: inf
ROOT
ATOM      1  C   UNL     1       0.753  -1.252   3.253  1.00  0.00     0.021 C 
ENDROOT
BRANCH   1   2
ATOM      2  C   UNL     1       0.325   0.196   3.065  1.00  0.00     0.116 C 
BRANCH   2   3
ATOM      3  N   UNL     1       0.206   0.864   4.343  1.00  0.00    -0.356 N 
ATOM      4  C   UNL     1       1.130   1.579   5.046  1.00  0.00     0.221 C 
ATOM      5  O   UNL     1       0.890   1.824   6.230  1.00  0.00    -0.275 OA
ATOM      6  H   UNL     1      -0.678   0.791   4.771  1.00  0.00     0.163 HD
BRANCH   4   7
ATOM      7  C   UNL     1       2.389   2.124   4.389  1.00  0.00     0.122 C 
BRANCH   7   8
ATOM      8  C   UNL     1       3.676   1.353   4.729  1.00  0.00     0.137 C 
BRANCH   8   9
ATOM      9  N   UNL     1       4.176   0.562   3.593  1.00  0.00    -0.292 N 
ATOM     10  C   UNL     1       3.425  -2.297   1.640  1.00  0.00     0.041 C 
ATOM     11  C   UNL     1       4.112  -1.266   2.150  1.00  0.00     0.081 C 
ATOM     12  S   UNL     1       5.152  -0.190   1.323  1.00  0.00    -0.054 SA
ATOM     13  C   UNL     1       3.949  -0.798   3.550  1.00  0.00     0.266 C 
ATOM     14  C   UNL     1       4.929   1.059   2.546  1.00  0.00     0.148 C 
ATOM     15  O   UNL     1       3.658  -1.520   4.492  1.00  0.00    -0.268 OA
ATOM     16  S   UNL     1       5.541   2.598   2.360  1.00  0.00    -0.052 S 
BRANCH  10  17
ATOM     17  C   UNL     1       3.562  -2.835   0.292  1.00  0.00     0.104 A 
ATOM     18  C   UNL     1       2.652  -2.749  -0.732  1.00  0.00     0.234 A 
ATOM     19  N   UNL     1       2.696  -3.456  -1.902  1.00  0.00    -0.194 NA
ATOM     20  C   UNL     1       3.195  -4.622  -1.730  1.00  0.00     0.143 A 
ATOM     21  C   UNL     1       4.698  -3.845   0.254  1.00  0.00     0.269 A 
ATOM     22  C   UNL     1       2.382  -6.197  -2.506  1.00  0.00     0.048 A 
ATOM     23  N   UNL     1       4.372  -4.913  -0.528  1.00  0.00    -0.267 N 
ATOM     24  O   UNL     1       5.609  -3.828   1.078  1.00  0.00    -0.268 OA
ATOM     25  C   UNL     1       2.990  -7.827  -1.847  1.00  0.00     0.005 A 
ATOM     26  C   UNL     1       4.928  -6.472  -0.030  1.00  0.00     0.096 A 
ATOM     27  C   UNL     1       4.357  -7.781  -0.535  1.00  0.00     0.019 A 
BRANCH  18  28
ATOM     28  O   UNL     1       1.331  -2.328  -0.546  1.00  0.00    -0.438 OA
BRANCH  28  29
ATOM     29  C   UNL     1       0.901  -1.046  -0.733  1.00  0.00     0.130 A 
ATOM     30  C   UNL     1       2.506   2.251  -0.301  1.00  0.00     0.044 C 
ATOM     31  C   UNL     1       1.417   1.258  -0.526  1.00  0.00    -0.047 A 
ATOM     32  C   UNL     1       0.064   1.554  -0.306  1.00  0.00     0.007 A 
ATOM     33  C   UNL     1       1.807  -0.027  -0.867  1.00  0.00     0.050 A 
ATOM     34  C   UNL     1      -0.907   0.546  -0.362  1.00  0.00    -0.047 A 
ATOM     35  C   UNL     1      -2.352   0.893  -0.129  1.00  0.00     0.044 C 
ATOM     36  C   UNL     1      -0.471  -0.771  -0.556  1.00  0.00     0.050 A 
ENDBRANCH  28  29
ENDBRANCH  18  28
ENDBRANCH  10  17
ENDBRANCH   8   9
ENDBRANCH   7   8
ENDBRANCH   4   7
ENDBRANCH   2   3
ENDBRANCH   1   2
BRANCH   1  37
ATOM     37  C   UNL     1      -0.235  -2.365   3.637  1.00  0.00     0.002 C 
BRANCH  37  38
ATOM     38  C   UNL     1      -1.031  -3.031   2.497  1.00  0.00     0.002 C 
BRANCH  38  39
ATOM     39  C   UNL     1      -0.197  -3.678   1.386  1.00  0.00     0.021 C 
BRANCH  39  40
ATOM     40  C   UNL     1       0.513  -5.025   1.531  1.00  0.00     0.116 C 
BRANCH  40  41
ATOM     41  N   UNL     1      -0.227  -6.131   0.944  1.00  0.00    -0.352 N 
ATOM     42  C   UNL     1      -0.043  -6.978  -0.127  1.00  0.00     0.251 C 
ATOM     43  H   UNL     1      -1.062  -6.321   1.431  1.00  0.00     0.163 HD
ATOM     44  O   UNL     1      -0.974  -7.741  -0.397  1.00  0.00    -0.269 OA
BRANCH  42  45
ATOM     45  C   UNL     1       1.139  -7.045  -1.021  1.00  0.00     0.039 A 
ATOM     46  C   UNL     1       0.889  -7.793  -2.631  1.00  0.00     0.014 A 
ATOM     47  C   UNL     1       2.770  -6.350  -0.683  1.00  0.00     0.014 A 
ATOM     48  C   UNL     1       2.145  -7.853  -3.921  1.00  0.00     0.010 A 
ATOM     49  C   UNL     1       4.195  -6.385  -2.140  1.00  0.00     0.010 A 
ATOM     50  C   UNL     1       3.783  -7.165  -3.728  1.00  0.00    -0.014 A 
BRANCH  50  51
ATOM     51  C   UNL     1       4.753  -7.255  -4.817  1.00  0.00     0.031 A 
ATOM     52  C   UNL     1       5.902  -8.194  -4.681  1.00  0.00     0.074 A 
ATOM     53  C   UNL     1       4.534  -6.529  -5.924  1.00  0.00     0.049 A 
ATOM     54  N   UNL     1       6.811  -8.530  -5.551  1.00  0.00    -0.248 NA
ATOM     55  C   UNL     1       6.055  -8.856  -3.381  1.00  0.00     0.031 C 
ATOM     56  C   UNL     1       3.459  -5.550  -6.102  1.00  0.00     0.029 A 
ATOM     57  N   UNL     1       5.203  -6.509  -7.115  1.00  0.00    -0.354 N 
ATOM     58  C   UNL     1       7.630  -9.444  -4.897  1.00  0.00     0.074 A 
ATOM     59  C   UNL     1       7.166  -9.553  -3.539  1.00  0.00     0.031 C 
ATOM     60  C   UNL     1       3.523  -5.047  -7.346  1.00  0.00     0.029 A 
ATOM     61  C   UNL     1       4.659  -5.645  -8.035  1.00  0.00     0.049 A 
ATOM     62  H   UNL     1       5.998  -7.060  -7.297  1.00  0.00     0.167 HD
ATOM     63  C   UNL     1       8.647 -10.170  -5.407  1.00  0.00     0.034 A 
ATOM     64  C   UNL     1       5.056  -5.380  -9.293  1.00  0.00     0.034 A 
ATOM     65  C   UNL     1       9.077 -10.033  -6.765  1.00  0.00     0.049 A 
ATOM     66  C   UNL     1       6.229  -6.159  -9.821  1.00  0.00     0.074 A 
ATOM     67  C   UNL     1      10.091 -10.697  -7.425  1.00  0.00     0.029 A 
ATOM     68  N   UNL     1       8.514  -9.141  -7.668  1.00  0.00    -0.354 N 
ATOM     69  N   UNL     1       6.940  -7.089  -9.224  1.00  0.00    -0.248 NA
ATOM     70  C   UNL     1       6.631  -5.887 -11.204  1.00  0.00     0.031 C 
ATOM     71  C   UNL     1      10.178 -10.161  -8.713  1.00  0.00     0.029 A 
ATOM     72  C   UNL     1       9.169  -9.222  -8.878  1.00  0.00     0.049 A 
ATOM     73  H   UNL     1       7.759  -8.541  -7.472  1.00  0.00     0.167 HD
ATOM     74  C   UNL     1       7.846  -7.544 -10.172  1.00  0.00     0.074 A 
ATOM     75  C   UNL     1       7.567  -6.805 -11.390  1.00  0.00     0.031 C 
ATOM     76  C   UNL     1       8.826  -8.476 -10.060  1.00  0.00     0.034 A 
BRANCH  63  77
ATOM     77  C   UNL     1       9.336 -11.147  -4.494  1.00  0.00     0.023 A 
ATOM     78  C   UNL     1       8.651 -12.289  -4.024  1.00  0.00     0.012 A 
ATOM     79  C   UNL     1      10.669 -10.933  -4.102  1.00  0.00     0.148 A 
ATOM     80  C   UNL     1       9.271 -13.179  -3.146  1.00  0.00     0.002 A 
ATOM     81  C   UNL     1      11.297 -11.851  -3.271  1.00  0.00     0.091 A 
ATOM     82  F   UNL     1      11.291  -9.829  -4.536  1.00  0.00    -0.205 F 
ATOM     83  C   UNL     1      10.596 -12.966  -2.780  1.00  0.00     0.022 A 
BRANCH  81  84
ATOM     84  S   UNL     1      13.020 -11.700  -2.793  1.00  0.00     0.127 S 
ATOM     85  O   UNL     1      12.914 -11.589  -1.338  1.00  0.00    -0.237 OA
ATOM     86  O   UNL     1      13.576 -12.966  -3.270  1.00  0.00    -0.237 OA
ATOM     87  O   UNL     1      13.525 -10.512  -3.465  1.00  0.00    -0.744 OA
ENDBRANCH  81  84
ENDBRANCH  63  77
BRANCH  64  88
ATOM     88  C   UNL     1       4.345  -4.370 -10.126  1.00  0.00     0.023 A 
ATOM     89  C   UNL     1       3.677  -4.758 -11.304  1.00  0.00     0.012 A 
ATOM     90  C   UNL     1       4.348  -3.010  -9.760  1.00  0.00     0.148 A 
ATOM     91  C   UNL     1       3.078  -3.805 -12.130  1.00  0.00     0.002 A 
ATOM     92  C   UNL     1       3.702  -2.073 -10.557  1.00  0.00     0.091 A 
ATOM     93  F   UNL     1       4.988  -2.657  -8.636  1.00  0.00    -0.205 F 
ATOM     94  C   UNL     1       3.086  -2.464 -11.755  1.00  0.00     0.022 A 
BRANCH  92  95
ATOM     95  S   UNL     1       3.575  -0.343 -10.094  1.00  0.00     0.127 S 
ATOM     96  O   UNL     1       4.408   0.298 -11.108  1.00  0.00    -0.237 OA
ATOM     97  O   UNL     1       2.138  -0.101 -10.233  1.00  0.00    -0.237 OA
ATOM     98  O   UNL     1       4.071  -0.261  -8.727  1.00  0.00    -0.744 OA
ENDBRANCH  92  95
ENDBRANCH  64  88
BRANCH  76  99
ATOM     99  C   UNL     1       9.609  -8.781 -11.304  1.00  0.00     0.023 A 
ATOM    100  C   UNL     1      10.480  -7.822 -11.855  1.00  0.00     0.012 A 
ATOM    101  C   UNL     1       9.496 -10.050 -11.903  1.00  0.00     0.148 A 
ATOM    102  C   UNL     1      11.175  -8.099 -13.028  1.00  0.00     0.002 A 
ATOM    103  C   UNL     1      10.248 -10.344 -13.028  1.00  0.00     0.091 A 
ATOM    104  F   UNL     1       8.655 -10.943 -11.360  1.00  0.00    -0.205 F 
ATOM    105  C   UNL     1      11.067  -9.362 -13.608  1.00  0.00     0.022 A 
BRANCH 103 106
ATOM    106  S   UNL     1      10.261 -11.977 -13.767  1.00  0.00     0.127 S 
ATOM    107  O   UNL     1       9.571 -11.734 -15.032  1.00  0.00    -0.237 OA
ATOM    108  O   UNL     1      11.694 -12.243 -13.892  1.00  0.00    -0.237 OA
ATOM    109  O   UNL     1       9.562 -12.851 -12.834  1.00  0.00    -0.744 OA
ENDBRANCH 103 106
ENDBRANCH  76  99
ENDBRANCH  50  51
ENDBRANCH  42  45
ENDBRANCH  40  41
ENDBRANCH  39  40
ENDBRANCH  38  39
ENDBRANCH  37  38
ENDBRANCH   1  37
TORSDOF 21
