REMARK SMILES CCOc1cc2nccc(Nc3ccc(C(=O)NCCCCCCNC(=O)c4ccc(-c5c6nc(c(-c7cccc(S(=O)(=O)[O-])c7F)c7ccc([nH]7)c(-c7cccc(S(=O)(=O)[O-])c7F)c7nc(c(-c8cccc(S(=O)(=O)[O-])c8F)c8ccc5[nH]8)C=C7)C=C6)cc4)cc3)c2cc1OCC
REMARK SMILES IDX 21 1 20 2 19 3 18 4 16 5 17 6 15 8 12 9 13 10 92 11 14 12
REMARK SMILES IDX 91 13 11 14 10 16 4 17 5 18 95 19 6 20 94 21 7 22 93 23 8 24
REMARK SMILES IDX 9 25 3 26 2 27 1 28 96 29 97 30 98 31 22 32 23 33 24 34
REMARK SMILES IDX 25 35 26 36 27 38 28 39 29 40 90 41 30 42 89 43 31 44 32 45
REMARK SMILES IDX 33 46 83 47 34 48 88 49 82 50 84 51 35 52 87 53 81 54 80 55
REMARK SMILES IDX 36 57 68 58 48 59 67 60 49 61 52 62 66 63 85 64 50 65 51 66
REMARK SMILES IDX 65 68 86 69 53 70 37 71 38 72 46 73 39 74 41 75 47 76 40 77
REMARK SMILES IDX 42 78 43 79 44 80 45 81 69 82 70 83 78 84 71 85 73 86 79 87
REMARK SMILES IDX 72 88 74 89 75 90 76 91 77 92 54 93 55 94 63 95 56 96 58 97
REMARK SMILES IDX 64 98 57 99 59 100 60 101 61 102 62 103
REMARK H PARENT 18 7 11 15 25 37 84 56 52 67
REMARK Flexibility Score: inf
ROOT
ATOM      1  C   UNL     1      15.261   0.347  -4.387  1.00  0.00     0.002 C 
ENDROOT
BRANCH   1   2
ATOM      2  C   UNL     1      13.767   0.231  -4.056  1.00  0.00     0.021 C 
BRANCH   2   3
ATOM      3  C   UNL     1      13.254  -1.205  -4.178  1.00  0.00     0.116 C 
BRANCH   3   4
ATOM      4  N   UNL     1      13.636  -1.947  -2.992  1.00  0.00    -0.352 N 
ATOM      5  C   UNL     1      12.933  -2.302  -1.873  1.00  0.00     0.251 C 
ATOM      6  O   UNL     1      13.537  -2.875  -0.966  1.00  0.00    -0.269 OA
ATOM      7  H   UNL     1      14.572  -2.252  -2.992  1.00  0.00     0.163 HD
BRANCH   5   8
ATOM      8  C   UNL     1      11.462  -2.115  -1.763  1.00  0.00     0.039 A 
ATOM      9  C   UNL     1       8.652  -2.078  -1.658  1.00  0.00     0.038 A 
ATOM     10  C   UNL     1       9.375  -3.072  -0.992  1.00  0.00     0.027 A 
ATOM     11  C   UNL     1       9.344  -1.073  -2.330  1.00  0.00     0.027 A 
ATOM     12  C   UNL     1      10.767  -3.099  -1.052  1.00  0.00     0.016 A 
ATOM     13  C   UNL     1      10.743  -1.059  -2.331  1.00  0.00     0.016 A 
BRANCH   9  14
ATOM     14  N   UNL     1       7.257  -2.129  -1.626  1.00  0.00    -0.355 N 
ATOM     15  H   UNL     1       6.881  -2.171  -0.717  1.00  0.00     0.167 HD
BRANCH  14  16
ATOM     16  C   UNL     1       6.280  -2.131  -2.648  1.00  0.00     0.050 A 
ATOM     17  C   UNL     1       2.220  -1.524  -1.625  1.00  0.00     0.163 A 
ATOM     18  C   UNL     1       2.592  -1.838  -2.941  1.00  0.00     0.079 A 
ATOM     19  C   UNL     1       3.211  -1.326  -0.667  1.00  0.00     0.161 A 
ATOM     20  C   UNL     1       3.933  -2.003  -3.308  1.00  0.00     0.076 A 
ATOM     21  C   UNL     1       4.541  -1.510  -1.014  1.00  0.00     0.063 A 
ATOM     22  N   UNL     1       4.251  -2.307  -4.578  1.00  0.00    -0.256 NA
ATOM     23  C   UNL     1       4.926  -1.876  -2.314  1.00  0.00     0.028 A 
ATOM     24  C   UNL     1       5.560  -2.470  -4.891  1.00  0.00     0.114 A 
ATOM     25  C   UNL     1       6.596  -2.389  -3.977  1.00  0.00     0.047 A 
BRANCH  17  26
ATOM     26  O   UNL     1       0.916  -1.556  -1.214  1.00  0.00    -0.490 OA
BRANCH  26  27
ATOM     27  C   UNL     1       0.039  -0.639  -1.872  1.00  0.00     0.226 C 
ATOM     28  C   UNL     1      -0.996  -0.195  -0.843  1.00  0.00     0.049 C 
ENDBRANCH  26  27
ENDBRANCH  17  26
BRANCH  19  29
ATOM     29  O   UNL     1       3.045  -0.982   0.644  1.00  0.00    -0.490 OA
BRANCH  29  30
ATOM     30  C   UNL     1       2.130   0.075   0.921  1.00  0.00     0.226 C 
ATOM     31  C   UNL     1       2.356   1.348   0.112  1.00  0.00     0.049 C 
ENDBRANCH  29  30
ENDBRANCH  19  29
ENDBRANCH  14  16
ENDBRANCH   9  14
ENDBRANCH   5   8
ENDBRANCH   3   4
ENDBRANCH   2   3
ENDBRANCH   1   2
BRANCH   1  32
ATOM     32  C   UNL     1      15.612  -0.005  -5.838  1.00  0.00     0.002 C 
BRANCH  32  33
ATOM     33  C   UNL     1      14.855   0.808  -6.891  1.00  0.00     0.021 C 
BRANCH  33  34
ATOM     34  C   UNL     1      15.103   2.311  -6.808  1.00  0.00     0.116 C 
BRANCH  34  35
ATOM     35  N   UNL     1      16.502   2.632  -7.057  1.00  0.00    -0.352 N 
ATOM     36  C   UNL     1      17.050   3.406  -8.049  1.00  0.00     0.251 C 
ATOM     37  H   UNL     1      17.145   2.238  -6.424  1.00  0.00     0.163 HD
ATOM     38  O   UNL     1      18.255   3.365  -8.269  1.00  0.00    -0.269 OA
BRANCH  36  39
ATOM     39  C   UNL     1      16.174   4.283  -8.853  1.00  0.00     0.039 A 
ATOM     40  C   UNL     1      16.328   4.308 -10.241  1.00  0.00     0.014 A 
ATOM     41  C   UNL     1      15.199   5.071  -8.235  1.00  0.00     0.014 A 
ATOM     42  C   UNL     1      15.459   5.078 -11.015  1.00  0.00     0.010 A 
ATOM     43  C   UNL     1      14.289   5.779  -9.013  1.00  0.00     0.010 A 
ATOM     44  C   UNL     1      14.409   5.790 -10.411  1.00  0.00    -0.014 A 
BRANCH  44  45
ATOM     45  C   UNL     1      13.399   6.508 -11.227  1.00  0.00     0.031 A 
ATOM     46  C   UNL     1      13.232   7.997 -11.104  1.00  0.00     0.074 A 
ATOM     47  C   UNL     1      12.556   5.798 -12.002  1.00  0.00     0.049 A 
ATOM     48  N   UNL     1      12.364   8.778 -11.693  1.00  0.00    -0.248 NA
ATOM     49  C   UNL     1      14.139   8.695 -10.180  1.00  0.00     0.031 C 
ATOM     50  C   UNL     1      12.556   4.339 -12.130  1.00  0.00     0.029 A 
ATOM     51  N   UNL     1      11.513   6.201 -12.797  1.00  0.00    -0.354 N 
ATOM     52  C   UNL     1      12.592  10.050 -11.184  1.00  0.00     0.074 A 
ATOM     53  C   UNL     1      13.663   9.931 -10.217  1.00  0.00     0.031 C 
ATOM     54  C   UNL     1      11.557   3.969 -12.945  1.00  0.00     0.029 A 
ATOM     55  C   UNL     1      10.823   5.158 -13.369  1.00  0.00     0.049 A 
ATOM     56  H   UNL     1      11.280   7.147 -12.944  1.00  0.00     0.167 HD
ATOM     57  C   UNL     1      11.980  11.215 -11.506  1.00  0.00     0.034 A 
ATOM     58  C   UNL     1       9.711   5.152 -14.129  1.00  0.00     0.034 A 
ATOM     59  C   UNL     1      10.935  11.330 -12.488  1.00  0.00     0.049 A 
ATOM     60  C   UNL     1       9.073   6.459 -14.505  1.00  0.00     0.074 A 
ATOM     61  C   UNL     1      10.332  12.478 -12.970  1.00  0.00     0.029 A 
ATOM     62  N   UNL     1      10.317  10.261 -13.118  1.00  0.00    -0.354 N 
ATOM     63  N   UNL     1       9.424   7.674 -14.162  1.00  0.00    -0.248 NA
ATOM     64  C   UNL     1       7.908   6.399 -15.399  1.00  0.00     0.031 C 
ATOM     65  C   UNL     1       9.319  12.100 -13.858  1.00  0.00     0.029 A 
ATOM     66  C   UNL     1       9.319  10.718 -13.961  1.00  0.00     0.049 A 
ATOM     67  H   UNL     1      10.554   9.314 -12.985  1.00  0.00     0.167 HD
ATOM     68  C   UNL     1       8.538   8.525 -14.813  1.00  0.00     0.074 A 
ATOM     69  C   UNL     1       7.652   7.686 -15.593  1.00  0.00     0.031 C 
ATOM     70  C   UNL     1       8.459   9.878 -14.757  1.00  0.00     0.034 A 
BRANCH  57  71
ATOM     71  C   UNL     1      12.447  12.467 -10.808  1.00  0.00     0.023 A 
ATOM     72  C   UNL     1      13.725  12.993 -11.088  1.00  0.00     0.012 A 
ATOM     73  C   UNL     1      11.605  13.147  -9.906  1.00  0.00     0.148 A 
ATOM     74  C   UNL     1      14.175  14.149 -10.451  1.00  0.00     0.002 A 
ATOM     75  C   UNL     1      12.041  14.325  -9.312  1.00  0.00     0.091 A 
ATOM     76  F   UNL     1      10.402  12.622  -9.634  1.00  0.00    -0.205 F 
ATOM     77  C   UNL     1      13.330  14.819  -9.572  1.00  0.00     0.022 A 
BRANCH  75  78
ATOM     78  S   UNL     1      10.996  15.306  -8.229  1.00  0.00     0.127 S 
ATOM     79  O   UNL     1      11.604  15.053  -6.924  1.00  0.00    -0.237 OA
ATOM     80  O   UNL     1      11.201  16.659  -8.745  1.00  0.00    -0.237 OA
ATOM     81  O   UNL     1       9.645  14.790  -8.401  1.00  0.00    -0.744 OA
ENDBRANCH  75  78
ENDBRANCH  57  71
BRANCH  58  82
ATOM     82  C   UNL     1       9.158   3.853 -14.604  1.00  0.00     0.023 A 
ATOM     83  C   UNL     1       9.265   3.502 -15.963  1.00  0.00     0.012 A 
ATOM     84  C   UNL     1       8.585   2.938 -13.700  1.00  0.00     0.148 A 
ATOM     85  C   UNL     1       8.790   2.272 -16.418  1.00  0.00     0.002 A 
ATOM     86  C   UNL     1       8.169   1.690 -14.148  1.00  0.00     0.091 A 
ATOM     87  F   UNL     1       8.486   3.297 -12.412  1.00  0.00    -0.205 F 
ATOM     88  C   UNL     1       8.254   1.361 -15.509  1.00  0.00     0.022 A 
BRANCH  86  89
ATOM     89  S   UNL     1       7.605   0.404 -13.028  1.00  0.00     0.127 S 
ATOM     90  O   UNL     1       6.196   0.287 -13.393  1.00  0.00    -0.237 OA
ATOM     91  O   UNL     1       8.442  -0.728 -13.426  1.00  0.00    -0.237 OA
ATOM     92  O   UNL     1       7.870   0.903 -11.685  1.00  0.00    -0.744 OA
ENDBRANCH  86  89
ENDBRANCH  58  82
BRANCH  70  93
ATOM     93  C   UNL     1       7.384  10.549 -15.573  1.00  0.00     0.023 A 
ATOM     94  C   UNL     1       6.035  10.440 -15.180  1.00  0.00     0.012 A 
ATOM     95  C   UNL     1       7.717  11.348 -16.684  1.00  0.00     0.148 A 
ATOM     96  C   UNL     1       5.032  11.091 -15.898  1.00  0.00     0.002 A 
ATOM     97  C   UNL     1       6.719  12.035 -17.364  1.00  0.00     0.091 A 
ATOM     98  F   UNL     1       9.004  11.425 -17.052  1.00  0.00    -0.205 F 
ATOM     99  C   UNL     1       5.375  11.897 -16.981  1.00  0.00     0.022 A 
BRANCH  97 100
ATOM    100  S   UNL     1       7.072  13.171 -18.710  1.00  0.00     0.127 S 
ATOM    101  O   UNL     1       6.521  12.453 -19.858  1.00  0.00    -0.237 OA
ATOM    102  O   UNL     1       6.318  14.361 -18.315  1.00  0.00    -0.237 OA
ATOM    103  O   UNL     1       8.518  13.346 -18.722  1.00  0.00    -0.744 OA
ENDBRANCH  97 100
ENDBRANCH  70  93
ENDBRANCH  44  45
ENDBRANCH  36  39
ENDBRANCH  34  35
ENDBRANCH  33  34
ENDBRANCH  32  33
ENDBRANCH   1  32
TORSDOF 22
