REMARK SMILES CC(C)Oc1ccc([C@H](O)[C@H](F)C(=O)NCCCCCCNC(=O)c2ccc(-c3c4nc(c(-c5cccc(S(=O)(=O)[O-])c5F)c5ccc([nH]5)c(-c5cccc(S(=O)(=O)[O-])c5F)c5nc(c(-c6cccc(S(=O)(=O)[O-])c6F)c6ccc3[nH]6)C=C5)C=C4)cc2)cc1
REMARK SMILES IDX 18 1 17 2 16 3 15 4 13 5 14 6 11 8 12 9 9 10 8 11 5 12 6 13
REMARK SMILES IDX 89 14 7 15 88 16 4 17 2 18 1 19 3 20 10 21 19 23 20 24 21 25
REMARK SMILES IDX 22 26 23 27 24 29 25 30 26 31 87 32 27 33 86 34 28 35 29 36
REMARK SMILES IDX 30 37 80 38 31 39 85 40 79 41 81 42 32 43 84 44 78 45 77 46
REMARK SMILES IDX 33 48 65 49 45 50 64 51 46 52 49 53 63 54 82 55 47 56 48 57
REMARK SMILES IDX 62 59 83 60 50 61 34 62 35 63 43 64 36 65 38 66 44 67 37 68
REMARK SMILES IDX 39 69 40 70 41 71 42 72 66 73 67 74 75 75 68 76 70 77 76 78
REMARK SMILES IDX 69 79 71 80 72 81 73 82 74 83 51 84 52 85 60 86 53 87 55 88
REMARK SMILES IDX 61 89 54 90 56 91 57 92 58 93 59 94
REMARK H PARENT 15 7 10 22 22 28 81 47 49 58
REMARK Flexibility Score: inf
ROOT
ATOM      1  C   UNL     1      -4.536  -1.048   9.009  1.00  0.00     0.002 C 
ENDROOT
BRANCH   1   2
ATOM      2  C   UNL     1      -4.289  -0.713   7.533  1.00  0.00     0.021 C 
BRANCH   2   3
ATOM      3  C   UNL     1      -3.773  -1.855   6.667  1.00  0.00     0.116 C 
BRANCH   3   4
ATOM      4  N   UNL     1      -4.729  -2.898   6.373  1.00  0.00    -0.353 N 
ATOM      5  C   UNL     1      -4.740  -3.737   5.291  1.00  0.00     0.257 C 
ATOM      6  O   UNL     1      -5.492  -4.718   5.345  1.00  0.00    -0.272 OA
ATOM      7  H   UNL     1      -5.455  -3.020   7.027  1.00  0.00     0.163 HD
BRANCH   5   8
ATOM      8  C   UNL     1      -3.869  -3.490   4.053  1.00  0.00     0.288 C 
ATOM      9  F   UNL     1      -3.890  -2.185   3.647  1.00  0.00    -0.234 F 
BRANCH   8  10
ATOM     10  C   UNL     1      -2.417  -4.026   4.171  1.00  0.00     0.188 C 
BRANCH  10  11
ATOM     11  C   UNL     1      -1.365  -2.940   4.332  1.00  0.00    -0.016 A 
ATOM     12  C   UNL     1       0.207  -0.625   4.789  1.00  0.00     0.119 A 
ATOM     13  C   UNL     1      -0.128  -1.022   3.493  1.00  0.00     0.047 A 
ATOM     14  C   UNL     1      -0.167  -1.444   5.844  1.00  0.00     0.047 A 
ATOM     15  C   UNL     1      -0.914  -2.157   3.262  1.00  0.00     0.010 A 
ATOM     16  C   UNL     1      -0.895  -2.617   5.611  1.00  0.00     0.010 A 
BRANCH  12  17
ATOM     17  O   UNL     1       0.864   0.562   4.859  1.00  0.00    -0.491 OA
BRANCH  17  18
ATOM     18  C   UNL     1       1.400   1.112   6.069  1.00  0.00     0.167 C 
ATOM     19  C   UNL     1       0.331   1.617   7.037  1.00  0.00     0.052 C 
ATOM     20  C   UNL     1       2.477   0.247   6.714  1.00  0.00     0.052 C 
ENDBRANCH  17  18
ENDBRANCH  12  17
ENDBRANCH  10  11
BRANCH  10  21
ATOM     21  O   UNL     1      -2.091  -4.833   3.024  1.00  0.00    -0.385 OA
ATOM     22  H   UNL     1      -2.115  -4.284   2.225  1.00  0.00     0.211 HD
ENDBRANCH  10  21
ENDBRANCH   8  10
ENDBRANCH   5   8
ENDBRANCH   3   4
ENDBRANCH   2   3
ENDBRANCH   1   2
BRANCH   1  23
ATOM     23  C   UNL     1      -3.372  -1.673   9.787  1.00  0.00     0.002 C 
BRANCH  23  24
ATOM     24  C   UNL     1      -2.031  -0.932   9.744  1.00  0.00     0.021 C 
BRANCH  24  25
ATOM     25  C   UNL     1      -2.054   0.533  10.169  1.00  0.00     0.116 C 
BRANCH  25  26
ATOM     26  N   UNL     1      -2.545   0.724  11.524  1.00  0.00    -0.352 N 
ATOM     27  C   UNL     1      -2.003   1.438  12.563  1.00  0.00     0.251 C 
ATOM     28  H   UNL     1      -3.395   0.272  11.726  1.00  0.00     0.163 HD
ATOM     29  O   UNL     1      -2.515   1.357  13.682  1.00  0.00    -0.269 OA
BRANCH  27  30
ATOM     30  C   UNL     1      -0.804   2.284  12.365  1.00  0.00     0.039 A 
ATOM     31  C   UNL     1       0.198   2.266  13.341  1.00  0.00     0.014 A 
ATOM     32  C   UNL     1      -0.672   3.115  11.250  1.00  0.00     0.014 A 
ATOM     33  C   UNL     1       1.353   3.035  13.171  1.00  0.00     0.010 A 
ATOM     34  C   UNL     1       0.510   3.829  11.048  1.00  0.00     0.010 A 
ATOM     35  C   UNL     1       1.534   3.802  12.008  1.00  0.00    -0.014 A 
BRANCH  35  36
ATOM     36  C   UNL     1       2.788   4.566  11.776  1.00  0.00     0.031 A 
ATOM     37  C   UNL     1       2.760   6.067  11.662  1.00  0.00     0.074 A 
ATOM     38  C   UNL     1       3.947   3.902  11.586  1.00  0.00     0.049 A 
ATOM     39  N   UNL     1       3.742   6.893  11.404  1.00  0.00    -0.248 NA
ATOM     40  C   UNL     1       1.456   6.726  11.838  1.00  0.00     0.031 C 
ATOM     41  C   UNL     1       4.098   2.446  11.602  1.00  0.00     0.029 A 
ATOM     42  N   UNL     1       5.212   4.364  11.316  1.00  0.00    -0.354 N 
ATOM     43  C   UNL     1       3.171   8.159  11.349  1.00  0.00     0.074 A 
ATOM     44  C   UNL     1       1.752   7.990  11.572  1.00  0.00     0.031 C 
ATOM     45  C   UNL     1       5.380   2.134  11.352  1.00  0.00     0.029 A 
ATOM     46  C   UNL     1       6.136   3.362  11.126  1.00  0.00     0.049 A 
ATOM     47  H   UNL     1       5.436   5.321  11.262  1.00  0.00     0.167 HD
ATOM     48  C   UNL     1       3.774   9.357  11.155  1.00  0.00     0.034 A 
ATOM     49  C   UNL     1       7.440   3.422  10.792  1.00  0.00     0.034 A 
ATOM     50  C   UNL     1       5.191   9.528  10.970  1.00  0.00     0.049 A 
ATOM     51  C   UNL     1       8.092   4.766  10.611  1.00  0.00     0.074 A 
ATOM     52  C   UNL     1       5.907  10.707  10.854  1.00  0.00     0.029 A 
ATOM     53  N   UNL     1       6.107   8.493  10.862  1.00  0.00    -0.354 N 
ATOM     54  N   UNL     1       7.562   5.960  10.716  1.00  0.00    -0.248 NA
ATOM     55  C   UNL     1       9.529   4.773  10.299  1.00  0.00     0.031 C 
ATOM     56  C   UNL     1       7.251  10.384  10.642  1.00  0.00     0.029 A 
ATOM     57  C   UNL     1       7.379   9.005  10.666  1.00  0.00     0.049 A 
ATOM     58  H   UNL     1       5.886   7.536  10.917  1.00  0.00     0.167 HD
ATOM     59  C   UNL     1       8.605   6.859  10.523  1.00  0.00     0.074 A 
ATOM     60  C   UNL     1       9.802   6.071  10.313  1.00  0.00     0.031 C 
ATOM     61  C   UNL     1       8.572   8.214  10.509  1.00  0.00     0.034 A 
BRANCH  48  62
ATOM     62  C   UNL     1       2.908  10.591  11.173  1.00  0.00     0.023 A 
ATOM     63  C   UNL     1       2.343  11.030  12.388  1.00  0.00     0.012 A 
ATOM     64  C   UNL     1       2.708  11.352  10.005  1.00  0.00     0.148 A 
ATOM     65  C   UNL     1       1.561  12.184  12.433  1.00  0.00     0.002 A 
ATOM     66  C   UNL     1       1.968  12.527  10.066  1.00  0.00     0.091 A 
ATOM     67  F   UNL     1       3.239  10.911   8.855  1.00  0.00    -0.205 F 
ATOM     68  C   UNL     1       1.383  12.938  11.276  1.00  0.00     0.022 A 
BRANCH  66  69
ATOM     69  S   UNL     1       1.750  13.612   8.651  1.00  0.00     0.127 S 
ATOM     70  O   UNL     1       0.329  13.428   8.356  1.00  0.00    -0.237 OA
ATOM     71  O   UNL     1       2.091  14.920   9.212  1.00  0.00    -0.237 OA
ATOM     72  O   UNL     1       2.667  13.130   7.629  1.00  0.00    -0.744 OA
ENDBRANCH  66  69
ENDBRANCH  48  62
BRANCH  49  73
ATOM     73  C   UNL     1       8.232   2.166  10.656  1.00  0.00     0.023 A 
ATOM     74  C   UNL     1       9.227   1.865  11.607  1.00  0.00     0.012 A 
ATOM     75  C   UNL     1       7.988   1.261   9.606  1.00  0.00     0.148 A 
ATOM     76  C   UNL     1       9.989   0.702  11.494  1.00  0.00     0.002 A 
ATOM     77  C   UNL     1       8.710   0.076   9.533  1.00  0.00     0.091 A 
ATOM     78  F   UNL     1       7.044   1.571   8.706  1.00  0.00    -0.205 F 
ATOM     79  C   UNL     1       9.724  -0.197  10.464  1.00  0.00     0.022 A 
BRANCH  77  80
ATOM     80  S   UNL     1       8.343  -1.200   8.323  1.00  0.00     0.127 S 
ATOM     81  O   UNL     1       9.516  -1.135   7.455  1.00  0.00    -0.237 OA
ATOM     82  O   UNL     1       8.262  -2.396   9.163  1.00  0.00    -0.237 OA
ATOM     83  O   UNL     1       7.080  -0.810   7.713  1.00  0.00    -0.744 OA
ENDBRANCH  77  80
ENDBRANCH  49  73
BRANCH  61  84
ATOM     84  C   UNL     1       9.874   8.946  10.305  1.00  0.00     0.023 A 
ATOM     85  C   UNL     1      10.496   8.942   9.041  1.00  0.00     0.012 A 
ATOM     86  C   UNL     1      10.442   9.700  11.352  1.00  0.00     0.148 A 
ATOM     87  C   UNL     1      11.679   9.650   8.831  1.00  0.00     0.002 A 
ATOM     88  C   UNL     1      11.592  10.444  11.121  1.00  0.00     0.091 A 
ATOM     89  F   UNL     1       9.845   9.676  12.553  1.00  0.00    -0.205 F 
ATOM     90  C   UNL     1      12.220  10.409   9.866  1.00  0.00     0.022 A 
BRANCH  88  91
ATOM     91  S   UNL     1      12.303  11.529  12.364  1.00  0.00     0.127 S 
ATOM     92  O   UNL     1      13.527  10.813  12.720  1.00  0.00    -0.237 OA
ATOM     93  O   UNL     1      12.517  12.765  11.609  1.00  0.00    -0.237 OA
ATOM     94  O   UNL     1      11.310  11.633  13.424  1.00  0.00    -0.744 OA
ENDBRANCH  88  91
ENDBRANCH  61  84
ENDBRANCH  35  36
ENDBRANCH  27  30
ENDBRANCH  25  26
ENDBRANCH  24  25
ENDBRANCH  23  24
ENDBRANCH   1  23
TORSDOF 21
