REMARK SMILES O=C(NCCCCCCNC(=O)[C@@H]1CCCC[C@@H]1C(=O)Nc1cccc(C(F)(F)F)c1)c1ccc(-c2c3nc(c(-c4cccc(S(=O)(=O)[O-])c4F)c4ccc([nH]4)c(-c4cccc(S(=O)(=O)[O-])c4F)c4nc(c(-c5cccc(S(=O)(=O)[O-])c5F)c5ccc2[nH]5)C=C4)C=C3)cc1
REMARK SMILES IDX 6 1 5 2 4 3 3 4 1 5 2 6 32 8 33 9 94 10 34 11 93 12 35 13
REMARK SMILES IDX 36 14 37 15 87 16 38 17 92 18 86 19 88 20 39 21 91 22 85 23
REMARK SMILES IDX 84 24 40 26 72 27 52 28 71 29 53 30 56 31 70 32 89 33 54 34
REMARK SMILES IDX 55 35 69 37 90 38 57 39 41 40 42 41 50 42 43 43 45 44 51 45
REMARK SMILES IDX 44 46 46 47 47 48 48 49 49 50 73 51 74 52 82 53 75 54 77 55
REMARK SMILES IDX 83 56 76 57 78 58 79 59 80 60 81 61 58 62 59 63 67 64 60 65
REMARK SMILES IDX 62 66 68 67 61 68 63 69 64 70 65 71 66 72 7 73 8 74 9 75
REMARK SMILES IDX 10 76 11 77 12 79 13 80 14 81 18 82 15 83 17 84 16 85 19 86
REMARK SMILES IDX 20 87 21 88 22 90 23 91 31 92 24 93 26 94 25 95 27 96 28 97
REMARK SMILES IDX 29 98 30 99
REMARK H PARENT 3 7 88 25 56 36 10 78 21 89
REMARK Flexibility Score: inf
ROOT
ATOM      1  C   UNL     1       4.111  -3.688  -0.185  1.00  0.00     0.002 C 
ENDROOT
BRANCH   1   2
ATOM      2  C   UNL     1       4.300  -2.482   0.746  1.00  0.00     0.021 C 
BRANCH   2   3
ATOM      3  C   UNL     1       4.040  -1.093   0.172  1.00  0.00     0.116 C 
BRANCH   3   4
ATOM      4  N   UNL     1       2.669  -0.841  -0.246  1.00  0.00    -0.352 N 
ATOM      5  O   UNL     1       0.807   0.449  -0.462  1.00  0.00    -0.269 OA
ATOM      6  C   UNL     1       1.985   0.354  -0.140  1.00  0.00     0.251 C 
ATOM      7  H   UNL     1       2.181  -1.598  -0.643  1.00  0.00     0.163 HD
BRANCH   6   8
ATOM      8  C   UNL     1       2.720   1.513   0.408  1.00  0.00     0.039 A 
ATOM      9  C   UNL     1       3.919   1.906  -0.194  1.00  0.00     0.014 A 
ATOM     10  C   UNL     1       2.289   2.105   1.596  1.00  0.00     0.014 A 
ATOM     11  C   UNL     1       4.759   2.788   0.472  1.00  0.00     0.010 A 
ATOM     12  C   UNL     1       3.095   3.064   2.213  1.00  0.00     0.010 A 
ATOM     13  C   UNL     1       4.353   3.389   1.676  1.00  0.00    -0.014 A 
BRANCH  13  14
ATOM     14  C   UNL     1       5.224   4.406   2.319  1.00  0.00     0.031 A 
ATOM     15  C   UNL     1       5.770   4.213   3.708  1.00  0.00     0.074 A 
ATOM     16  C   UNL     1       5.503   5.533   1.634  1.00  0.00     0.049 A 
ATOM     17  N   UNL     1       6.530   5.015   4.410  1.00  0.00    -0.248 NA
ATOM     18  C   UNL     1       5.409   2.970   4.405  1.00  0.00     0.031 C 
ATOM     19  C   UNL     1       5.007   5.845   0.291  1.00  0.00     0.029 A 
ATOM     20  N   UNL     1       6.259   6.626   1.969  1.00  0.00    -0.354 N 
ATOM     21  C   UNL     1       6.694   4.404   5.647  1.00  0.00     0.074 A 
ATOM     22  C   UNL     1       5.952   3.162   5.600  1.00  0.00     0.031 C 
ATOM     23  C   UNL     1       5.495   7.031  -0.096  1.00  0.00     0.029 A 
ATOM     24  C   UNL     1       6.274   7.598   0.997  1.00  0.00     0.049 A 
ATOM     25  H   UNL     1       6.744   6.708   2.822  1.00  0.00     0.167 HD
ATOM     26  C   UNL     1       7.397   4.839   6.723  1.00  0.00     0.034 A 
ATOM     27  C   UNL     1       6.827   8.824   0.990  1.00  0.00     0.034 A 
ATOM     28  C   UNL     1       8.137   6.075   6.755  1.00  0.00     0.049 A 
ATOM     29  C   UNL     1       7.589   9.282   2.198  1.00  0.00     0.074 A 
ATOM     30  C   UNL     1       8.938   6.572   7.769  1.00  0.00     0.029 A 
ATOM     31  N   UNL     1       8.143   7.024   5.744  1.00  0.00    -0.354 N 
ATOM     32  N   UNL     1       7.825   8.641   3.316  1.00  0.00    -0.248 NA
ATOM     33  C   UNL     1       8.188  10.620   2.130  1.00  0.00     0.031 C 
ATOM     34  C   UNL     1       9.376   7.846   7.396  1.00  0.00     0.029 A 
ATOM     35  C   UNL     1       8.913   8.113   6.118  1.00  0.00     0.049 A 
ATOM     36  H   UNL     1       7.670   6.936   4.885  1.00  0.00     0.167 HD
ATOM     37  C   UNL     1       8.642   9.477   4.066  1.00  0.00     0.074 A 
ATOM     38  C   UNL     1       8.866  10.665   3.268  1.00  0.00     0.031 C 
ATOM     39  C   UNL     1       9.161   9.275   5.302  1.00  0.00     0.034 A 
BRANCH  26  40
ATOM     40  C   UNL     1       7.386   3.982   7.966  1.00  0.00     0.023 A 
ATOM     41  C   UNL     1       8.031   2.729   7.976  1.00  0.00     0.012 A 
ATOM     42  C   UNL     1       6.770   4.447   9.146  1.00  0.00     0.148 A 
ATOM     43  C   UNL     1       8.018   1.931   9.120  1.00  0.00     0.002 A 
ATOM     44  C   UNL     1       6.808   3.670  10.298  1.00  0.00     0.091 A 
ATOM     45  F   UNL     1       6.149   5.634   9.119  1.00  0.00    -0.205 F 
ATOM     46  C   UNL     1       7.415   2.405  10.282  1.00  0.00     0.022 A 
BRANCH  44  47
ATOM     47  S   UNL     1       6.136   4.230  11.867  1.00  0.00     0.127 S 
ATOM     48  O   UNL     1       4.981   3.346  12.025  1.00  0.00    -0.237 OA
ATOM     49  O   UNL     1       7.241   3.960  12.787  1.00  0.00    -0.237 OA
ATOM     50  O   UNL     1       5.822   5.641  11.691  1.00  0.00    -0.744 OA
ENDBRANCH  44  47
ENDBRANCH  26  40
BRANCH  27  51
ATOM     51  C   UNL     1       6.708   9.685  -0.218  1.00  0.00     0.023 A 
ATOM     52  C   UNL     1       7.856   9.960  -0.987  1.00  0.00     0.012 A 
ATOM     53  C   UNL     1       5.465  10.206  -0.625  1.00  0.00     0.148 A 
ATOM     54  C   UNL     1       7.774  10.769  -2.119  1.00  0.00     0.002 A 
ATOM     55  C   UNL     1       5.380  10.962  -1.786  1.00  0.00     0.091 A 
ATOM     56  F   UNL     1       4.386   9.929   0.121  1.00  0.00    -0.205 F 
ATOM     57  C   UNL     1       6.536  11.262  -2.524  1.00  0.00     0.022 A 
BRANCH  55  58
ATOM     58  S   UNL     1       3.816  11.534  -2.455  1.00  0.00     0.127 S 
ATOM     59  O   UNL     1       3.958  12.984  -2.347  1.00  0.00    -0.237 OA
ATOM     60  O   UNL     1       3.866  11.009  -3.820  1.00  0.00    -0.237 OA
ATOM     61  O   UNL     1       2.784  10.941  -1.616  1.00  0.00    -0.744 OA
ENDBRANCH  55  58
ENDBRANCH  27  51
BRANCH  39  62
ATOM     62  C   UNL     1      10.094  10.328   5.843  1.00  0.00     0.023 A 
ATOM     63  C   UNL     1       9.613  11.602   6.206  1.00  0.00     0.012 A 
ATOM     64  C   UNL     1      11.458  10.027   6.031  1.00  0.00     0.148 A 
ATOM     65  C   UNL     1      10.484  12.573   6.701  1.00  0.00     0.002 A 
ATOM     66  C   UNL     1      12.306  10.977   6.583  1.00  0.00     0.091 A 
ATOM     67  F   UNL     1      11.902   8.817   5.661  1.00  0.00    -0.205 F 
ATOM     68  C   UNL     1      11.826  12.257   6.901  1.00  0.00     0.022 A 
BRANCH  66  69
ATOM     69  S   UNL     1      14.023  10.621   6.972  1.00  0.00     0.127 S 
ATOM     70  O   UNL     1      14.726  11.428   5.976  1.00  0.00    -0.237 OA
ATOM     71  O   UNL     1      14.135  11.112   8.346  1.00  0.00    -0.237 OA
ATOM     72  O   UNL     1      14.179   9.180   6.829  1.00  0.00    -0.744 OA
ENDBRANCH  66  69
ENDBRANCH  39  62
ENDBRANCH  13  14
ENDBRANCH   6   8
ENDBRANCH   3   4
ENDBRANCH   2   3
ENDBRANCH   1   2
BRANCH   1  73
ATOM     73  C   UNL     1       4.695  -3.660  -1.784  1.00  0.00     0.002 C 
BRANCH  73  74
ATOM     74  C   UNL     1       6.509  -4.162  -2.881  1.00  0.00     0.021 C 
BRANCH  74  75
ATOM     75  C   UNL     1       7.579  -5.432  -2.999  1.00  0.00     0.116 C 
BRANCH  75  76
ATOM     76  N   UNL     1       7.381  -6.840  -2.862  1.00  0.00    -0.356 N 
ATOM     77  C   UNL     1       8.129  -7.631  -2.026  1.00  0.00     0.223 C 
ATOM     78  H   UNL     1       6.671  -7.265  -3.394  1.00  0.00     0.163 HD
ATOM     79  O   UNL     1       7.790  -8.810  -1.910  1.00  0.00    -0.275 OA
BRANCH  77  80
ATOM     80  C   UNL     1       9.452  -7.075  -1.430  1.00  0.00     0.091 C 
ATOM     81  C   UNL     1      10.130  -8.186  -0.597  1.00  0.00     0.014 C 
ATOM     82  C   UNL     1       9.537  -5.696  -0.680  1.00  0.00     0.091 C 
ATOM     83  C   UNL     1      11.598  -7.871  -0.348  1.00  0.00     0.001 C 
ATOM     84  C   UNL     1      11.011  -5.421  -0.285  1.00  0.00     0.014 C 
ATOM     85  C   UNL     1      11.752  -6.556   0.396  1.00  0.00     0.001 C 
BRANCH  82  86
ATOM     86  C   UNL     1       8.488  -5.444   0.445  1.00  0.00     0.228 C 
ATOM     87  O   UNL     1       8.838  -5.640   1.618  1.00  0.00    -0.274 OA
ATOM     88  N   UNL     1       7.186  -4.983   0.285  1.00  0.00    -0.326 N 
ATOM     89  H   UNL     1       6.674  -5.004   1.126  1.00  0.00     0.169 HD
BRANCH  88  90
ATOM     90  C   UNL     1       6.417  -4.486  -0.809  1.00  0.00     0.041 A 
ATOM     91  C   UNL     1       6.546  -2.761  -1.268  1.00  0.00     0.026 A 
ATOM     92  C   UNL     1       5.414  -5.602  -1.819  1.00  0.00     0.039 A 
ATOM     93  C   UNL     1       5.813  -2.162  -2.811  1.00  0.00     0.003 A 
ATOM     94  C   UNL     1       4.722  -5.039  -3.408  1.00  0.00     0.058 A 
ATOM     95  C   UNL     1       4.853  -3.281  -3.861  1.00  0.00     0.013 A 
BRANCH  94  96
ATOM     96  C   UNL     1       4.426  -6.036  -4.496  1.00  0.00     0.416 C 
ATOM     97  F   UNL     1       3.113  -6.312  -4.663  1.00  0.00    -0.166 F 
ATOM     98  F   UNL     1       4.890  -5.601  -5.703  1.00  0.00    -0.166 F 
ATOM     99  F   UNL     1       5.056  -7.226  -4.283  1.00  0.00    -0.166 F 
ENDBRANCH  94  96
ENDBRANCH  88  90
ENDBRANCH  82  86
ENDBRANCH  77  80
ENDBRANCH  75  76
ENDBRANCH  74  75
ENDBRANCH  73  74
ENDBRANCH   1  73
TORSDOF 19
