REMARK SMILES CCC(CC)(NC(=O)NCCc1nccs1)C(=O)NCCCCCCNC(=O)c1ccc(-c2c3nc(c(-c4cccc(S(=O)(=O)[O-])c4F)c4ccc([nH]4)c(-c4cccc(S(=O)(=O)[O-])c4F)c4nc(c(-c5cccc(S(=O)(=O)[O-])c5F)c5ccc2[nH]5)C=C4)C=C3)cc1
REMARK SMILES IDX 22 1 21 2 20 3 19 4 17 5 18 6 3 8 2 9 1 10 4 11 5 12 6 13
REMARK SMILES IDX 7 14 8 16 9 17 10 19 11 20 12 21 13 22 16 23 14 24 15 25
REMARK SMILES IDX 23 26 24 27 25 28 26 29 27 30 28 32 29 33 30 34 91 35 31 36
REMARK SMILES IDX 90 37 32 38 33 39 34 40 84 41 35 42 89 43 83 44 85 45 36 46
REMARK SMILES IDX 88 47 82 48 81 49 37 51 69 52 49 53 68 54 50 55 53 56 67 57
REMARK SMILES IDX 86 58 51 59 52 60 66 62 87 63 54 64 38 65 39 66 47 67 40 68
REMARK SMILES IDX 42 69 48 70 41 71 43 72 44 73 45 74 46 75 70 76 71 77 79 78
REMARK SMILES IDX 72 79 74 80 80 81 73 82 75 83 76 84 77 85 78 86 55 87 56 88
REMARK SMILES IDX 64 89 57 90 59 91 65 92 58 93 60 94 61 95 62 96 63 97
REMARK H PARENT 19 7 6 15 9 18 26 31 85 50 53 61
REMARK Flexibility Score: inf
ROOT
ATOM      1  C   UNL     1       4.056  -2.432   5.968  1.00  0.00     0.002 C 
ENDROOT
BRANCH   1   2
ATOM      2  C   UNL     1       2.540  -2.315   5.883  1.00  0.00     0.021 C 
BRANCH   2   3
ATOM      3  C   UNL     1       1.982  -1.012   5.306  1.00  0.00     0.116 C 
BRANCH   3   4
ATOM      4  N   UNL     1       2.668  -0.469   4.132  1.00  0.00    -0.354 N 
ATOM      5  C   UNL     1       2.340  -0.412   2.799  1.00  0.00     0.245 C 
ATOM      6  O   UNL     1       3.068   0.282   2.079  1.00  0.00    -0.272 OA
ATOM      7  H   UNL     1       3.540  -0.063   4.340  1.00  0.00     0.163 HD
BRANCH   5   8
ATOM      8  C   UNL     1       1.041  -1.063   2.249  1.00  0.00     0.120 C 
BRANCH   8   9
ATOM      9  C   UNL     1       0.899  -1.189   0.706  1.00  0.00     0.035 C 
ATOM     10  C   UNL     1       1.005   0.080  -0.128  1.00  0.00     0.007 C 
ENDBRANCH   8   9
BRANCH   8  11
ATOM     11  C   UNL     1      -0.093  -0.120   2.797  1.00  0.00     0.035 C 
ATOM     12  C   UNL     1      -1.535  -0.546   2.570  1.00  0.00     0.007 C 
ENDBRANCH   8  11
BRANCH   8  13
ATOM     13  N   UNL     1       0.960  -2.429   2.805  1.00  0.00    -0.324 N 
ATOM     14  C   UNL     1       1.764  -3.500   2.837  1.00  0.00     0.315 C 
ATOM     15  H   UNL     1       0.106  -2.592   3.266  1.00  0.00     0.166 HD
ATOM     16  O   UNL     1       1.270  -4.535   3.296  1.00  0.00    -0.249 OA
ATOM     17  N   UNL     1       3.066  -3.533   2.524  1.00  0.00    -0.338 N 
ATOM     18  H   UNL     1       3.533  -4.235   3.033  1.00  0.00     0.165 HD
BRANCH  17  19
ATOM     19  C   UNL     1       3.989  -2.823   1.642  1.00  0.00     0.125 C 
BRANCH  19  20
ATOM     20  C   UNL     1       5.157  -2.072   2.289  1.00  0.00     0.089 C 
BRANCH  20  21
ATOM     21  C   UNL     1       6.170  -2.892   3.031  1.00  0.00     0.094 A 
ATOM     22  N   UNL     1       6.127  -4.187   3.261  1.00  0.00    -0.250 NA
ATOM     23  S   UNL     1       7.503  -2.059   3.761  1.00  0.00    -0.127 S 
ATOM     24  C   UNL     1       7.164  -4.542   4.109  1.00  0.00     0.123 A 
ATOM     25  C   UNL     1       8.002  -3.519   4.496  1.00  0.00     0.087 A 
ENDBRANCH  20  21
ENDBRANCH  19  20
ENDBRANCH  17  19
ENDBRANCH   8  13
ENDBRANCH   5   8
ENDBRANCH   3   4
ENDBRANCH   2   3
ENDBRANCH   1   2
BRANCH   1  26
ATOM     26  C   UNL     1       4.767  -1.321   6.732  1.00  0.00     0.002 C 
BRANCH  26  27
ATOM     27  C   UNL     1       4.288  -1.135   8.168  1.00  0.00     0.021 C 
BRANCH  27  28
ATOM     28  C   UNL     1       4.409  -2.380   9.037  1.00  0.00     0.116 C 
BRANCH  28  29
ATOM     29  N   UNL     1       5.793  -2.779   9.246  1.00  0.00    -0.352 N 
ATOM     30  C   UNL     1       6.401  -3.140  10.428  1.00  0.00     0.251 C 
ATOM     31  H   UNL     1       6.365  -2.791   8.445  1.00  0.00     0.163 HD
ATOM     32  O   UNL     1       7.607  -3.307  10.492  1.00  0.00    -0.269 OA
BRANCH  30  33
ATOM     33  C   UNL     1       5.550  -3.294  11.629  1.00  0.00     0.039 A 
ATOM     34  C   UNL     1       5.870  -2.582  12.786  1.00  0.00     0.014 A 
ATOM     35  C   UNL     1       4.397  -4.082  11.571  1.00  0.00     0.014 A 
ATOM     36  C   UNL     1       4.993  -2.614  13.873  1.00  0.00     0.010 A 
ATOM     37  C   UNL     1       3.491  -4.050  12.625  1.00  0.00     0.010 A 
ATOM     38  C   UNL     1       3.782  -3.321  13.789  1.00  0.00    -0.014 A 
BRANCH  38  39
ATOM     39  C   UNL     1       2.801  -3.310  14.903  1.00  0.00     0.031 A 
ATOM     40  C   UNL     1       2.447  -4.592  15.606  1.00  0.00     0.074 A 
ATOM     41  C   UNL     1       2.161  -2.166  15.220  1.00  0.00     0.049 A 
ATOM     42  N   UNL     1       1.577  -4.796  16.561  1.00  0.00    -0.248 NA
ATOM     43  C   UNL     1       3.138  -5.812  15.156  1.00  0.00     0.031 C 
ATOM     44  C   UNL     1       2.350  -0.876  14.553  1.00  0.00     0.029 A 
ATOM     45  N   UNL     1       1.200  -1.911  16.167  1.00  0.00    -0.354 N 
ATOM     46  C   UNL     1       1.589  -6.165  16.799  1.00  0.00     0.074 A 
ATOM     47  C   UNL     1       2.523  -6.749  15.862  1.00  0.00     0.031 C 
ATOM     48  C   UNL     1       1.538   0.033  15.114  1.00  0.00     0.029 A 
ATOM     49  C   UNL     1       0.751  -0.610  16.161  1.00  0.00     0.049 A 
ATOM     50  H   UNL     1       0.865  -2.594  16.791  1.00  0.00     0.167 HD
ATOM     51  C   UNL     1       0.910  -6.870  17.735  1.00  0.00     0.034 A 
ATOM     52  C   UNL     1      -0.190  -0.006  16.914  1.00  0.00     0.034 A 
ATOM     53  C   UNL     1       0.022  -6.278  18.697  1.00  0.00     0.049 A 
ATOM     54  C   UNL     1      -0.891  -0.802  17.983  1.00  0.00     0.074 A 
ATOM     55  C   UNL     1      -0.639  -6.890  19.748  1.00  0.00     0.029 A 
ATOM     56  N   UNL     1      -0.336  -4.939  18.725  1.00  0.00    -0.354 N 
ATOM     57  N   UNL     1      -0.740  -2.063  18.305  1.00  0.00    -0.248 NA
ATOM     58  C   UNL     1      -1.865  -0.082  18.817  1.00  0.00     0.031 C 
ATOM     59  C   UNL     1      -1.413  -5.923  20.398  1.00  0.00     0.029 A 
ATOM     60  C   UNL     1      -1.214  -4.705  19.768  1.00  0.00     0.049 A 
ATOM     61  H   UNL     1      -0.013  -4.256  18.094  1.00  0.00     0.167 HD
ATOM     62  C   UNL     1      -1.568  -2.280  19.401  1.00  0.00     0.074 A 
ATOM     63  C   UNL     1      -2.204  -1.012  19.699  1.00  0.00     0.031 C 
ATOM     64  C   UNL     1      -1.795  -3.426  20.088  1.00  0.00     0.034 A 
BRANCH  51  65
ATOM     65  C   UNL     1       1.152  -8.355  17.801  1.00  0.00     0.023 A 
ATOM     66  C   UNL     1       2.390  -8.837  18.273  1.00  0.00     0.012 A 
ATOM     67  C   UNL     1       0.143  -9.273  17.448  1.00  0.00     0.148 A 
ATOM     68  C   UNL     1       2.636 -10.207  18.357  1.00  0.00     0.002 A 
ATOM     69  C   UNL     1       0.380 -10.637  17.578  1.00  0.00     0.091 A 
ATOM     70  F   UNL     1      -1.020  -8.798  16.981  1.00  0.00    -0.205 F 
ATOM     71  C   UNL     1       1.629 -11.105  18.020  1.00  0.00     0.022 A 
BRANCH  69  72
ATOM     72  S   UNL     1      -0.880 -11.874  17.248  1.00  0.00     0.127 S 
ATOM     73  O   UNL     1      -0.387 -12.473  16.008  1.00  0.00    -0.237 OA
ATOM     74  O   UNL     1      -0.779 -12.739  18.424  1.00  0.00    -0.237 OA
ATOM     75  O   UNL     1      -2.137 -11.147  17.136  1.00  0.00    -0.744 OA
ENDBRANCH  69  72
ENDBRANCH  51  65
BRANCH  52  76
ATOM     76  C   UNL     1      -0.469   1.447  16.734  1.00  0.00     0.023 A 
ATOM     77  C   UNL     1      -0.074   2.354  17.737  1.00  0.00     0.012 A 
ATOM     78  C   UNL     1      -1.095   1.939  15.572  1.00  0.00     0.148 A 
ATOM     79  C   UNL     1      -0.326   3.720  17.602  1.00  0.00     0.002 A 
ATOM     80  C   UNL     1      -1.294   3.307  15.419  1.00  0.00     0.091 A 
ATOM     81  F   UNL     1      -1.474   1.059  14.634  1.00  0.00    -0.205 F 
ATOM     82  C   UNL     1      -0.926   4.197  16.440  1.00  0.00     0.022 A 
BRANCH  80  83
ATOM     83  S   UNL     1      -1.937   4.021  13.902  1.00  0.00     0.127 S 
ATOM     84  O   UNL     1      -3.273   4.444  14.313  1.00  0.00    -0.237 OA
ATOM     85  O   UNL     1      -0.993   5.112  13.656  1.00  0.00    -0.237 OA
ATOM     86  O   UNL     1      -1.886   2.953  12.912  1.00  0.00    -0.744 OA
ENDBRANCH  80  83
ENDBRANCH  52  76
BRANCH  64  87
ATOM     87  C   UNL     1      -2.742  -3.366  21.257  1.00  0.00     0.023 A 
ATOM     88  C   UNL     1      -4.127  -3.239  21.031  1.00  0.00     0.012 A 
ATOM     89  C   UNL     1      -2.267  -3.518  22.575  1.00  0.00     0.148 A 
ATOM     90  C   UNL     1      -5.021  -3.232  22.100  1.00  0.00     0.002 A 
ATOM     91  C   UNL     1      -3.168  -3.560  23.631  1.00  0.00     0.091 A 
ATOM     92  F   UNL     1      -0.944  -3.619  22.770  1.00  0.00    -0.205 F 
ATOM     93  C   UNL     1      -4.544  -3.405  23.398  1.00  0.00     0.022 A 
BRANCH  91  94
ATOM     94  S   UNL     1      -2.653  -3.877  25.323  1.00  0.00     0.127 S 
ATOM     95  O   UNL     1      -2.809  -2.558  25.934  1.00  0.00    -0.237 OA
ATOM     96  O   UNL     1      -3.629  -4.874  25.764  1.00  0.00    -0.237 OA
ATOM     97  O   UNL     1      -1.284  -4.370  25.239  1.00  0.00    -0.744 OA
ENDBRANCH  91  94
ENDBRANCH  64  87
ENDBRANCH  38  39
ENDBRANCH  30  33
ENDBRANCH  28  29
ENDBRANCH  27  28
ENDBRANCH  26  27
ENDBRANCH   1  26
TORSDOF 22
