REMARK SMILES CCCO[C@@H]1CCC[N@@H+]([C@@H]2CC[C@]([NH2+]C)(C(=O)NCCCCCCNC(=O)c3ccc(-c4c5nc(c(-c6cccc(S(=O)(=O)[O-])c6F)c6ccc([nH]6)c(-c6cccc(S(=O)(=O)[O-])c6F)c6nc(c(-c7cccc(S(=O)(=O)[O-])c7F)c7ccc4[nH]7)C=C6)C=C5)cc3)C2)C1
REMARK SMILES IDX 21 1 20 2 19 3 18 4 16 5 17 6 13 8 10 9 11 10 91 11 12 12
REMARK SMILES IDX 9 13 5 14 6 15 92 16 7 17 8 18 4 20 3 21 2 22 1 23 14 24
REMARK SMILES IDX 15 25 22 28 23 29 24 30 25 31 26 32 27 34 28 35 29 36 90 37
REMARK SMILES IDX 30 38 89 39 31 40 32 41 33 42 83 43 34 44 88 45 82 46 84 47
REMARK SMILES IDX 35 48 87 49 81 50 80 51 36 53 68 54 48 55 67 56 49 57 52 58
REMARK SMILES IDX 66 59 85 60 50 61 51 62 65 64 86 65 53 66 37 67 38 68 46 69
REMARK SMILES IDX 39 70 41 71 47 72 40 73 42 74 43 75 44 76 45 77 69 78 70 79
REMARK SMILES IDX 78 80 71 81 73 82 79 83 72 84 74 85 75 86 76 87 77 88 54 89
REMARK SMILES IDX 55 90 63 91 56 92 58 93 64 94 57 95 59 96 60 97 61 98 62 99
REMARK H PARENT 18 7 9 19 14 26 14 27 25 33 84 52 52 63
REMARK Flexibility Score: inf
ROOT
ATOM      1  C   UNL     1      -7.316  -6.689   4.361  1.00  0.00     0.002 C 
ENDROOT
BRANCH   1   2
ATOM      2  C   UNL     1      -6.532  -5.391   4.161  1.00  0.00     0.021 C 
BRANCH   2   3
ATOM      3  C   UNL     1      -5.153  -5.576   3.531  1.00  0.00     0.116 C 
BRANCH   3   4
ATOM      4  N   UNL     1      -5.261  -5.970   2.137  1.00  0.00    -0.351 N 
ATOM      5  C   UNL     1      -4.870  -5.360   0.984  1.00  0.00     0.281 C 
ATOM      6  O   UNL     1      -5.263  -5.884  -0.066  1.00  0.00    -0.268 OA
ATOM      7  H   UNL     1      -5.699  -6.841   2.001  1.00  0.00     0.163 HD
BRANCH   5   8
ATOM      8  C   UNL     1      -4.023  -4.055   0.963  1.00  0.00     0.181 C 
ATOM      9  C   UNL     1      -2.047  -3.106  -0.097  1.00  0.00     0.191 C 
ATOM     10  C   UNL     1      -1.581  -3.644   1.253  1.00  0.00     0.072 C 
ATOM     11  C   UNL     1      -3.233  -4.030  -0.381  1.00  0.00     0.144 C 
ATOM     12  C   UNL     1      -2.873  -3.993   1.999  1.00  0.00     0.085 C 
BRANCH   9  13
ATOM     13  N   UNL     1      -1.036  -2.964  -1.149  1.00  0.00    -0.330 N 
ATOM     14  C   UNL     1       1.170  -1.877  -1.759  1.00  0.00     0.173 C 
ATOM     15  C   UNL     1       1.472  -3.083  -2.654  1.00  0.00     0.044 C 
ATOM     16  C   UNL     1       0.165  -2.266  -0.656  1.00  0.00     0.294 C 
ATOM     17  C   UNL     1       0.203  -3.809  -3.090  1.00  0.00     0.064 C 
ATOM     18  C   UNL     1      -0.690  -4.166  -1.899  1.00  0.00     0.262 C 
ATOM     19  H   UNL     1      -1.504  -2.384  -1.846  1.00  0.00     0.348 HD
BRANCH  14  20
ATOM     20  O   UNL     1       0.656  -0.813  -2.568  1.00  0.00    -0.372 OA
BRANCH  20  21
ATOM     21  C   UNL     1       1.198   0.479  -2.292  1.00  0.00     0.160 C 
BRANCH  21  22
ATOM     22  C   UNL     1       0.655   1.133  -1.020  1.00  0.00     0.025 C 
ATOM     23  C   UNL     1       1.529   0.901   0.208  1.00  0.00     0.006 C 
ENDBRANCH  21  22
ENDBRANCH  20  21
ENDBRANCH  14  20
ENDBRANCH   9  13
BRANCH   8  24
ATOM     24  N   UNL     1      -4.866  -2.827   0.932  1.00  0.00    -0.336 N 
ATOM     25  C   UNL     1      -5.892  -2.706   1.948  1.00  0.00     0.331 C 
ATOM     26  H   UNL     1      -5.328  -2.795   0.023  1.00  0.00     0.346 HD
ATOM     27  H   UNL     1      -4.221  -2.059   1.115  1.00  0.00     0.346 HD
ENDBRANCH   8  24
ENDBRANCH   5   8
ENDBRANCH   3   4
ENDBRANCH   2   3
ENDBRANCH   1   2
BRANCH   1  28
ATOM     28  C   UNL     1      -6.687  -7.679   5.343  1.00  0.00     0.002 C 
BRANCH  28  29
ATOM     29  C   UNL     1      -6.352  -7.111   6.724  1.00  0.00     0.021 C 
BRANCH  29  30
ATOM     30  C   UNL     1      -7.488  -6.366   7.420  1.00  0.00     0.116 C 
BRANCH  30  31
ATOM     31  N   UNL     1      -8.672  -7.191   7.587  1.00  0.00    -0.352 N 
ATOM     32  C   UNL     1      -9.416  -7.430   8.714  1.00  0.00     0.251 C 
ATOM     33  H   UNL     1      -8.986  -7.645   6.772  1.00  0.00     0.163 HD
ATOM     34  O   UNL     1     -10.293  -8.288   8.694  1.00  0.00    -0.269 OA
BRANCH  32  35
ATOM     35  C   UNL     1      -9.149  -6.671   9.955  1.00  0.00     0.039 A 
ATOM     36  C   UNL     1      -9.095  -7.369  11.163  1.00  0.00     0.014 A 
ATOM     37  C   UNL     1      -8.972  -5.283   9.936  1.00  0.00     0.014 A 
ATOM     38  C   UNL     1      -8.819  -6.681  12.347  1.00  0.00     0.010 A 
ATOM     39  C   UNL     1      -8.631  -4.610  11.108  1.00  0.00     0.010 A 
ATOM     40  C   UNL     1      -8.562  -5.300  12.327  1.00  0.00    -0.014 A 
BRANCH  40  41
ATOM     41  C   UNL     1      -8.195  -4.588  13.578  1.00  0.00     0.031 A 
ATOM     42  C   UNL     1      -9.092  -3.529  14.157  1.00  0.00     0.074 A 
ATOM     43  C   UNL     1      -7.015  -4.863  14.168  1.00  0.00     0.049 A 
ATOM     44  N   UNL     1      -8.956  -2.859  15.273  1.00  0.00    -0.248 NA
ATOM     45  C   UNL     1     -10.279  -3.152  13.374  1.00  0.00     0.031 C 
ATOM     46  C   UNL     1      -6.006  -5.787  13.644  1.00  0.00     0.029 A 
ATOM     47  N   UNL     1      -6.457  -4.384  15.326  1.00  0.00    -0.354 N 
ATOM     48  C   UNL     1     -10.019  -1.965  15.313  1.00  0.00     0.074 A 
ATOM     49  C   UNL     1     -10.772  -2.152  14.092  1.00  0.00     0.031 C 
ATOM     50  C   UNL     1      -4.960  -5.817  14.484  1.00  0.00     0.029 A 
ATOM     51  C   UNL     1      -5.217  -4.910  15.599  1.00  0.00     0.049 A 
ATOM     52  H   UNL     1      -6.903  -3.725  15.906  1.00  0.00     0.167 HD
ATOM     53  C   UNL     1     -10.357  -1.090  16.291  1.00  0.00     0.034 A 
ATOM     54  C   UNL     1      -4.386  -4.700  16.638  1.00  0.00     0.034 A 
ATOM     55  C   UNL     1      -9.630  -0.940  17.523  1.00  0.00     0.049 A 
ATOM     56  C   UNL     1      -4.830  -3.800  17.758  1.00  0.00     0.074 A 
ATOM     57  C   UNL     1      -9.948  -0.161  18.622  1.00  0.00     0.029 A 
ATOM     58  N   UNL     1      -8.432  -1.574  17.818  1.00  0.00    -0.354 N 
ATOM     59  N   UNL     1      -5.940  -3.112  17.871  1.00  0.00    -0.248 NA
ATOM     60  C   UNL     1      -3.932  -3.688  18.916  1.00  0.00     0.031 C 
ATOM     61  C   UNL     1      -8.933  -0.312  19.575  1.00  0.00     0.029 A 
ATOM     62  C   UNL     1      -7.994  -1.201  19.078  1.00  0.00     0.049 A 
ATOM     63  H   UNL     1      -7.963  -2.198  17.219  1.00  0.00     0.167 HD
ATOM     64  C   UNL     1      -5.891  -2.510  19.123  1.00  0.00     0.074 A 
ATOM     65  C   UNL     1      -4.651  -2.938  19.741  1.00  0.00     0.031 C 
ATOM     66  C   UNL     1      -6.783  -1.669  19.702  1.00  0.00     0.034 A 
BRANCH  53  67
ATOM     67  C   UNL     1     -11.606  -0.270  16.094  1.00  0.00     0.023 A 
ATOM     68  C   UNL     1     -12.867  -0.897  16.169  1.00  0.00     0.012 A 
ATOM     69  C   UNL     1     -11.540   1.122  15.889  1.00  0.00     0.148 A 
ATOM     70  C   UNL     1     -14.040  -0.161  16.006  1.00  0.00     0.002 A 
ATOM     71  C   UNL     1     -12.715   1.857  15.771  1.00  0.00     0.091 A 
ATOM     72  F   UNL     1     -10.333   1.700  15.796  1.00  0.00    -0.205 F 
ATOM     73  C   UNL     1     -13.964   1.216  15.817  1.00  0.00     0.022 A 
BRANCH  71  74
ATOM     74  S   UNL     1     -12.720   3.646  15.605  1.00  0.00     0.127 S 
ATOM     75  O   UNL     1     -13.040   3.811  14.189  1.00  0.00    -0.237 OA
ATOM     76  O   UNL     1     -13.791   4.040  16.522  1.00  0.00    -0.237 OA
ATOM     77  O   UNL     1     -11.391   4.086  16.007  1.00  0.00    -0.744 OA
ENDBRANCH  71  74
ENDBRANCH  53  67
BRANCH  54  78
ATOM     78  C   UNL     1      -3.095  -5.442  16.706  1.00  0.00     0.023 A 
ATOM     79  C   UNL     1      -2.945  -6.487  17.638  1.00  0.00     0.012 A 
ATOM     80  C   UNL     1      -2.044  -5.160  15.813  1.00  0.00     0.148 A 
ATOM     81  C   UNL     1      -1.761  -7.221  17.697  1.00  0.00     0.002 A 
ATOM     82  C   UNL     1      -0.889  -5.932  15.839  1.00  0.00     0.091 A 
ATOM     83  F   UNL     1      -2.204  -4.155  14.941  1.00  0.00    -0.205 F 
ATOM     84  C   UNL     1      -0.738  -6.953  16.791  1.00  0.00     0.022 A 
BRANCH  82  85
ATOM     85  S   UNL     1       0.416  -5.752  14.618  1.00  0.00     0.127 S 
ATOM     86  O   UNL     1       1.481  -5.138  15.405  1.00  0.00    -0.237 OA
ATOM     87  O   UNL     1       0.659  -7.140  14.226  1.00  0.00    -0.237 OA
ATOM     88  O   UNL     1      -0.150  -4.923  13.560  1.00  0.00    -0.744 OA
ENDBRANCH  82  85
ENDBRANCH  54  78
BRANCH  66  89
ATOM     89  C   UNL     1      -6.467  -1.167  21.087  1.00  0.00     0.023 A 
ATOM     90  C   UNL     1      -5.439  -0.221  21.271  1.00  0.00     0.012 A 
ATOM     91  C   UNL     1      -7.224  -1.589  22.197  1.00  0.00     0.148 A 
ATOM     92  C   UNL     1      -5.144   0.268  22.543  1.00  0.00     0.002 A 
ATOM     93  C   UNL     1      -6.956  -1.061  23.455  1.00  0.00     0.091 A 
ATOM     94  F   UNL     1      -8.184  -2.506  22.009  1.00  0.00    -0.205 F 
ATOM     95  C   UNL     1      -5.909  -0.143  23.633  1.00  0.00     0.022 A 
BRANCH  93  96
ATOM     96  S   UNL     1      -7.956  -1.468  24.891  1.00  0.00     0.127 S 
ATOM     97  O   UNL     1      -7.121  -2.461  25.565  1.00  0.00    -0.237 OA
ATOM     98  O   UNL     1      -8.053  -0.182  25.584  1.00  0.00    -0.237 OA
ATOM     99  O   UNL     1      -9.221  -1.960  24.363  1.00  0.00    -0.744 OA
ENDBRANCH  93  96
ENDBRANCH  66  89
ENDBRANCH  40  41
ENDBRANCH  32  35
ENDBRANCH  30  31
ENDBRANCH  29  30
ENDBRANCH  28  29
ENDBRANCH   1  28
TORSDOF 21
