REMARK SMILES C[NH+]1CC[NH+](CC[C@H]2CCC[C@@]2([NH3+])C(=O)NCCCCCCNC(=O)c2ccc(-c3c4nc(c(-c5cccc(S(=O)(=O)[O-])c5F)c5ccc([nH]5)c(-c5cccc(S(=O)(=O)[O-])c5F)c5nc(c(-c6cccc(S(=O)(=O)[O-])c6F)c6ccc3[nH]6)C=C5)C=C4)cc2)CC1
REMARK SMILES IDX 19 1 18 2 17 3 16 4 14 5 15 6 12 8 8 9 9 10 10 11 11 12 7 13
REMARK SMILES IDX 6 14 5 15 1 16 2 17 3 18 90 19 4 21 89 22 13 24 20 28 21 29
REMARK SMILES IDX 22 30 23 31 24 32 25 34 26 35 27 36 88 37 28 38 87 39 29 40
REMARK SMILES IDX 30 41 31 42 81 43 32 44 86 45 80 46 82 47 33 48 85 49 79 50
REMARK SMILES IDX 78 51 34 53 66 54 46 55 65 56 47 57 50 58 64 59 83 60 48 61
REMARK SMILES IDX 49 62 63 64 84 65 51 66 35 67 36 68 44 69 37 70 39 71 45 72
REMARK SMILES IDX 38 73 40 74 41 75 42 76 43 77 67 78 68 79 76 80 69 81 71 82
REMARK SMILES IDX 77 83 70 84 72 85 73 86 74 87 75 88 52 89 53 90 61 91 54 92
REMARK SMILES IDX 56 93 62 94 55 95 57 96 58 97 59 98 60 99
REMARK H PARENT 16 7 2 20 5 23 13 25 13 26 13 27 23 33 82 52 50 63
REMARK Flexibility Score: inf
ROOT
ATOM      1  C   UNL     1      -0.715   2.921  -2.979  1.00  0.00     0.002 C 
ENDROOT
BRANCH   1   2
ATOM      2  C   UNL     1       0.238   2.322  -1.945  1.00  0.00     0.021 C 
BRANCH   2   3
ATOM      3  C   UNL     1       0.873   3.296  -0.937  1.00  0.00     0.116 C 
BRANCH   3   4
ATOM      4  N   UNL     1      -0.095   3.995  -0.114  1.00  0.00    -0.351 N 
ATOM      5  C   UNL     1      -0.347   4.027   1.223  1.00  0.00     0.281 C 
ATOM      6  O   UNL     1      -1.245   4.822   1.546  1.00  0.00    -0.268 OA
ATOM      7  H   UNL     1      -0.700   4.572  -0.634  1.00  0.00     0.163 HD
BRANCH   5   8
ATOM      8  C   UNL     1       0.381   3.151   2.325  1.00  0.00     0.177 C 
ATOM      9  C   UNL     1       0.376   1.573   2.272  1.00  0.00     0.066 C 
ATOM     10  C   UNL     1       1.827   1.170   2.652  1.00  0.00     0.011 C 
ATOM     11  C   UNL     1       2.494   2.417   3.222  1.00  0.00     0.008 C 
ATOM     12  C   UNL     1       1.858   3.551   2.438  1.00  0.00     0.079 C 
BRANCH   9  13
ATOM     13  C   UNL     1      -0.066   0.950   0.949  1.00  0.00     0.072 C 
BRANCH  13  14
ATOM     14  C   UNL     1      -0.892  -0.343   0.906  1.00  0.00     0.263 C 
BRANCH  14  15
ATOM     15  N   UNL     1      -2.356  -0.268   0.911  1.00  0.00    -0.326 N 
ATOM     16  C   UNL     1      -4.148   3.366   2.439  1.00  0.00     0.333 C 
ATOM     17  N   UNL     1      -4.029   2.018   1.878  1.00  0.00    -0.328 N 
ATOM     18  C   UNL     1      -3.266   1.155   2.794  1.00  0.00     0.324 C 
ATOM     19  C   UNL     1      -3.373   2.065   0.558  1.00  0.00     0.324 C 
ATOM     20  H   UNL     1      -4.965   1.631   1.760  1.00  0.00     0.348 HD
ATOM     21  C   UNL     1      -2.995  -0.248   2.223  1.00  0.00     0.324 C 
ATOM     22  C   UNL     1      -3.014   0.668  -0.017  1.00  0.00     0.324 C 
ATOM     23  H   UNL     1      -2.531  -1.186   0.503  1.00  0.00     0.348 HD
ENDBRANCH  14  15
ENDBRANCH  13  14
ENDBRANCH   9  13
BRANCH   8  24
ATOM     24  N   UNL     1      -0.218   3.527   3.650  1.00  0.00    -0.345 N 
ATOM     25  H   UNL     1       0.226   2.983   4.390  1.00  0.00     0.345 HD
ATOM     26  H   UNL     1      -1.219   3.331   3.638  1.00  0.00     0.345 HD
ATOM     27  H   UNL     1      -0.068   4.521   3.821  1.00  0.00     0.345 HD
ENDBRANCH   8  24
ENDBRANCH   5   8
ENDBRANCH   3   4
ENDBRANCH   2   3
ENDBRANCH   1   2
BRANCH   1  28
ATOM     28  C   UNL     1      -0.081   3.929  -3.932  1.00  0.00     0.002 C 
BRANCH  28  29
ATOM     29  C   UNL     1       1.268   3.497  -4.506  1.00  0.00     0.021 C 
BRANCH  29  30
ATOM     30  C   UNL     1       1.264   2.126  -5.173  1.00  0.00     0.116 C 
BRANCH  30  31
ATOM     31  N   UNL     1       0.517   2.128  -6.418  1.00  0.00    -0.352 N 
ATOM     32  C   UNL     1       1.001   1.948  -7.691  1.00  0.00     0.251 C 
ATOM     33  H   UNL     1      -0.454   2.277  -6.341  1.00  0.00     0.163 HD
ATOM     34  O   UNL     1       0.301   2.186  -8.671  1.00  0.00    -0.269 OA
BRANCH  32  35
ATOM     35  C   UNL     1       2.392   1.483  -7.854  1.00  0.00     0.039 A 
ATOM     36  C   UNL     1       3.273   2.221  -8.645  1.00  0.00     0.014 A 
ATOM     37  C   UNL     1       2.833   0.353  -7.157  1.00  0.00     0.014 A 
ATOM     38  C   UNL     1       4.620   1.858  -8.690  1.00  0.00     0.010 A 
ATOM     39  C   UNL     1       4.188   0.047  -7.137  1.00  0.00     0.010 A 
ATOM     40  C   UNL     1       5.095   0.789  -7.910  1.00  0.00    -0.014 A 
BRANCH  40  41
ATOM     41  C   UNL     1       6.532   0.419  -7.886  1.00  0.00     0.031 A 
ATOM     42  C   UNL     1       6.960  -0.946  -8.354  1.00  0.00     0.074 A 
ATOM     43  C   UNL     1       7.436   1.266  -7.356  1.00  0.00     0.049 A 
ATOM     44  N   UNL     1       8.146  -1.494  -8.328  1.00  0.00    -0.248 NA
ATOM     45  C   UNL     1       5.906  -1.822  -8.892  1.00  0.00     0.031 C 
ATOM     46  C   UNL     1       7.138   2.593  -6.812  1.00  0.00     0.029 A 
ATOM     47  N   UNL     1       8.788   1.126  -7.162  1.00  0.00    -0.354 N 
ATOM     48  C   UNL     1       7.976  -2.787  -8.807  1.00  0.00     0.074 A 
ATOM     49  C   UNL     1       6.565  -2.956  -9.075  1.00  0.00     0.031 C 
ATOM     50  C   UNL     1       8.274   3.149  -6.359  1.00  0.00     0.029 A 
ATOM     51  C   UNL     1       9.373   2.205  -6.542  1.00  0.00     0.049 A 
ATOM     52  H   UNL     1       9.292   0.328  -7.442  1.00  0.00     0.167 HD
ATOM     53  C   UNL     1       8.911  -3.740  -9.033  1.00  0.00     0.034 A 
ATOM     54  C   UNL     1      10.648   2.408  -6.156  1.00  0.00     0.034 A 
ATOM     55  C   UNL     1      10.317  -3.556  -8.796  1.00  0.00     0.049 A 
ATOM     56  C   UNL     1      11.670   1.336  -6.423  1.00  0.00     0.074 A 
ATOM     57  C   UNL     1      11.357  -4.428  -9.063  1.00  0.00     0.029 A 
ATOM     58  N   UNL     1      10.880  -2.424  -8.226  1.00  0.00    -0.354 N 
ATOM     59  N   UNL     1      11.514   0.172  -7.007  1.00  0.00    -0.248 NA
ATOM     60  C   UNL     1      13.052   1.618  -6.006  1.00  0.00     0.031 C 
ATOM     61  C   UNL     1      12.545  -3.836  -8.623  1.00  0.00     0.029 A 
ATOM     62  C   UNL     1      12.251  -2.579  -8.119  1.00  0.00     0.049 A 
ATOM     63  H   UNL     1      10.378  -1.627  -7.939  1.00  0.00     0.167 HD
ATOM     64  C   UNL     1      12.782  -0.396  -7.071  1.00  0.00     0.074 A 
ATOM     65  C   UNL     1      13.696   0.557  -6.475  1.00  0.00     0.031 C 
ATOM     66  C   UNL     1      13.155  -1.599  -7.572  1.00  0.00     0.034 A 
BRANCH  53  67
ATOM     67  C   UNL     1       8.439  -5.056  -9.599  1.00  0.00     0.023 A 
ATOM     68  C   UNL     1       7.947  -5.114 -10.920  1.00  0.00     0.012 A 
ATOM     69  C   UNL     1       8.506  -6.239  -8.838  1.00  0.00     0.148 A 
ATOM     70  C   UNL     1       7.481  -6.314 -11.455  1.00  0.00     0.002 A 
ATOM     71  C   UNL     1       8.088  -7.441  -9.396  1.00  0.00     0.091 A 
ATOM     72  F   UNL     1       8.956  -6.165  -7.577  1.00  0.00    -0.205 F 
ATOM     73  C   UNL     1       7.560  -7.478 -10.697  1.00  0.00     0.022 A 
BRANCH  71  74
ATOM     74  S   UNL     1       8.228  -9.009  -8.530  1.00  0.00     0.127 S 
ATOM     75  O   UNL     1       6.830  -9.293  -8.206  1.00  0.00    -0.237 OA
ATOM     76  O   UNL     1       8.803  -9.878  -9.558  1.00  0.00    -0.237 OA
ATOM     77  O   UNL     1       9.098  -8.760  -7.390  1.00  0.00    -0.744 OA
ENDBRANCH  71  74
ENDBRANCH  53  67
BRANCH  54  78
ATOM     78  C   UNL     1      11.046   3.706  -5.542  1.00  0.00     0.023 A 
ATOM     79  C   UNL     1      11.869   4.587  -6.272  1.00  0.00     0.012 A 
ATOM     80  C   UNL     1      10.604   4.084  -4.260  1.00  0.00     0.148 A 
ATOM     81  C   UNL     1      12.271   5.806  -5.723  1.00  0.00     0.002 A 
ATOM     82  C   UNL     1      10.963   5.323  -3.741  1.00  0.00     0.091 A 
ATOM     83  F   UNL     1       9.828   3.229  -3.579  1.00  0.00    -0.205 F 
ATOM     84  C   UNL     1      11.811   6.177  -4.463  1.00  0.00     0.022 A 
BRANCH  82  85
ATOM     85  S   UNL     1      10.320   5.941  -2.182  1.00  0.00     0.127 S 
ATOM     86  O   UNL     1      11.522   5.966  -1.352  1.00  0.00    -0.237 OA
ATOM     87  O   UNL     1       9.809   7.256  -2.569  1.00  0.00    -0.237 OA
ATOM     88  O   UNL     1       9.293   4.992  -1.774  1.00  0.00    -0.744 OA
ENDBRANCH  82  85
ENDBRANCH  54  78
BRANCH  66  89
ATOM     89  C   UNL     1      14.622  -1.942  -7.554  1.00  0.00     0.023 A 
ATOM     90  C   UNL     1      15.261  -2.254  -6.338  1.00  0.00     0.012 A 
ATOM     91  C   UNL     1      15.345  -2.035  -8.760  1.00  0.00     0.148 A 
ATOM     92  C   UNL     1      16.607  -2.620  -6.319  1.00  0.00     0.002 A 
ATOM     93  C   UNL     1      16.670  -2.453  -8.739  1.00  0.00     0.091 A 
ATOM     94  F   UNL     1      14.723  -1.717  -9.904  1.00  0.00    -0.205 F 
ATOM     95  C   UNL     1      17.306  -2.733  -7.519  1.00  0.00     0.022 A 
BRANCH  93  96
ATOM     96  S   UNL     1      17.619  -2.725 -10.240  1.00  0.00     0.127 S 
ATOM     97  O   UNL     1      18.582  -1.627 -10.186  1.00  0.00    -0.237 OA
ATOM     98  O   UNL     1      18.191  -4.051 -10.006  1.00  0.00    -0.237 OA
ATOM     99  O   UNL     1      16.664  -2.663 -11.338  1.00  0.00    -0.744 OA
ENDBRANCH  93  96
ENDBRANCH  66  89
ENDBRANCH  40  41
ENDBRANCH  32  35
ENDBRANCH  30  31
ENDBRANCH  29  30
ENDBRANCH  28  29
ENDBRANCH   1  28
TORSDOF 20
