REMARK SMILES Cc1ccccc1S(=O)(=O)Nc1ccc(N2CCOCC2)cc1C(=O)NCCCCCCNC(=O)c1ccc(-c2c3nc(c(-c4cccc(S(=O)(=O)[O-])c4F)c4ccc([nH]4)c(-c4cccc(S(=O)(=O)[O-])c4F)c4nc(c(-c5cccc(S(=O)(=O)[O-])c5F)c5ccc2[nH]5)C=C4)C=C3)cc1
REMARK SMILES IDX 29 1 28 2 27 3 26 4 24 5 25 6 23 8 12 9 13 10 14 11 22 12
REMARK SMILES IDX 15 13 11 14 8 16 9 17 10 18 7 19 1 20 2 21 3 22 4 23 6 24
REMARK SMILES IDX 5 25 16 26 17 27 21 28 18 29 20 30 19 31 30 32 31 33 32 34
REMARK SMILES IDX 33 35 34 36 35 38 36 39 37 40 98 41 38 42 97 43 39 44 40 45
REMARK SMILES IDX 41 46 91 47 42 48 96 49 90 50 92 51 43 52 95 53 89 54 88 55
REMARK SMILES IDX 44 57 76 58 56 59 75 60 57 61 60 62 74 63 93 64 58 65 59 66
REMARK SMILES IDX 73 68 94 69 61 70 45 71 46 72 54 73 47 74 49 75 55 76 48 77
REMARK SMILES IDX 50 78 51 79 52 80 53 81 77 82 78 83 86 84 79 85 81 86 87 87
REMARK SMILES IDX 80 88 82 89 83 90 84 91 85 92 62 93 63 94 71 95 64 96 66 97
REMARK SMILES IDX 72 98 65 99 67 100 68 101 69 102 70 103
REMARK H PARENT 26 7 11 15 33 37 92 56 60 67
REMARK Flexibility Score: inf
ROOT
ATOM      1  C   UNL     1      -0.841  -2.451  -3.749  1.00  0.00     0.002 C 
ENDROOT
BRANCH   1   2
ATOM      2  C   UNL     1       0.053  -2.695  -2.533  1.00  0.00     0.021 C 
BRANCH   2   3
ATOM      3  C   UNL     1       1.398  -1.982  -2.478  1.00  0.00     0.116 C 
BRANCH   3   4
ATOM      4  N   UNL     1       1.396  -0.583  -2.861  1.00  0.00    -0.352 N 
ATOM      5  C   UNL     1       2.292   0.411  -2.533  1.00  0.00     0.253 C 
ATOM      6  O   UNL     1       2.220   1.496  -3.103  1.00  0.00    -0.269 OA
ATOM      7  H   UNL     1       0.648  -0.303  -3.437  1.00  0.00     0.163 HD
BRANCH   5   8
ATOM      8  C   UNL     1       3.317   0.182  -1.481  1.00  0.00     0.066 A 
ATOM      9  C   UNL     1       3.496   1.112  -0.449  1.00  0.00     0.062 A 
ATOM     10  C   UNL     1       4.435   0.845   0.547  1.00  0.00     0.030 A 
ATOM     11  C   UNL     1       5.104  -0.390   0.566  1.00  0.00     0.028 A 
ATOM     12  C   UNL     1       4.096  -0.987  -1.506  1.00  0.00     0.042 A 
ATOM     13  C   UNL     1       4.919  -1.352  -0.438  1.00  0.00     0.038 A 
BRANCH   9  14
ATOM     14  N   UNL     1       2.730   2.315  -0.405  1.00  0.00    -0.279 N 
ATOM     15  H   UNL     1       2.959   3.055  -1.012  1.00  0.00     0.180 HD
BRANCH  14  16
ATOM     16  S   UNL     1       1.441   2.495   0.666  1.00  0.00     0.262 S 
ATOM     17  O   UNL     1       0.757   3.698   0.227  1.00  0.00    -0.201 OA
ATOM     18  O   UNL     1       1.970   2.460   2.013  1.00  0.00    -0.201 OA
BRANCH  16  19
ATOM     19  C   UNL     1       0.326   1.112   0.428  1.00  0.00     0.090 A 
ATOM     20  C   UNL     1       1.709  -0.586   1.824  1.00  0.00     0.046 C 
ATOM     21  C   UNL     1       0.501  -0.140   1.055  1.00  0.00    -0.031 A 
ATOM     22  C   UNL     1      -0.519  -1.104   0.927  1.00  0.00     0.005 A 
ATOM     23  C   UNL     1      -1.703  -0.829   0.247  1.00  0.00     0.000 A 
ATOM     24  C   UNL     1      -0.868   1.371  -0.276  1.00  0.00     0.022 A 
ATOM     25  C   UNL     1      -1.877   0.407  -0.359  1.00  0.00     0.001 A 
ENDBRANCH  16  19
ENDBRANCH  14  16
ENDBRANCH   9  14
BRANCH  13  26
ATOM     26  N   UNL     1       5.460  -2.616  -0.347  1.00  0.00    -0.367 N 
ATOM     27  C   UNL     1       5.869  -3.422  -1.510  1.00  0.00     0.145 C 
ATOM     28  C   UNL     1       5.534  -3.330   0.945  1.00  0.00     0.145 C 
ATOM     29  C   UNL     1       5.156  -4.782  -1.499  1.00  0.00     0.181 C 
ATOM     30  C   UNL     1       4.889  -4.728   0.836  1.00  0.00     0.181 C 
ATOM     31  O   UNL     1       5.413  -5.477  -0.271  1.00  0.00    -0.378 OA
ENDBRANCH  13  26
ENDBRANCH   5   8
ENDBRANCH   3   4
ENDBRANCH   2   3
ENDBRANCH   1   2
BRANCH   1  32
ATOM     32  C   UNL     1      -0.212  -2.616  -5.136  1.00  0.00     0.002 C 
BRANCH  32  33
ATOM     33  C   UNL     1       0.644  -3.858  -5.355  1.00  0.00     0.021 C 
BRANCH  33  34
ATOM     34  C   UNL     1      -0.091  -5.182  -5.205  1.00  0.00     0.116 C 
BRANCH  34  35
ATOM     35  N   UNL     1      -0.488  -5.755  -6.483  1.00  0.00    -0.352 N 
ATOM     36  C   UNL     1      -0.944  -7.030  -6.763  1.00  0.00     0.251 C 
ATOM     37  H   UNL     1      -0.422  -5.151  -7.257  1.00  0.00     0.163 HD
ATOM     38  O   UNL     1      -1.058  -7.398  -7.931  1.00  0.00    -0.269 OA
BRANCH  36  39
ATOM     39  C   UNL     1      -1.424  -7.873  -5.646  1.00  0.00     0.039 A 
ATOM     40  C   UNL     1      -2.758  -8.294  -5.693  1.00  0.00     0.014 A 
ATOM     41  C   UNL     1      -0.691  -7.971  -4.469  1.00  0.00     0.014 A 
ATOM     42  C   UNL     1      -3.438  -8.550  -4.508  1.00  0.00     0.010 A 
ATOM     43  C   UNL     1      -1.379  -8.130  -3.287  1.00  0.00     0.010 A 
ATOM     44  C   UNL     1      -2.764  -8.348  -3.310  1.00  0.00    -0.014 A 
BRANCH  44  45
ATOM     45  C   UNL     1      -3.397  -8.322  -2.005  1.00  0.00     0.031 A 
ATOM     46  C   UNL     1      -3.335  -9.524  -1.153  1.00  0.00     0.074 A 
ATOM     47  C   UNL     1      -3.822  -7.137  -1.511  1.00  0.00     0.049 A 
ATOM     48  N   UNL     1      -3.987  -9.653  -0.050  1.00  0.00    -0.248 NA
ATOM     49  C   UNL     1      -2.570 -10.715  -1.518  1.00  0.00     0.031 C 
ATOM     50  C   UNL     1      -4.003  -6.791  -0.106  1.00  0.00     0.029 A 
ATOM     51  N   UNL     1      -4.390  -6.062  -2.207  1.00  0.00    -0.354 N 
ATOM     52  C   UNL     1      -3.491 -10.769   0.581  1.00  0.00     0.074 A 
ATOM     53  C   UNL     1      -2.738 -11.470  -0.427  1.00  0.00     0.031 C 
ATOM     54  C   UNL     1      -4.854  -5.759  -0.023  1.00  0.00     0.029 A 
ATOM     55  C   UNL     1      -5.376  -5.528  -1.358  1.00  0.00     0.049 A 
ATOM     56  H   UNL     1      -4.147  -5.744  -3.107  1.00  0.00     0.167 HD
ATOM     57  C   UNL     1      -3.650 -10.876   1.926  1.00  0.00     0.034 A 
ATOM     58  C   UNL     1      -6.701  -5.448  -1.671  1.00  0.00     0.034 A 
ATOM     59  C   UNL     1      -4.631  -9.898   2.414  1.00  0.00     0.049 A 
ATOM     60  C   UNL     1      -7.597  -6.194  -0.698  1.00  0.00     0.074 A 
ATOM     61  C   UNL     1      -4.524  -8.703   3.100  1.00  0.00     0.029 A 
ATOM     62  N   UNL     1      -5.945  -9.979   1.962  1.00  0.00    -0.354 N 
ATOM     63  N   UNL     1      -7.156  -6.963   0.260  1.00  0.00    -0.248 NA
ATOM     64  C   UNL     1      -9.057  -6.153  -0.736  1.00  0.00     0.031 C 
ATOM     65  C   UNL     1      -5.757  -8.007   2.950  1.00  0.00     0.029 A 
ATOM     66  C   UNL     1      -6.627  -8.800   2.219  1.00  0.00     0.049 A 
ATOM     67  H   UNL     1      -6.337 -10.766   1.520  1.00  0.00     0.167 HD
ATOM     68  C   UNL     1      -8.203  -7.611   0.863  1.00  0.00     0.074 A 
ATOM     69  C   UNL     1      -9.376  -7.005   0.255  1.00  0.00     0.031 C 
ATOM     70  C   UNL     1      -8.005  -8.629   1.760  1.00  0.00     0.034 A 
BRANCH  57  71
ATOM     71  C   UNL     1      -2.799 -11.723   2.857  1.00  0.00     0.023 A 
ATOM     72  C   UNL     1      -3.141 -11.709   4.228  1.00  0.00     0.012 A 
ATOM     73  C   UNL     1      -1.615 -12.430   2.524  1.00  0.00     0.148 A 
ATOM     74  C   UNL     1      -2.358 -12.335   5.206  1.00  0.00     0.002 A 
ATOM     75  C   UNL     1      -0.871 -13.115   3.490  1.00  0.00     0.091 A 
ATOM     76  F   UNL     1      -1.120 -12.374   1.286  1.00  0.00    -0.205 F 
ATOM     77  C   UNL     1      -1.230 -13.054   4.837  1.00  0.00     0.022 A 
BRANCH  75  78
ATOM     78  S   UNL     1       0.574 -14.107   3.065  1.00  0.00     0.127 S 
ATOM     79  O   UNL     1       1.673 -13.276   3.556  1.00  0.00    -0.237 OA
ATOM     80  O   UNL     1       0.351 -15.335   3.830  1.00  0.00    -0.237 OA
ATOM     81  O   UNL     1       0.528 -14.289   1.619  1.00  0.00    -0.744 OA
ENDBRANCH  75  78
ENDBRANCH  57  71
BRANCH  58  82
ATOM     82  C   UNL     1      -6.973  -5.213  -3.115  1.00  0.00     0.023 A 
ATOM     83  C   UNL     1      -6.660  -3.926  -3.611  1.00  0.00     0.012 A 
ATOM     84  C   UNL     1      -7.117  -6.278  -4.022  1.00  0.00     0.148 A 
ATOM     85  C   UNL     1      -6.383  -3.725  -4.964  1.00  0.00     0.002 A 
ATOM     86  C   UNL     1      -6.818  -6.073  -5.369  1.00  0.00     0.091 A 
ATOM     87  F   UNL     1      -7.426  -7.487  -3.538  1.00  0.00    -0.205 F 
ATOM     88  C   UNL     1      -6.427  -4.806  -5.835  1.00  0.00     0.022 A 
BRANCH  86  89
ATOM     89  S   UNL     1      -6.730  -7.420  -6.558  1.00  0.00     0.127 S 
ATOM     90  O   UNL     1      -7.903  -7.158  -7.386  1.00  0.00    -0.237 OA
ATOM     91  O   UNL     1      -5.447  -7.159  -7.207  1.00  0.00    -0.237 OA
ATOM     92  O   UNL     1      -6.769  -8.638  -5.763  1.00  0.00    -0.744 OA
ENDBRANCH  86  89
ENDBRANCH  58  82
BRANCH  70  93
ATOM     93  C   UNL     1      -9.082  -9.573   2.276  1.00  0.00     0.023 A 
ATOM     94  C   UNL     1     -10.305  -9.768   1.604  1.00  0.00     0.012 A 
ATOM     95  C   UNL     1      -8.836 -10.421   3.390  1.00  0.00     0.148 A 
ATOM     96  C   UNL     1     -11.257 -10.698   2.041  1.00  0.00     0.002 A 
ATOM     97  C   UNL     1      -9.737 -11.421   3.752  1.00  0.00     0.091 A 
ATOM     98  F   UNL     1      -7.727 -10.255   4.126  1.00  0.00    -0.205 F 
ATOM     99  C   UNL     1     -10.965 -11.542   3.102  1.00  0.00     0.022 A 
BRANCH  97 100
ATOM    100  S   UNL     1      -9.274 -12.683   4.949  1.00  0.00     0.127 S 
ATOM    101  O   UNL     1      -9.716 -12.089   6.208  1.00  0.00    -0.237 OA
ATOM    102  O   UNL     1     -10.060 -13.840   4.514  1.00  0.00    -0.237 OA
ATOM    103  O   UNL     1      -7.836 -12.845   4.777  1.00  0.00    -0.744 OA
ENDBRANCH  97 100
ENDBRANCH  70  93
ENDBRANCH  44  45
ENDBRANCH  36  39
ENDBRANCH  34  35
ENDBRANCH  33  34
ENDBRANCH  32  33
ENDBRANCH   1  32
TORSDOF 20
