REMARK SMILES NS(=O)(=O)c1ccc(N2N=C(C(=O)NCCCCCCNC(=O)c3ccc(-c4c5nc(c(-c6cccc(S(=O)(=O)[O-])c6F)c6ccc([nH]6)c(-c6cccc(S(=O)(=O)[O-])c6F)c6nc(c(-c7cccc(S(=O)(=O)[O-])c7F)c7ccc4[nH]7)C=C6)C=C5)cc3)C[C@H]2c2ccco2)cc1
REMARK SMILES IDX 17 1 16 2 15 3 14 4 12 5 13 6 11 8 9 9 10 10 88 11 87 12
REMARK SMILES IDX 8 13 5 14 6 15 95 16 7 17 94 18 2 19 3 20 4 21 1 22 89 25
REMARK SMILES IDX 90 26 93 27 91 28 92 29 18 30 19 31 20 32 21 33 22 34 23 36
REMARK SMILES IDX 24 37 25 38 86 39 26 40 85 41 27 42 28 43 29 44 79 45 30 46
REMARK SMILES IDX 84 47 78 48 80 49 31 50 83 51 77 52 76 53 32 55 64 56 44 57
REMARK SMILES IDX 63 58 45 59 48 60 62 61 81 62 46 63 47 64 61 66 82 67 49 68
REMARK SMILES IDX 33 69 34 70 42 71 35 72 37 73 43 74 36 75 38 76 39 77 40 78
REMARK SMILES IDX 41 79 65 80 66 81 74 82 67 83 69 84 75 85 68 86 70 87 71 88
REMARK SMILES IDX 72 89 73 90 50 91 51 92 59 93 52 94 54 95 60 96 53 97 55 98
REMARK SMILES IDX 56 99 57 100 58 101
REMARK H PARENT 14 7 1 23 1 24 21 35 80 54 48 65
REMARK Flexibility Score: inf
ROOT
ATOM      1  C   UNL     1       2.013 -12.227   6.201  1.00  0.00     0.002 C 
ENDROOT
BRANCH   1   2
ATOM      2  C   UNL     1       1.298 -10.876   6.271  1.00  0.00     0.021 C 
BRANCH   2   3
ATOM      3  C   UNL     1       2.235  -9.693   6.489  1.00  0.00     0.116 C 
BRANCH   3   4
ATOM      4  N   UNL     1       2.968  -9.382   5.276  1.00  0.00    -0.351 N 
ATOM      5  C   UNL     1       3.033  -8.288   4.452  1.00  0.00     0.267 C 
ATOM      6  O   UNL     1       3.690  -8.393   3.418  1.00  0.00    -0.268 OA
ATOM      7  H   UNL     1       3.546 -10.121   4.979  1.00  0.00     0.163 HD
BRANCH   5   8
ATOM      8  C   UNL     1       2.382  -6.950   4.769  1.00  0.00     0.128 C 
ATOM      9  N   UNL     1       1.981  -4.856   4.613  1.00  0.00    -0.254 N 
ATOM     10  N   UNL     1       2.518  -5.933   3.971  1.00  0.00    -0.171 NA
ATOM     11  C   UNL     1       1.263  -5.208   5.847  1.00  0.00     0.180 C 
ATOM     12  C   UNL     1       1.585  -6.694   5.998  1.00  0.00     0.099 C 
BRANCH   9  13
ATOM     13  C   UNL     1       1.626  -3.724   3.883  1.00  0.00     0.060 A 
ATOM     14  C   UNL     1       0.857  -1.408   2.498  1.00  0.00     0.082 A 
ATOM     15  C   UNL     1       0.568  -2.664   1.959  1.00  0.00     0.024 A 
ATOM     16  C   UNL     1       1.544  -1.294   3.704  1.00  0.00     0.024 A 
ATOM     17  C   UNL     1       0.965  -3.815   2.649  1.00  0.00     0.029 A 
ATOM     18  C   UNL     1       1.930  -2.450   4.380  1.00  0.00     0.029 A 
BRANCH  14  19
ATOM     19  S   UNL     1       0.366   0.054   1.640  1.00  0.00     0.238 S 
ATOM     20  O   UNL     1       0.976   1.208   2.264  1.00  0.00    -0.207 OA
ATOM     21  O   UNL     1      -1.045  -0.018   1.358  1.00  0.00    -0.207 OA
BRANCH  19  22
ATOM     22  N   UNL     1       1.153  -0.105   0.165  1.00  0.00    -0.225 NA
ATOM     23  H   UNL     1       0.937   0.699  -0.424  1.00  0.00     0.137 HD
ATOM     24  H   UNL     1       0.839  -0.959  -0.297  1.00  0.00     0.137 HD
ENDBRANCH  19  22
ENDBRANCH  14  19
ENDBRANCH   9  13
BRANCH  11  25
ATOM     25  C   UNL     1       1.560  -4.424   7.095  1.00  0.00     0.128 A 
ATOM     26  C   UNL     1       1.131  -3.193   7.556  1.00  0.00     0.048 A 
ATOM     27  O   UNL     1       2.367  -4.998   8.039  1.00  0.00    -0.467 OA
ATOM     28  C   UNL     1       1.720  -3.005   8.829  1.00  0.00     0.042 A 
ATOM     29  C   UNL     1       2.442  -4.144   9.088  1.00  0.00     0.195 A 
ENDBRANCH  11  25
ENDBRANCH   5   8
ENDBRANCH   3   4
ENDBRANCH   2   3
ENDBRANCH   1   2
BRANCH   1  30
ATOM     30  C   UNL     1       2.875 -12.563   7.423  1.00  0.00     0.002 C 
BRANCH  30  31
ATOM     31  C   UNL     1       2.166 -12.436   8.774  1.00  0.00     0.021 C 
BRANCH  31  32
ATOM     32  C   UNL     1       0.907 -13.284   8.911  1.00  0.00     0.116 C 
BRANCH  32  33
ATOM     33  N   UNL     1       1.192 -14.701   8.766  1.00  0.00    -0.352 N 
ATOM     34  C   UNL     1       0.908 -15.736   9.620  1.00  0.00     0.251 C 
ATOM     35  H   UNL     1       1.657 -14.955   7.936  1.00  0.00     0.163 HD
ATOM     36  O   UNL     1       1.420 -16.837   9.437  1.00  0.00    -0.269 OA
BRANCH  34  37
ATOM     37  C   UNL     1      -0.003 -15.519  10.764  1.00  0.00     0.039 A 
ATOM     38  C   UNL     1       0.332 -16.063  12.005  1.00  0.00     0.014 A 
ATOM     39  C   UNL     1      -1.190 -14.796  10.610  1.00  0.00     0.014 A 
ATOM     40  C   UNL     1      -0.501 -15.842  13.103  1.00  0.00     0.010 A 
ATOM     41  C   UNL     1      -1.976 -14.509  11.723  1.00  0.00     0.010 A 
ATOM     42  C   UNL     1      -1.648 -15.040  12.979  1.00  0.00    -0.014 A 
BRANCH  42  43
ATOM     43  C   UNL     1      -2.503 -14.743  14.156  1.00  0.00     0.031 A 
ATOM     44  C   UNL     1      -3.942 -15.186  14.186  1.00  0.00     0.074 A 
ATOM     45  C   UNL     1      -2.002 -14.013  15.173  1.00  0.00     0.049 A 
ATOM     46  N   UNL     1      -4.842 -14.995  15.116  1.00  0.00    -0.248 NA
ATOM     47  C   UNL     1      -4.444 -15.917  13.011  1.00  0.00     0.031 C 
ATOM     48  C   UNL     1      -0.648 -13.455  15.225  1.00  0.00     0.029 A 
ATOM     49  N   UNL     1      -2.578 -13.593  16.346  1.00  0.00    -0.354 N 
ATOM     50  C   UNL     1      -6.019 -15.546  14.626  1.00  0.00     0.074 A 
ATOM     51  C   UNL     1      -5.729 -16.053  13.303  1.00  0.00     0.031 C 
ATOM     52  C   UNL     1      -0.497 -12.774  16.372  1.00  0.00     0.029 A 
ATOM     53  C   UNL     1      -1.749 -12.813  17.119  1.00  0.00     0.049 A 
ATOM     54  H   UNL     1      -3.497 -13.828  16.609  1.00  0.00     0.167 HD
ATOM     55  C   UNL     1      -7.227 -15.645  15.231  1.00  0.00     0.034 A 
ATOM     56  C   UNL     1      -1.976 -12.188  18.291  1.00  0.00     0.034 A 
ATOM     57  C   UNL     1      -7.502 -15.171  16.561  1.00  0.00     0.049 A 
ATOM     58  C   UNL     1      -3.315 -12.346  18.957  1.00  0.00     0.074 A 
ATOM     59  C   UNL     1      -8.665 -15.309  17.298  1.00  0.00     0.029 A 
ATOM     60  N   UNL     1      -6.614 -14.454  17.347  1.00  0.00    -0.354 N 
ATOM     61  N   UNL     1      -4.366 -13.014  18.548  1.00  0.00    -0.248 NA
ATOM     62  C   UNL     1      -3.489 -11.696  20.264  1.00  0.00     0.031 C 
ATOM     63  C   UNL     1      -8.495 -14.639  18.513  1.00  0.00     0.029 A 
ATOM     64  C   UNL     1      -7.209 -14.126  18.553  1.00  0.00     0.049 A 
ATOM     65  H   UNL     1      -5.696 -14.214  17.087  1.00  0.00     0.167 HD
ATOM     66  C   UNL     1      -5.311 -12.896  19.562  1.00  0.00     0.074 A 
ATOM     67  C   UNL     1      -4.698 -12.112  20.614  1.00  0.00     0.031 C 
ATOM     68  C   UNL     1      -6.575 -13.383  19.612  1.00  0.00     0.034 A 
BRANCH  55  69
ATOM     69  C   UNL     1      -8.342 -16.320  14.476  1.00  0.00     0.023 A 
ATOM     70  C   UNL     1      -8.301 -17.713  14.259  1.00  0.00     0.012 A 
ATOM     71  C   UNL     1      -9.468 -15.588  14.050  1.00  0.00     0.148 A 
ATOM     72  C   UNL     1      -9.346 -18.361  13.601  1.00  0.00     0.002 A 
ATOM     73  C   UNL     1     -10.527 -16.248  13.439  1.00  0.00     0.091 A 
ATOM     74  F   UNL     1      -9.481 -14.263  14.249  1.00  0.00    -0.205 F 
ATOM     75  C   UNL     1     -10.463 -17.631  13.203  1.00  0.00     0.022 A 
BRANCH  73  76
ATOM     76  S   UNL     1     -12.046 -15.415  12.965  1.00  0.00     0.127 S 
ATOM     77  O   UNL     1     -11.981 -15.492  11.506  1.00  0.00    -0.237 OA
ATOM     78  O   UNL     1     -13.066 -16.267  13.576  1.00  0.00    -0.237 OA
ATOM     79  O   UNL     1     -11.960 -14.072  13.521  1.00  0.00    -0.744 OA
ENDBRANCH  73  76
ENDBRANCH  55  69
BRANCH  56  80
ATOM     80  C   UNL     1      -0.894 -11.386  18.930  1.00  0.00     0.023 A 
ATOM     81  C   UNL     1      -0.306 -11.834  20.129  1.00  0.00     0.012 A 
ATOM     82  C   UNL     1      -0.440 -10.187  18.349  1.00  0.00     0.148 A 
ATOM     83  C   UNL     1       0.686 -11.081  20.758  1.00  0.00     0.002 A 
ATOM     84  C   UNL     1       0.591  -9.473  18.948  1.00  0.00     0.091 A 
ATOM     85  F   UNL     1      -1.018  -9.773  17.212  1.00  0.00    -0.205 F 
ATOM     86  C   UNL     1       1.141  -9.907  20.164  1.00  0.00     0.022 A 
BRANCH  84  87
ATOM     87  S   UNL     1       1.329  -8.026  18.183  1.00  0.00     0.127 S 
ATOM     88  O   UNL     1       0.879  -6.956  19.070  1.00  0.00    -0.237 OA
ATOM     89  O   UNL     1       2.756  -8.337  18.265  1.00  0.00    -0.237 OA
ATOM     90  O   UNL     1       0.802  -7.985  16.826  1.00  0.00    -0.744 OA
ENDBRANCH  84  87
ENDBRANCH  56  80
BRANCH  68  91
ATOM     91  C   UNL     1      -7.374 -13.127  20.864  1.00  0.00     0.023 A 
ATOM     92  C   UNL     1      -7.835 -11.828  21.156  1.00  0.00     0.012 A 
ATOM     93  C   UNL     1      -7.722 -14.192  21.718  1.00  0.00     0.148 A 
ATOM     94  C   UNL     1      -8.595 -11.587  22.300  1.00  0.00     0.002 A 
ATOM     95  C   UNL     1      -8.526 -13.954  22.825  1.00  0.00     0.091 A 
ATOM     96  F   UNL     1      -7.260 -15.418  21.432  1.00  0.00    -0.205 F 
ATOM     97  C   UNL     1      -8.950 -12.650  23.127  1.00  0.00     0.022 A 
BRANCH  95  98
ATOM     98  S   UNL     1      -9.116 -15.275  23.889  1.00  0.00     0.127 S 
ATOM     99  O   UNL     1      -8.352 -15.035  25.113  1.00  0.00    -0.237 OA
ATOM    100  O   UNL     1     -10.544 -14.974  23.992  1.00  0.00    -0.237 OA
ATOM    101  O   UNL     1      -8.808 -16.519  23.196  1.00  0.00    -0.744 OA
ENDBRANCH  95  98
ENDBRANCH  68  91
ENDBRANCH  42  43
ENDBRANCH  34  37
ENDBRANCH  32  33
ENDBRANCH  31  32
ENDBRANCH  30  31
ENDBRANCH   1  30
TORSDOF 20
