REMARK SMILES Cc1ccc(NC(=O)NC[C@@H]2CC[C@@H](C(=O)NCCCCCCNC(=O)c3ccc(-c4c5nc(c(-c6cccc(S(=O)(=O)[O-])c6F)c6ccc([nH]6)c(-c6cccc(S(=O)(=O)[O-])c6F)c6nc(c(-c7cccc(S(=O)(=O)[O-])c7F)c7ccc4[nH]7)C=C6)C=C5)cc3)O2)c(F)c1
REMARK SMILES IDX 20 1 19 2 18 3 17 4 15 5 16 6 14 8 11 9 12 10 90 11 13 12
REMARK SMILES IDX 10 13 9 14 6 15 7 16 8 18 5 20 1 21 2 22 3 23 93 24 4 25
REMARK SMILES IDX 91 26 92 27 21 28 22 29 23 30 24 31 25 32 26 34 27 35 28 36
REMARK SMILES IDX 89 37 29 38 88 39 30 40 31 41 32 42 82 43 33 44 87 45 81 46
REMARK SMILES IDX 83 47 34 48 86 49 80 50 79 51 35 53 67 54 47 55 66 56 48 57
REMARK SMILES IDX 51 58 65 59 84 60 49 61 50 62 64 64 85 65 52 66 36 67 37 68
REMARK SMILES IDX 45 69 38 70 40 71 46 72 39 73 41 74 42 75 43 76 44 77 68 78
REMARK SMILES IDX 69 79 77 80 70 81 72 82 78 83 71 84 73 85 74 86 75 87 76 88
REMARK SMILES IDX 53 89 54 90 62 91 55 92 57 93 63 94 56 95 58 96 59 97 60 98
REMARK SMILES IDX 61 99
REMARK H PARENT 17 7 6 17 9 19 24 33 83 52 51 63
REMARK Flexibility Score: inf
ROOT
ATOM      1  C   UNL     1      -7.756   6.794  -1.469  1.00  0.00     0.002 C 
ENDROOT
BRANCH   1   2
ATOM      2  C   UNL     1      -6.619   6.270  -0.588  1.00  0.00     0.021 C 
BRANCH   2   3
ATOM      3  C   UNL     1      -6.178   4.858  -0.953  1.00  0.00     0.116 C 
BRANCH   3   4
ATOM      4  N   UNL     1      -5.642   4.827  -2.300  1.00  0.00    -0.354 N 
ATOM      5  C   UNL     1      -4.337   4.646  -2.662  1.00  0.00     0.249 C 
ATOM      6  O   UNL     1      -4.013   4.798  -3.840  1.00  0.00    -0.272 OA
ATOM      7  H   UNL     1      -6.288   4.950  -3.033  1.00  0.00     0.163 HD
BRANCH   5   8
ATOM      8  C   UNL     1      -3.347   4.304  -1.545  1.00  0.00     0.207 C 
ATOM      9  C   UNL     1      -2.741   2.120  -0.965  1.00  0.00     0.138 C 
ATOM     10  C   UNL     1      -1.479   2.949  -1.116  1.00  0.00     0.037 C 
ATOM     11  O   UNL     1      -3.774   3.111  -0.849  1.00  0.00    -0.363 OA
ATOM     12  C   UNL     1      -1.940   4.044  -2.043  1.00  0.00     0.045 C 
BRANCH   9  13
ATOM     13  C   UNL     1      -2.773   1.166   0.245  1.00  0.00     0.149 C 
BRANCH  13  14
ATOM     14  N   UNL     1      -3.458  -0.086  -0.084  1.00  0.00    -0.335 N 
ATOM     15  N   UNL     1      -1.884  -1.880   0.052  1.00  0.00    -0.305 N 
ATOM     16  C   UNL     1      -3.125  -1.384  -0.110  1.00  0.00     0.319 C 
ATOM     17  H   UNL     1      -1.888  -2.820   0.346  1.00  0.00     0.171 HD
ATOM     18  O   UNL     1      -4.048  -2.201  -0.195  1.00  0.00    -0.249 OA
ATOM     19  H   UNL     1      -4.394   0.063  -0.351  1.00  0.00     0.165 HD
BRANCH  15  20
ATOM     20  C   UNL     1      -0.588  -1.369  -0.100  1.00  0.00     0.078 A 
ATOM     21  C   UNL     1       3.253   0.548   0.210  1.00  0.00     0.044 C 
ATOM     22  C   UNL     1       1.980  -0.210  -0.016  1.00  0.00    -0.048 A 
ATOM     23  C   UNL     1       1.725  -1.415   0.644  1.00  0.00     0.006 A 
ATOM     24  C   UNL     1       0.989   0.317  -0.840  1.00  0.00     0.045 A 
ATOM     25  C   UNL     1       0.450  -1.996   0.595  1.00  0.00     0.029 A 
ATOM     26  C   UNL     1      -0.259  -0.298  -0.918  1.00  0.00     0.147 A 
ATOM     27  F   UNL     1      -1.132   0.147  -1.829  1.00  0.00    -0.205 F 
ENDBRANCH  15  20
ENDBRANCH  13  14
ENDBRANCH   9  13
ENDBRANCH   5   8
ENDBRANCH   3   4
ENDBRANCH   2   3
ENDBRANCH   1   2
BRANCH   1  28
ATOM     28  C   UNL     1      -8.973   5.867  -1.542  1.00  0.00     0.002 C 
BRANCH  28  29
ATOM     29  C   UNL     1      -9.564   5.484  -0.183  1.00  0.00     0.021 C 
BRANCH  29  30
ATOM     30  C   UNL     1      -9.960   6.674   0.681  1.00  0.00     0.116 C 
BRANCH  30  31
ATOM     31  N   UNL     1     -10.951   7.511   0.024  1.00  0.00    -0.352 N 
ATOM     32  C   UNL     1     -12.162   7.947   0.499  1.00  0.00     0.251 C 
ATOM     33  H   UNL     1     -10.722   7.804  -0.887  1.00  0.00     0.163 HD
ATOM     34  O   UNL     1     -12.971   8.468  -0.259  1.00  0.00    -0.269 OA
BRANCH  32  35
ATOM     35  C   UNL     1     -12.482   7.767   1.930  1.00  0.00     0.039 A 
ATOM     36  C   UNL     1     -13.736   7.267   2.283  1.00  0.00     0.014 A 
ATOM     37  C   UNL     1     -11.540   8.079   2.915  1.00  0.00     0.014 A 
ATOM     38  C   UNL     1     -14.028   7.032   3.627  1.00  0.00     0.010 A 
ATOM     39  C   UNL     1     -11.805   7.771   4.244  1.00  0.00     0.010 A 
ATOM     40  C   UNL     1     -13.054   7.253   4.615  1.00  0.00    -0.014 A 
BRANCH  40  41
ATOM     41  C   UNL     1     -13.321   6.933   6.040  1.00  0.00     0.031 A 
ATOM     42  C   UNL     1     -13.304   8.020   7.080  1.00  0.00     0.074 A 
ATOM     43  C   UNL     1     -13.499   5.649   6.408  1.00  0.00     0.049 A 
ATOM     44  N   UNL     1     -13.469   7.924   8.373  1.00  0.00    -0.248 NA
ATOM     45  C   UNL     1     -13.041   9.391   6.610  1.00  0.00     0.031 C 
ATOM     46  C   UNL     1     -13.457   4.497   5.504  1.00  0.00     0.029 A 
ATOM     47  N   UNL     1     -13.724   5.093   7.642  1.00  0.00    -0.354 N 
ATOM     48  C   UNL     1     -13.297   9.209   8.875  1.00  0.00     0.074 A 
ATOM     49  C   UNL     1     -12.980  10.062   7.751  1.00  0.00     0.031 C 
ATOM     50  C   UNL     1     -13.656   3.374   6.212  1.00  0.00     0.029 A 
ATOM     51  C   UNL     1     -13.806   3.720   7.622  1.00  0.00     0.049 A 
ATOM     52  H   UNL     1     -13.818   5.627   8.464  1.00  0.00     0.167 HD
ATOM     53  C   UNL     1     -13.420   9.645  10.151  1.00  0.00     0.034 A 
ATOM     54  C   UNL     1     -13.971   2.838   8.627  1.00  0.00     0.034 A 
ATOM     55  C   UNL     1     -13.771   8.799  11.260  1.00  0.00     0.049 A 
ATOM     56  C   UNL     1     -14.135   3.353  10.031  1.00  0.00     0.074 A 
ATOM     57  C   UNL     1     -14.008   9.159  12.574  1.00  0.00     0.029 A 
ATOM     58  N   UNL     1     -13.924   7.423  11.189  1.00  0.00    -0.354 N 
ATOM     59  N   UNL     1     -14.129   4.591  10.462  1.00  0.00    -0.248 NA
ATOM     60  C   UNL     1     -14.366   2.352  11.082  1.00  0.00     0.031 C 
ATOM     61  C   UNL     1     -14.272   7.997  13.306  1.00  0.00     0.029 A 
ATOM     62  C   UNL     1     -14.237   6.916  12.439  1.00  0.00     0.049 A 
ATOM     63  H   UNL     1     -13.825   6.885  10.370  1.00  0.00     0.167 HD
ATOM     64  C   UNL     1     -14.391   4.521  11.826  1.00  0.00     0.074 A 
ATOM     65  C   UNL     1     -14.572   3.119  12.144  1.00  0.00     0.031 C 
ATOM     66  C   UNL     1     -14.462   5.524  12.734  1.00  0.00     0.034 A 
BRANCH  53  67
ATOM     67  C   UNL     1     -13.217  11.115  10.413  1.00  0.00     0.023 A 
ATOM     68  C   UNL     1     -14.173  12.045   9.955  1.00  0.00     0.012 A 
ATOM     69  C   UNL     1     -12.114  11.571  11.162  1.00  0.00     0.148 A 
ATOM     70  C   UNL     1     -14.018  13.407  10.207  1.00  0.00     0.002 A 
ATOM     71  C   UNL     1     -11.992  12.926  11.450  1.00  0.00     0.091 A 
ATOM     72  F   UNL     1     -11.205  10.676  11.572  1.00  0.00    -0.205 F 
ATOM     73  C   UNL     1     -12.935  13.846  10.963  1.00  0.00     0.022 A 
BRANCH  71  74
ATOM     74  S   UNL     1     -10.678  13.582  12.484  1.00  0.00     0.127 S 
ATOM     75  O   UNL     1      -9.878  14.323  11.509  1.00  0.00    -0.237 OA
ATOM     76  O   UNL     1     -11.419  14.420  13.427  1.00  0.00    -0.237 OA
ATOM     77  O   UNL     1     -10.021  12.429  13.082  1.00  0.00    -0.744 OA
ENDBRANCH  71  74
ENDBRANCH  53  67
BRANCH  54  78
ATOM     78  C   UNL     1     -14.044   1.379   8.333  1.00  0.00     0.023 A 
ATOM     79  C   UNL     1     -15.269   0.701   8.487  1.00  0.00     0.012 A 
ATOM     80  C   UNL     1     -12.916   0.668   7.881  1.00  0.00     0.148 A 
ATOM     81  C   UNL     1     -15.361  -0.668   8.230  1.00  0.00     0.002 A 
ATOM     82  C   UNL     1     -13.028  -0.682   7.572  1.00  0.00     0.091 A 
ATOM     83  F   UNL     1     -11.759   1.331   7.750  1.00  0.00    -0.205 F 
ATOM     84  C   UNL     1     -14.244  -1.357   7.764  1.00  0.00     0.022 A 
BRANCH  82  85
ATOM     85  S   UNL     1     -11.680  -1.618   6.844  1.00  0.00     0.127 S 
ATOM     86  O   UNL     1     -11.316  -2.517   7.936  1.00  0.00    -0.237 OA
ATOM     87  O   UNL     1     -12.341  -2.262   5.709  1.00  0.00    -0.237 OA
ATOM     88  O   UNL     1     -10.673  -0.633   6.473  1.00  0.00    -0.744 OA
ENDBRANCH  82  85
ENDBRANCH  54  78
BRANCH  66  89
ATOM     89  C   UNL     1     -14.789   5.156  14.158  1.00  0.00     0.023 A 
ATOM     90  C   UNL     1     -13.834   4.490  14.951  1.00  0.00     0.012 A 
ATOM     91  C   UNL     1     -16.020   5.535  14.731  1.00  0.00     0.148 A 
ATOM     92  C   UNL     1     -14.112   4.176  16.281  1.00  0.00     0.002 A 
ATOM     93  C   UNL     1     -16.269   5.266  16.070  1.00  0.00     0.091 A 
ATOM     94  F   UNL     1     -16.922   6.153  13.955  1.00  0.00    -0.205 F 
ATOM     95  C   UNL     1     -15.323   4.574  16.843  1.00  0.00     0.022 A 
BRANCH  93  96
ATOM     96  S   UNL     1     -17.756   5.828  16.906  1.00  0.00     0.127 S 
ATOM     97  O   UNL     1     -18.475   4.571  17.111  1.00  0.00    -0.237 OA
ATOM     98  O   UNL     1     -17.217   6.428  18.127  1.00  0.00    -0.237 OA
ATOM     99  O   UNL     1     -18.396   6.772  16.000  1.00  0.00    -0.744 OA
ENDBRANCH  93  96
ENDBRANCH  66  89
ENDBRANCH  40  41
ENDBRANCH  32  35
ENDBRANCH  30  31
ENDBRANCH  29  30
ENDBRANCH  28  29
ENDBRANCH   1  28
TORSDOF 19
