REMARK SMILES O=C(Cn1nc(C2CC2)c2c(C(F)F)cc(-c3ccc(Cl)cc3)nc21)NCCCCCCNC(=O)c1ccc(-c2c3nc(c(-c4cccc(S(=O)(=O)[O-])c4F)c4ccc([nH]4)c(-c4cccc(S(=O)(=O)[O-])c4F)c4nc(c(-c5cccc(S(=O)(=O)[O-])c5F)c5ccc2[nH]5)C=C4)C=C3)cc1
REMARK SMILES IDX 30 1 29 2 28 3 27 4 26 5 1 6 2 7 3 9 4 10 5 11 25 12 6 13
REMARK SMILES IDX 10 14 24 15 11 16 16 17 15 18 7 19 8 20 9 21 12 22 13 23
REMARK SMILES IDX 14 24 17 25 18 26 23 27 19 28 22 29 20 30 21 31 31 32 32 33
REMARK SMILES IDX 33 34 34 35 35 37 36 38 37 39 98 40 38 41 97 42 39 43 40 44
REMARK SMILES IDX 41 45 91 46 42 47 96 48 90 49 92 50 43 51 95 52 89 53 88 54
REMARK SMILES IDX 44 56 76 57 56 58 75 59 57 60 60 61 74 62 93 63 58 64 59 65
REMARK SMILES IDX 73 67 94 68 61 69 45 70 46 71 54 72 47 73 49 74 55 75 48 76
REMARK SMILES IDX 50 77 51 78 52 79 53 80 77 81 78 82 86 83 79 84 81 85 87 86
REMARK SMILES IDX 80 87 82 88 83 89 84 90 85 91 62 92 63 93 71 94 64 95 66 96
REMARK SMILES IDX 72 97 65 98 67 99 68 100 69 101 70 102
REMARK H PARENT 26 8 33 36 92 55 60 66
REMARK Flexibility Score: inf
ROOT
ATOM      1  C   UNL     1       4.721  -0.291  -4.171  1.00  0.00     0.002 C 
ENDROOT
BRANCH   1   2
ATOM      2  C   UNL     1       4.282   1.030  -3.522  1.00  0.00     0.002 C 
BRANCH   2   3
ATOM      3  C   UNL     1       2.790   1.143  -3.182  1.00  0.00     0.021 C 
BRANCH   3   4
ATOM      4  C   UNL     1       2.255   0.026  -2.287  1.00  0.00     0.116 C 
BRANCH   4   5
ATOM      5  N   UNL     1       2.977  -0.037  -1.031  1.00  0.00    -0.354 N 
ATOM      6  O   UNL     1       1.149   0.245   0.331  1.00  0.00    -0.273 OA
ATOM      7  C   UNL     1       2.360   0.075   0.198  1.00  0.00     0.241 C 
ATOM      8  H   UNL     1       3.953  -0.166  -1.056  1.00  0.00     0.163 HD
BRANCH   7   9
ATOM      9  C   UNL     1       3.299   0.075   1.386  1.00  0.00     0.246 C 
BRANCH   9  10
ATOM     10  N   UNL     1       4.060  -1.154   1.489  1.00  0.00    -0.237 N 
ATOM     11  N   UNL     1       3.424  -2.326   1.472  1.00  0.00    -0.175 NA
ATOM     12  C   UNL     1       5.411  -1.277   1.655  1.00  0.00     0.159 A 
ATOM     13  C   UNL     1       4.389  -3.248   1.576  1.00  0.00     0.076 A 
ATOM     14  C   UNL     1       5.694  -2.654   1.701  1.00  0.00     0.051 A 
ATOM     15  N   UNL     1       6.265  -0.235   1.760  1.00  0.00    -0.228 NA
ATOM     16  C   UNL     1       7.067  -2.992   1.866  1.00  0.00     0.033 A 
ATOM     17  C   UNL     1       7.550  -0.583   1.924  1.00  0.00     0.073 A 
ATOM     18  C   UNL     1       7.972  -1.906   1.980  1.00  0.00     0.039 A 
BRANCH  13  19
ATOM     19  C   UNL     1       3.848  -4.676   1.564  1.00  0.00     0.041 C 
ATOM     20  C   UNL     1       4.533  -5.818   0.868  1.00  0.00     0.011 C 
ATOM     21  C   UNL     1       4.483  -5.780   2.361  1.00  0.00     0.011 C 
ENDBRANCH  13  19
BRANCH  16  22
ATOM     22  C   UNL     1       7.691  -4.358   1.992  1.00  0.00     0.373 C 
ATOM     23  F   UNL     1       7.406  -4.972   3.170  1.00  0.00    -0.205 F 
ATOM     24  F   UNL     1       7.369  -5.217   0.997  1.00  0.00    -0.205 F 
ENDBRANCH  16  22
BRANCH  17  25
ATOM     25  C   UNL     1       8.529   0.503   2.084  1.00  0.00     0.000 A 
ATOM     26  C   UNL     1       8.509   1.334   3.216  1.00  0.00     0.012 A 
ATOM     27  C   UNL     1       9.572   0.672   1.155  1.00  0.00     0.012 A 
ATOM     28  C   UNL     1       9.525   2.272   3.437  1.00  0.00     0.021 A 
ATOM     29  C   UNL     1      10.585   1.612   1.369  1.00  0.00     0.021 A 
ATOM     30  C   UNL     1      10.565   2.398   2.518  1.00  0.00     0.041 A 
ATOM     31  Cl  UNL     1      11.842   3.511   2.814  1.00  0.00    -0.084 Cl
ENDBRANCH  17  25
ENDBRANCH   9  10
ENDBRANCH   7   9
ENDBRANCH   4   5
ENDBRANCH   3   4
ENDBRANCH   2   3
ENDBRANCH   1   2
BRANCH   1  32
ATOM     32  C   UNL     1       4.010  -0.669  -5.477  1.00  0.00     0.021 C 
BRANCH  32  33
ATOM     33  C   UNL     1       4.245   0.323  -6.606  1.00  0.00     0.116 C 
BRANCH  33  34
ATOM     34  N   UNL     1       5.641   0.334  -7.046  1.00  0.00    -0.352 N 
ATOM     35  C   UNL     1       6.191   1.024  -8.098  1.00  0.00     0.251 C 
ATOM     36  H   UNL     1       6.262  -0.221  -6.522  1.00  0.00     0.163 HD
ATOM     37  O   UNL     1       7.272   0.663  -8.580  1.00  0.00    -0.269 OA
BRANCH  35  38
ATOM     38  C   UNL     1       5.502   2.209  -8.631  1.00  0.00     0.039 A 
ATOM     39  C   UNL     1       5.541   2.515  -9.996  1.00  0.00     0.014 A 
ATOM     40  C   UNL     1       4.844   3.051  -7.732  1.00  0.00     0.014 A 
ATOM     41  C   UNL     1       4.884   3.655 -10.446  1.00  0.00     0.010 A 
ATOM     42  C   UNL     1       4.083   4.094  -8.189  1.00  0.00     0.010 A 
ATOM     43  C   UNL     1       4.159   4.434  -9.531  1.00  0.00    -0.014 A 
BRANCH  43  44
ATOM     44  C   UNL     1       3.371   5.569  -9.977  1.00  0.00     0.031 A 
ATOM     45  C   UNL     1       2.251   5.177 -10.865  1.00  0.00     0.074 A 
ATOM     46  C   UNL     1       3.519   6.808  -9.462  1.00  0.00     0.049 A 
ATOM     47  N   UNL     1       2.209   5.274 -12.153  1.00  0.00    -0.248 NA
ATOM     48  C   UNL     1       1.134   4.408 -10.290  1.00  0.00     0.031 C 
ATOM     49  C   UNL     1       4.352   7.209  -8.318  1.00  0.00     0.029 A 
ATOM     50  N   UNL     1       2.863   7.960  -9.769  1.00  0.00    -0.354 N 
ATOM     51  C   UNL     1       0.924   4.866 -12.498  1.00  0.00     0.074 A 
ATOM     52  C   UNL     1       0.420   4.114 -11.380  1.00  0.00     0.031 C 
ATOM     53  C   UNL     1       3.967   8.431  -7.884  1.00  0.00     0.029 A 
ATOM     54  C   UNL     1       3.000   8.971  -8.819  1.00  0.00     0.049 A 
ATOM     55  H   UNL     1       2.336   8.069 -10.593  1.00  0.00     0.167 HD
ATOM     56  C   UNL     1       0.251   5.488 -13.505  1.00  0.00     0.034 A 
ATOM     57  C   UNL     1       2.331  10.150  -8.809  1.00  0.00     0.034 A 
ATOM     58  C   UNL     1       1.115   6.382 -14.227  1.00  0.00     0.049 A 
ATOM     59  C   UNL     1       1.924  10.405 -10.208  1.00  0.00     0.074 A 
ATOM     60  C   UNL     1       2.132   6.278 -15.149  1.00  0.00     0.029 A 
ATOM     61  N   UNL     1       1.212   7.614 -13.636  1.00  0.00    -0.354 N 
ATOM     62  N   UNL     1       2.775  10.597 -11.178  1.00  0.00    -0.248 NA
ATOM     63  C   UNL     1       0.553  10.123 -10.616  1.00  0.00     0.031 C 
ATOM     64  C   UNL     1       2.944   7.438 -14.973  1.00  0.00     0.029 A 
ATOM     65  C   UNL     1       2.376   8.240 -13.985  1.00  0.00     0.049 A 
ATOM     66  H   UNL     1       0.532   7.999 -13.037  1.00  0.00     0.167 HD
ATOM     67  C   UNL     1       2.159  10.017 -12.269  1.00  0.00     0.074 A 
ATOM     68  C   UNL     1       0.748   9.926 -11.922  1.00  0.00     0.031 C 
ATOM     69  C   UNL     1       2.884   9.346 -13.206  1.00  0.00     0.034 A 
BRANCH  56  70
ATOM     70  C   UNL     1      -1.244   5.695 -13.543  1.00  0.00     0.023 A 
ATOM     71  C   UNL     1      -1.825   6.078 -14.770  1.00  0.00     0.012 A 
ATOM     72  C   UNL     1      -2.052   5.804 -12.388  1.00  0.00     0.148 A 
ATOM     73  C   UNL     1      -3.148   6.530 -14.844  1.00  0.00     0.002 A 
ATOM     74  C   UNL     1      -3.388   6.175 -12.476  1.00  0.00     0.091 A 
ATOM     75  F   UNL     1      -1.495   5.692 -11.178  1.00  0.00    -0.205 F 
ATOM     76  C   UNL     1      -3.938   6.558 -13.700  1.00  0.00     0.022 A 
BRANCH  74  77
ATOM     77  S   UNL     1      -4.455   6.199 -11.030  1.00  0.00     0.127 S 
ATOM     78  O   UNL     1      -4.631   7.633 -10.822  1.00  0.00    -0.237 OA
ATOM     79  O   UNL     1      -5.637   5.492 -11.523  1.00  0.00    -0.237 OA
ATOM     80  O   UNL     1      -3.719   5.483  -9.996  1.00  0.00    -0.744 OA
ENDBRANCH  74  77
ENDBRANCH  56  70
BRANCH  57  81
ATOM     81  C   UNL     1       1.806  10.987  -7.701  1.00  0.00     0.023 A 
ATOM     82  C   UNL     1       1.343  12.289  -7.999  1.00  0.00     0.012 A 
ATOM     83  C   UNL     1       1.427  10.417  -6.467  1.00  0.00     0.148 A 
ATOM     84  C   UNL     1       0.452  12.957  -7.152  1.00  0.00     0.002 A 
ATOM     85  C   UNL     1       0.544  11.090  -5.623  1.00  0.00     0.091 A 
ATOM     86  F   UNL     1       1.850   9.182  -6.170  1.00  0.00    -0.205 F 
ATOM     87  C   UNL     1       0.035  12.347  -5.975  1.00  0.00     0.022 A 
BRANCH  85  88
ATOM     88  S   UNL     1      -0.052  10.369  -4.087  1.00  0.00     0.127 S 
ATOM     89  O   UNL     1       0.080  11.489  -3.154  1.00  0.00    -0.237 OA
ATOM     90  O   UNL     1      -1.426  10.018  -4.431  1.00  0.00    -0.237 OA
ATOM     91  O   UNL     1       0.840   9.251  -3.806  1.00  0.00    -0.744 OA
ENDBRANCH  85  88
ENDBRANCH  57  81
BRANCH  69  92
ATOM     92  C   UNL     1       4.337   9.677 -13.337  1.00  0.00     0.023 A 
ATOM     93  C   UNL     1       5.320   9.230 -12.433  1.00  0.00     0.012 A 
ATOM     94  C   UNL     1       4.727  10.350 -14.505  1.00  0.00     0.148 A 
ATOM     95  C   UNL     1       6.675   9.448 -12.702  1.00  0.00     0.002 A 
ATOM     96  C   UNL     1       6.071  10.532 -14.786  1.00  0.00     0.091 A 
ATOM     97  F   UNL     1       3.763  10.764 -15.341  1.00  0.00    -0.205 F 
ATOM     98  C   UNL     1       7.051  10.085 -13.886  1.00  0.00     0.022 A 
BRANCH  96  99
ATOM     99  S   UNL     1       6.614  11.254 -16.334  1.00  0.00     0.127 S 
ATOM    100  O   UNL     1       7.231  12.502 -15.889  1.00  0.00    -0.237 OA
ATOM    101  O   UNL     1       7.554  10.247 -16.829  1.00  0.00    -0.237 OA
ATOM    102  O   UNL     1       5.418  11.412 -17.152  1.00  0.00    -0.744 OA
ENDBRANCH  96  99
ENDBRANCH  69  92
ENDBRANCH  43  44
ENDBRANCH  35  38
ENDBRANCH  33  34
ENDBRANCH  32  33
ENDBRANCH   1  32
TORSDOF 20
