REMARK SMILES Cc1nc(CCC(F)(F)F)[nH]c(=O)c1CCC(=O)NCCCCCCNC(=O)c1ccc(-c2c3nc(c(-c4cccc(S(=O)(=O)[O-])c4F)c4ccc([nH]4)c(-c4cccc(S(=O)(=O)[O-])c4F)c4nc(c(-c5cccc(S(=O)(=O)[O-])c5F)c5ccc2[nH]5)C=C4)C=C3)cc1
REMARK SMILES IDX 21 1 20 2 19 3 17 4 18 5 16 7 15 8 14 9 1 10 2 11 3 12 4 13
REMARK SMILES IDX 12 14 11 15 13 16 5 18 6 19 7 20 8 21 9 22 10 23 22 24 23 25
REMARK SMILES IDX 24 26 25 27 26 28 27 29 28 31 29 32 30 33 91 34 31 35 90 36
REMARK SMILES IDX 32 37 33 38 34 39 84 40 35 41 89 42 83 43 85 44 36 45 88 46
REMARK SMILES IDX 82 47 81 48 37 50 69 51 49 52 68 53 50 54 53 55 67 56 86 57
REMARK SMILES IDX 51 58 52 59 66 61 87 62 54 63 38 64 39 65 47 66 40 67 42 68
REMARK SMILES IDX 48 69 41 70 43 71 44 72 45 73 46 74 70 75 71 76 79 77 72 78
REMARK SMILES IDX 74 79 80 80 73 81 75 82 76 83 77 84 78 85 55 86 56 87 64 88
REMARK SMILES IDX 57 89 59 90 65 91 58 92 60 93 61 94 62 95 63 96
REMARK H PARENT 19 6 11 17 26 30 85 49 53 60
REMARK Flexibility Score: inf
ROOT
ATOM      1  C   UNL     1       3.317   0.686  -0.620  1.00  0.00     0.021 C 
ENDROOT
BRANCH   1   2
ATOM      2  C   UNL     1       2.707  -0.189  -1.730  1.00  0.00     0.116 C 
BRANCH   2   3
ATOM      3  N   UNL     1       2.864  -1.612  -1.425  1.00  0.00    -0.356 N 
ATOM      4  C   UNL     1       1.985  -2.640  -1.269  1.00  0.00     0.220 C 
ATOM      5  O   UNL     1       2.443  -3.747  -0.967  1.00  0.00    -0.275 OA
ATOM      6  H   UNL     1       3.803  -1.883  -1.307  1.00  0.00     0.163 HD
BRANCH   4   7
ATOM      7  C   UNL     1       0.496  -2.477  -1.506  1.00  0.00     0.105 C 
BRANCH   7   8
ATOM      8  C   UNL     1      -0.339  -2.662  -0.223  1.00  0.00     0.053 C 
BRANCH   8   9
ATOM      9  C   UNL     1      -0.766  -1.330   0.330  1.00  0.00     0.039 A 
ATOM     10  C   UNL     1      -3.228  -1.515  -0.085  1.00  0.00     0.067 C 
ATOM     11  C   UNL     1      -1.994  -0.774   0.361  1.00  0.00     0.048 A 
ATOM     12  N   UNL     1      -2.225   0.545   0.704  1.00  0.00    -0.240 NA
ATOM     13  C   UNL     1      -1.197   1.308   0.882  1.00  0.00     0.109 A 
ATOM     14  C   UNL     1       0.323  -0.498   0.864  1.00  0.00     0.254 A 
ATOM     15  N   UNL     1       0.074   0.830   0.879  1.00  0.00    -0.310 N 
ATOM     16  O   UNL     1       1.395  -0.968   1.239  1.00  0.00    -0.269 OA
ATOM     17  H   UNL     1       0.828   1.462   0.888  1.00  0.00     0.171 HD
BRANCH  13  18
ATOM     18  C   UNL     1      -1.342   2.803   1.052  1.00  0.00     0.084 C 
BRANCH  18  19
ATOM     19  C   UNL     1      -0.893   3.384   2.395  1.00  0.00     0.123 C 
BRANCH  19  20
ATOM     20  C   UNL     1       0.520   3.046   2.813  1.00  0.00     0.389 C 
ATOM     21  F   UNL     1       1.354   3.040   1.745  1.00  0.00    -0.171 F 
ATOM     22  F   UNL     1       1.008   3.933   3.700  1.00  0.00    -0.171 F 
ATOM     23  F   UNL     1       0.595   1.819   3.365  1.00  0.00    -0.171 F 
ENDBRANCH  19  20
ENDBRANCH  18  19
ENDBRANCH  13  18
ENDBRANCH   8   9
ENDBRANCH   7   8
ENDBRANCH   4   7
ENDBRANCH   2   3
ENDBRANCH   1   2
BRANCH   1  24
ATOM     24  C   UNL     1       4.096   1.948  -1.011  1.00  0.00     0.002 C 
BRANCH  24  25
ATOM     25  C   UNL     1       3.571   2.824  -2.147  1.00  0.00     0.002 C 
BRANCH  25  26
ATOM     26  C   UNL     1       2.172   3.427  -2.017  1.00  0.00     0.021 C 
BRANCH  26  27
ATOM     27  C   UNL     1       1.906   4.579  -1.037  1.00  0.00     0.116 C 
BRANCH  27  28
ATOM     28  N   UNL     1       3.032   5.386  -0.617  1.00  0.00    -0.352 N 
ATOM     29  C   UNL     1       3.009   6.662  -0.092  1.00  0.00     0.251 C 
ATOM     30  H   UNL     1       3.921   4.975  -0.719  1.00  0.00     0.163 HD
ATOM     31  O   UNL     1       4.061   7.224   0.202  1.00  0.00    -0.269 OA
BRANCH  29  32
ATOM     32  C   UNL     1       1.721   7.377   0.092  1.00  0.00     0.039 A 
ATOM     33  C   UNL     1       1.558   8.634  -0.497  1.00  0.00     0.014 A 
ATOM     34  C   UNL     1       0.688   6.835   0.861  1.00  0.00     0.014 A 
ATOM     35  C   UNL     1       0.339   9.314  -0.372  1.00  0.00     0.010 A 
ATOM     36  C   UNL     1      -0.544   7.498   0.952  1.00  0.00     0.010 A 
ATOM     37  C   UNL     1      -0.738   8.740   0.328  1.00  0.00    -0.014 A 
BRANCH  37  38
ATOM     38  C   UNL     1      -2.073   9.407   0.349  1.00  0.00     0.031 A 
ATOM     39  C   UNL     1      -2.668   9.946   1.624  1.00  0.00     0.074 A 
ATOM     40  C   UNL     1      -2.797   9.471  -0.787  1.00  0.00     0.049 A 
ATOM     41  N   UNL     1      -3.808  10.567   1.801  1.00  0.00    -0.248 NA
ATOM     42  C   UNL     1      -1.896   9.747   2.859  1.00  0.00     0.031 C 
ATOM     43  C   UNL     1      -2.390   8.914  -2.078  1.00  0.00     0.029 A 
ATOM     44  N   UNL     1      -4.036  10.014  -1.036  1.00  0.00    -0.354 N 
ATOM     45  C   UNL     1      -3.904  10.815   3.166  1.00  0.00     0.074 A 
ATOM     46  C   UNL     1      -2.717  10.248   3.774  1.00  0.00     0.031 C 
ATOM     47  C   UNL     1      -3.356   9.144  -2.981  1.00  0.00     0.029 A 
ATOM     48  C   UNL     1      -4.459   9.851  -2.335  1.00  0.00     0.049 A 
ATOM     49  H   UNL     1      -4.569  10.475  -0.350  1.00  0.00     0.167 HD
ATOM     50  C   UNL     1      -4.870  11.478   3.849  1.00  0.00     0.034 A 
ATOM     51  C   UNL     1      -5.601  10.229  -2.946  1.00  0.00     0.034 A 
ATOM     52  C   UNL     1      -6.032  12.080   3.247  1.00  0.00     0.049 A 
ATOM     53  C   UNL     1      -6.635  11.007  -2.179  1.00  0.00     0.074 A 
ATOM     54  C   UNL     1      -7.009  12.855   3.850  1.00  0.00     0.029 A 
ATOM     55  N   UNL     1      -6.383  11.970   1.911  1.00  0.00    -0.354 N 
ATOM     56  N   UNL     1      -6.613  11.393  -0.927  1.00  0.00    -0.248 NA
ATOM     57  C   UNL     1      -7.831  11.438  -2.919  1.00  0.00     0.031 C 
ATOM     58  C   UNL     1      -7.959  13.200   2.882  1.00  0.00     0.029 A 
ATOM     59  C   UNL     1      -7.566  12.652   1.672  1.00  0.00     0.049 A 
ATOM     60  H   UNL     1      -5.868  11.479   1.231  1.00  0.00     0.167 HD
ATOM     61  C   UNL     1      -7.773  12.137  -0.737  1.00  0.00     0.074 A 
ATOM     62  C   UNL     1      -8.465  12.166  -2.009  1.00  0.00     0.031 C 
ATOM     63  C   UNL     1      -8.229  12.727   0.395  1.00  0.00     0.034 A 
BRANCH  50  64
ATOM     64  C   UNL     1      -4.680  11.651   5.334  1.00  0.00     0.023 A 
ATOM     65  C   UNL     1      -3.712  12.564   5.802  1.00  0.00     0.012 A 
ATOM     66  C   UNL     1      -5.494  10.973   6.262  1.00  0.00     0.148 A 
ATOM     67  C   UNL     1      -3.534  12.773   7.169  1.00  0.00     0.002 A 
ATOM     68  C   UNL     1      -5.337  11.217   7.623  1.00  0.00     0.091 A 
ATOM     69  F   UNL     1      -6.396  10.094   5.802  1.00  0.00    -0.205 F 
ATOM     70  C   UNL     1      -4.351  12.108   8.078  1.00  0.00     0.022 A 
BRANCH  68  71
ATOM     71  S   UNL     1      -6.396  10.461   8.863  1.00  0.00     0.127 S 
ATOM     72  O   UNL     1      -5.530   9.406   9.387  1.00  0.00    -0.237 OA
ATOM     73  O   UNL     1      -6.634  11.570   9.789  1.00  0.00    -0.237 OA
ATOM     74  O   UNL     1      -7.581  10.010   8.148  1.00  0.00    -0.744 OA
ENDBRANCH  68  71
ENDBRANCH  50  64
BRANCH  51  75
ATOM     75  C   UNL     1      -5.784   9.943  -4.397  1.00  0.00     0.023 A 
ATOM     76  C   UNL     1      -5.715  11.002  -5.324  1.00  0.00     0.012 A 
ATOM     77  C   UNL     1      -5.975   8.629  -4.866  1.00  0.00     0.148 A 
ATOM     78  C   UNL     1      -5.856  10.760  -6.691  1.00  0.00     0.002 A 
ATOM     79  C   UNL     1      -6.057   8.388  -6.233  1.00  0.00     0.091 A 
ATOM     80  F   UNL     1      -6.052   7.639  -3.966  1.00  0.00    -0.205 F 
ATOM     81  C   UNL     1      -6.014   9.453  -7.146  1.00  0.00     0.022 A 
BRANCH  79  82
ATOM     82  S   UNL     1      -6.118   6.726  -6.912  1.00  0.00     0.127 S 
ATOM     83  O   UNL     1      -7.500   6.642  -7.374  1.00  0.00    -0.237 OA
ATOM     84  O   UNL     1      -5.114   6.796  -7.974  1.00  0.00    -0.237 OA
ATOM     85  O   UNL     1      -5.761   5.841  -5.811  1.00  0.00    -0.744 OA
ENDBRANCH  79  82
ENDBRANCH  51  75
BRANCH  63  86
ATOM     86  C   UNL     1      -9.534  13.479   0.321  1.00  0.00     0.023 A 
ATOM     87  C   UNL     1     -10.745  12.764   0.228  1.00  0.00     0.012 A 
ATOM     88  C   UNL     1      -9.568  14.884   0.417  1.00  0.00     0.148 A 
ATOM     89  C   UNL     1     -11.967  13.437   0.204  1.00  0.00     0.002 A 
ATOM     90  C   UNL     1     -10.792  15.545   0.436  1.00  0.00     0.091 A 
ATOM     91  F   UNL     1      -8.406  15.550   0.483  1.00  0.00    -0.205 F 
ATOM     92  C   UNL     1     -11.991  14.825   0.320  1.00  0.00     0.022 A 
BRANCH  90  93
ATOM     93  S   UNL     1     -10.920  17.323   0.669  1.00  0.00     0.127 S 
ATOM     94  O   UNL     1     -11.233  17.780  -0.684  1.00  0.00    -0.237 OA
ATOM     95  O   UNL     1     -12.025  17.435   1.621  1.00  0.00    -0.237 OA
ATOM     96  O   UNL     1      -9.629  17.749   1.193  1.00  0.00    -0.744 OA
ENDBRANCH  90  93
ENDBRANCH  63  86
ENDBRANCH  37  38
ENDBRANCH  29  32
ENDBRANCH  27  28
ENDBRANCH  26  27
ENDBRANCH  25  26
ENDBRANCH  24  25
ENDBRANCH   1  24
TORSDOF 21
