REMARK SMILES Cc1nc(=O)[nH]c(C)c1CC(=O)Nc1sccc1C(=O)NCCCCCCNC(=O)c1ccc(-c2c3nc(c(-c4cccc(S(=O)(=O)[O-])c4F)c4ccc([nH]4)c(-c4cccc(S(=O)(=O)[O-])c4F)c4nc(c(-c5cccc(S(=O)(=O)[O-])c5F)c5ccc2[nH]5)C=C4)C=C3)cc1
REMARK SMILES IDX 24 1 23 2 22 3 21 4 19 5 20 6 18 8 14 9 15 10 16 11 17 12
REMARK SMILES IDX 13 13 11 14 12 15 10 17 9 18 1 19 2 20 3 21 4 22 7 23 5 24
REMARK SMILES IDX 6 25 8 26 25 28 26 29 27 30 28 31 29 32 30 34 31 35 32 36
REMARK SMILES IDX 93 37 33 38 92 39 34 40 35 41 36 42 86 43 37 44 91 45 85 46
REMARK SMILES IDX 87 47 38 48 90 49 84 50 83 51 39 53 71 54 51 55 70 56 52 57
REMARK SMILES IDX 55 58 69 59 88 60 53 61 54 62 68 64 89 65 56 66 40 67 41 68
REMARK SMILES IDX 49 69 42 70 44 71 50 72 43 73 45 74 46 75 47 76 48 77 72 78
REMARK SMILES IDX 73 79 81 80 74 81 76 82 82 83 75 84 77 85 78 86 79 87 80 88
REMARK SMILES IDX 57 89 58 90 66 91 59 92 61 93 67 94 60 95 62 96 63 97 64 98
REMARK SMILES IDX 65 99
REMARK H PARENT 21 7 13 16 6 27 28 33 87 52 55 63
REMARK Flexibility Score: inf
ROOT
ATOM      1  C   UNL     1      -4.587   1.074   1.592  1.00  0.00     0.002 C 
ENDROOT
BRANCH   1   2
ATOM      2  C   UNL     1      -4.003   0.486   2.885  1.00  0.00     0.021 C 
BRANCH   2   3
ATOM      3  C   UNL     1      -2.799  -0.429   2.680  1.00  0.00     0.116 C 
BRANCH   3   4
ATOM      4  N   UNL     1      -1.616   0.284   2.256  1.00  0.00    -0.352 N 
ATOM      5  C   UNL     1      -0.297  -0.082   2.254  1.00  0.00     0.254 C 
ATOM      6  O   UNL     1       0.510   0.826   2.046  1.00  0.00    -0.269 OA
ATOM      7  H   UNL     1      -1.788   1.189   1.910  1.00  0.00     0.163 HD
BRANCH   5   8
ATOM      8  C   UNL     1       0.171  -1.435   2.571  1.00  0.00     0.074 A 
ATOM      9  C   UNL     1      -0.426  -2.677   2.444  1.00  0.00     0.108 A 
ATOM     10  S   UNL     1       0.404  -3.898   3.316  1.00  0.00    -0.126 S 
ATOM     11  C   UNL     1       1.764  -2.902   3.540  1.00  0.00     0.068 A 
ATOM     12  C   UNL     1       1.506  -1.620   3.119  1.00  0.00     0.028 A 
BRANCH   9  13
ATOM     13  N   UNL     1      -1.562  -3.200   1.885  1.00  0.00    -0.317 N 
ATOM     14  C   UNL     1      -2.158  -2.997   0.681  1.00  0.00     0.229 C 
ATOM     15  O   UNL     1      -3.354  -3.310   0.598  1.00  0.00    -0.274 OA
ATOM     16  H   UNL     1      -2.034  -3.841   2.463  1.00  0.00     0.170 HD
BRANCH  14  17
ATOM     17  C   UNL     1      -1.404  -2.667  -0.611  1.00  0.00     0.139 C 
BRANCH  17  18
ATOM     18  C   UNL     1      -0.529  -1.460  -0.725  1.00  0.00     0.002 A 
ATOM     19  C   UNL     1       1.589  -2.956  -0.400  1.00  0.00     0.067 C 
ATOM     20  C   UNL     1       0.963  -1.588  -0.586  1.00  0.00     0.049 A 
ATOM     21  N   UNL     1       1.806  -0.611  -0.686  1.00  0.00    -0.198 NA
ATOM     22  C   UNL     1       1.337   0.646  -0.933  1.00  0.00     0.345 A 
ATOM     23  C   UNL     1      -0.921  -0.232  -1.119  1.00  0.00     0.022 A 
ATOM     24  O   UNL     1       2.064   1.634  -1.011  1.00  0.00    -0.246 OA
ATOM     25  N   UNL     1      -0.002   0.782  -1.179  1.00  0.00    -0.310 N 
ATOM     26  C   UNL     1      -2.304   0.185  -1.525  1.00  0.00     0.065 C 
ATOM     27  H   UNL     1      -0.330   1.679  -1.418  1.00  0.00     0.171 HD
ENDBRANCH  17  18
ENDBRANCH  14  17
ENDBRANCH   9  13
ENDBRANCH   5   8
ENDBRANCH   3   4
ENDBRANCH   2   3
ENDBRANCH   1   2
BRANCH   1  28
ATOM     28  C   UNL     1      -5.066   0.060   0.545  1.00  0.00     0.002 C 
BRANCH  28  29
ATOM     29  C   UNL     1      -6.109  -0.956   0.993  1.00  0.00     0.021 C 
BRANCH  29  30
ATOM     30  C   UNL     1      -7.326  -0.365   1.677  1.00  0.00     0.116 C 
BRANCH  30  31
ATOM     31  N   UNL     1      -8.030   0.618   0.869  1.00  0.00    -0.352 N 
ATOM     32  C   UNL     1      -9.377   0.891   0.856  1.00  0.00     0.251 C 
ATOM     33  H   UNL     1      -7.474   1.153   0.256  1.00  0.00     0.163 HD
ATOM     34  O   UNL     1      -9.842   1.695   0.055  1.00  0.00    -0.269 OA
BRANCH  32  35
ATOM     35  C   UNL     1     -10.261   0.172   1.800  1.00  0.00     0.039 A 
ATOM     36  C   UNL     1     -11.443  -0.398   1.323  1.00  0.00     0.014 A 
ATOM     37  C   UNL     1      -9.896   0.023   3.140  1.00  0.00     0.014 A 
ATOM     38  C   UNL     1     -12.238  -1.154   2.186  1.00  0.00     0.010 A 
ATOM     39  C   UNL     1     -10.629  -0.818   3.965  1.00  0.00     0.010 A 
ATOM     40  C   UNL     1     -11.826  -1.386   3.509  1.00  0.00    -0.014 A 
BRANCH  40  41
ATOM     41  C   UNL     1     -12.660  -2.169   4.453  1.00  0.00     0.031 A 
ATOM     42  C   UNL     1     -13.201  -1.506   5.693  1.00  0.00     0.074 A 
ATOM     43  C   UNL     1     -12.868  -3.483   4.237  1.00  0.00     0.049 A 
ATOM     44  N   UNL     1     -13.929  -2.017   6.651  1.00  0.00    -0.248 NA
ATOM     45  C   UNL     1     -12.845  -0.092   5.905  1.00  0.00     0.031 C 
ATOM     46  C   UNL     1     -12.320  -4.257   3.121  1.00  0.00     0.029 A 
ATOM     47  N   UNL     1     -13.585  -4.403   4.958  1.00  0.00    -0.354 N 
ATOM     48  C   UNL     1     -14.071  -1.008   7.597  1.00  0.00     0.074 A 
ATOM     49  C   UNL     1     -13.317   0.129   7.122  1.00  0.00     0.031 C 
ATOM     50  C   UNL     1     -12.744  -5.528   3.217  1.00  0.00     0.029 A 
ATOM     51  C   UNL     1     -13.573  -5.665   4.411  1.00  0.00     0.049 A 
ATOM     52  H   UNL     1     -14.064  -4.181   5.789  1.00  0.00     0.167 HD
ATOM     53  C   UNL     1     -14.796  -1.011   8.740  1.00  0.00     0.034 A 
ATOM     54  C   UNL     1     -14.175  -6.798   4.821  1.00  0.00     0.034 A 
ATOM     55  C   UNL     1     -15.601  -2.121   9.166  1.00  0.00     0.049 A 
ATOM     56  C   UNL     1     -15.041  -6.754   6.052  1.00  0.00     0.074 A 
ATOM     57  C   UNL     1     -16.465  -2.195  10.244  1.00  0.00     0.029 A 
ATOM     58  N   UNL     1     -15.641  -3.354   8.533  1.00  0.00    -0.354 N 
ATOM     59  N   UNL     1     -15.304  -5.740   6.841  1.00  0.00    -0.248 NA
ATOM     60  C   UNL     1     -15.728  -7.998   6.424  1.00  0.00     0.031 C 
ATOM     61  C   UNL     1     -17.009  -3.483  10.275  1.00  0.00     0.029 A 
ATOM     62  C   UNL     1     -16.508  -4.200   9.200  1.00  0.00     0.049 A 
ATOM     63  H   UNL     1     -15.127  -3.591   7.728  1.00  0.00     0.167 HD
ATOM     64  C   UNL     1     -16.223  -6.210   7.773  1.00  0.00     0.074 A 
ATOM     65  C   UNL     1     -16.480  -7.597   7.440  1.00  0.00     0.031 C 
ATOM     66  C   UNL     1     -16.796  -5.558   8.816  1.00  0.00     0.034 A 
BRANCH  53  67
ATOM     67  C   UNL     1     -14.787   0.241   9.577  1.00  0.00     0.023 A 
ATOM     68  C   UNL     1     -15.423   1.408   9.103  1.00  0.00     0.012 A 
ATOM     69  C   UNL     1     -14.176   0.257  10.846  1.00  0.00     0.148 A 
ATOM     70  C   UNL     1     -15.410   2.582   9.855  1.00  0.00     0.002 A 
ATOM     71  C   UNL     1     -14.212   1.417  11.613  1.00  0.00     0.091 A 
ATOM     72  F   UNL     1     -13.555  -0.852  11.272  1.00  0.00    -0.205 F 
ATOM     73  C   UNL     1     -14.815   2.583  11.113  1.00  0.00     0.022 A 
BRANCH  71  74
ATOM     74  S   UNL     1     -13.547   1.493  13.279  1.00  0.00     0.127 S 
ATOM     75  O   UNL     1     -12.341   2.296  13.079  1.00  0.00    -0.237 OA
ATOM     76  O   UNL     1     -14.618   2.173  14.008  1.00  0.00    -0.237 OA
ATOM     77  O   UNL     1     -13.321   0.112  13.683  1.00  0.00    -0.744 OA
ENDBRANCH  71  74
ENDBRANCH  53  67
BRANCH  54  78
ATOM     78  C   UNL     1     -14.073  -8.039   4.001  1.00  0.00     0.023 A 
ATOM     79  C   UNL     1     -15.208  -8.493   3.300  1.00  0.00     0.012 A 
ATOM     80  C   UNL     1     -12.866  -8.754   3.888  1.00  0.00     0.148 A 
ATOM     81  C   UNL     1     -15.153  -9.655   2.530  1.00  0.00     0.002 A 
ATOM     82  C   UNL     1     -12.804  -9.883   3.078  1.00  0.00     0.091 A 
ATOM     83  F   UNL     1     -11.799  -8.310   4.567  1.00  0.00    -0.205 F 
ATOM     84  C   UNL     1     -13.950 -10.345   2.412  1.00  0.00     0.022 A 
BRANCH  82  85
ATOM     85  S   UNL     1     -11.271 -10.767   2.767  1.00  0.00     0.127 S 
ATOM     86  O   UNL     1     -11.505 -12.027   3.466  1.00  0.00    -0.237 OA
ATOM     87  O   UNL     1     -11.269 -10.862   1.307  1.00  0.00    -0.237 OA
ATOM     88  O   UNL     1     -10.214  -9.927   3.315  1.00  0.00    -0.744 OA
ENDBRANCH  82  85
ENDBRANCH  54  78
BRANCH  66  89
ATOM     89  C   UNL     1     -17.800  -6.314   9.645  1.00  0.00     0.023 A 
ATOM     90  C   UNL     1     -17.370  -7.333  10.517  1.00  0.00     0.012 A 
ATOM     91  C   UNL     1     -19.162  -5.957   9.614  1.00  0.00     0.148 A 
ATOM     92  C   UNL     1     -18.288  -8.012  11.318  1.00  0.00     0.002 A 
ATOM     93  C   UNL     1     -20.062  -6.601  10.453  1.00  0.00     0.091 A 
ATOM     94  F   UNL     1     -19.554  -4.997   8.763  1.00  0.00    -0.205 F 
ATOM     95  C   UNL     1     -19.630  -7.637  11.295  1.00  0.00     0.022 A 
BRANCH  93  96
ATOM     96  S   UNL     1     -21.786  -6.109  10.564  1.00  0.00     0.127 S 
ATOM     97  O   UNL     1     -22.450  -7.178   9.821  1.00  0.00    -0.237 OA
ATOM     98  O   UNL     1     -22.024  -6.129  12.008  1.00  0.00    -0.237 OA
ATOM     99  O   UNL     1     -21.862  -4.784   9.962  1.00  0.00    -0.744 OA
ENDBRANCH  93  96
ENDBRANCH  66  89
ENDBRANCH  40  41
ENDBRANCH  32  35
ENDBRANCH  30  31
ENDBRANCH  29  30
ENDBRANCH  28  29
ENDBRANCH   1  28
TORSDOF 19
