REMARK SMILES CC1(C)C(C(=O)N2CCOC[C@H]2C(=O)NCCCCCCNC(=O)c2ccc(-c3c4nc(c(-c5cccc(S(=O)(=O)[O-])c5F)c5ccc([nH]5)c(-c5cccc(S(=O)(=O)[O-])c5F)c5nc(c(-c6cccc(S(=O)(=O)[O-])c6F)c6ccc3[nH]6)C=C5)C=C4)cc2)C1(C)C
REMARK SMILES IDX 19 1 18 2 17 3 16 4 15 5 13 6 14 7 12 9 7 10 8 11 9 12 11 13
REMARK SMILES IDX 10 14 5 15 6 16 4 17 1 18 2 19 3 20 88 21 89 22 90 23 20 24
REMARK SMILES IDX 21 25 22 26 23 27 24 29 25 30 26 31 87 32 27 33 86 34 28 35
REMARK SMILES IDX 29 36 30 37 80 38 31 39 85 40 79 41 81 42 32 43 84 44 78 45
REMARK SMILES IDX 77 46 33 48 65 49 45 50 64 51 46 52 49 53 63 54 82 55 47 56
REMARK SMILES IDX 48 57 62 59 83 60 50 61 34 62 35 63 43 64 36 65 38 66 44 67
REMARK SMILES IDX 37 68 39 69 40 70 41 71 42 72 66 73 67 74 75 75 68 76 70 77
REMARK SMILES IDX 76 78 69 79 71 80 72 81 73 82 74 83 51 84 52 85 60 86 53 87
REMARK SMILES IDX 55 88 61 89 54 90 56 91 57 92 58 93 59 94
REMARK H PARENT 15 8 22 28 81 47 49 58
REMARK Flexibility Score: inf
ROOT
ATOM      1  C   UNL     1      -2.670   0.665  -9.066  1.00  0.00     0.002 C 
ENDROOT
BRANCH   1   2
ATOM      2  C   UNL     1      -1.195   0.774  -8.665  1.00  0.00     0.002 C 
BRANCH   2   3
ATOM      3  C   UNL     1      -0.825   0.044  -7.374  1.00  0.00     0.021 C 
BRANCH   3   4
ATOM      4  C   UNL     1      -1.030  -1.472  -7.452  1.00  0.00     0.116 C 
BRANCH   4   5
ATOM      5  N   UNL     1       0.208  -2.205  -7.249  1.00  0.00    -0.354 N 
ATOM      6  C   UNL     1       0.707  -3.004  -6.272  1.00  0.00     0.245 C 
ATOM      7  O   UNL     1       1.813  -3.499  -6.539  1.00  0.00    -0.273 OA
ATOM      8  H   UNL     1       0.835  -2.095  -8.000  1.00  0.00     0.163 HD
BRANCH   6   9
ATOM      9  C   UNL     1       0.059  -3.282  -4.889  1.00  0.00     0.200 C 
ATOM     10  N   UNL     1       0.237  -2.239  -3.858  1.00  0.00    -0.326 N 
ATOM     11  C   UNL     1      -0.721  -1.164  -3.953  1.00  0.00     0.149 C 
ATOM     12  C   UNL     1      -2.158  -1.710  -3.950  1.00  0.00     0.181 C 
ATOM     13  C   UNL     1      -1.391  -3.778  -4.892  1.00  0.00     0.195 C 
ATOM     14  O   UNL     1      -2.366  -2.728  -4.940  1.00  0.00    -0.377 OA
BRANCH  10  15
ATOM     15  C   UNL     1       1.201  -2.440  -2.880  1.00  0.00     0.227 C 
ATOM     16  O   UNL     1       2.041  -3.319  -3.011  1.00  0.00    -0.275 OA
BRANCH  15  17
ATOM     17  C   UNL     1       1.288  -1.675  -1.591  1.00  0.00     0.091 C 
ATOM     18  C   UNL     1       1.260  -0.047   0.411  1.00  0.00     0.012 C 
ATOM     19  C   UNL     1       0.455  -0.904  -0.570  1.00  0.00    -0.017 C 
ATOM     20  C   UNL     1      -0.869  -0.231  -0.826  1.00  0.00     0.012 C 
ATOM     21  C   UNL     1       0.562  -2.418  -0.428  1.00  0.00    -0.017 C 
ATOM     22  C   UNL     1       1.407  -3.032   0.663  1.00  0.00     0.012 C 
ATOM     23  C   UNL     1      -0.621  -3.312  -0.754  1.00  0.00     0.012 C 
ENDBRANCH  15  17
ENDBRANCH  10  15
ENDBRANCH   6   9
ENDBRANCH   4   5
ENDBRANCH   3   4
ENDBRANCH   2   3
ENDBRANCH   1   2
BRANCH   1  24
ATOM     24  C   UNL     1      -3.679   1.225  -8.058  1.00  0.00     0.021 C 
BRANCH  24  25
ATOM     25  C   UNL     1      -3.457   2.679  -7.647  1.00  0.00     0.116 C 
BRANCH  25  26
ATOM     26  N   UNL     1      -3.376   3.568  -8.796  1.00  0.00    -0.352 N 
ATOM     27  C   UNL     1      -4.144   4.651  -9.136  1.00  0.00     0.251 C 
ATOM     28  H   UNL     1      -2.654   3.358  -9.431  1.00  0.00     0.163 HD
ATOM     29  O   UNL     1      -4.044   5.130 -10.263  1.00  0.00    -0.269 OA
BRANCH  27  30
ATOM     30  C   UNL     1      -5.089   5.243  -8.165  1.00  0.00     0.039 A 
ATOM     31  C   UNL     1      -6.345   5.657  -8.617  1.00  0.00     0.014 A 
ATOM     32  C   UNL     1      -4.725   5.444  -6.830  1.00  0.00     0.014 A 
ATOM     33  C   UNL     1      -7.250   6.233  -7.722  1.00  0.00     0.010 A 
ATOM     34  C   UNL     1      -5.652   5.958  -5.926  1.00  0.00     0.010 A 
ATOM     35  C   UNL     1      -6.919   6.369  -6.364  1.00  0.00    -0.014 A 
BRANCH  35  36
ATOM     36  C   UNL     1      -7.896   6.929  -5.396  1.00  0.00     0.031 A 
ATOM     37  C   UNL     1      -7.619   8.230  -4.691  1.00  0.00     0.074 A 
ATOM     38  C   UNL     1      -9.007   6.226  -5.099  1.00  0.00     0.049 A 
ATOM     39  N   UNL     1      -8.355   8.865  -3.817  1.00  0.00    -0.248 NA
ATOM     40  C   UNL     1      -6.337   8.891  -4.986  1.00  0.00     0.031 C 
ATOM     41  C   UNL     1      -9.343   4.909  -5.644  1.00  0.00     0.029 A 
ATOM     42  N   UNL     1     -10.047   6.510  -4.251  1.00  0.00    -0.354 N 
ATOM     43  C   UNL     1      -7.618   9.979  -3.434  1.00  0.00     0.074 A 
ATOM     44  C   UNL     1      -6.360   9.916  -4.146  1.00  0.00     0.031 C 
ATOM     45  C   UNL     1     -10.511   4.503  -5.123  1.00  0.00     0.029 A 
ATOM     46  C   UNL     1     -10.999   5.519  -4.196  1.00  0.00     0.049 A 
ATOM     47  H   UNL     1     -10.107   7.344  -3.731  1.00  0.00     0.167 HD
ATOM     48  C   UNL     1      -7.968  10.982  -2.593  1.00  0.00     0.034 A 
ATOM     49  C   UNL     1     -12.140   5.439  -3.483  1.00  0.00     0.034 A 
ATOM     50  C   UNL     1      -9.240  11.067  -1.926  1.00  0.00     0.049 A 
ATOM     51  C   UNL     1     -12.537   6.598  -2.611  1.00  0.00     0.074 A 
ATOM     52  C   UNL     1      -9.730  12.089  -1.132  1.00  0.00     0.029 A 
ATOM     53  N   UNL     1     -10.223  10.091  -1.971  1.00  0.00    -0.354 N 
ATOM     54  N   UNL     1     -11.905   7.727  -2.401  1.00  0.00    -0.248 NA
ATOM     55  C   UNL     1     -13.825   6.491  -1.911  1.00  0.00     0.031 C 
ATOM     56  C   UNL     1     -11.004  11.723  -0.685  1.00  0.00     0.029 A 
ATOM     57  C   UNL     1     -11.315  10.481  -1.214  1.00  0.00     0.049 A 
ATOM     58  H   UNL     1     -10.155   9.244  -2.468  1.00  0.00     0.167 HD
ATOM     59  C   UNL     1     -12.729   8.477  -1.570  1.00  0.00     0.074 A 
ATOM     60  C   UNL     1     -13.920   7.684  -1.339  1.00  0.00     0.031 C 
ATOM     61  C   UNL     1     -12.513   9.702  -1.031  1.00  0.00     0.034 A 
BRANCH  48  62
ATOM     62  C   UNL     1      -6.984  12.106  -2.396  1.00  0.00     0.023 A 
ATOM     63  C   UNL     1      -6.769  13.028  -3.441  1.00  0.00     0.012 A 
ATOM     64  C   UNL     1      -6.319  12.289  -1.168  1.00  0.00     0.148 A 
ATOM     65  C   UNL     1      -5.883  14.093  -3.281  1.00  0.00     0.002 A 
ATOM     66  C   UNL     1      -5.470  13.377  -1.000  1.00  0.00     0.091 A 
ATOM     67  F   UNL     1      -6.518  11.390  -0.192  1.00  0.00    -0.205 F 
ATOM     68  C   UNL     1      -5.243  14.273  -2.058  1.00  0.00     0.022 A 
BRANCH  66  69
ATOM     69  S   UNL     1      -4.655  13.738   0.560  1.00  0.00     0.127 S 
ATOM     70  O   UNL     1      -3.270  13.376   0.260  1.00  0.00    -0.237 OA
ATOM     71  O   UNL     1      -4.891  15.175   0.707  1.00  0.00    -0.237 OA
ATOM     72  O   UNL     1      -5.317  12.911   1.558  1.00  0.00    -0.744 OA
ENDBRANCH  66  69
ENDBRANCH  48  62
BRANCH  49  73
ATOM     73  C   UNL     1     -13.027   4.252  -3.636  1.00  0.00     0.023 A 
ATOM     74  C   UNL     1     -14.253   4.390  -4.315  1.00  0.00     0.012 A 
ATOM     75  C   UNL     1     -12.647   2.985  -3.154  1.00  0.00     0.148 A 
ATOM     76  C   UNL     1     -15.099   3.294  -4.484  1.00  0.00     0.002 A 
ATOM     77  C   UNL     1     -13.469   1.886  -3.375  1.00  0.00     0.091 A 
ATOM     78  F   UNL     1     -11.482   2.877  -2.500  1.00  0.00    -0.205 F 
ATOM     79  C   UNL     1     -14.703   2.041  -4.025  1.00  0.00     0.022 A 
BRANCH  77  80
ATOM     80  S   UNL     1     -12.972   0.215  -2.939  1.00  0.00     0.127 S 
ATOM     81  O   UNL     1     -13.803  -0.049  -1.768  1.00  0.00    -0.237 OA
ATOM     82  O   UNL     1     -13.341  -0.536  -4.140  1.00  0.00    -0.237 OA
ATOM     83  O   UNL     1     -11.537   0.286  -2.698  1.00  0.00    -0.744 OA
ENDBRANCH  77  80
ENDBRANCH  49  73
BRANCH  61  84
ATOM     84  C   UNL     1     -13.593  10.273  -0.149  1.00  0.00     0.023 A 
ATOM     85  C   UNL     1     -13.797   9.736   1.138  1.00  0.00     0.012 A 
ATOM     86  C   UNL     1     -14.364  11.374  -0.569  1.00  0.00     0.148 A 
ATOM     87  C   UNL     1     -14.775  10.264   1.979  1.00  0.00     0.002 A 
ATOM     88  C   UNL     1     -15.305  11.925   0.293  1.00  0.00     0.091 A 
ATOM     89  F   UNL     1     -14.171  11.858  -1.805  1.00  0.00    -0.205 F 
ATOM     90  C   UNL     1     -15.521  11.364   1.562  1.00  0.00     0.022 A 
BRANCH  88  91
ATOM     91  S   UNL     1     -16.242  13.398  -0.130  1.00  0.00     0.127 S 
ATOM     92  O   UNL     1     -17.542  12.834  -0.486  1.00  0.00    -0.237 OA
ATOM     93  O   UNL     1     -16.227  14.151   1.125  1.00  0.00    -0.237 OA
ATOM     94  O   UNL     1     -15.511  14.033  -1.219  1.00  0.00    -0.744 OA
ENDBRANCH  88  91
ENDBRANCH  61  84
ENDBRANCH  35  36
ENDBRANCH  27  30
ENDBRANCH  25  26
ENDBRANCH  24  25
ENDBRANCH   1  24
TORSDOF 18
