REMARK SMILES O=C(NCCCCCCNC(=O)c1ccccc1C(=O)OC[C@@H]1C[C@H]2CC[C@@H]1C2)c1ccc(-c2c3nc(c(-c4cccc(S(=O)(=O)[O-])c4F)c4ccc([nH]4)c(-c4cccc(S(=O)(=O)[O-])c4F)c4nc(c(-c5cccc(S(=O)(=O)[O-])c5F)c5ccc2[nH]5)C=C4)C=C3)cc1
REMARK SMILES IDX 7 1 6 2 5 3 4 4 3 5 1 6 2 7 30 9 31 10 92 11 32 12 91 13
REMARK SMILES IDX 33 14 34 15 35 16 85 17 36 18 90 19 84 20 86 21 37 22 89 23
REMARK SMILES IDX 83 24 82 25 38 27 70 28 50 29 69 30 51 31 54 32 68 33 87 34
REMARK SMILES IDX 52 35 53 36 67 38 88 39 55 40 39 41 40 42 48 43 41 44 43 45
REMARK SMILES IDX 49 46 42 47 44 48 45 49 46 50 47 51 71 52 72 53 80 54 73 55
REMARK SMILES IDX 75 56 81 57 74 58 76 59 77 60 78 61 79 62 56 63 57 64 65 65
REMARK SMILES IDX 58 66 60 67 66 68 59 69 61 70 62 71 63 72 64 73 8 74 9 75
REMARK SMILES IDX 10 76 11 77 12 79 13 80 14 81 18 82 15 83 17 84 16 85 19 86
REMARK SMILES IDX 20 87 21 88 22 89 23 90 24 91 28 92 25 93 27 94 29 95 26 96
REMARK H PARENT 3 8 86 26 54 37 10 78
REMARK Flexibility Score: inf
ROOT
ATOM      1  C   UNL     1       4.663  -1.914  -3.989  1.00  0.00     0.002 C 
ENDROOT
BRANCH   1   2
ATOM      2  C   UNL     1       4.285  -2.814  -2.810  1.00  0.00     0.002 C 
BRANCH   2   3
ATOM      3  C   UNL     1       4.781  -2.385  -1.431  1.00  0.00     0.021 C 
BRANCH   3   4
ATOM      4  C   UNL     1       4.475  -0.948  -1.033  1.00  0.00     0.116 C 
BRANCH   4   5
ATOM      5  N   UNL     1       3.055  -0.644  -0.991  1.00  0.00    -0.352 N 
ATOM      6  O   UNL     1       1.133   0.171  -0.140  1.00  0.00    -0.269 OA
ATOM      7  C   UNL     1       2.355   0.090  -0.059  1.00  0.00     0.251 C 
ATOM      8  H   UNL     1       2.519  -1.014  -1.730  1.00  0.00     0.163 HD
BRANCH   7   9
ATOM      9  C   UNL     1       3.078   0.737   1.061  1.00  0.00     0.039 A 
ATOM     10  C   UNL     1       4.273   1.425   0.843  1.00  0.00     0.014 A 
ATOM     11  C   UNL     1       2.562   0.629   2.356  1.00  0.00     0.014 A 
ATOM     12  C   UNL     1       5.033   1.851   1.927  1.00  0.00     0.010 A 
ATOM     13  C   UNL     1       3.285   1.142   3.438  1.00  0.00     0.010 A 
ATOM     14  C   UNL     1       4.549   1.717   3.239  1.00  0.00    -0.014 A 
BRANCH  14  15
ATOM     15  C   UNL     1       5.368   2.226   4.371  1.00  0.00     0.031 A 
ATOM     16  C   UNL     1       5.900   1.302   5.434  1.00  0.00     0.074 A 
ATOM     17  C   UNL     1       5.648   3.543   4.424  1.00  0.00     0.049 A 
ATOM     18  N   UNL     1       6.682   1.580   6.447  1.00  0.00    -0.248 NA
ATOM     19  C   UNL     1       5.500  -0.112   5.363  1.00  0.00     0.031 C 
ATOM     20  C   UNL     1       5.149   4.547   3.480  1.00  0.00     0.029 A 
ATOM     21  N   UNL     1       6.425   4.265   5.294  1.00  0.00    -0.354 N 
ATOM     22  C   UNL     1       6.828   0.395   7.158  1.00  0.00     0.074 A 
ATOM     23  C   UNL     1       6.050  -0.608   6.463  1.00  0.00     0.031 C 
ATOM     24  C   UNL     1       5.666   5.743   3.794  1.00  0.00     0.029 A 
ATOM     25  C   UNL     1       6.493   5.604   4.987  1.00  0.00     0.049 A 
ATOM     26  H   UNL     1       6.889   3.864   6.063  1.00  0.00     0.167 HD
ATOM     27  C   UNL     1       7.556   0.160   8.277  1.00  0.00     0.034 A 
ATOM     28  C   UNL     1       7.146   6.612   5.597  1.00  0.00     0.034 A 
ATOM     29  C   UNL     1       8.372   1.148   8.934  1.00  0.00     0.049 A 
ATOM     30  C   UNL     1       7.984   6.310   6.805  1.00  0.00     0.074 A 
ATOM     31  C   UNL     1       9.210   0.985  10.024  1.00  0.00     0.029 A 
ATOM     32  N   UNL     1       8.451   2.482   8.567  1.00  0.00    -0.354 N 
ATOM     33  N   UNL     1       8.221   5.154   7.376  1.00  0.00    -0.248 NA
ATOM     34  C   UNL     1       8.668   7.446   7.437  1.00  0.00     0.031 C 
ATOM     35  C   UNL     1       9.782   2.226  10.326  1.00  0.00     0.029 A 
ATOM     36  C   UNL     1       9.315   3.158   9.413  1.00  0.00     0.049 A 
ATOM     37  H   UNL     1       7.964   2.891   7.814  1.00  0.00     0.167 HD
ATOM     38  C   UNL     1       9.102   5.418   8.417  1.00  0.00     0.074 A 
ATOM     39  C   UNL     1       9.378   6.840   8.380  1.00  0.00     0.031 C 
ATOM     40  C   UNL     1       9.620   4.563   9.333  1.00  0.00     0.034 A 
BRANCH  27  41
ATOM     41  C   UNL     1       7.541  -1.235   8.849  1.00  0.00     0.023 A 
ATOM     42  C   UNL     1       8.255  -2.263   8.200  1.00  0.00     0.012 A 
ATOM     43  C   UNL     1       6.882  -1.514  10.063  1.00  0.00     0.148 A 
ATOM     44  C   UNL     1       8.290  -3.551   8.734  1.00  0.00     0.002 A 
ATOM     45  C   UNL     1       6.954  -2.791  10.610  1.00  0.00     0.091 A 
ATOM     46  F   UNL     1       6.189  -0.531  10.656  1.00  0.00    -0.205 F 
ATOM     47  C   UNL     1       7.649  -3.812   9.943  1.00  0.00     0.022 A 
BRANCH  45  48
ATOM     48  S   UNL     1       6.224  -3.201  12.200  1.00  0.00     0.127 S 
ATOM     49  O   UNL     1       5.032  -3.945  11.795  1.00  0.00    -0.237 OA
ATOM     50  O   UNL     1       7.268  -4.016  12.822  1.00  0.00    -0.237 OA
ATOM     51  O   UNL     1       5.978  -1.928  12.864  1.00  0.00    -0.744 OA
ENDBRANCH  45  48
ENDBRANCH  27  41
BRANCH  28  52
ATOM     52  C   UNL     1       7.086   7.985   5.021  1.00  0.00     0.023 A 
ATOM     53  C   UNL     1       8.236   8.531   4.421  1.00  0.00     0.012 A 
ATOM     54  C   UNL     1       5.889   8.726   5.014  1.00  0.00     0.148 A 
ATOM     55  C   UNL     1       8.202   9.800   3.843  1.00  0.00     0.002 A 
ATOM     56  C   UNL     1       5.846   9.964   4.385  1.00  0.00     0.091 A 
ATOM     57  F   UNL     1       4.809   8.197   5.607  1.00  0.00    -0.205 F 
ATOM     58  C   UNL     1       7.004  10.510   3.813  1.00  0.00     0.022 A 
BRANCH  56  59
ATOM     59  S   UNL     1       4.312  10.875   4.174  1.00  0.00     0.127 S 
ATOM     60  O   UNL     1       4.455  11.937   5.165  1.00  0.00    -0.237 OA
ATOM     61  O   UNL     1       4.407  11.314   2.780  1.00  0.00    -0.237 OA
ATOM     62  O   UNL     1       3.250   9.909   4.423  1.00  0.00    -0.744 OA
ENDBRANCH  56  59
ENDBRANCH  28  52
BRANCH  40  63
ATOM     63  C   UNL     1      10.561   5.138  10.359  1.00  0.00     0.023 A 
ATOM     64  C   UNL     1      10.051   5.934  11.403  1.00  0.00     0.012 A 
ATOM     65  C   UNL     1      11.938   4.844  10.321  1.00  0.00     0.148 A 
ATOM     66  C   UNL     1      10.902   6.459  12.374  1.00  0.00     0.002 A 
ATOM     67  C   UNL     1      12.773   5.333  11.318  1.00  0.00     0.091 A 
ATOM     68  F   UNL     1      12.409   4.104   9.306  1.00  0.00    -0.205 F 
ATOM     69  C   UNL     1      12.260   6.149  12.339  1.00  0.00     0.022 A 
BRANCH  67  70
ATOM     70  S   UNL     1      14.516   4.905  11.395  1.00  0.00     0.127 S 
ATOM     71  O   UNL     1      15.144   6.108  10.851  1.00  0.00    -0.237 OA
ATOM     72  O   UNL     1      14.729   4.702  12.829  1.00  0.00    -0.237 OA
ATOM     73  O   UNL     1      14.662   3.699  10.591  1.00  0.00    -0.744 OA
ENDBRANCH  67  70
ENDBRANCH  40  63
ENDBRANCH  14  15
ENDBRANCH   7   9
ENDBRANCH   4   5
ENDBRANCH   3   4
ENDBRANCH   2   3
ENDBRANCH   1   2
BRANCH   1  74
ATOM     74  C   UNL     1       6.151  -1.583  -4.175  1.00  0.00     0.021 C 
BRANCH  74  75
ATOM     75  C   UNL     1       7.119  -2.762  -4.125  1.00  0.00     0.116 C 
BRANCH  75  76
ATOM     76  N   UNL     1       6.795  -3.811  -5.072  1.00  0.00    -0.352 N 
ATOM     77  C   UNL     1       7.604  -4.770  -5.625  1.00  0.00     0.252 C 
ATOM     78  H   UNL     1       5.855  -3.839  -5.361  1.00  0.00     0.163 HD
ATOM     79  O   UNL     1       7.135  -5.571  -6.431  1.00  0.00    -0.269 OA
BRANCH  77  80
ATOM     80  C   UNL     1       9.053  -4.812  -5.344  1.00  0.00     0.054 A 
ATOM     81  C   UNL     1       9.895  -4.717  -6.467  1.00  0.00     0.015 A 
ATOM     82  C   UNL     1       9.617  -4.978  -4.074  1.00  0.00     0.072 A 
ATOM     83  C   UNL     1      11.283  -4.748  -6.321  1.00  0.00     0.001 A 
ATOM     84  C   UNL     1      11.017  -4.994  -3.936  1.00  0.00     0.016 A 
ATOM     85  C   UNL     1      11.845  -4.881  -5.055  1.00  0.00     0.001 A 
BRANCH  82  86
ATOM     86  C   UNL     1       8.839  -5.098  -2.826  1.00  0.00     0.338 C 
ATOM     87  O   UNL     1       9.210  -4.587  -1.782  1.00  0.00    -0.246 OA
BRANCH  86  88
ATOM     88  O   UNL     1       7.723  -5.838  -3.010  1.00  0.00    -0.462 OA
BRANCH  88  89
ATOM     89  C   UNL     1       6.829  -5.918  -1.890  1.00  0.00     0.237 C 
BRANCH  89  90
ATOM     90  C   UNL     1       6.749  -7.322  -1.287  1.00  0.00     0.030 C 
ATOM     91  C   UNL     1       8.117  -7.951  -0.946  1.00  0.00     0.011 C 
ATOM     92  C   UNL     1       6.134  -8.374  -2.244  1.00  0.00    -0.004 C 
ATOM     93  C   UNL     1       8.073  -9.304  -1.679  1.00  0.00    -0.010 C 
ATOM     94  C   UNL     1       5.702  -9.587  -1.395  1.00  0.00     0.004 C 
ATOM     95  C   UNL     1       7.349  -8.944  -2.974  1.00  0.00     0.007 C 
ATOM     96  C   UNL     1       7.045 -10.214  -0.988  1.00  0.00     0.004 C 
ENDBRANCH  89  90
ENDBRANCH  88  89
ENDBRANCH  86  88
ENDBRANCH  82  86
ENDBRANCH  77  80
ENDBRANCH  75  76
ENDBRANCH  74  75
ENDBRANCH   1  74
TORSDOF 20
