REMARK SMILES O=C(NCCCCCCNC(=O)c1ccc(-c2c3nc(c(-c4cccc(S(=O)(=O)[O-])c4F)c4ccc([nH]4)c(-c4cccc(S(=O)(=O)[O-])c4F)c4nc(c(-c5cccc(S(=O)(=O)[O-])c5F)c5ccc2[nH]5)C=C4)C=C3)cc1)C1=Cc2cc(S(F)(F)(F)(F)F)cc(Br)c2O[C@@H]1C(F)(F)F
REMARK SMILES IDX 7 1 6 2 5 3 4 4 3 5 1 6 2 7 76 9 77 10 92 11 78 12 91 13
REMARK SMILES IDX 79 14 90 15 80 16 88 17 87 18 89 19 93 20 94 21 95 22 96 23
REMARK SMILES IDX 81 24 82 25 83 26 84 27 85 28 86 29 8 30 9 31 10 32 11 33
REMARK SMILES IDX 12 35 13 36 14 37 75 38 15 39 74 40 16 41 17 42 18 43 68 44
REMARK SMILES IDX 19 45 73 46 67 47 69 48 20 49 72 50 66 51 65 52 21 54 53 55
REMARK SMILES IDX 33 56 52 57 34 58 37 59 51 60 70 61 35 62 36 63 50 65 71 66
REMARK SMILES IDX 38 67 22 68 23 69 31 70 24 71 26 72 32 73 25 74 27 75 28 76
REMARK SMILES IDX 29 77 30 78 54 79 55 80 63 81 56 82 58 83 64 84 57 85 59 86
REMARK SMILES IDX 60 87 61 88 62 89 39 90 40 91 48 92 41 93 43 94 49 95 42 96
REMARK SMILES IDX 44 97 45 98 46 99 47 100
REMARK H PARENT 3 8 10 34 69 53 37 64
REMARK Flexibility Score: inf
ROOT
ATOM      1  C   UNL     1       5.031  -4.053  -0.308  1.00  0.00     0.002 C 
ENDROOT
BRANCH   1   2
ATOM      2  C   UNL     1       4.525  -3.418   0.977  1.00  0.00     0.002 C 
BRANCH   2   3
ATOM      3  C   UNL     1       5.031  -1.988   1.070  1.00  0.00     0.021 C 
BRANCH   3   4
ATOM      4  C   UNL     1       4.525  -1.193  -0.123  1.00  0.00     0.116 C 
BRANCH   4   5
ATOM      5  N   UNL     1       3.055  -1.193  -0.123  1.00  0.00    -0.352 N 
ATOM      6  O   UNL     1       1.049   0.077  -0.040  1.00  0.00    -0.270 OA
ATOM      7  C   UNL     1       2.320   0.077  -0.040  1.00  0.00     0.251 C 
ATOM      8  H   UNL     1       2.562  -2.044  -0.178  1.00  0.00     0.163 HD
BRANCH   7   9
ATOM      9  C   UNL     1       3.080   1.391   0.045  1.00  0.00     0.067 C 
ATOM     10  C   UNL     1       4.440   1.391   0.045  1.00  0.00     0.025 C 
ATOM     11  C   UNL     1       2.320   2.705   0.130  1.00  0.00     0.314 C 
ATOM     12  C   UNL     1       5.200   0.077  -0.040  1.00  0.00     0.020 A 
ATOM     13  O   UNL     1       3.607  -0.639  -1.652  1.00  0.00    -0.474 OA
ATOM     14  C   UNL     1       6.279  -0.149   0.798  1.00  0.00     0.036 A 
ATOM     15  C   UNL     1       4.810  -0.835  -0.923  1.00  0.00     0.142 A 
ATOM     16  C   UNL     1       7.069  -1.263   0.428  1.00  0.00     0.109 A 
ATOM     17  C   UNL     1       5.559  -1.966  -1.136  1.00  0.00     0.062 A 
ATOM     18  C   UNL     1       6.672  -2.225  -0.385  1.00  0.00     0.044 A 
ATOM     19  Br  UNL     1       5.026  -3.228  -2.539  1.00  0.00    -0.047 Br
BRANCH  11  20
ATOM     20  C   UNL     1       2.687   3.580  -1.057  1.00  0.00     0.429 C 
ATOM     21  F   UNL     1       2.365   2.955  -2.186  1.00  0.00    -0.167 F 
ATOM     22  F   UNL     1       2.022   4.730  -0.983  1.00  0.00    -0.167 F 
ATOM     23  F   UNL     1       3.994   3.823  -1.041  1.00  0.00    -0.167 F 
ENDBRANCH  11  20
BRANCH  16  24
ATOM     24  S   UNL     1       8.739  -1.378   1.116  1.00  0.00     0.310 S 
ATOM     25  F   UNL     1       8.193  -1.359   2.605  1.00  0.00    -0.094 F 
ATOM     26  F   UNL     1       8.787   0.196   1.187  1.00  0.00    -0.094 F 
ATOM     27  F   UNL     1      10.173  -1.476   1.708  1.00  0.00    -0.094 F 
ATOM     28  F   UNL     1       8.618  -2.951   1.168  1.00  0.00    -0.094 F 
ATOM     29  F   UNL     1       7.240  -1.294   0.620  1.00  0.00    -0.094 F 
ENDBRANCH  16  24
ENDBRANCH   7   9
ENDBRANCH   4   5
ENDBRANCH   3   4
ENDBRANCH   2   3
ENDBRANCH   1   2
BRANCH   1  30
ATOM     30  C   UNL     1       6.551  -4.053  -0.308  1.00  0.00     0.021 C 
BRANCH  30  31
ATOM     31  C   UNL     1       7.058  -4.848   0.884  1.00  0.00     0.116 C 
BRANCH  31  32
ATOM     32  N   UNL     1       6.568  -6.231   0.795  1.00  0.00    -0.352 N 
ATOM     33  C   UNL     1       7.523  -7.346   0.723  1.00  0.00     0.251 C 
ATOM     34  H   UNL     1       5.600  -6.411   0.783  1.00  0.00     0.163 HD
ATOM     35  O   UNL     1       7.100  -8.542   0.645  1.00  0.00    -0.269 OA
BRANCH  33  36
ATOM     36  C   UNL     1       9.018  -7.069   0.741  1.00  0.00     0.039 A 
ATOM     37  C   UNL     1       9.840  -7.728  -0.158  1.00  0.00     0.014 A 
ATOM     38  C   UNL     1       9.510  -6.201   1.616  1.00  0.00     0.014 A 
ATOM     39  C   UNL     1      11.219  -7.618   0.140  1.00  0.00     0.010 A 
ATOM     40  C   UNL     1      10.867  -6.045   1.760  1.00  0.00     0.010 A 
ATOM     41  C   UNL     1      11.741  -6.710   0.945  1.00  0.00    -0.014 A 
BRANCH  41  42
ATOM     42  C   UNL     1      13.233  -6.421   0.965  1.00  0.00     0.031 A 
ATOM     43  C   UNL     1      13.923  -6.615   2.163  1.00  0.00     0.074 A 
ATOM     44  C   UNL     1      13.825  -5.980  -0.207  1.00  0.00     0.049 A 
ATOM     45  N   UNL     1      15.228  -6.454   2.385  1.00  0.00    -0.248 NA
ATOM     46  C   UNL     1      13.290  -7.050   3.417  1.00  0.00     0.031 C 
ATOM     47  C   UNL     1      13.138  -5.790  -1.421  1.00  0.00     0.029 A 
ATOM     48  N   UNL     1      15.147  -5.652  -0.414  1.00  0.00    -0.354 N 
ATOM     49  C   UNL     1      15.520  -6.755   3.653  1.00  0.00     0.074 A 
ATOM     50  C   UNL     1      14.277  -7.136   4.336  1.00  0.00     0.031 C 
ATOM     51  C   UNL     1      14.030  -5.342  -2.344  1.00  0.00     0.029 A 
ATOM     52  C   UNL     1      15.289  -5.246  -1.723  1.00  0.00     0.049 A 
ATOM     53  H   UNL     1      15.866  -5.700   0.257  1.00  0.00     0.167 HD
ATOM     54  C   UNL     1      16.774  -6.727   4.264  1.00  0.00     0.034 A 
ATOM     55  C   UNL     1      16.443  -4.812  -2.356  1.00  0.00     0.034 A 
ATOM     56  C   UNL     1      17.936  -6.334   3.619  1.00  0.00     0.049 A 
ATOM     57  C   UNL     1      17.688  -4.728  -1.728  1.00  0.00     0.074 A 
ATOM     58  C   UNL     1      19.209  -6.308   4.219  1.00  0.00     0.029 A 
ATOM     59  N   UNL     1      18.073  -5.905   2.317  1.00  0.00    -0.354 N 
ATOM     60  N   UNL     1      17.986  -5.066  -0.472  1.00  0.00    -0.248 NA
ATOM     61  C   UNL     1      18.910  -4.239  -2.379  1.00  0.00     0.031 C 
ATOM     62  C   UNL     1      20.101  -5.860   3.295  1.00  0.00     0.029 A 
ATOM     63  C   UNL     1      19.399  -5.598   2.103  1.00  0.00     0.049 A 
ATOM     64  H   UNL     1      17.349  -5.830   1.655  1.00  0.00     0.167 HD
ATOM     65  C   UNL     1      19.284  -4.865  -0.238  1.00  0.00     0.074 A 
ATOM     66  C   UNL     1      19.896  -4.323  -1.460  1.00  0.00     0.031 C 
ATOM     67  C   UNL     1      19.985  -5.116   0.943  1.00  0.00     0.034 A 
BRANCH  54  68
ATOM     68  C   UNL     1      16.872  -7.152   5.721  1.00  0.00     0.023 A 
ATOM     69  C   UNL     1      16.440  -8.408   6.115  1.00  0.00     0.012 A 
ATOM     70  C   UNL     1      17.325  -6.270   6.604  1.00  0.00     0.148 A 
ATOM     71  C   UNL     1      16.254  -8.537   7.512  1.00  0.00     0.002 A 
ATOM     72  C   UNL     1      17.236  -6.522   7.952  1.00  0.00     0.091 A 
ATOM     73  F   UNL     1      17.871  -5.134   6.180  1.00  0.00    -0.205 F 
ATOM     74  C   UNL     1      16.764  -7.719   8.414  1.00  0.00     0.022 A 
BRANCH  72  75
ATOM     75  S   UNL     1      17.750  -5.250   9.132  1.00  0.00     0.127 S 
ATOM     76  O   UNL     1      16.564  -4.869  10.021  1.00  0.00    -0.237 OA
ATOM     77  O   UNL     1      18.887  -5.791  10.003  1.00  0.00    -0.237 OA
ATOM     78  O   UNL     1      18.292  -3.869   8.282  1.00  0.00    -0.744 OA
ENDBRANCH  72  75
ENDBRANCH  54  68
BRANCH  55  79
ATOM     79  C   UNL     1      16.348  -4.403  -3.817  1.00  0.00     0.023 A 
ATOM     80  C   UNL     1      17.078  -5.128  -4.744  1.00  0.00     0.012 A 
ATOM     81  C   UNL     1      15.548  -3.412  -4.193  1.00  0.00     0.148 A 
ATOM     82  C   UNL     1      17.117  -4.540  -6.030  1.00  0.00     0.002 A 
ATOM     83  C   UNL     1      15.538  -2.978  -5.496  1.00  0.00     0.091 A 
ATOM     84  F   UNL     1      14.749  -2.836  -3.300  1.00  0.00    -0.205 F 
ATOM     85  C   UNL     1      16.280  -3.611  -6.454  1.00  0.00     0.022 A 
BRANCH  83  86
ATOM     86  S   UNL     1      14.527  -1.546  -5.951  1.00  0.00     0.127 S 
ATOM     87  O   UNL     1      15.427  -0.446  -6.518  1.00  0.00    -0.237 OA
ATOM     88  O   UNL     1      13.502  -1.962  -7.009  1.00  0.00    -0.237 OA
ATOM     89  O   UNL     1      13.713  -0.960  -4.567  1.00  0.00    -0.744 OA
ENDBRANCH  83  86
ENDBRANCH  55  79
BRANCH  67  90
ATOM     90  C   UNL     1      21.480  -4.842   0.958  1.00  0.00     0.023 A 
ATOM     91  C   UNL     1      21.937  -3.559   0.705  1.00  0.00     0.012 A 
ATOM     92  C   UNL     1      22.322  -5.836   1.214  1.00  0.00     0.148 A 
ATOM     93  C   UNL     1      23.328  -3.485   0.458  1.00  0.00     0.002 A 
ATOM     94  C   UNL     1      23.678  -5.655   1.083  1.00  0.00     0.091 A 
ATOM     95  F   UNL     1      21.850  -7.018   1.600  1.00  0.00    -0.205 F 
ATOM     96  C   UNL     1      24.197  -4.427   0.776  1.00  0.00     0.022 A 
BRANCH  94  97
ATOM     97  S   UNL     1      24.793  -7.061   1.319  1.00  0.00     0.127 S 
ATOM     98  O   UNL     1      25.592  -7.300   0.035  1.00  0.00    -0.237 OA
ATOM     99  O   UNL     1      25.755  -6.761   2.470  1.00  0.00    -0.237 OA
ATOM    100  O   UNL     1      23.878  -8.458   1.689  1.00  0.00    -0.744 OA
ENDBRANCH  94  97
ENDBRANCH  67  90
ENDBRANCH  41  42
ENDBRANCH  33  36
ENDBRANCH  31  32
ENDBRANCH  30  31
ENDBRANCH   1  30
TORSDOF 18
