REMARK SMILES O=C(NCCCCCCNC(=O)C1(n2ccnc2)CCN(C(=O)[C@@H]2CC(=O)N(C3CC3)C2)CC1)c1ccc(-c2c3nc(c(-c4cccc(S(=O)(=O)[O-])c4F)c4ccc([nH]4)c(-c4cccc(S(=O)(=O)[O-])c4F)c4nc(c(-c5cccc(S(=O)(=O)[O-])c5F)c5ccc2[nH]5)C=C4)C=C3)cc1
REMARK SMILES IDX 6 1 5 2 4 3 3 4 1 5 2 6 35 8 36 9 97 10 37 11 96 12 38 13
REMARK SMILES IDX 39 14 40 15 90 16 41 17 95 18 89 19 91 20 42 21 94 22 88 23
REMARK SMILES IDX 87 24 43 26 75 27 55 28 74 29 56 30 59 31 73 32 92 33 57 34
REMARK SMILES IDX 58 35 72 37 93 38 60 39 44 40 45 41 53 42 46 43 48 44 54 45
REMARK SMILES IDX 47 46 49 47 50 48 51 49 52 50 76 51 77 52 85 53 78 54 80 55
REMARK SMILES IDX 86 56 79 57 81 58 82 59 83 60 84 61 61 62 62 63 70 64 63 65
REMARK SMILES IDX 65 66 71 67 64 68 66 69 67 70 68 71 69 72 7 73 8 74 9 75
REMARK SMILES IDX 10 76 11 77 12 79 13 80 19 81 34 82 20 83 33 84 21 85 22 86
REMARK SMILES IDX 23 87 14 88 15 89 18 90 16 91 17 92 24 93 25 94 32 95 26 96
REMARK SMILES IDX 28 97 27 98 29 99 30 100 31 101
REMARK H PARENT 3 7 91 25 59 36 10 78
REMARK Flexibility Score: inf
ROOT
ATOM      1  C   UNL     1       3.916   3.118   1.539  1.00  0.00     0.002 C 
ENDROOT
BRANCH   1   2
ATOM      2  C   UNL     1       4.626   2.202   0.534  1.00  0.00     0.021 C 
BRANCH   2   3
ATOM      3  C   UNL     1       4.587   0.716   0.887  1.00  0.00     0.116 C 
BRANCH   3   4
ATOM      4  N   UNL     1       3.251   0.169   1.006  1.00  0.00    -0.352 N 
ATOM      5  O   UNL     1       1.229  -0.627   0.596  1.00  0.00    -0.269 OA
ATOM      6  C   UNL     1       2.268  -0.167   0.116  1.00  0.00     0.251 C 
ATOM      7  H   UNL     1       2.991   0.002   1.941  1.00  0.00     0.163 HD
BRANCH   6   8
ATOM      8  C   UNL     1       2.354   0.041  -1.353  1.00  0.00     0.039 A 
ATOM      9  C   UNL     1       3.542   0.118  -2.083  1.00  0.00     0.014 A 
ATOM     10  C   UNL     1       1.130   0.116  -2.043  1.00  0.00     0.014 A 
ATOM     11  C   UNL     1       3.510   0.349  -3.455  1.00  0.00     0.010 A 
ATOM     12  C   UNL     1       1.093   0.317  -3.419  1.00  0.00     0.010 A 
ATOM     13  C   UNL     1       2.286   0.457  -4.122  1.00  0.00    -0.014 A 
BRANCH  13  14
ATOM     14  C   UNL     1       2.303   0.502  -5.585  1.00  0.00     0.031 A 
ATOM     15  C   UNL     1       2.853  -0.727  -6.234  1.00  0.00     0.074 A 
ATOM     16  C   UNL     1       1.724   1.477  -6.314  1.00  0.00     0.049 A 
ATOM     17  N   UNL     1       3.865  -0.830  -7.034  1.00  0.00    -0.248 NA
ATOM     18  C   UNL     1       2.260  -2.020  -5.851  1.00  0.00     0.031 C 
ATOM     19  C   UNL     1       0.882   2.572  -5.827  1.00  0.00     0.029 A 
ATOM     20  N   UNL     1       1.649   1.609  -7.672  1.00  0.00    -0.354 N 
ATOM     21  C   UNL     1       3.904  -2.171  -7.422  1.00  0.00     0.074 A 
ATOM     22  C   UNL     1       3.005  -2.877  -6.548  1.00  0.00     0.031 C 
ATOM     23  C   UNL     1       0.189   3.093  -6.865  1.00  0.00     0.029 A 
ATOM     24  C   UNL     1       0.633   2.462  -8.095  1.00  0.00     0.049 A 
ATOM     25  H   UNL     1       2.257   1.145  -8.293  1.00  0.00     0.167 HD
ATOM     26  C   UNL     1       4.503  -2.576  -8.575  1.00  0.00     0.034 A 
ATOM     27  C   UNL     1       0.136   2.577  -9.352  1.00  0.00     0.034 A 
ATOM     28  C   UNL     1       5.409  -1.587  -9.089  1.00  0.00     0.049 A 
ATOM     29  C   UNL     1       1.136   2.016 -10.285  1.00  0.00     0.074 A 
ATOM     30  C   UNL     1       6.543  -0.957  -8.619  1.00  0.00     0.029 A 
ATOM     31  N   UNL     1       4.982  -0.843 -10.160  1.00  0.00    -0.354 N 
ATOM     32  N   UNL     1       2.297   2.559 -10.516  1.00  0.00    -0.248 NA
ATOM     33  C   UNL     1       1.003   0.625 -10.681  1.00  0.00     0.031 C 
ATOM     34  C   UNL     1       6.451   0.377  -9.113  1.00  0.00     0.029 A 
ATOM     35  C   UNL     1       5.297   0.462  -9.895  1.00  0.00     0.049 A 
ATOM     36  H   UNL     1       4.534  -1.184 -10.968  1.00  0.00     0.167 HD
ATOM     37  C   UNL     1       3.159   1.480 -10.648  1.00  0.00     0.074 A 
ATOM     38  C   UNL     1       2.291   0.325 -10.861  1.00  0.00     0.031 C 
ATOM     39  C   UNL     1       4.471   1.582 -10.285  1.00  0.00     0.034 A 
BRANCH  26  40
ATOM     40  C   UNL     1       4.026  -3.729  -9.429  1.00  0.00     0.023 A 
ATOM     41  C   UNL     1       4.858  -4.156 -10.489  1.00  0.00     0.012 A 
ATOM     42  C   UNL     1       2.702  -4.226  -9.416  1.00  0.00     0.148 A 
ATOM     43  C   UNL     1       4.386  -5.000 -11.500  1.00  0.00     0.002 A 
ATOM     44  C   UNL     1       2.263  -5.132 -10.376  1.00  0.00     0.091 A 
ATOM     45  F   UNL     1       1.809  -3.724  -8.558  1.00  0.00    -0.205 F 
ATOM     46  C   UNL     1       3.091  -5.498 -11.438  1.00  0.00     0.022 A 
BRANCH  44  47
ATOM     47  S   UNL     1       0.619  -5.852 -10.305  1.00  0.00     0.127 S 
ATOM     48  O   UNL     1      -0.062  -5.135 -11.378  1.00  0.00    -0.237 OA
ATOM     49  O   UNL     1       0.899  -7.262 -10.581  1.00  0.00    -0.237 OA
ATOM     50  O   UNL     1       0.142  -5.596  -8.952  1.00  0.00    -0.744 OA
ENDBRANCH  44  47
ENDBRANCH  26  40
BRANCH  27  51
ATOM     51  C   UNL     1      -1.239   2.896  -9.802  1.00  0.00     0.023 A 
ATOM     52  C   UNL     1      -1.457   3.362 -11.115  1.00  0.00     0.012 A 
ATOM     53  C   UNL     1      -2.358   2.475  -9.051  1.00  0.00     0.148 A 
ATOM     54  C   UNL     1      -2.742   3.378 -11.672  1.00  0.00     0.002 A 
ATOM     55  C   UNL     1      -3.634   2.500  -9.605  1.00  0.00     0.091 A 
ATOM     56  F   UNL     1      -2.159   1.961  -7.830  1.00  0.00    -0.205 F 
ATOM     57  C   UNL     1      -3.829   2.939 -10.921  1.00  0.00     0.022 A 
BRANCH  55  58
ATOM     58  S   UNL     1      -5.080   1.923  -8.705  1.00  0.00     0.127 S 
ATOM     59  O   UNL     1      -6.024   3.022  -8.915  1.00  0.00    -0.237 OA
ATOM     60  O   UNL     1      -5.406   0.691  -9.416  1.00  0.00    -0.237 OA
ATOM     61  O   UNL     1      -4.648   1.763  -7.322  1.00  0.00    -0.744 OA
ENDBRANCH  55  58
ENDBRANCH  27  51
BRANCH  39  62
ATOM     62  C   UNL     1       5.024   2.955  -9.993  1.00  0.00     0.023 A 
ATOM     63  C   UNL     1       4.523   3.764  -8.950  1.00  0.00     0.012 A 
ATOM     64  C   UNL     1       6.183   3.366 -10.672  1.00  0.00     0.148 A 
ATOM     65  C   UNL     1       5.149   4.968  -8.613  1.00  0.00     0.002 A 
ATOM     66  C   UNL     1       6.831   4.537 -10.301  1.00  0.00     0.091 A 
ATOM     67  F   UNL     1       6.650   2.584 -11.658  1.00  0.00    -0.205 F 
ATOM     68  C   UNL     1       6.311   5.347  -9.279  1.00  0.00     0.022 A 
BRANCH  66  69
ATOM     69  S   UNL     1       8.402   5.009 -11.027  1.00  0.00     0.127 S 
ATOM     70  O   UNL     1       8.011   6.096 -11.922  1.00  0.00    -0.237 OA
ATOM     71  O   UNL     1       9.176   5.428  -9.857  1.00  0.00    -0.237 OA
ATOM     72  O   UNL     1       8.917   3.811 -11.680  1.00  0.00    -0.744 OA
ENDBRANCH  66  69
ENDBRANCH  39  62
ENDBRANCH  13  14
ENDBRANCH   6   8
ENDBRANCH   3   4
ENDBRANCH   2   3
ENDBRANCH   1   2
BRANCH   1  73
ATOM     73  C   UNL     1       4.410   3.038   2.990  1.00  0.00     0.002 C 
BRANCH  73  74
ATOM     74  C   UNL     1       5.919   3.215   3.183  1.00  0.00     0.021 C 
BRANCH  74  75
ATOM     75  C   UNL     1       6.470   4.576   2.749  1.00  0.00     0.116 C 
BRANCH  75  76
ATOM     76  N   UNL     1       6.522   5.523   3.847  1.00  0.00    -0.354 N 
ATOM     77  C   UNL     1       7.472   6.232   4.502  1.00  0.00     0.246 C 
ATOM     78  H   UNL     1       5.626   5.697   4.215  1.00  0.00     0.163 HD
ATOM     79  O   UNL     1       6.987   6.949   5.392  1.00  0.00    -0.272 OA
BRANCH  77  80
ATOM     80  C   UNL     1       9.031   6.178   4.296  1.00  0.00     0.127 C 
ATOM     81  C   UNL     1       9.556   6.490   2.873  1.00  0.00     0.061 C 
ATOM     82  C   UNL     1       9.597   4.844   4.751  1.00  0.00     0.061 C 
ATOM     83  C   UNL     1       9.740   5.329   1.880  1.00  0.00     0.122 C 
ATOM     84  C   UNL     1       9.532   3.726   3.765  1.00  0.00     0.122 C 
ATOM     85  N   UNL     1      10.023   4.003   2.447  1.00  0.00    -0.342 N 
ATOM     86  C   UNL     1      10.496   3.004   1.593  1.00  0.00     0.227 C 
ATOM     87  O   UNL     1      10.813   3.296   0.433  1.00  0.00    -0.274 OA
BRANCH  80  88
ATOM     88  N   UNL     1       9.620   7.213   5.238  1.00  0.00    -0.322 N 
ATOM     89  C   UNL     1       9.570   8.579   5.089  1.00  0.00     0.108 A 
ATOM     90  C   UNL     1      10.262   6.988   6.436  1.00  0.00     0.200 A 
ATOM     91  C   UNL     1      10.217   9.095   6.188  1.00  0.00     0.130 A 
ATOM     92  N   UNL     1      10.670   8.099   7.004  1.00  0.00    -0.245 NA
ENDBRANCH  80  88
BRANCH  86  93
ATOM     93  C   UNL     1      10.571   1.502   1.985  1.00  0.00     0.107 C 
ATOM     94  C   UNL     1       9.220   0.793   1.941  1.00  0.00     0.115 C 
ATOM     95  C   UNL     1      11.165   1.077   3.317  1.00  0.00     0.133 C 
ATOM     96  C   UNL     1       8.873   0.562   3.390  1.00  0.00     0.223 C 
ATOM     97  N   UNL     1      10.017   0.776   4.159  1.00  0.00    -0.339 N 
ATOM     98  O   UNL     1       7.743   0.291   3.786  1.00  0.00    -0.275 OA
BRANCH  97  99
ATOM     99  C   UNL     1      10.060   1.003   5.585  1.00  0.00     0.085 C 
ATOM    100  C   UNL     1       8.914   1.699   6.296  1.00  0.00     0.027 C 
ATOM    101  C   UNL     1       9.237   0.269   6.601  1.00  0.00     0.027 C 
ENDBRANCH  97  99
ENDBRANCH  86  93
ENDBRANCH  77  80
ENDBRANCH  75  76
ENDBRANCH  74  75
ENDBRANCH  73  74
ENDBRANCH   1  73
TORSDOF 19
