REMARK SMILES Cc1cccc(C(=O)Nc2cc(C(=O)NCCCCCCNC(=O)c3ccc(-c4c5nc(c(-c6cccc(S(=O)(=O)[O-])c6F)c6ccc([nH]6)c(-c6cccc(S(=O)(=O)[O-])c6F)c6nc(c(-c7cccc(S(=O)(=O)[O-])c7F)c7ccc4[nH]7)C=C6)C=C5)cc3)ccc2N2CC[NH+](CC(=O)NC(C)(C)C)CC2)c1
REMARK SMILES IDX 18 1 17 2 16 3 15 4 13 5 14 6 12 8 10 9 11 10 90 11 89 12
REMARK SMILES IDX 88 13 9 14 7 15 8 16 6 18 1 19 2 20 3 21 105 22 4 23 5 24
REMARK SMILES IDX 91 25 92 26 104 27 93 28 103 29 94 30 95 32 96 33 97 34
REMARK SMILES IDX 98 35 99 37 100 38 101 39 102 40 19 41 20 42 21 43 22 44
REMARK SMILES IDX 23 45 24 47 25 48 26 49 87 50 27 51 86 52 28 53 29 54 30 55
REMARK SMILES IDX 80 56 31 57 85 58 79 59 81 60 32 61 84 62 78 63 77 64 33 66
REMARK SMILES IDX 65 67 45 68 64 69 46 70 49 71 63 72 82 73 47 74 48 75 62 77
REMARK SMILES IDX 83 78 50 79 34 80 35 81 43 82 36 83 38 84 44 85 37 86 39 87
REMARK SMILES IDX 40 88 41 89 42 90 66 91 67 92 75 93 68 94 70 95 76 96 69 97
REMARK SMILES IDX 71 98 72 99 73 100 74 101 51 102 52 103 60 104 53 105 55 106
REMARK SMILES IDX 61 107 54 108 56 109 57 110 58 111 59 112
REMARK H PARENT 15 7 9 17 94 31 98 36 22 46 81 65 49 76
REMARK Flexibility Score: inf
ROOT
ATOM      1  C   UNL     1       1.332   0.005  -5.355  1.00  0.00     0.002 C 
ENDROOT
BRANCH   1   2
ATOM      2  C   UNL     1       1.057   1.007  -4.231  1.00  0.00     0.021 C 
BRANCH   2   3
ATOM      3  C   UNL     1       1.740   0.645  -2.912  1.00  0.00     0.116 C 
BRANCH   3   4
ATOM      4  N   UNL     1       3.063   1.226  -2.796  1.00  0.00    -0.352 N 
ATOM      5  C   UNL     1       3.536   2.367  -2.194  1.00  0.00     0.251 C 
ATOM      6  O   UNL     1       4.758   2.527  -2.175  1.00  0.00    -0.269 OA
ATOM      7  H   UNL     1       3.765   0.696  -3.238  1.00  0.00     0.163 HD
BRANCH   5   8
ATOM      8  C   UNL     1       2.669   3.374  -1.513  1.00  0.00     0.042 A 
ATOM      9  C   UNL     1       0.529   4.212  -0.781  1.00  0.00     0.065 A 
ATOM     10  C   UNL     1       1.288   3.417  -1.634  1.00  0.00     0.042 A 
ATOM     11  C   UNL     1       1.121   5.206   0.036  1.00  0.00     0.061 A 
ATOM     12  C   UNL     1       2.518   5.242   0.066  1.00  0.00     0.029 A 
ATOM     13  C   UNL     1       3.279   4.305  -0.656  1.00  0.00     0.016 A 
BRANCH   9  14
ATOM     14  N   UNL     1      -0.858   3.995  -0.711  1.00  0.00    -0.320 N 
ATOM     15  C   UNL     1      -1.551   2.853  -0.336  1.00  0.00     0.255 C 
ATOM     16  O   UNL     1      -2.763   2.960  -0.128  1.00  0.00    -0.269 OA
ATOM     17  H   UNL     1      -1.418   4.765  -0.963  1.00  0.00     0.170 HD
BRANCH  15  18
ATOM     18  C   UNL     1      -0.930   1.512  -0.076  1.00  0.00     0.040 A 
ATOM     19  C   UNL     1       2.363  -0.227   0.774  1.00  0.00     0.044 C 
ATOM     20  C   UNL     1       0.902  -0.005   0.497  1.00  0.00    -0.050 A 
ATOM     21  C   UNL     1       0.085  -1.103   0.208  1.00  0.00     0.003 A 
ATOM     22  C   UNL     1       0.364   1.296   0.422  1.00  0.00     0.017 A 
ATOM     23  C   UNL     1      -1.241  -0.907  -0.167  1.00  0.00     0.001 A 
ATOM     24  C   UNL     1      -1.738   0.390  -0.321  1.00  0.00     0.014 A 
ENDBRANCH  15  18
ENDBRANCH   9  14
BRANCH  11  25
ATOM     25  N   UNL     1       0.342   6.028   0.838  1.00  0.00    -0.359 N 
ATOM     26  C   UNL     1       0.736   7.382   1.267  1.00  0.00     0.178 C 
ATOM     27  C   UNL     1      -0.500   5.359   1.824  1.00  0.00     0.178 C 
ATOM     28  C   UNL     1      -0.512   8.199   1.753  1.00  0.00     0.284 C 
ATOM     29  C   UNL     1      -1.800   6.163   1.976  1.00  0.00     0.284 C 
ATOM     30  N   UNL     1      -1.578   7.506   2.516  1.00  0.00    -0.324 N 
ATOM     31  H   UNL     1      -2.415   8.067   2.362  1.00  0.00     0.348 HD
BRANCH  30  32
ATOM     32  C   UNL     1      -1.498   7.555   3.986  1.00  0.00     0.363 C 
BRANCH  32  33
ATOM     33  C   UNL     1      -0.378   6.744   4.626  1.00  0.00     0.275 C 
ATOM     34  O   UNL     1       0.771   7.207   4.664  1.00  0.00    -0.268 OA
ATOM     35  N   UNL     1      -0.537   5.513   5.189  1.00  0.00    -0.347 N 
ATOM     36  H   UNL     1       0.286   5.247   5.658  1.00  0.00     0.164 HD
BRANCH  35  37
ATOM     37  C   UNL     1      -1.568   4.442   5.316  1.00  0.00     0.032 C 
ATOM     38  C   UNL     1      -1.448   3.398   4.189  1.00  0.00     0.034 C 
ATOM     39  C   UNL     1      -1.243   3.690   6.626  1.00  0.00     0.034 C 
ATOM     40  C   UNL     1      -3.013   4.937   5.418  1.00  0.00     0.034 C 
ENDBRANCH  35  37
ENDBRANCH  32  33
ENDBRANCH  30  32
ENDBRANCH  11  25
ENDBRANCH   5   8
ENDBRANCH   3   4
ENDBRANCH   2   3
ENDBRANCH   1   2
BRANCH   1  41
ATOM     41  C   UNL     1       1.017  -1.464  -5.022  1.00  0.00     0.002 C 
BRANCH  41  42
ATOM     42  C   UNL     1      -0.314  -1.709  -4.308  1.00  0.00     0.021 C 
BRANCH  42  43
ATOM     43  C   UNL     1      -1.524  -1.510  -5.207  1.00  0.00     0.116 C 
BRANCH  43  44
ATOM     44  N   UNL     1      -1.907  -2.734  -5.892  1.00  0.00    -0.352 N 
ATOM     45  C   UNL     1      -2.942  -2.976  -6.771  1.00  0.00     0.251 C 
ATOM     46  H   UNL     1      -1.338  -3.514  -5.697  1.00  0.00     0.163 HD
ATOM     47  O   UNL     1      -3.197  -4.140  -7.074  1.00  0.00    -0.269 OA
BRANCH  45  48
ATOM     48  C   UNL     1      -3.605  -1.842  -7.455  1.00  0.00     0.039 A 
ATOM     49  C   UNL     1      -3.729  -1.925  -8.849  1.00  0.00     0.014 A 
ATOM     50  C   UNL     1      -3.825  -0.633  -6.802  1.00  0.00     0.014 A 
ATOM     51  C   UNL     1      -3.776  -0.756  -9.601  1.00  0.00     0.010 A 
ATOM     52  C   UNL     1      -3.788   0.528  -7.542  1.00  0.00     0.010 A 
ATOM     53  C   UNL     1      -3.668   0.459  -8.934  1.00  0.00    -0.014 A 
BRANCH  53  54
ATOM     54  C   UNL     1      -3.360   1.724  -9.575  1.00  0.00     0.031 A 
ATOM     55  C   UNL     1      -4.452   2.643  -9.931  1.00  0.00     0.074 A 
ATOM     56  C   UNL     1      -2.067   2.112  -9.659  1.00  0.00     0.049 A 
ATOM     57  N   UNL     1      -4.300   3.692 -10.660  1.00  0.00    -0.248 NA
ATOM     58  C   UNL     1      -5.827   2.424  -9.506  1.00  0.00     0.031 C 
ATOM     59  C   UNL     1      -1.558   3.457  -9.906  1.00  0.00     0.029 A 
ATOM     60  N   UNL     1      -0.925   1.307  -9.750  1.00  0.00    -0.354 N 
ATOM     61  C   UNL     1      -5.455   4.436 -10.564  1.00  0.00     0.074 A 
ATOM     62  C   UNL     1      -6.403   3.554  -9.926  1.00  0.00     0.031 C 
ATOM     63  C   UNL     1      -0.316   3.360 -10.405  1.00  0.00     0.029 A 
ATOM     64  C   UNL     1      -0.097   1.953 -10.688  1.00  0.00     0.049 A 
ATOM     65  H   UNL     1      -0.741   0.471  -9.263  1.00  0.00     0.167 HD
ATOM     66  C   UNL     1      -5.402   5.753 -10.913  1.00  0.00     0.034 A 
ATOM     67  C   UNL     1       0.185   1.437 -11.925  1.00  0.00     0.034 A 
ATOM     68  C   UNL     1      -4.109   6.071 -11.551  1.00  0.00     0.049 A 
ATOM     69  C   UNL     1      -0.183   2.363 -13.086  1.00  0.00     0.074 A 
ATOM     70  C   UNL     1      -2.947   6.710 -11.145  1.00  0.00     0.029 A 
ATOM     71  N   UNL     1      -3.795   5.445 -12.749  1.00  0.00    -0.354 N 
ATOM     72  N   UNL     1      -0.757   3.530 -12.968  1.00  0.00    -0.248 NA
ATOM     73  C   UNL     1      -0.015   1.981 -14.488  1.00  0.00     0.031 C 
ATOM     74  C   UNL     1      -1.928   6.443 -12.111  1.00  0.00     0.029 A 
ATOM     75  C   UNL     1      -2.477   5.667 -13.116  1.00  0.00     0.049 A 
ATOM     76  H   UNL     1      -4.432   4.909 -13.274  1.00  0.00     0.167 HD
ATOM     77  C   UNL     1      -1.182   3.971 -14.200  1.00  0.00     0.074 A 
ATOM     78  C   UNL     1      -0.658   2.975 -15.122  1.00  0.00     0.031 C 
ATOM     79  C   UNL     1      -1.995   5.068 -14.357  1.00  0.00     0.034 A 
BRANCH  66  80
ATOM     80  C   UNL     1      -6.391   6.830 -10.477  1.00  0.00     0.023 A 
ATOM     81  C   UNL     1      -5.974   8.176 -10.598  1.00  0.00     0.012 A 
ATOM     82  C   UNL     1      -7.660   6.640  -9.880  1.00  0.00     0.148 A 
ATOM     83  C   UNL     1      -6.710   9.248 -10.075  1.00  0.00     0.002 A 
ATOM     84  C   UNL     1      -8.375   7.701  -9.313  1.00  0.00     0.091 A 
ATOM     85  F   UNL     1      -8.239   5.443  -9.903  1.00  0.00    -0.205 F 
ATOM     86  C   UNL     1      -7.898   9.008  -9.403  1.00  0.00     0.022 A 
BRANCH  84  87
ATOM     87  S   UNL     1      -9.900   7.453  -8.380  1.00  0.00     0.127 S 
ATOM     88  O   UNL     1      -9.577   8.078  -7.096  1.00  0.00    -0.237 OA
ATOM     89  O   UNL     1     -10.882   8.182  -9.179  1.00  0.00    -0.237 OA
ATOM     90  O   UNL     1     -10.109   6.011  -8.304  1.00  0.00    -0.744 OA
ENDBRANCH  84  87
ENDBRANCH  66  80
BRANCH  67  91
ATOM     91  C   UNL     1       0.118  -0.059 -11.980  1.00  0.00     0.023 A 
ATOM     92  C   UNL     1       0.963  -0.784 -11.104  1.00  0.00     0.012 A 
ATOM     93  C   UNL     1      -0.963  -0.731 -12.578  1.00  0.00     0.148 A 
ATOM     94  C   UNL     1       0.642  -2.085 -10.710  1.00  0.00     0.002 A 
ATOM     95  C   UNL     1      -1.261  -2.038 -12.200  1.00  0.00     0.091 A 
ATOM     96  F   UNL     1      -1.723  -0.075 -13.463  1.00  0.00    -0.205 F 
ATOM     97  C   UNL     1      -0.492  -2.699 -11.230  1.00  0.00     0.022 A 
BRANCH  95  98
ATOM     98  S   UNL     1      -2.710  -2.881 -12.850  1.00  0.00     0.127 S 
ATOM     99  O   UNL     1      -2.153  -3.559 -14.017  1.00  0.00    -0.237 OA
ATOM    100  O   UNL     1      -3.088  -3.763 -11.746  1.00  0.00    -0.237 OA
ATOM    101  O   UNL     1      -3.666  -1.815 -13.112  1.00  0.00    -0.744 OA
ENDBRANCH  95  98
ENDBRANCH  67  91
BRANCH  79 102
ATOM    102  C   UNL     1      -2.497   5.621 -15.693  1.00  0.00     0.023 A 
ATOM    103  C   UNL     1      -1.826   5.371 -16.905  1.00  0.00     0.012 A 
ATOM    104  C   UNL     1      -3.627   6.484 -15.781  1.00  0.00     0.148 A 
ATOM    105  C   UNL     1      -2.325   5.808 -18.140  1.00  0.00     0.002 A 
ATOM    106  C   UNL     1      -4.114   6.934 -17.006  1.00  0.00     0.091 A 
ATOM    107  F   UNL     1      -4.217   6.934 -14.670  1.00  0.00    -0.205 F 
ATOM    108  C   UNL     1      -3.483   6.569 -18.194  1.00  0.00     0.022 A 
BRANCH 106 109
ATOM    109  S   UNL     1      -5.552   8.011 -17.131  1.00  0.00     0.127 S 
ATOM    110  O   UNL     1      -4.931   9.291 -17.471  1.00  0.00    -0.237 OA
ATOM    111  O   UNL     1      -6.303   7.390 -18.223  1.00  0.00    -0.237 OA
ATOM    112  O   UNL     1      -6.212   7.956 -15.836  1.00  0.00    -0.744 OA
ENDBRANCH 106 109
ENDBRANCH  79 102
ENDBRANCH  53  54
ENDBRANCH  45  48
ENDBRANCH  43  44
ENDBRANCH  42  43
ENDBRANCH  41  42
ENDBRANCH   1  41
TORSDOF 22
