REMARK SMILES C[C@@](O)(CC1(C(=O)NCCCCCCNC(=O)c2ccc(-c3c4nc(c(-c5cccc(S(=O)(=O)[O-])c5F)c5ccc([nH]5)c(-c5cccc(S(=O)(=O)[O-])c5F)c5nc(c(-c6cccc(S(=O)(=O)[O-])c6F)c6ccc3[nH]6)C=C5)C=C4)cc2)CC1)c1ccccc1
REMARK SMILES IDX 11 1 10 2 9 3 8 4 6 5 7 6 5 8 81 9 82 10 4 11 2 12 1 13 3 14
REMARK SMILES IDX 83 16 84 17 88 18 85 19 87 20 86 21 12 22 13 23 14 24 15 25
REMARK SMILES IDX 16 26 17 28 18 29 19 30 80 31 20 32 79 33 21 34 22 35 23 36
REMARK SMILES IDX 73 37 24 38 78 39 72 40 74 41 25 42 77 43 71 44 70 45 26 47
REMARK SMILES IDX 58 48 38 49 57 50 39 51 42 52 56 53 75 54 40 55 41 56 55 58
REMARK SMILES IDX 76 59 43 60 27 61 28 62 36 63 29 64 31 65 37 66 30 67 32 68
REMARK SMILES IDX 33 69 34 70 35 71 59 72 60 73 68 74 61 75 63 76 69 77 62 78
REMARK SMILES IDX 64 79 65 80 66 81 67 82 44 83 45 84 53 85 46 86 48 87 54 88
REMARK SMILES IDX 47 89 49 90 50 91 51 92 52 93
REMARK H PARENT 8 7 3 15 15 27 74 46 42 57
REMARK Flexibility Score: inf
ROOT
ATOM      1  C   UNL     1      -1.642  -0.318   5.033  1.00  0.00     0.002 C 
ENDROOT
BRANCH   1   2
ATOM      2  C   UNL     1      -2.480   0.566   4.102  1.00  0.00     0.021 C 
BRANCH   2   3
ATOM      3  C   UNL     1      -1.671   1.526   3.227  1.00  0.00     0.116 C 
BRANCH   3   4
ATOM      4  N   UNL     1      -0.781   0.804   2.338  1.00  0.00    -0.356 N 
ATOM      5  C   UNL     1      -1.187   0.249   1.159  1.00  0.00     0.226 C 
ATOM      6  O   UNL     1      -1.131  -0.972   1.009  1.00  0.00    -0.274 OA
ATOM      7  H   UNL     1       0.163   0.710   2.599  1.00  0.00     0.163 HD
BRANCH   5   8
ATOM      8  C   UNL     1      -1.523   1.128  -0.015  1.00  0.00     0.052 C 
ATOM      9  C   UNL     1      -1.927   2.590   0.093  1.00  0.00     0.018 C 
ATOM     10  C   UNL     1      -2.991   1.554  -0.081  1.00  0.00     0.018 C 
BRANCH   8  11
ATOM     11  C   UNL     1      -0.855   0.725  -1.338  1.00  0.00     0.056 C 
BRANCH  11  12
ATOM     12  C   UNL     1       0.698   0.860  -1.399  1.00  0.00     0.088 C 
ATOM     13  C   UNL     1       1.399  -0.215  -0.551  1.00  0.00     0.047 C 
BRANCH  12  14
ATOM     14  O   UNL     1       1.065   0.535  -2.761  1.00  0.00    -0.385 OA
ATOM     15  H   UNL     1       0.765  -0.363  -2.971  1.00  0.00     0.211 HD
ENDBRANCH  12  14
BRANCH  12  16
ATOM     16  C   UNL     1       1.207   2.285  -1.159  1.00  0.00    -0.017 A 
ATOM     17  C   UNL     1       2.220   2.591  -0.234  1.00  0.00     0.007 A 
ATOM     18  C   UNL     1       0.668   3.353  -1.902  1.00  0.00     0.007 A 
ATOM     19  C   UNL     1       2.636   3.910  -0.025  1.00  0.00     0.000 A 
ATOM     20  C   UNL     1       1.064   4.674  -1.675  1.00  0.00     0.000 A 
ATOM     21  C   UNL     1       2.046   4.952  -0.732  1.00  0.00     0.000 A 
ENDBRANCH  12  16
ENDBRANCH  11  12
ENDBRANCH   8  11
ENDBRANCH   5   8
ENDBRANCH   3   4
ENDBRANCH   2   3
ENDBRANCH   1   2
BRANCH   1  22
ATOM     22  C   UNL     1      -0.676   0.434   5.953  1.00  0.00     0.002 C 
BRANCH  22  23
ATOM     23  C   UNL     1      -1.309   1.546   6.792  1.00  0.00     0.021 C 
BRANCH  23  24
ATOM     24  C   UNL     1      -2.490   1.111   7.652  1.00  0.00     0.116 C 
BRANCH  24  25
ATOM     25  N   UNL     1      -2.112   0.120   8.646  1.00  0.00    -0.352 N 
ATOM     26  C   UNL     1      -2.364   0.110   9.995  1.00  0.00     0.251 C 
ATOM     27  H   UNL     1      -1.605  -0.651   8.304  1.00  0.00     0.163 HD
ATOM     28  O   UNL     1      -1.818  -0.723  10.714  1.00  0.00    -0.269 OA
BRANCH  26  29
ATOM     29  C   UNL     1      -3.275   1.116  10.584  1.00  0.00     0.039 A 
ATOM     30  C   UNL     1      -2.890   1.765  11.759  1.00  0.00     0.014 A 
ATOM     31  C   UNL     1      -4.501   1.421   9.983  1.00  0.00     0.014 A 
ATOM     32  C   UNL     1      -3.708   2.758  12.302  1.00  0.00     0.010 A 
ATOM     33  C   UNL     1      -5.281   2.461  10.486  1.00  0.00     0.010 A 
ATOM     34  C   UNL     1      -4.896   3.137  11.652  1.00  0.00    -0.014 A 
BRANCH  34  35
ATOM     35  C   UNL     1      -5.720   4.261  12.169  1.00  0.00     0.031 A 
ATOM     36  C   UNL     1      -7.124   4.026  12.654  1.00  0.00     0.074 A 
ATOM     37  C   UNL     1      -5.222   5.513  12.134  1.00  0.00     0.049 A 
ATOM     38  N   UNL     1      -7.981   4.888  13.139  1.00  0.00    -0.248 NA
ATOM     39  C   UNL     1      -7.645   2.653  12.561  1.00  0.00     0.031 C 
ATOM     40  C   UNL     1      -3.910   5.885  11.597  1.00  0.00     0.029 A 
ATOM     41  N   UNL     1      -5.766   6.707  12.536  1.00  0.00    -0.354 N 
ATOM     42  C   UNL     1      -9.148   4.173  13.380  1.00  0.00     0.074 A 
ATOM     43  C   UNL     1      -8.901   2.811  12.956  1.00  0.00     0.031 C 
ATOM     44  C   UNL     1      -3.749   7.213  11.712  1.00  0.00     0.029 A 
ATOM     45  C   UNL     1      -4.950   7.790  12.307  1.00  0.00     0.049 A 
ATOM     46  H   UNL     1      -6.656   6.781  12.949  1.00  0.00     0.167 HD
ATOM     47  C   UNL     1     -10.309   4.601  13.932  1.00  0.00     0.034 A 
ATOM     48  C   UNL     1      -5.145   9.101  12.548  1.00  0.00     0.034 A 
ATOM     49  C   UNL     1     -10.537   5.945  14.390  1.00  0.00     0.049 A 
ATOM     50  C   UNL     1      -6.420   9.540  13.214  1.00  0.00     0.074 A 
ATOM     51  C   UNL     1     -11.640   6.452  15.055  1.00  0.00     0.029 A 
ATOM     52  N   UNL     1      -9.654   7.001  14.222  1.00  0.00    -0.354 N 
ATOM     53  N   UNL     1      -7.440   8.814  13.603  1.00  0.00    -0.248 NA
ATOM     54  C   UNL     1      -6.555  10.973  13.510  1.00  0.00     0.031 C 
ATOM     55  C   UNL     1     -11.434   7.821  15.266  1.00  0.00     0.029 A 
ATOM     56  C   UNL     1     -10.192   8.160  14.756  1.00  0.00     0.049 A 
ATOM     57  H   UNL     1      -8.774   6.935  13.786  1.00  0.00     0.167 HD
ATOM     58  C   UNL     1      -8.325   9.696  14.213  1.00  0.00     0.074 A 
ATOM     59  C   UNL     1      -7.704  11.005  14.170  1.00  0.00     0.031 C 
ATOM     60  C   UNL     1      -9.549   9.449  14.743  1.00  0.00     0.034 A 
BRANCH  47  61
ATOM     61  C   UNL     1     -11.407   3.587  14.126  1.00  0.00     0.023 A 
ATOM     62  C   UNL     1     -11.267   2.590  15.114  1.00  0.00     0.012 A 
ATOM     63  C   UNL     1     -12.600   3.655  13.380  1.00  0.00     0.148 A 
ATOM     64  C   UNL     1     -12.279   1.657  15.333  1.00  0.00     0.002 A 
ATOM     65  C   UNL     1     -13.623   2.748  13.634  1.00  0.00     0.091 A 
ATOM     66  F   UNL     1     -12.709   4.595  12.430  1.00  0.00    -0.205 F 
ATOM     67  C   UNL     1     -13.460   1.743  14.601  1.00  0.00     0.022 A 
BRANCH  65  68
ATOM     68  S   UNL     1     -15.214   2.822  12.801  1.00  0.00     0.127 S 
ATOM     69  O   UNL     1     -15.146   1.650  11.931  1.00  0.00    -0.237 OA
ATOM     70  O   UNL     1     -16.152   2.699  13.918  1.00  0.00    -0.237 OA
ATOM     71  O   UNL     1     -15.249   4.108  12.119  1.00  0.00    -0.744 OA
ENDBRANCH  65  68
ENDBRANCH  47  61
BRANCH  48  72
ATOM     72  C   UNL     1      -4.072  10.083  12.223  1.00  0.00     0.023 A 
ATOM     73  C   UNL     1      -3.363  10.706  13.268  1.00  0.00     0.012 A 
ATOM     74  C   UNL     1      -3.728  10.375  10.889  1.00  0.00     0.148 A 
ATOM     75  C   UNL     1      -2.352  11.626  12.991  1.00  0.00     0.002 A 
ATOM     76  C   UNL     1      -2.681  11.249  10.620  1.00  0.00     0.091 A 
ATOM     77  F   UNL     1      -4.423   9.781   9.908  1.00  0.00    -0.205 F 
ATOM     78  C   UNL     1      -2.003  11.890  11.669  1.00  0.00     0.022 A 
BRANCH  76  79
ATOM     79  S   UNL     1      -2.075  11.540   8.954  1.00  0.00     0.127 S 
ATOM     80  O   UNL     1      -2.536  12.902   8.700  1.00  0.00    -0.237 OA
ATOM     81  O   UNL     1      -0.629  11.400   9.129  1.00  0.00    -0.237 OA
ATOM     82  O   UNL     1      -2.680  10.501   8.131  1.00  0.00    -0.744 OA
ENDBRANCH  76  79
ENDBRANCH  48  72
BRANCH  60  83
ATOM     83  C   UNL     1     -10.296  10.616  15.336  1.00  0.00     0.023 A 
ATOM     84  C   UNL     1     -10.834  11.604  14.486  1.00  0.00     0.012 A 
ATOM     85  C   UNL     1     -10.509  10.710  16.725  1.00  0.00     0.148 A 
ATOM     86  C   UNL     1     -11.536  12.688  15.013  1.00  0.00     0.002 A 
ATOM     87  C   UNL     1     -11.253  11.766  17.239  1.00  0.00     0.091 A 
ATOM     88  F   UNL     1      -9.974   9.772  17.520  1.00  0.00    -0.205 F 
ATOM     89  C   UNL     1     -11.755  12.763  16.386  1.00  0.00     0.022 A 
BRANCH  87  90
ATOM     90  S   UNL     1     -11.663  11.891  18.983  1.00  0.00     0.127 S 
ATOM     91  O   UNL     1     -10.752  12.944  19.429  1.00  0.00    -0.237 OA
ATOM     92  O   UNL     1     -13.074  12.281  18.945  1.00  0.00    -0.237 OA
ATOM     93  O   UNL     1     -11.420  10.570  19.545  1.00  0.00    -0.744 OA
ENDBRANCH  87  90
ENDBRANCH  60  83
ENDBRANCH  34  35
ENDBRANCH  26  29
ENDBRANCH  24  25
ENDBRANCH  23  24
ENDBRANCH  22  23
ENDBRANCH   1  22
TORSDOF 20
