REMARK SMILES Cc1ccc(C)c(S(=O)(=O)N[C@H](CC2=c3ccccc3=NC2)C(=O)NCCCCCCNC(=O)c2ccc(-c3c4nc(c(-c5cccc(S(=O)(=O)[O-])c5F)c5ccc([nH]5)c(-c5cccc(S(=O)(=O)[O-])c5F)c5nc(c(-c6cccc(S(=O)(=O)[O-])c6F)c6ccc3[nH]6)C=C5)C=C4)cc2)c1
REMARK SMILES IDX 28 1 27 2 26 3 25 4 23 5 24 6 12 8 11 9 8 11 9 12 10 13 7 14
REMARK SMILES IDX 1 15 2 16 3 17 98 18 4 19 5 20 6 21 13 22 14 23 15 24 22 25
REMARK SMILES IDX 16 26 20 27 21 28 17 29 19 30 18 31 29 32 30 33 31 34 32 35
REMARK SMILES IDX 33 36 34 38 35 39 36 40 97 41 37 42 96 43 38 44 39 45 40 46
REMARK SMILES IDX 90 47 41 48 95 49 89 50 91 51 42 52 94 53 88 54 87 55 43 57
REMARK SMILES IDX 75 58 55 59 74 60 56 61 59 62 73 63 92 64 57 65 58 66 72 68
REMARK SMILES IDX 93 69 60 70 44 71 45 72 53 73 46 74 48 75 54 76 47 77 49 78
REMARK SMILES IDX 50 79 51 80 52 81 76 82 77 83 85 84 78 85 80 86 86 87 79 88
REMARK SMILES IDX 81 89 82 90 83 91 84 92 61 93 62 94 70 95 63 96 65 97 71 98
REMARK SMILES IDX 64 99 66 100 67 101 68 102 69 103
REMARK H PARENT 25 7 11 10 32 37 91 56 59 67
REMARK Flexibility Score: inf
ROOT
ATOM      1  C   UNL     1      -0.401   9.261  -1.125  1.00  0.00     0.002 C 
ENDROOT
BRANCH   1   2
ATOM      2  C   UNL     1      -1.375   8.092  -1.295  1.00  0.00     0.021 C 
BRANCH   2   3
ATOM      3  C   UNL     1      -0.912   6.889  -2.138  1.00  0.00     0.116 C 
BRANCH   3   4
ATOM      4  N   UNL     1       0.523   6.632  -2.150  1.00  0.00    -0.355 N 
ATOM      5  C   UNL     1       1.311   5.572  -1.794  1.00  0.00     0.238 C 
ATOM      6  O   UNL     1       2.532   5.756  -1.898  1.00  0.00    -0.273 OA
ATOM      7  H   UNL     1       1.043   7.394  -2.493  1.00  0.00     0.163 HD
BRANCH   5   8
ATOM      8  C   UNL     1       0.771   4.218  -1.297  1.00  0.00     0.163 C 
BRANCH   8   9
ATOM      9  N   UNL     1      -0.278   3.739  -2.234  1.00  0.00    -0.198 NA
ATOM     10  H   UNL     1      -1.008   3.324  -1.656  1.00  0.00     0.142 HD
BRANCH   9  11
ATOM     11  S   UNL     1       0.045   2.637  -3.437  1.00  0.00     0.241 S 
ATOM     12  O   UNL     1       1.448   2.682  -3.749  1.00  0.00    -0.207 OA
ATOM     13  O   UNL     1      -0.969   2.878  -4.455  1.00  0.00    -0.207 OA
BRANCH  11  14
ATOM     14  C   UNL     1      -0.331   1.050  -2.722  1.00  0.00     0.085 A 
ATOM     15  C   UNL     1      -1.777  -0.246   0.555  1.00  0.00     0.044 C 
ATOM     16  C   UNL     1      -1.185  -0.220  -0.825  1.00  0.00    -0.050 A 
ATOM     17  C   UNL     1      -0.852  -1.402  -1.484  1.00  0.00     0.004 A 
ATOM     18  C   UNL     1      -0.916   1.002  -1.448  1.00  0.00     0.025 A 
ATOM     19  C   UNL     1      -0.305  -1.364  -2.769  1.00  0.00     0.005 A 
ATOM     20  C   UNL     1      -0.052  -0.142  -3.418  1.00  0.00    -0.031 A 
ATOM     21  C   UNL     1       0.491  -0.204  -4.818  1.00  0.00     0.046 C 
ENDBRANCH  11  14
ENDBRANCH   9  11
ENDBRANCH   8   9
BRANCH   8  22
ATOM     22  C   UNL     1       0.280   4.128   0.174  1.00  0.00     0.063 C 
BRANCH  22  23
ATOM     23  C   UNL     1       0.745   5.135   1.196  1.00  0.00    -0.037 C 
ATOM     24  C   UNL     1       1.451   5.016   2.322  1.00  0.00     0.001 A 
ATOM     25  C   UNL     1       0.179   6.514   1.141  1.00  0.00     0.174 C 
ATOM     26  C   UNL     1       2.026   3.958   3.091  1.00  0.00     0.010 A 
ATOM     27  C   UNL     1       1.503   6.404   2.820  1.00  0.00     0.065 A 
ATOM     28  N   UNL     1       0.832   7.316   2.189  1.00  0.00    -0.280 NA
ATOM     29  C   UNL     1       2.636   4.256   4.253  1.00  0.00     0.001 A 
ATOM     30  C   UNL     1       2.335   6.670   4.005  1.00  0.00     0.028 A 
ATOM     31  C   UNL     1       2.826   5.628   4.689  1.00  0.00     0.002 A 
ENDBRANCH  22  23
ENDBRANCH   8  22
ENDBRANCH   5   8
ENDBRANCH   3   4
ENDBRANCH   2   3
ENDBRANCH   1   2
BRANCH   1  32
ATOM     32  C   UNL     1      -0.417  10.320  -2.224  1.00  0.00     0.002 C 
BRANCH  32  33
ATOM     33  C   UNL     1      -1.772  10.942  -2.596  1.00  0.00     0.021 C 
BRANCH  33  34
ATOM     34  C   UNL     1      -2.549  11.656  -1.487  1.00  0.00     0.116 C 
BRANCH  34  35
ATOM     35  N   UNL     1      -1.861  12.851  -0.989  1.00  0.00    -0.352 N 
ATOM     36  C   UNL     1      -1.900  13.517   0.221  1.00  0.00     0.251 C 
ATOM     37  H   UNL     1      -1.251  13.259  -1.645  1.00  0.00     0.163 HD
ATOM     38  O   UNL     1      -1.561  14.700   0.249  1.00  0.00    -0.269 OA
BRANCH  36  39
ATOM     39  C   UNL     1      -2.302  12.849   1.481  1.00  0.00     0.039 A 
ATOM     40  C   UNL     1      -2.633  13.581   2.633  1.00  0.00     0.014 A 
ATOM     41  C   UNL     1      -2.255  11.468   1.561  1.00  0.00     0.014 A 
ATOM     42  C   UNL     1      -2.912  12.907   3.829  1.00  0.00     0.010 A 
ATOM     43  C   UNL     1      -2.681  10.795   2.672  1.00  0.00     0.010 A 
ATOM     44  C   UNL     1      -2.919  11.510   3.834  1.00  0.00    -0.014 A 
BRANCH  44  45
ATOM     45  C   UNL     1      -3.192  10.697   5.007  1.00  0.00     0.031 A 
ATOM     46  C   UNL     1      -4.604  10.626   5.425  1.00  0.00     0.074 A 
ATOM     47  C   UNL     1      -2.306   9.770   5.434  1.00  0.00     0.049 A 
ATOM     48  N   UNL     1      -5.102  11.055   6.536  1.00  0.00    -0.248 NA
ATOM     49  C   UNL     1      -5.594  10.096   4.476  1.00  0.00     0.031 C 
ATOM     50  C   UNL     1      -0.975   9.497   4.882  1.00  0.00     0.029 A 
ATOM     51  N   UNL     1      -2.483   8.752   6.326  1.00  0.00    -0.354 N 
ATOM     52  C   UNL     1      -6.419  10.621   6.526  1.00  0.00     0.074 A 
ATOM     53  C   UNL     1      -6.724  10.251   5.166  1.00  0.00     0.031 C 
ATOM     54  C   UNL     1      -0.584   8.267   5.272  1.00  0.00     0.029 A 
ATOM     55  C   UNL     1      -1.548   7.728   6.199  1.00  0.00     0.049 A 
ATOM     56  H   UNL     1      -3.204   8.743   6.996  1.00  0.00     0.167 HD
ATOM     57  C   UNL     1      -7.080  10.313   7.673  1.00  0.00     0.034 A 
ATOM     58  C   UNL     1      -1.576   6.512   6.792  1.00  0.00     0.034 A 
ATOM     59  C   UNL     1      -6.361  10.701   8.856  1.00  0.00     0.049 A 
ATOM     60  C   UNL     1      -2.425   6.651   7.991  1.00  0.00     0.074 A 
ATOM     61  C   UNL     1      -5.812  11.878   9.326  1.00  0.00     0.029 A 
ATOM     62  N   UNL     1      -5.766   9.693   9.576  1.00  0.00    -0.354 N 
ATOM     63  N   UNL     1      -2.105   7.395   9.013  1.00  0.00    -0.248 NA
ATOM     64  C   UNL     1      -3.825   6.280   7.889  1.00  0.00     0.031 C 
ATOM     65  C   UNL     1      -4.596  11.492   9.961  1.00  0.00     0.029 A 
ATOM     66  C   UNL     1      -4.493  10.102   9.877  1.00  0.00     0.049 A 
ATOM     67  H   UNL     1      -6.178   8.836   9.829  1.00  0.00     0.167 HD
ATOM     68  C   UNL     1      -3.309   7.966   9.398  1.00  0.00     0.074 A 
ATOM     69  C   UNL     1      -4.339   7.145   8.767  1.00  0.00     0.031 C 
ATOM     70  C   UNL     1      -3.349   9.219   9.936  1.00  0.00     0.034 A 
BRANCH  57  71
ATOM     71  C   UNL     1      -8.222   9.345   7.722  1.00  0.00     0.023 A 
ATOM     72  C   UNL     1      -9.149   9.456   8.773  1.00  0.00     0.012 A 
ATOM     73  C   UNL     1      -8.316   8.214   6.882  1.00  0.00     0.148 A 
ATOM     74  C   UNL     1     -10.153   8.500   8.954  1.00  0.00     0.002 A 
ATOM     75  C   UNL     1      -9.376   7.328   6.999  1.00  0.00     0.091 A 
ATOM     76  F   UNL     1      -7.311   7.926   6.043  1.00  0.00    -0.205 F 
ATOM     77  C   UNL     1     -10.287   7.453   8.047  1.00  0.00     0.022 A 
BRANCH  75  78
ATOM     78  S   UNL     1      -9.639   6.045   5.772  1.00  0.00     0.127 S 
ATOM     79  O   UNL     1      -9.059   4.881   6.433  1.00  0.00    -0.237 OA
ATOM     80  O   UNL     1     -11.098   6.031   5.653  1.00  0.00    -0.237 OA
ATOM     81  O   UNL     1      -8.954   6.530   4.579  1.00  0.00    -0.744 OA
ENDBRANCH  75  78
ENDBRANCH  57  71
BRANCH  58  82
ATOM     82  C   UNL     1      -1.127   5.181   6.320  1.00  0.00     0.023 A 
ATOM     83  C   UNL     1      -0.761   4.200   7.263  1.00  0.00     0.012 A 
ATOM     84  C   UNL     1      -1.386   4.770   4.992  1.00  0.00     0.148 A 
ATOM     85  C   UNL     1      -0.697   2.847   6.912  1.00  0.00     0.002 A 
ATOM     86  C   UNL     1      -1.343   3.418   4.653  1.00  0.00     0.091 A 
ATOM     87  F   UNL     1      -1.758   5.694   4.095  1.00  0.00    -0.205 F 
ATOM     88  C   UNL     1      -1.004   2.455   5.613  1.00  0.00     0.022 A 
BRANCH  86  89
ATOM     89  S   UNL     1      -1.820   2.796   3.037  1.00  0.00     0.127 S 
ATOM     90  O   UNL     1      -0.595   2.131   2.592  1.00  0.00    -0.237 OA
ATOM     91  O   UNL     1      -2.909   1.878   3.359  1.00  0.00    -0.237 OA
ATOM     92  O   UNL     1      -2.204   3.956   2.245  1.00  0.00    -0.744 OA
ENDBRANCH  86  89
ENDBRANCH  58  82
BRANCH  70  93
ATOM     93  C   UNL     1      -2.048   9.860  10.352  1.00  0.00     0.023 A 
ATOM     94  C   UNL     1      -1.097  10.294   9.404  1.00  0.00     0.012 A 
ATOM     95  C   UNL     1      -1.891  10.232  11.696  1.00  0.00     0.148 A 
ATOM     96  C   UNL     1      -0.013  11.088   9.790  1.00  0.00     0.002 A 
ATOM     97  C   UNL     1      -0.834  11.054  12.069  1.00  0.00     0.091 A 
ATOM     98  F   UNL     1      -2.814   9.819  12.577  1.00  0.00    -0.205 F 
ATOM     99  C   UNL     1       0.110  11.481  11.120  1.00  0.00     0.022 A 
BRANCH  97 100
ATOM    100  S   UNL     1      -0.674  11.701  13.736  1.00  0.00     0.127 S 
ATOM    101  O   UNL     1       0.579  11.094  14.181  1.00  0.00    -0.237 OA
ATOM    102  O   UNL     1      -0.605  13.144  13.501  1.00  0.00    -0.237 OA
ATOM    103  O   UNL     1      -1.862  11.264  14.459  1.00  0.00    -0.744 OA
ENDBRANCH  97 100
ENDBRANCH  70  93
ENDBRANCH  44  45
ENDBRANCH  36  39
ENDBRANCH  34  35
ENDBRANCH  33  34
ENDBRANCH  32  33
ENDBRANCH   1  32
TORSDOF 21
