REMARK SMILES Cc1ccc2cc(C[N@H+]3CC[NH2+][C@H](C(=O)NCCCCCCNC(=O)c4ccc(-c5c6nc(c(-c7cccc(S(=O)(=O)[O-])c7F)c7ccc([nH]7)c(-c7cccc(S(=O)(=O)[O-])c7F)c7nc(c(-c8cccc(S(=O)(=O)[O-])c8F)c8ccc5[nH]8)C=C7)C=C6)cc4)C3)c(N3CCOCC3)nc2c1
REMARK SMILES IDX 19 1 18 2 17 3 16 4 14 5 15 6 13 8 9 9 10 10 89 11 11 13
REMARK SMILES IDX 12 14 8 17 7 18 1 19 2 20 3 21 99 22 4 23 98 24 5 25 97 26
REMARK SMILES IDX 6 27 90 28 91 29 92 30 96 31 93 32 95 33 94 34 20 35 21 36
REMARK SMILES IDX 22 37 23 38 24 39 25 41 26 42 27 43 88 44 28 45 87 46 29 47
REMARK SMILES IDX 30 48 31 49 81 50 32 51 86 52 80 53 82 54 33 55 85 56 79 57
REMARK SMILES IDX 78 58 34 60 66 61 46 62 65 63 47 64 50 65 64 66 83 67 48 68
REMARK SMILES IDX 49 69 63 71 84 72 51 73 35 74 36 75 44 76 37 77 39 78 45 79
REMARK SMILES IDX 38 80 40 81 41 82 42 83 43 84 67 85 68 86 76 87 69 88 71 89
REMARK SMILES IDX 77 90 70 91 72 92 73 93 74 94 75 95 52 96 53 97 61 98 54 99
REMARK SMILES IDX 56 100 62 101 55 102 57 103 58 104 59 105 60 106
REMARK H PARENT 16 7 9 12 12 15 12 16 23 40 82 59 50 70
REMARK Flexibility Score: inf
ROOT
ATOM      1  C   UNL     1      -1.294  -6.467  -7.477  1.00  0.00     0.002 C 
ENDROOT
BRANCH   1   2
ATOM      2  C   UNL     1      -1.507  -4.955  -7.612  1.00  0.00     0.021 C 
BRANCH   2   3
ATOM      3  C   UNL     1      -1.450  -4.233  -6.262  1.00  0.00     0.116 C 
BRANCH   3   4
ATOM      4  N   UNL     1      -0.080  -4.223  -5.787  1.00  0.00    -0.351 N 
ATOM      5  C   UNL     1       0.938  -3.367  -6.122  1.00  0.00     0.284 C 
ATOM      6  O   UNL     1       2.089  -3.802  -6.028  1.00  0.00    -0.268 OA
ATOM      7  H   UNL     1       0.150  -4.926  -5.136  1.00  0.00     0.163 HD
BRANCH   5   8
ATOM      8  C   UNL     1       0.614  -1.897  -6.459  1.00  0.00     0.328 C 
ATOM      9  N   UNL     1      -0.582  -0.274  -7.991  1.00  0.00    -0.321 N 
ATOM     10  C   UNL     1       0.569   0.628  -7.844  1.00  0.00     0.324 C 
ATOM     11  C   UNL     1      -0.156  -1.665  -7.775  1.00  0.00     0.339 C 
ATOM     12  H   UNL     1      -0.894  -0.200  -8.959  1.00  0.00     0.348 HD
ATOM     13  C   UNL     1       1.507   0.348  -6.639  1.00  0.00     0.323 C 
ATOM     14  N   UNL     1       1.852  -1.068  -6.427  1.00  0.00    -0.327 N 
ATOM     15  H   UNL     1       2.307  -1.173  -5.520  1.00  0.00     0.347 HD
ATOM     16  H   UNL     1       2.484  -1.376  -7.166  1.00  0.00     0.347 HD
BRANCH   9  17
ATOM     17  C   UNL     1      -1.844   0.140  -7.325  1.00  0.00     0.303 C 
BRANCH  17  18
ATOM     18  C   UNL     1      -1.793   0.559  -5.865  1.00  0.00     0.049 A 
ATOM     19  C   UNL     1       1.007   0.524  -0.074  1.00  0.00     0.044 C 
ATOM     20  C   UNL     1       0.124   0.294  -1.265  1.00  0.00    -0.049 A 
ATOM     21  C   UNL     1      -0.352  -0.986  -1.548  1.00  0.00     0.004 A 
ATOM     22  C   UNL     1      -0.152   1.341  -2.164  1.00  0.00     0.032 A 
ATOM     23  C   UNL     1      -1.090  -1.208  -2.706  1.00  0.00     0.010 A 
ATOM     24  C   UNL     1      -0.850   1.139  -3.353  1.00  0.00     0.073 A 
ATOM     25  C   UNL     1      -1.312  -0.161  -3.615  1.00  0.00     0.001 A 
ATOM     26  N   UNL     1      -1.009   2.145  -4.239  1.00  0.00    -0.230 NA
ATOM     27  C   UNL     1      -1.874  -0.412  -4.865  1.00  0.00     0.023 A 
ATOM     28  C   UNL     1      -1.491   1.870  -5.475  1.00  0.00     0.138 A 
BRANCH  28  29
ATOM     29  N   UNL     1      -1.618   2.898  -6.388  1.00  0.00    -0.352 N 
ATOM     30  C   UNL     1      -2.976   3.278  -6.803  1.00  0.00     0.146 C 
ATOM     31  C   UNL     1      -0.682   4.019  -6.354  1.00  0.00     0.146 C 
ATOM     32  C   UNL     1      -2.890   3.947  -8.185  1.00  0.00     0.181 C 
ATOM     33  C   UNL     1      -0.672   4.660  -7.757  1.00  0.00     0.181 C 
ATOM     34  O   UNL     1      -1.990   5.072  -8.168  1.00  0.00    -0.378 OA
ENDBRANCH  28  29
ENDBRANCH  17  18
ENDBRANCH   9  17
ENDBRANCH   5   8
ENDBRANCH   3   4
ENDBRANCH   2   3
ENDBRANCH   1   2
BRANCH   1  35
ATOM     35  C   UNL     1      -2.453  -7.204  -6.799  1.00  0.00     0.002 C 
BRANCH  35  36
ATOM     36  C   UNL     1      -3.793  -7.083  -7.525  1.00  0.00     0.021 C 
BRANCH  36  37
ATOM     37  C   UNL     1      -3.773  -7.584  -8.964  1.00  0.00     0.116 C 
BRANCH  37  38
ATOM     38  N   UNL     1      -3.521  -9.017  -9.044  1.00  0.00    -0.352 N 
ATOM     39  C   UNL     1      -4.238  -9.969  -9.730  1.00  0.00     0.251 C 
ATOM     40  H   UNL     1      -2.739  -9.344  -8.543  1.00  0.00     0.163 HD
ATOM     41  O   UNL     1      -4.010 -11.163  -9.565  1.00  0.00    -0.269 OA
BRANCH  39  42
ATOM     42  C   UNL     1      -5.308  -9.520 -10.642  1.00  0.00     0.039 A 
ATOM     43  C   UNL     1      -5.043  -8.519 -11.580  1.00  0.00     0.014 A 
ATOM     44  C   UNL     1      -6.598 -10.034 -10.494  1.00  0.00     0.014 A 
ATOM     45  C   UNL     1      -6.099  -7.913 -12.248  1.00  0.00     0.010 A 
ATOM     46  C   UNL     1      -7.646  -9.475 -11.229  1.00  0.00     0.010 A 
ATOM     47  C   UNL     1      -7.414  -8.375 -12.070  1.00  0.00    -0.014 A 
BRANCH  47  48
ATOM     48  C   UNL     1      -8.529  -7.681 -12.765  1.00  0.00     0.031 A 
ATOM     49  C   UNL     1      -9.598  -6.961 -11.985  1.00  0.00     0.074 A 
ATOM     50  C   UNL     1      -8.552  -7.664 -14.112  1.00  0.00     0.049 A 
ATOM     51  N   UNL     1     -10.631  -6.295 -12.433  1.00  0.00    -0.248 NA
ATOM     52  C   UNL     1      -9.499  -6.987 -10.515  1.00  0.00     0.031 C 
ATOM     53  C   UNL     1      -7.578  -8.332 -14.978  1.00  0.00     0.029 A 
ATOM     54  N   UNL     1      -9.412  -7.053 -14.987  1.00  0.00    -0.354 N 
ATOM     55  C   UNL     1     -11.327  -5.864 -11.310  1.00  0.00     0.074 A 
ATOM     56  C   UNL     1     -10.600  -6.340 -10.154  1.00  0.00     0.031 C 
ATOM     57  C   UNL     1      -7.871  -8.061 -16.258  1.00  0.00     0.029 A 
ATOM     58  C   UNL     1      -9.081  -7.247 -16.307  1.00  0.00     0.049 A 
ATOM     59  H   UNL     1     -10.192  -6.526 -14.698  1.00  0.00     0.167 HD
ATOM     60  C   UNL     1     -12.457  -5.123 -11.249  1.00  0.00     0.034 A 
ATOM     61  C   UNL     1      -9.685  -6.827 -17.435  1.00  0.00     0.034 A 
ATOM     62  C   UNL     1     -13.147  -4.598 -12.396  1.00  0.00     0.049 A 
ATOM     63  C   UNL     1     -10.930  -5.997 -17.336  1.00  0.00     0.074 A 
ATOM     64  C   UNL     1     -14.275  -3.796 -12.424  1.00  0.00     0.029 A 
ATOM     65  N   UNL     1     -12.774  -4.813 -13.712  1.00  0.00    -0.354 N 
ATOM     66  N   UNL     1     -11.531  -5.546 -16.262  1.00  0.00    -0.248 NA
ATOM     67  C   UNL     1     -11.575  -5.609 -18.598  1.00  0.00     0.031 C 
ATOM     68  C   UNL     1     -14.586  -3.527 -13.759  1.00  0.00     0.029 A 
ATOM     69  C   UNL     1     -13.649  -4.159 -14.561  1.00  0.00     0.049 A 
ATOM     70  H   UNL     1     -12.002  -5.351 -14.000  1.00  0.00     0.167 HD
ATOM     71  C   UNL     1     -12.620  -4.814 -16.718  1.00  0.00     0.074 A 
ATOM     72  C   UNL     1     -12.583  -4.862 -18.165  1.00  0.00     0.031 C 
ATOM     73  C   UNL     1     -13.574  -4.178 -15.998  1.00  0.00     0.034 A 
BRANCH  60  74
ATOM     74  C   UNL     1     -13.007  -4.774  -9.893  1.00  0.00     0.023 A 
ATOM     75  C   UNL     1     -12.439  -3.702  -9.178  1.00  0.00     0.012 A 
ATOM     76  C   UNL     1     -14.149  -5.424  -9.385  1.00  0.00     0.148 A 
ATOM     77  C   UNL     1     -12.997  -3.283  -7.971  1.00  0.00     0.002 A 
ATOM     78  C   UNL     1     -14.715  -4.982  -8.194  1.00  0.00     0.091 A 
ATOM     79  F   UNL     1     -14.662  -6.448 -10.081  1.00  0.00    -0.205 F 
ATOM     80  C   UNL     1     -14.139  -3.915  -7.486  1.00  0.00     0.022 A 
BRANCH  78  81
ATOM     81  S   UNL     1     -16.217  -5.689  -7.507  1.00  0.00     0.127 S 
ATOM     82  O   UNL     1     -15.721  -6.278  -6.263  1.00  0.00    -0.237 OA
ATOM     83  O   UNL     1     -17.058  -4.507  -7.330  1.00  0.00    -0.237 OA
ATOM     84  O   UNL     1     -16.701  -6.646  -8.493  1.00  0.00    -0.744 OA
ENDBRANCH  78  81
ENDBRANCH  60  74
BRANCH  61  85
ATOM     85  C   UNL     1      -9.077  -7.159 -18.750  1.00  0.00     0.023 A 
ATOM     86  C   UNL     1      -8.403  -6.154 -19.469  1.00  0.00     0.012 A 
ATOM     87  C   UNL     1      -9.089  -8.477 -19.246  1.00  0.00     0.148 A 
ATOM     88  C   UNL     1      -7.753  -6.456 -20.665  1.00  0.00     0.002 A 
ATOM     89  C   UNL     1      -8.401  -8.779 -20.414  1.00  0.00     0.091 A 
ATOM     90  F   UNL     1      -9.745  -9.411 -18.544  1.00  0.00    -0.205 F 
ATOM     91  C   UNL     1      -7.741  -7.769 -21.131  1.00  0.00     0.022 A 
BRANCH  89  92
ATOM     92  S   UNL     1      -8.230 -10.459 -21.027  1.00  0.00     0.127 S 
ATOM     93  O   UNL     1      -8.987 -10.399 -22.275  1.00  0.00    -0.237 OA
ATOM     94  O   UNL     1      -6.780 -10.571 -21.189  1.00  0.00    -0.237 OA
ATOM     95  O   UNL     1      -8.790 -11.317 -19.992  1.00  0.00    -0.744 OA
ENDBRANCH  89  92
ENDBRANCH  61  85
BRANCH  73  96
ATOM     96  C   UNL     1     -14.667  -3.472 -16.749  1.00  0.00     0.023 A 
ATOM     97  C   UNL     1     -15.739  -4.223 -17.267  1.00  0.00     0.012 A 
ATOM     98  C   UNL     1     -14.692  -2.067 -16.836  1.00  0.00     0.148 A 
ATOM     99  C   UNL     1     -16.822  -3.584 -17.869  1.00  0.00     0.002 A 
ATOM    100  C   UNL     1     -15.789  -1.435 -17.408  1.00  0.00     0.091 A 
ATOM    101  F   UNL     1     -13.652  -1.379 -16.343  1.00  0.00    -0.205 F 
ATOM    102  C   UNL     1     -16.852  -2.192 -17.929  1.00  0.00     0.022 A 
BRANCH 100 103
ATOM    103  S   UNL     1     -15.955   0.352 -17.465  1.00  0.00     0.127 S 
ATOM    104  O   UNL     1     -15.846   0.615 -18.899  1.00  0.00    -0.237 OA
ATOM    105  O   UNL     1     -17.292   0.556 -16.907  1.00  0.00    -0.237 OA
ATOM    106  O   UNL     1     -14.870   0.885 -16.652  1.00  0.00    -0.744 OA
ENDBRANCH 100 103
ENDBRANCH  73  96
ENDBRANCH  47  48
ENDBRANCH  39  42
ENDBRANCH  37  38
ENDBRANCH  36  37
ENDBRANCH  35  36
ENDBRANCH   1  35
TORSDOF 19
