REMARK SMILES N#C/C(=C/c1cccc(OCC(=O)NCCCCCCNC(=O)c2ccc(-c3c4nc(c(-c5cccc(S(=O)(=O)[O-])c5F)c5ccc([nH]5)c(-c5cccc(S(=O)(=O)[O-])c5F)c5nc(c(-c6cccc(S(=O)(=O)[O-])c6F)c6ccc3[nH]6)C=C5)C=C4)cc2)c1)c1nc2ccccc2[nH]1
REMARK SMILES IDX 17 1 16 2 15 3 14 4 12 5 13 6 11 8 10 9 9 10 5 11 6 12 87 13
REMARK SMILES IDX 7 14 8 15 4 16 3 17 2 18 1 19 88 20 89 21 96 22 90 23 95 24
REMARK SMILES IDX 91 26 94 27 92 28 93 29 18 30 19 31 20 32 21 33 22 34 23 36
REMARK SMILES IDX 24 37 25 38 86 39 26 40 85 41 27 42 28 43 29 44 79 45 30 46
REMARK SMILES IDX 84 47 78 48 80 49 31 50 83 51 77 52 76 53 32 55 64 56 44 57
REMARK SMILES IDX 63 58 45 59 48 60 62 61 81 62 46 63 47 64 61 66 82 67 49 68
REMARK SMILES IDX 33 69 34 70 42 71 35 72 37 73 43 74 36 75 38 76 39 77 40 78
REMARK SMILES IDX 41 79 65 80 66 81 74 82 67 83 69 84 75 85 68 86 70 87 71 88
REMARK SMILES IDX 72 89 73 90 50 91 51 92 59 93 52 94 54 95 60 96 53 97 55 98
REMARK SMILES IDX 56 99 57 100 58 101
REMARK H PARENT 14 7 96 25 21 35 80 54 48 65
REMARK Flexibility Score: inf
ROOT
ATOM      1  C   UNL     1       9.885   0.460   3.483  1.00  0.00     0.002 C 
ENDROOT
BRANCH   1   2
ATOM      2  C   UNL     1      10.324  -0.364   2.269  1.00  0.00     0.021 C 
BRANCH   2   3
ATOM      3  C   UNL     1       9.977  -1.853   2.302  1.00  0.00     0.116 C 
BRANCH   3   4
ATOM      4  N   UNL     1       8.552  -2.129   2.367  1.00  0.00    -0.353 N 
ATOM      5  C   UNL     1       7.779  -2.767   1.437  1.00  0.00     0.257 C 
ATOM      6  O   UNL     1       6.633  -3.125   1.724  1.00  0.00    -0.271 OA
ATOM      7  H   UNL     1       8.087  -1.821   3.179  1.00  0.00     0.163 HD
BRANCH   5   8
ATOM      8  C   UNL     1       8.358  -3.065   0.050  1.00  0.00     0.329 C 
BRANCH   8   9
ATOM      9  O   UNL     1       8.874  -1.958  -0.672  1.00  0.00    -0.484 OA
BRANCH   9  10
ATOM     10  C   UNL     1       8.003  -0.982  -1.072  1.00  0.00     0.120 A 
ATOM     11  C   UNL     1       5.837   0.086  -1.358  1.00  0.00    -0.021 A 
ATOM     12  C   UNL     1       6.463   1.197  -1.932  1.00  0.00     0.008 A 
ATOM     13  C   UNL     1       6.612  -1.012  -0.954  1.00  0.00     0.054 A 
ATOM     14  C   UNL     1       7.850   1.220  -2.076  1.00  0.00     0.004 A 
ATOM     15  C   UNL     1       8.614   0.136  -1.644  1.00  0.00     0.046 A 
BRANCH  11  16
ATOM     16  C   UNL     1       4.373   0.079  -1.208  1.00  0.00     0.031 C 
ATOM     17  C   UNL     1       3.697  -0.024  -0.048  1.00  0.00     0.095 C 
BRANCH  17  18
ATOM     18  C   UNL     1       2.177  -0.024  -0.048  1.00  0.00     0.103 C 
ATOM     19  N   UNL     1       0.916  -0.024  -0.048  1.00  0.00    -0.192 NA
ENDBRANCH  17  18
BRANCH  17  20
ATOM     20  C   UNL     1       4.338  -0.066   1.220  1.00  0.00     0.149 A 
ATOM     21  N   UNL     1       5.120   0.810   1.822  1.00  0.00    -0.228 NA
ATOM     22  N   UNL     1       4.127  -1.160   2.031  1.00  0.00    -0.337 N 
ATOM     23  C   UNL     1       5.441   0.253   3.036  1.00  0.00     0.089 A 
ATOM     24  C   UNL     1       4.834  -0.984   3.192  1.00  0.00     0.066 A 
ATOM     25  H   UNL     1       3.563  -1.937   1.813  1.00  0.00     0.168 HD
ATOM     26  C   UNL     1       6.260   0.741   4.062  1.00  0.00     0.030 A 
ATOM     27  C   UNL     1       5.014  -1.797   4.314  1.00  0.00     0.028 A 
ATOM     28  C   UNL     1       6.478  -0.062   5.191  1.00  0.00     0.002 A 
ATOM     29  C   UNL     1       5.869  -1.312   5.309  1.00  0.00     0.002 A 
ENDBRANCH  17  20
ENDBRANCH  11  16
ENDBRANCH   9  10
ENDBRANCH   8   9
ENDBRANCH   5   8
ENDBRANCH   3   4
ENDBRANCH   2   3
ENDBRANCH   1   2
BRANCH   1  30
ATOM     30  C   UNL     1      10.185  -0.128   4.864  1.00  0.00     0.002 C 
BRANCH  30  31
ATOM     31  C   UNL     1      11.666  -0.231   5.224  1.00  0.00     0.021 C 
BRANCH  31  32
ATOM     32  C   UNL     1      12.396   1.103   5.331  1.00  0.00     0.116 C 
BRANCH  32  33
ATOM     33  N   UNL     1      11.849   1.994   6.349  1.00  0.00    -0.352 N 
ATOM     34  C   UNL     1      12.528   2.894   7.139  1.00  0.00     0.251 C 
ATOM     35  H   UNL     1      10.875   1.946   6.488  1.00  0.00     0.163 HD
ATOM     36  O   UNL     1      11.950   3.528   8.016  1.00  0.00    -0.269 OA
BRANCH  34  37
ATOM     37  C   UNL     1      13.983   3.048   6.936  1.00  0.00     0.039 A 
ATOM     38  C   UNL     1      14.847   2.856   8.016  1.00  0.00     0.014 A 
ATOM     39  C   UNL     1      14.485   3.276   5.653  1.00  0.00     0.014 A 
ATOM     40  C   UNL     1      16.224   2.808   7.791  1.00  0.00     0.010 A 
ATOM     41  C   UNL     1      15.848   3.147   5.420  1.00  0.00     0.010 A 
ATOM     42  C   UNL     1      16.731   2.908   6.484  1.00  0.00    -0.014 A 
BRANCH  42  43
ATOM     43  C   UNL     1      18.180   2.750   6.197  1.00  0.00     0.031 A 
ATOM     44  C   UNL     1      18.949   3.886   5.581  1.00  0.00     0.074 A 
ATOM     45  C   UNL     1      18.770   1.552   6.381  1.00  0.00     0.049 A 
ATOM     46  N   UNL     1      20.192   3.916   5.177  1.00  0.00    -0.248 NA
ATOM     47  C   UNL     1      18.214   5.141   5.351  1.00  0.00     0.031 C 
ATOM     48  C   UNL     1      18.104   0.344   6.878  1.00  0.00     0.029 A 
ATOM     49  N   UNL     1      20.059   1.143   6.144  1.00  0.00    -0.354 N 
ATOM     50  C   UNL     1      20.373   5.169   4.605  1.00  0.00     0.074 A 
ATOM     51  C   UNL     1      19.103   5.857   4.679  1.00  0.00     0.031 C 
ATOM     52  C   UNL     1      18.990  -0.664   6.915  1.00  0.00     0.029 A 
ATOM     53  C   UNL     1      20.279  -0.186   6.426  1.00  0.00     0.049 A 
ATOM     54  H   UNL     1      20.760   1.744   5.803  1.00  0.00     0.167 HD
ATOM     55  C   UNL     1      21.503   5.714   4.097  1.00  0.00     0.034 A 
ATOM     56  C   UNL     1      21.395  -0.932   6.308  1.00  0.00     0.034 A 
ATOM     57  C   UNL     1      22.779   5.053   4.093  1.00  0.00     0.049 A 
ATOM     58  C   UNL     1      22.660  -0.276   5.821  1.00  0.00     0.074 A 
ATOM     59  C   UNL     1      24.008   5.556   3.707  1.00  0.00     0.029 A 
ATOM     60  N   UNL     1      22.991   3.745   4.501  1.00  0.00    -0.354 N 
ATOM     61  N   UNL     1      22.853   0.966   5.448  1.00  0.00    -0.248 NA
ATOM     62  C   UNL     1      23.870  -1.110   5.777  1.00  0.00     0.031 C 
ATOM     63  C   UNL     1      24.963   4.548   3.874  1.00  0.00     0.029 A 
ATOM     64  C   UNL     1      24.330   3.422   4.377  1.00  0.00     0.049 A 
ATOM     65  H   UNL     1      22.291   3.137   4.831  1.00  0.00     0.167 HD
ATOM     66  C   UNL     1      24.209   1.072   5.160  1.00  0.00     0.074 A 
ATOM     67  C   UNL     1      24.794  -0.227   5.422  1.00  0.00     0.031 C 
ATOM     68  C   UNL     1      24.904   2.142   4.702  1.00  0.00     0.034 A 
BRANCH  55  69
ATOM     69  C   UNL     1      21.423   7.123   3.571  1.00  0.00     0.023 A 
ATOM     70  C   UNL     1      21.273   8.192   4.479  1.00  0.00     0.012 A 
ATOM     71  C   UNL     1      21.537   7.396   2.195  1.00  0.00     0.148 A 
ATOM     72  C   UNL     1      21.199   9.507   4.023  1.00  0.00     0.002 A 
ATOM     73  C   UNL     1      21.507   8.714   1.751  1.00  0.00     0.091 A 
ATOM     74  F   UNL     1      21.655   6.366   1.345  1.00  0.00    -0.205 F 
ATOM     75  C   UNL     1      21.326   9.768   2.662  1.00  0.00     0.022 A 
BRANCH  73  76
ATOM     76  S   UNL     1      21.738   9.159   0.026  1.00  0.00     0.127 S 
ATOM     77  O   UNL     1      20.383   9.547  -0.362  1.00  0.00    -0.237 OA
ATOM     78  O   UNL     1      22.687  10.269   0.118  1.00  0.00    -0.237 OA
ATOM     79  O   UNL     1      22.262   7.968  -0.627  1.00  0.00    -0.744 OA
ENDBRANCH  73  76
ENDBRANCH  55  69
BRANCH  56  80
ATOM     80  C   UNL     1      21.391  -2.357   6.747  1.00  0.00     0.023 A 
ATOM     81  C   UNL     1      22.082  -2.713   7.922  1.00  0.00     0.012 A 
ATOM     82  C   UNL     1      20.690  -3.350   6.036  1.00  0.00     0.148 A 
ATOM     83  C   UNL     1      22.101  -4.036   8.365  1.00  0.00     0.002 A 
ATOM     84  C   UNL     1      20.670  -4.657   6.511  1.00  0.00     0.091 A 
ATOM     85  F   UNL     1      20.049  -2.996   4.913  1.00  0.00    -0.205 F 
ATOM     86  C   UNL     1      21.387  -5.006   7.666  1.00  0.00     0.022 A 
BRANCH  84  87
ATOM     87  S   UNL     1      19.671  -5.941   5.747  1.00  0.00     0.127 S 
ATOM     88  O   UNL     1      20.683  -6.743   5.066  1.00  0.00    -0.237 OA
ATOM     89  O   UNL     1      19.055  -6.582   6.910  1.00  0.00    -0.237 OA
ATOM     90  O   UNL     1      18.728  -5.239   4.886  1.00  0.00    -0.744 OA
ENDBRANCH  84  87
ENDBRANCH  56  80
BRANCH  68  91
ATOM     91  C   UNL     1      26.384   1.973   4.483  1.00  0.00     0.023 A 
ATOM     92  C   UNL     1      26.844   1.241   3.372  1.00  0.00     0.012 A 
ATOM     93  C   UNL     1      27.314   2.615   5.325  1.00  0.00     0.148 A 
ATOM     94  C   UNL     1      28.209   1.127   3.115  1.00  0.00     0.002 A 
ATOM     95  C   UNL     1      28.671   2.535   5.037  1.00  0.00     0.091 A 
ATOM     96  F   UNL     1      26.856   3.290   6.389  1.00  0.00    -0.205 F 
ATOM     97  C   UNL     1      29.121   1.784   3.939  1.00  0.00     0.022 A 
BRANCH  95  98
ATOM     98  S   UNL     1      29.906   3.430   5.987  1.00  0.00     0.127 S 
ATOM     99  O   UNL     1      30.500   2.359   6.786  1.00  0.00    -0.237 OA
ATOM    100  O   UNL     1      30.778   3.966   4.941  1.00  0.00    -0.237 OA
ATOM    101  O   UNL     1      29.174   4.442   6.737  1.00  0.00    -0.744 OA
ENDBRANCH  95  98
ENDBRANCH  68  91
ENDBRANCH  42  43
ENDBRANCH  34  37
ENDBRANCH  32  33
ENDBRANCH  31  32
ENDBRANCH  30  31
ENDBRANCH   1  30
TORSDOF 21
