REMARK SMILES CCc1cccc(C)c1Nc1ccccc1CC(=O)NCCCCCCNC(=O)c1ccc(-c2c3nc(c(-c4cccc(S(=O)(=O)[O-])c4F)c4ccc([nH]4)c(-c4cccc(S(=O)(=O)[O-])c4F)c4nc(c(-c5cccc(S(=O)(=O)[O-])c5F)c5ccc2[nH]5)C=C4)C=C3)cc1
REMARK SMILES IDX 23 1 22 2 21 3 20 4 18 5 19 6 17 8 16 9 11 10 12 11 13 12
REMARK SMILES IDX 15 13 14 14 10 15 9 17 3 18 4 19 5 20 7 21 6 22 8 23 2 24
REMARK SMILES IDX 1 25 24 26 25 27 26 28 27 29 28 30 29 32 30 33 31 34 92 35
REMARK SMILES IDX 32 36 91 37 33 38 34 39 35 40 85 41 36 42 90 43 84 44 86 45
REMARK SMILES IDX 37 46 89 47 83 48 82 49 38 51 70 52 50 53 69 54 51 55 54 56
REMARK SMILES IDX 68 57 87 58 52 59 53 60 67 62 88 63 55 64 39 65 40 66 48 67
REMARK SMILES IDX 41 68 43 69 49 70 42 71 44 72 45 73 46 74 47 75 71 76 72 77
REMARK SMILES IDX 80 78 73 79 75 80 81 81 74 82 76 83 77 84 78 85 79 86 56 87
REMARK SMILES IDX 57 88 65 89 58 90 60 91 66 92 59 93 61 94 62 95 63 96 64 97
REMARK H PARENT 20 7 10 16 27 31 86 50 54 61
REMARK Flexibility Score: inf
ROOT
ATOM      1  C   UNL     1       2.462   6.920  -3.078  1.00  0.00     0.002 C 
ENDROOT
BRANCH   1   2
ATOM      2  C   UNL     1       3.366   5.897  -3.779  1.00  0.00     0.021 C 
BRANCH   2   3
ATOM      3  C   UNL     1       4.534   5.366  -2.946  1.00  0.00     0.116 C 
BRANCH   3   4
ATOM      4  N   UNL     1       4.166   4.949  -1.607  1.00  0.00    -0.356 N 
ATOM      5  C   UNL     1       4.225   3.736  -0.989  1.00  0.00     0.224 C 
ATOM      6  O   UNL     1       4.152   3.738   0.246  1.00  0.00    -0.275 OA
ATOM      7  H   UNL     1       3.809   5.672  -1.043  1.00  0.00     0.163 HD
BRANCH   5   8
ATOM      8  C   UNL     1       4.537   2.458  -1.736  1.00  0.00     0.137 C 
BRANCH   8   9
ATOM      9  C   UNL     1       3.610   2.041  -2.858  1.00  0.00    -0.015 A 
ATOM     10  C   UNL     1       2.305   1.541  -2.660  1.00  0.00     0.042 A 
ATOM     11  C   UNL     1       1.573   1.092  -3.777  1.00  0.00     0.026 A 
ATOM     12  C   UNL     1       2.089   1.171  -5.069  1.00  0.00     0.002 A 
ATOM     13  C   UNL     1       4.129   2.071  -4.173  1.00  0.00     0.006 A 
ATOM     14  C   UNL     1       3.371   1.660  -5.267  1.00  0.00     0.000 A 
BRANCH  10  15
ATOM     15  N   UNL     1       1.699   1.381  -1.396  1.00  0.00    -0.355 N 
ATOM     16  H   UNL     1       1.672   0.448  -1.082  1.00  0.00     0.167 HD
BRANCH  15  17
ATOM     17  C   UNL     1       1.125   2.307  -0.496  1.00  0.00     0.045 A 
ATOM     18  C   UNL     1       0.925   1.975   0.868  1.00  0.00    -0.024 A 
ATOM     19  C   UNL     1       0.741   3.025   1.804  1.00  0.00     0.006 A 
ATOM     20  C   UNL     1       0.672   4.355   1.417  1.00  0.00     0.001 A 
ATOM     21  C   UNL     1       0.843   3.641  -0.889  1.00  0.00    -0.027 A 
ATOM     22  C   UNL     1       0.673   4.656   0.068  1.00  0.00     0.005 A 
ATOM     23  C   UNL     1       0.595   4.008  -2.327  1.00  0.00     0.046 C 
BRANCH  18  24
ATOM     24  C   UNL     1       0.769   0.597   1.489  1.00  0.00     0.034 C 
ATOM     25  C   UNL     1       0.842  -0.685   0.677  1.00  0.00     0.009 C 
ENDBRANCH  18  24
ENDBRANCH  15  17
ENDBRANCH  10  15
ENDBRANCH   8   9
ENDBRANCH   5   8
ENDBRANCH   3   4
ENDBRANCH   2   3
ENDBRANCH   1   2
BRANCH   1  26
ATOM     26  C   UNL     1       3.117   8.233  -2.632  1.00  0.00     0.002 C 
BRANCH  26  27
ATOM     27  C   UNL     1       3.990   8.944  -3.666  1.00  0.00     0.021 C 
BRANCH  27  28
ATOM     28  C   UNL     1       3.288   9.225  -4.989  1.00  0.00     0.116 C 
BRANCH  28  29
ATOM     29  N   UNL     1       3.214  10.634  -5.343  1.00  0.00    -0.352 N 
ATOM     30  C   UNL     1       2.664  11.214  -6.472  1.00  0.00     0.251 C 
ATOM     31  H   UNL     1       3.608  11.258  -4.691  1.00  0.00     0.163 HD
ATOM     32  O   UNL     1       2.821  12.420  -6.664  1.00  0.00    -0.269 OA
BRANCH  30  33
ATOM     33  C   UNL     1       1.804  10.402  -7.367  1.00  0.00     0.039 A 
ATOM     34  C   UNL     1       0.542  10.906  -7.705  1.00  0.00     0.014 A 
ATOM     35  C   UNL     1       2.137   9.087  -7.682  1.00  0.00     0.014 A 
ATOM     36  C   UNL     1      -0.460  10.032  -8.119  1.00  0.00     0.010 A 
ATOM     37  C   UNL     1       1.131   8.205  -8.009  1.00  0.00     0.010 A 
ATOM     38  C   UNL     1      -0.178   8.670  -8.157  1.00  0.00    -0.014 A 
BRANCH  38  39
ATOM     39  C   UNL     1      -1.177   7.630  -8.327  1.00  0.00     0.031 A 
ATOM     40  C   UNL     1      -1.573   7.203  -9.676  1.00  0.00     0.074 A 
ATOM     41  C   UNL     1      -1.600   6.960  -7.234  1.00  0.00     0.049 A 
ATOM     42  N   UNL     1      -2.639   6.531  -9.941  1.00  0.00    -0.248 NA
ATOM     43  C   UNL     1      -0.789   7.550 -10.851  1.00  0.00     0.031 C 
ATOM     44  C   UNL     1      -2.271   5.669  -7.184  1.00  0.00     0.029 A 
ATOM     45  N   UNL     1      -1.689   7.446  -5.926  1.00  0.00    -0.354 N 
ATOM     46  C   UNL     1      -2.541   6.109 -11.251  1.00  0.00     0.074 A 
ATOM     47  C   UNL     1      -1.435   6.861 -11.796  1.00  0.00     0.031 C 
ATOM     48  C   UNL     1      -2.935   5.577  -6.021  1.00  0.00     0.029 A 
ATOM     49  C   UNL     1      -2.855   6.880  -5.383  1.00  0.00     0.049 A 
ATOM     50  H   UNL     1      -1.063   8.060  -5.477  1.00  0.00     0.167 HD
ATOM     51  C   UNL     1      -3.305   5.055 -11.658  1.00  0.00     0.034 A 
ATOM     52  C   UNL     1      -3.918   7.618  -4.947  1.00  0.00     0.034 A 
ATOM     53  C   UNL     1      -4.236   4.649 -10.590  1.00  0.00     0.049 A 
ATOM     54  C   UNL     1      -5.216   7.266  -5.654  1.00  0.00     0.074 A 
ATOM     55  C   UNL     1      -4.197   3.643  -9.637  1.00  0.00     0.029 A 
ATOM     56  N   UNL     1      -5.265   5.504 -10.214  1.00  0.00    -0.354 N 
ATOM     57  N   UNL     1      -5.300   6.472  -6.686  1.00  0.00    -0.248 NA
ATOM     58  C   UNL     1      -6.517   7.807  -5.274  1.00  0.00     0.031 C 
ATOM     59  C   UNL     1      -5.159   3.949  -8.636  1.00  0.00     0.029 A 
ATOM     60  C   UNL     1      -5.807   5.118  -8.997  1.00  0.00     0.049 A 
ATOM     61  H   UNL     1      -5.568   6.279 -10.741  1.00  0.00     0.167 HD
ATOM     62  C   UNL     1      -6.576   6.485  -7.189  1.00  0.00     0.074 A 
ATOM     63  C   UNL     1      -7.317   7.269  -6.213  1.00  0.00     0.031 C 
ATOM     64  C   UNL     1      -6.883   5.902  -8.392  1.00  0.00     0.034 A 
BRANCH  51  65
ATOM     65  C   UNL     1      -3.021   4.176 -12.872  1.00  0.00     0.023 A 
ATOM     66  C   UNL     1      -3.609   2.889 -12.887  1.00  0.00     0.012 A 
ATOM     67  C   UNL     1      -2.165   4.464 -13.961  1.00  0.00     0.148 A 
ATOM     68  C   UNL     1      -3.288   1.919 -13.845  1.00  0.00     0.002 A 
ATOM     69  C   UNL     1      -1.796   3.481 -14.886  1.00  0.00     0.091 A 
ATOM     70  F   UNL     1      -1.756   5.714 -14.176  1.00  0.00    -0.205 F 
ATOM     71  C   UNL     1      -2.352   2.203 -14.827  1.00  0.00     0.022 A 
BRANCH  69  72
ATOM     72  S   UNL     1      -0.547   3.765 -16.156  1.00  0.00     0.127 S 
ATOM     73  O   UNL     1       0.384   2.658 -15.925  1.00  0.00    -0.237 OA
ATOM     74  O   UNL     1      -1.322   3.658 -17.390  1.00  0.00    -0.237 OA
ATOM     75  O   UNL     1       0.019   5.082 -15.886  1.00  0.00    -0.744 OA
ENDBRANCH  69  72
ENDBRANCH  51  65
BRANCH  52  76
ATOM     76  C   UNL     1      -3.535   8.976  -4.456  1.00  0.00     0.023 A 
ATOM     77  C   UNL     1      -2.647   9.026  -3.353  1.00  0.00     0.012 A 
ATOM     78  C   UNL     1      -3.668  10.114  -5.269  1.00  0.00     0.148 A 
ATOM     79  C   UNL     1      -1.793  10.114  -3.168  1.00  0.00     0.002 A 
ATOM     80  C   UNL     1      -2.819  11.203  -5.070  1.00  0.00     0.091 A 
ATOM     81  F   UNL     1      -4.555  10.089  -6.272  1.00  0.00    -0.205 F 
ATOM     82  C   UNL     1      -1.851  11.185  -4.052  1.00  0.00     0.022 A 
BRANCH  80  83
ATOM     83  S   UNL     1      -2.840  12.611  -6.188  1.00  0.00     0.127 S 
ATOM     84  O   UNL     1      -3.818  13.482  -5.544  1.00  0.00    -0.237 OA
ATOM     85  O   UNL     1      -1.459  13.088  -6.128  1.00  0.00    -0.237 OA
ATOM     86  O   UNL     1      -3.219  12.048  -7.476  1.00  0.00    -0.744 OA
ENDBRANCH  80  83
ENDBRANCH  52  76
BRANCH  64  87
ATOM     87  C   UNL     1      -8.205   6.019  -9.143  1.00  0.00     0.023 A 
ATOM     88  C   UNL     1      -9.158   7.016  -8.865  1.00  0.00     0.012 A 
ATOM     89  C   UNL     1      -8.475   5.193 -10.270  1.00  0.00     0.148 A 
ATOM     90  C   UNL     1     -10.330   7.161  -9.620  1.00  0.00     0.002 A 
ATOM     91  C   UNL     1      -9.580   5.418 -11.088  1.00  0.00     0.091 A 
ATOM     92  F   UNL     1      -7.673   4.155 -10.550  1.00  0.00    -0.205 F 
ATOM     93  C   UNL     1     -10.528   6.381 -10.749  1.00  0.00     0.022 A 
BRANCH  91  94
ATOM     94  S   UNL     1      -9.737   4.597 -12.682  1.00  0.00     0.127 S 
ATOM     95  O   UNL     1     -10.575   3.447 -12.352  1.00  0.00    -0.237 OA
ATOM     96  O   UNL     1     -10.399   5.618 -13.498  1.00  0.00    -0.237 OA
ATOM     97  O   UNL     1      -8.370   4.303 -13.092  1.00  0.00    -0.744 OA
ENDBRANCH  91  94
ENDBRANCH  64  87
ENDBRANCH  38  39
ENDBRANCH  30  33
ENDBRANCH  28  29
ENDBRANCH  27  28
ENDBRANCH  26  27
ENDBRANCH   1  26
TORSDOF 20
