REMARK SMILES O=C(NCCCCCCNC(=O)[C@H](CO)NC(=O)[C@H]1CC(=O)N(CC(F)(F)F)C1)c1ccc(-c2c3nc(c(-c4cccc(S(=O)(=O)[O-])c4F)c4ccc([nH]4)c(-c4cccc(S(=O)(=O)[O-])c4F)c4nc(c(-c5cccc(S(=O)(=O)[O-])c5F)c5ccc2[nH]5)C=C4)C=C3)cc1
REMARK SMILES IDX 7 1 6 2 5 3 4 4 3 5 1 6 2 7 30 9 31 10 92 11 32 12 91 13
REMARK SMILES IDX 33 14 34 15 35 16 85 17 36 18 90 19 84 20 86 21 37 22 89 23
REMARK SMILES IDX 83 24 82 25 38 27 70 28 50 29 69 30 51 31 54 32 68 33 87 34
REMARK SMILES IDX 52 35 53 36 67 38 88 39 55 40 39 41 40 42 48 43 41 44 43 45
REMARK SMILES IDX 49 46 42 47 44 48 45 49 46 50 47 51 71 52 72 53 80 54 73 55
REMARK SMILES IDX 75 56 81 57 74 58 76 59 77 60 78 61 79 62 56 63 57 64 65 65
REMARK SMILES IDX 58 66 60 67 66 68 59 69 61 70 62 71 63 72 64 73 8 74 9 75
REMARK SMILES IDX 10 76 11 77 12 79 13 80 16 81 17 82 18 84 19 85 20 86 29 87
REMARK SMILES IDX 21 88 23 89 22 90 24 91 25 92 26 93 27 94 28 95 14 96 15 97
REMARK H PARENT 3 8 86 26 54 37 10 78 16 83 15 98
REMARK Flexibility Score: inf
ROOT
ATOM      1  C   UNL     1       4.988   0.089   8.499  1.00  0.00     0.002 C 
ENDROOT
BRANCH   1   2
ATOM      2  C   UNL     1       3.917  -0.003   9.592  1.00  0.00     0.002 C 
BRANCH   2   3
ATOM      3  C   UNL     1       4.079   1.009  10.728  1.00  0.00     0.021 C 
BRANCH   3   4
ATOM      4  C   UNL     1       4.110   2.457  10.263  1.00  0.00     0.116 C 
BRANCH   4   5
ATOM      5  N   UNL     1       2.857   2.836   9.636  1.00  0.00    -0.352 N 
ATOM      6  O   UNL     1       0.828   3.809   9.561  1.00  0.00    -0.269 OA
ATOM      7  C   UNL     1       1.959   3.794  10.034  1.00  0.00     0.251 C 
ATOM      8  H   UNL     1       2.621   2.342   8.818  1.00  0.00     0.163 HD
BRANCH   7   9
ATOM      9  C   UNL     1       2.375   4.789  11.043  1.00  0.00     0.039 A 
ATOM     10  C   UNL     1       3.627   5.406  10.946  1.00  0.00     0.014 A 
ATOM     11  C   UNL     1       1.507   5.107  12.088  1.00  0.00     0.014 A 
ATOM     12  C   UNL     1       4.060   6.251  11.958  1.00  0.00     0.010 A 
ATOM     13  C   UNL     1       1.911   6.026  13.057  1.00  0.00     0.010 A 
ATOM     14  C   UNL     1       3.196   6.590  13.009  1.00  0.00    -0.014 A 
BRANCH  14  15
ATOM     15  C   UNL     1       3.611   7.612  14.000  1.00  0.00     0.031 A 
ATOM     16  C   UNL     1       3.741   7.273  15.455  1.00  0.00     0.074 A 
ATOM     17  C   UNL     1       3.812   8.873  13.572  1.00  0.00     0.049 A 
ATOM     18  N   UNL     1       4.020   8.062  16.459  1.00  0.00    -0.248 NA
ATOM     19  C   UNL     1       3.517   5.870  15.835  1.00  0.00     0.031 C 
ATOM     20  C   UNL     1       3.669   9.322  12.185  1.00  0.00     0.029 A 
ATOM     21  N   UNL     1       4.144  10.012  14.259  1.00  0.00    -0.354 N 
ATOM     22  C   UNL     1       3.958   7.268  17.596  1.00  0.00     0.074 A 
ATOM     23  C   UNL     1       3.612   5.933  17.157  1.00  0.00     0.031 C 
ATOM     24  C   UNL     1       3.899  10.640  12.123  1.00  0.00     0.029 A 
ATOM     25  C   UNL     1       4.141  11.139  13.471  1.00  0.00     0.049 A 
ATOM     26  H   UNL     1       4.363  10.023  15.219  1.00  0.00     0.167 HD
ATOM     27  C   UNL     1       4.173   7.622  18.886  1.00  0.00     0.034 A 
ATOM     28  C   UNL     1       4.266  12.439  13.798  1.00  0.00     0.034 A 
ATOM     29  C   UNL     1       4.526   8.953  19.305  1.00  0.00     0.049 A 
ATOM     30  C   UNL     1       4.504  12.808  15.232  1.00  0.00     0.074 A 
ATOM     31  C   UNL     1       4.845   9.398  20.576  1.00  0.00     0.029 A 
ATOM     32  N   UNL     1       4.577  10.060  18.470  1.00  0.00    -0.354 N 
ATOM     33  N   UNL     1       4.579  12.023  16.279  1.00  0.00    -0.248 NA
ATOM     34  C   UNL     1       4.704  14.232  15.529  1.00  0.00     0.031 C 
ATOM     35  C   UNL     1       5.041  10.782  20.517  1.00  0.00     0.029 A 
ATOM     36  C   UNL     1       4.896  11.192  19.201  1.00  0.00     0.049 A 
ATOM     37  H   UNL     1       4.410  10.044  17.500  1.00  0.00     0.167 HD
ATOM     38  C   UNL     1       4.865  12.851  17.356  1.00  0.00     0.074 A 
ATOM     39  C   UNL     1       4.961  14.199  16.830  1.00  0.00     0.031 C 
ATOM     40  C   UNL     1       5.029  12.523  18.660  1.00  0.00     0.034 A 
BRANCH  27  41
ATOM     41  C   UNL     1       4.031   6.552  19.939  1.00  0.00     0.023 A 
ATOM     42  C   UNL     1       4.973   5.505  20.014  1.00  0.00     0.012 A 
ATOM     43  C   UNL     1       2.982   6.603  20.879  1.00  0.00     0.148 A 
ATOM     44  C   UNL     1       4.844   4.500  20.973  1.00  0.00     0.002 A 
ATOM     45  C   UNL     1       2.889   5.625  21.862  1.00  0.00     0.091 A 
ATOM     46  F   UNL     1       2.085   7.594  20.784  1.00  0.00    -0.205 F 
ATOM     47  C   UNL     1       3.809   4.565  21.901  1.00  0.00     0.022 A 
BRANCH  45  48
ATOM     48  S   UNL     1       1.639   5.669  23.151  1.00  0.00     0.127 S 
ATOM     49  O   UNL     1       0.735   4.604  22.721  1.00  0.00    -0.237 OA
ATOM     50  O   UNL     1       2.420   5.359  24.349  1.00  0.00    -0.237 OA
ATOM     51  O   UNL     1       1.083   7.015  23.123  1.00  0.00    -0.744 OA
ENDBRANCH  45  48
ENDBRANCH  27  41
BRANCH  28  52
ATOM     52  C   UNL     1       4.172  13.466  12.726  1.00  0.00     0.023 A 
ATOM     53  C   UNL     1       5.328  14.149  12.307  1.00  0.00     0.012 A 
ATOM     54  C   UNL     1       2.952  13.697  12.059  1.00  0.00     0.148 A 
ATOM     55  C   UNL     1       5.268  15.059  11.252  1.00  0.00     0.002 A 
ATOM     56  C   UNL     1       2.912  14.559  10.971  1.00  0.00     0.091 A 
ATOM     57  F   UNL     1       1.865  13.034  12.478  1.00  0.00    -0.205 F 
ATOM     58  C   UNL     1       4.065  15.254  10.576  1.00  0.00     0.022 A 
BRANCH  56  59
ATOM     59  S   UNL     1       1.447  14.760   9.951  1.00  0.00     0.127 S 
ATOM     60  O   UNL     1       1.099  16.156  10.202  1.00  0.00    -0.237 OA
ATOM     61  O   UNL     1       1.975  14.486   8.615  1.00  0.00    -0.237 OA
ATOM     62  O   UNL     1       0.488  13.776  10.435  1.00  0.00    -0.744 OA
ENDBRANCH  56  59
ENDBRANCH  28  52
BRANCH  40  63
ATOM     63  C   UNL     1       5.378  13.626  19.623  1.00  0.00     0.023 A 
ATOM     64  C   UNL     1       4.401  14.562  20.014  1.00  0.00     0.012 A 
ATOM     65  C   UNL     1       6.655  13.666  20.219  1.00  0.00     0.148 A 
ATOM     66  C   UNL     1       4.696  15.533  20.970  1.00  0.00     0.002 A 
ATOM     67  C   UNL     1       6.924  14.602  21.209  1.00  0.00     0.091 A 
ATOM     68  F   UNL     1       7.574  12.778  19.816  1.00  0.00    -0.205 F 
ATOM     69  C   UNL     1       5.950  15.543  21.578  1.00  0.00     0.022 A 
BRANCH  67  70
ATOM     70  S   UNL     1       8.472  14.626  22.118  1.00  0.00     0.127 S 
ATOM     71  O   UNL     1       9.056  15.893  21.679  1.00  0.00    -0.237 OA
ATOM     72  O   UNL     1       8.013  14.614  23.507  1.00  0.00    -0.237 OA
ATOM     73  O   UNL     1       9.202  13.434  21.709  1.00  0.00    -0.744 OA
ENDBRANCH  67  70
ENDBRANCH  40  63
ENDBRANCH  14  15
ENDBRANCH   7   9
ENDBRANCH   4   5
ENDBRANCH   3   4
ENDBRANCH   2   3
ENDBRANCH   1   2
BRANCH   1  74
ATOM     74  C   UNL     1       6.432   0.069   9.013  1.00  0.00     0.021 C 
BRANCH  74  75
ATOM     75  C   UNL     1       6.737  -1.098   9.947  1.00  0.00     0.116 C 
BRANCH  75  76
ATOM     76  N   UNL     1       6.670  -2.352   9.230  1.00  0.00    -0.354 N 
ATOM     77  C   UNL     1       7.583  -3.289   8.903  1.00  0.00     0.244 C 
ATOM     78  H   UNL     1       5.764  -2.568   8.913  1.00  0.00     0.163 HD
ATOM     79  O   UNL     1       7.172  -4.179   8.146  1.00  0.00    -0.273 OA
BRANCH  77  80
ATOM     80  C   UNL     1       9.028  -3.352   9.443  1.00  0.00     0.197 C 
BRANCH  80  81
ATOM     81  N   UNL     1       9.525  -2.230  10.252  1.00  0.00    -0.342 N 
ATOM     82  C   UNL     1      10.344  -1.173  10.033  1.00  0.00     0.226 C 
ATOM     83  H   UNL     1       9.181  -2.252  11.175  1.00  0.00     0.164 HD
ATOM     84  O   UNL     1      10.400  -0.343  10.945  1.00  0.00    -0.275 OA
BRANCH  82  85
ATOM     85  C   UNL     1      11.085  -0.939   8.732  1.00  0.00     0.107 C 
ATOM     86  C   UNL     1      12.351  -0.089   8.970  1.00  0.00     0.115 C 
ATOM     87  C   UNL     1      11.617  -2.202   8.098  1.00  0.00     0.133 C 
ATOM     88  C   UNL     1      13.404  -0.703   8.084  1.00  0.00     0.223 C 
ATOM     89  N   UNL     1      12.912  -1.886   7.585  1.00  0.00    -0.333 N 
ATOM     90  O   UNL     1      14.517  -0.246   7.873  1.00  0.00    -0.275 OA
BRANCH  89  91
ATOM     91  C   UNL     1      13.668  -2.850   6.779  1.00  0.00     0.234 C 
BRANCH  91  92
ATOM     92  C   UNL     1      13.844  -4.228   7.424  1.00  0.00     0.406 C 
ATOM     93  F   UNL     1      12.644  -4.825   7.629  1.00  0.00    -0.169 F 
ATOM     94  F   UNL     1      14.564  -5.049   6.628  1.00  0.00    -0.169 F 
ATOM     95  F   UNL     1      14.469  -4.152   8.618  1.00  0.00    -0.169 F 
ENDBRANCH  91  92
ENDBRANCH  89  91
ENDBRANCH  82  85
ENDBRANCH  80  81
BRANCH  80  96
ATOM     96  C   UNL     1       9.289  -4.662  10.233  1.00  0.00     0.191 C 
BRANCH  96  97
ATOM     97  O   UNL     1       8.514  -5.798   9.886  1.00  0.00    -0.394 OA
ATOM     98  H   UNL     1       7.580  -5.623  10.081  1.00  0.00     0.210 HD
ENDBRANCH  96  97
ENDBRANCH  80  96
ENDBRANCH  77  80
ENDBRANCH  75  76
ENDBRANCH  74  75
ENDBRANCH   1  74
TORSDOF 22
