REMARK SMILES Cc1cccc(C[C@H](C(=O)NCCCCCCNC(=O)c2ccc(-c3c4nc(c(-c5cccc(S(=O)(=O)[O-])c5F)c5ccc([nH]5)c(-c5cccc(S(=O)(=O)[O-])c5F)c5nc(c(-c6cccc(S(=O)(=O)[O-])c6F)c6ccc3[nH]6)C=C5)C=C4)cc2)[C@@H]2CCCC[C@@H]2O)c1
REMARK SMILES IDX 15 1 14 2 13 3 12 4 11 5 9 6 10 7 8 9 7 10 6 11 1 12 2 13
REMARK SMILES IDX 3 14 91 15 4 16 5 17 84 18 85 19 89 20 86 21 88 22 87 23
REMARK SMILES IDX 90 24 16 26 17 27 18 28 19 29 20 31 21 32 22 33 83 34 23 35
REMARK SMILES IDX 82 36 24 37 25 38 26 39 76 40 27 41 81 42 75 43 77 44 28 45
REMARK SMILES IDX 80 46 74 47 73 48 29 50 61 51 41 52 60 53 42 54 45 55 59 56
REMARK SMILES IDX 78 57 43 58 44 59 58 61 79 62 46 63 30 64 31 65 39 66 32 67
REMARK SMILES IDX 34 68 40 69 33 70 35 71 36 72 37 73 38 74 62 75 63 76 71 77
REMARK SMILES IDX 64 78 66 79 72 80 65 81 67 82 68 83 69 84 70 85 47 86 48 87
REMARK SMILES IDX 56 88 49 89 51 90 57 91 50 92 52 93 53 94 54 95 55 96
REMARK H PARENT 11 8 90 25 18 30 77 49 45 60
REMARK Flexibility Score: inf
ROOT
ATOM      1  C   UNL     1      -4.356   4.517   5.985  1.00  0.00     0.002 C 
ENDROOT
BRANCH   1   2
ATOM      2  C   UNL     1      -5.560   3.948   5.205  1.00  0.00     0.002 C 
BRANCH   2   3
ATOM      3  C   UNL     1      -5.885   4.633   3.867  1.00  0.00     0.021 C 
BRANCH   3   4
ATOM      4  C   UNL     1      -6.258   3.686   2.714  1.00  0.00     0.116 C 
BRANCH   4   5
ATOM      5  N   UNL     1      -5.122   2.948   2.172  1.00  0.00    -0.356 N 
ATOM      6  C   UNL     1      -4.364   3.087   1.045  1.00  0.00     0.223 C 
ATOM      7  O   UNL     1      -3.558   2.176   0.831  1.00  0.00    -0.275 OA
ATOM      8  H   UNL     1      -4.843   2.192   2.737  1.00  0.00     0.163 HD
BRANCH   6   9
ATOM      9  C   UNL     1      -4.497   4.293   0.082  1.00  0.00     0.088 C 
BRANCH   9  10
ATOM     10  C   UNL     1      -4.455   5.658   0.789  1.00  0.00     0.049 C 
BRANCH  10  11
ATOM     11  C   UNL     1      -3.340   6.055   1.732  1.00  0.00    -0.047 A 
ATOM     12  C   UNL     1      -2.587   9.220   3.718  1.00  0.00     0.044 C 
ATOM     13  C   UNL     1      -2.495   7.810   3.218  1.00  0.00    -0.051 A 
ATOM     14  C   UNL     1      -1.655   6.881   3.833  1.00  0.00     0.003 A 
ATOM     15  C   UNL     1      -3.323   7.392   2.168  1.00  0.00     0.007 A 
ATOM     16  C   UNL     1      -1.625   5.564   3.385  1.00  0.00     0.001 A 
ATOM     17  C   UNL     1      -2.448   5.158   2.333  1.00  0.00     0.004 A 
ENDBRANCH  10  11
ENDBRANCH   9  10
BRANCH   9  18
ATOM     18  C   UNL     1      -3.548   4.167  -1.195  1.00  0.00     0.030 C 
ATOM     19  C   UNL     1      -2.483   5.267  -1.427  1.00  0.00     0.007 C 
ATOM     20  C   UNL     1      -4.317   4.015  -2.530  1.00  0.00     0.118 C 
ATOM     21  C   UNL     1      -2.978   6.583  -2.042  1.00  0.00     0.001 C 
ATOM     22  C   UNL     1      -5.040   5.306  -2.904  1.00  0.00     0.032 C 
ATOM     23  C   UNL     1      -4.045   6.441  -3.128  1.00  0.00     0.003 C 
BRANCH  20  24
ATOM     24  O   UNL     1      -5.204   2.907  -2.538  1.00  0.00    -0.393 OA
ATOM     25  H   UNL     1      -5.895   3.041  -1.871  1.00  0.00     0.210 HD
ENDBRANCH  20  24
ENDBRANCH   9  18
ENDBRANCH   6   9
ENDBRANCH   4   5
ENDBRANCH   3   4
ENDBRANCH   2   3
ENDBRANCH   1   2
BRANCH   1  26
ATOM     26  C   UNL     1      -4.203   6.035   6.082  1.00  0.00     0.021 C 
BRANCH  26  27
ATOM     27  C   UNL     1      -5.196   6.754   6.986  1.00  0.00     0.116 C 
BRANCH  27  28
ATOM     28  N   UNL     1      -4.568   7.303   8.183  1.00  0.00    -0.352 N 
ATOM     29  C   UNL     1      -5.035   8.242   9.113  1.00  0.00     0.251 C 
ATOM     30  H   UNL     1      -3.666   6.955   8.369  1.00  0.00     0.163 HD
ATOM     31  O   UNL     1      -4.301   8.662   9.964  1.00  0.00    -0.269 OA
BRANCH  29  32
ATOM     32  C   UNL     1      -6.489   8.553   9.110  1.00  0.00     0.039 A 
ATOM     33  C   UNL     1      -7.176   8.246  10.291  1.00  0.00     0.014 A 
ATOM     34  C   UNL     1      -7.170   8.695   7.910  1.00  0.00     0.014 A 
ATOM     35  C   UNL     1      -8.462   7.729  10.203  1.00  0.00     0.010 A 
ATOM     36  C   UNL     1      -8.393   8.076   7.801  1.00  0.00     0.010 A 
ATOM     37  C   UNL     1      -8.986   7.509   8.937  1.00  0.00    -0.014 A 
BRANCH  37  38
ATOM     38  C   UNL     1     -10.166   6.712   8.666  1.00  0.00     0.031 A 
ATOM     39  C   UNL     1     -11.443   7.429   8.454  1.00  0.00     0.074 A 
ATOM     40  C   UNL     1     -10.036   5.389   8.397  1.00  0.00     0.049 A 
ATOM     41  N   UNL     1     -12.580   6.842   8.314  1.00  0.00    -0.248 NA
ATOM     42  C   UNL     1     -11.541   8.892   8.401  1.00  0.00     0.031 C 
ATOM     43  C   UNL     1     -10.997   4.550   7.682  1.00  0.00     0.029 A 
ATOM     44  N   UNL     1      -9.084   4.457   8.836  1.00  0.00    -0.354 N 
ATOM     45  C   UNL     1     -13.443   7.779   7.800  1.00  0.00     0.074 A 
ATOM     46  C   UNL     1     -12.813   9.052   8.024  1.00  0.00     0.031 C 
ATOM     47  C   UNL     1     -10.774   3.265   8.003  1.00  0.00     0.029 A 
ATOM     48  C   UNL     1      -9.822   3.284   9.096  1.00  0.00     0.049 A 
ATOM     49  H   UNL     1      -8.115   4.592   8.940  1.00  0.00     0.167 HD
ATOM     50  C   UNL     1     -14.503   7.346   7.072  1.00  0.00     0.034 A 
ATOM     51  C   UNL     1     -10.086   2.784  10.346  1.00  0.00     0.034 A 
ATOM     52  C   UNL     1     -14.746   5.918   7.293  1.00  0.00     0.049 A 
ATOM     53  C   UNL     1     -11.577   2.600  10.638  1.00  0.00     0.074 A 
ATOM     54  C   UNL     1     -14.550   4.781   6.530  1.00  0.00     0.029 A 
ATOM     55  N   UNL     1     -15.004   5.478   8.591  1.00  0.00    -0.354 N 
ATOM     56  N   UNL     1     -12.533   3.087   9.892  1.00  0.00    -0.248 NA
ATOM     57  C   UNL     1     -12.113   1.869  11.788  1.00  0.00     0.031 C 
ATOM     58  C   UNL     1     -14.540   3.663   7.417  1.00  0.00     0.029 A 
ATOM     59  C   UNL     1     -14.792   4.114   8.703  1.00  0.00     0.049 A 
ATOM     60  H   UNL     1     -15.298   6.060   9.329  1.00  0.00     0.167 HD
ATOM     61  C   UNL     1     -13.752   2.876  10.479  1.00  0.00     0.074 A 
ATOM     62  C   UNL     1     -13.439   2.036  11.624  1.00  0.00     0.031 C 
ATOM     63  C   UNL     1     -14.899   3.461  10.007  1.00  0.00     0.034 A 
BRANCH  50  64
ATOM     64  C   UNL     1     -15.210   8.174   6.021  1.00  0.00     0.023 A 
ATOM     65  C   UNL     1     -16.400   7.652   5.474  1.00  0.00     0.012 A 
ATOM     66  C   UNL     1     -14.726   9.375   5.438  1.00  0.00     0.148 A 
ATOM     67  C   UNL     1     -17.077   8.287   4.424  1.00  0.00     0.002 A 
ATOM     68  C   UNL     1     -15.445  10.051   4.450  1.00  0.00     0.091 A 
ATOM     69  F   UNL     1     -13.503   9.826   5.740  1.00  0.00    -0.205 F 
ATOM     70  C   UNL     1     -16.616   9.500   3.928  1.00  0.00     0.022 A 
BRANCH  68  71
ATOM     71  S   UNL     1     -14.926  11.662   3.830  1.00  0.00     0.127 S 
ATOM     72  O   UNL     1     -14.354  11.324   2.528  1.00  0.00    -0.237 OA
ATOM     73  O   UNL     1     -16.189  12.400   3.767  1.00  0.00    -0.237 OA
ATOM     74  O   UNL     1     -13.984  12.183   4.814  1.00  0.00    -0.744 OA
ENDBRANCH  68  71
ENDBRANCH  50  64
BRANCH  51  75
ATOM     75  C   UNL     1      -9.041   3.113  11.360  1.00  0.00     0.023 A 
ATOM     76  C   UNL     1      -7.737   2.626  11.102  1.00  0.00     0.012 A 
ATOM     77  C   UNL     1      -9.203   4.159  12.286  1.00  0.00     0.148 A 
ATOM     78  C   UNL     1      -6.615   3.289  11.598  1.00  0.00     0.002 A 
ATOM     79  C   UNL     1      -8.075   4.801  12.799  1.00  0.00     0.091 A 
ATOM     80  F   UNL     1     -10.443   4.550  12.605  1.00  0.00    -0.205 F 
ATOM     81  C   UNL     1      -6.785   4.404  12.410  1.00  0.00     0.022 A 
BRANCH  79  82
ATOM     82  S   UNL     1      -8.205   6.234  13.879  1.00  0.00     0.127 S 
ATOM     83  O   UNL     1      -8.074   5.620  15.197  1.00  0.00    -0.237 OA
ATOM     84  O   UNL     1      -7.061   7.047  13.465  1.00  0.00    -0.237 OA
ATOM     85  O   UNL     1      -9.498   6.824  13.567  1.00  0.00    -0.744 OA
ENDBRANCH  79  82
ENDBRANCH  51  75
BRANCH  63  86
ATOM     86  C   UNL     1     -16.231   3.498  10.745  1.00  0.00     0.023 A 
ATOM     87  C   UNL     1     -16.324   3.329  12.141  1.00  0.00     0.012 A 
ATOM     88  C   UNL     1     -17.429   3.861  10.073  1.00  0.00     0.148 A 
ATOM     89  C   UNL     1     -17.541   3.435  12.826  1.00  0.00     0.002 A 
ATOM     90  C   UNL     1     -18.615   4.075  10.774  1.00  0.00     0.091 A 
ATOM     91  F   UNL     1     -17.434   3.986   8.738  1.00  0.00    -0.205 F 
ATOM     92  C   UNL     1     -18.684   3.830  12.146  1.00  0.00     0.022 A 
BRANCH  90  93
ATOM     93  S   UNL     1     -20.043   4.821   9.972  1.00  0.00     0.127 S 
ATOM     94  O   UNL     1     -20.795   3.647   9.534  1.00  0.00    -0.237 OA
ATOM     95  O   UNL     1     -20.668   5.570  11.064  1.00  0.00    -0.237 OA
ATOM     96  O   UNL     1     -19.488   5.662   8.919  1.00  0.00    -0.744 OA
ENDBRANCH  90  93
ENDBRANCH  63  86
ENDBRANCH  37  38
ENDBRANCH  29  32
ENDBRANCH  27  28
ENDBRANCH  26  27
ENDBRANCH   1  26
TORSDOF 20
