REMARK SMILES O=C(NCCCCCCNC(=O)[C@H](CO)NC(=O)[C@H](CS)NC(=O)[C@H](Cc1ccccc1)NC(=O)c1ccc(F)cc1)c1ccc(-c2c3nc(c(-c4cccc(S(=O)(=O)[O-])c4F)c4ccc([nH]4)c(-c4cccc(S(=O)(=O)[O-])c4F)c4nc(c(-c5cccc(S(=O)(=O)[O-])c5F)c5ccc2[nH]5)C=C4)C=C3)cc1
REMARK SMILES IDX 8 1 7 2 6 3 5 4 4 5 3 6 1 7 2 8 43 10 44 11 105 12 45 13
REMARK SMILES IDX 104 14 46 15 47 16 48 17 98 18 49 19 103 20 97 21 99 22
REMARK SMILES IDX 50 23 102 24 96 25 95 26 51 28 83 29 63 30 82 31 64 32 67 33
REMARK SMILES IDX 81 34 100 35 65 36 66 37 80 39 101 40 68 41 52 42 53 43
REMARK SMILES IDX 61 44 54 45 56 46 62 47 55 48 57 49 58 50 59 51 60 52 84 53
REMARK SMILES IDX 85 54 93 55 86 56 88 57 94 58 87 59 89 60 90 61 91 62 92 63
REMARK SMILES IDX 69 64 70 65 78 66 71 67 73 68 79 69 72 70 74 71 75 72 76 73
REMARK SMILES IDX 77 74 9 75 10 76 11 77 12 79 13 80 16 81 17 82 18 84 19 85
REMARK SMILES IDX 22 86 23 87 24 89 25 90 33 91 34 92 35 94 36 95 37 96 42 97
REMARK SMILES IDX 38 98 41 99 39 100 40 101 26 102 27 103 28 104 32 105 29 106
REMARK SMILES IDX 31 107 30 108 20 109 21 110 14 112 15 113
REMARK H PARENT 3 9 99 27 67 38 10 78 16 83 22 88 33 93 21 111 15 114
REMARK Flexibility Score: inf
ROOT
ATOM      1  C   UNL     1      12.614  -4.237   8.257  1.00  0.00     0.021 C 
ENDROOT
BRANCH   1   2
ATOM      2  C   UNL     1      12.022  -2.948   8.820  1.00  0.00     0.002 C 
BRANCH   2   3
ATOM      3  C   UNL     1      11.048  -2.207   7.900  1.00  0.00     0.002 C 
BRANCH   3   4
ATOM      4  C   UNL     1       9.889  -3.038   7.346  1.00  0.00     0.021 C 
BRANCH   4   5
ATOM      5  C   UNL     1       9.068  -3.786   8.388  1.00  0.00     0.116 C 
BRANCH   5   6
ATOM      6  N   UNL     1       8.478  -2.899   9.376  1.00  0.00    -0.352 N 
ATOM      7  O   UNL     1       6.832  -1.829  10.479  1.00  0.00    -0.269 OA
ATOM      8  C   UNL     1       7.163  -2.757   9.744  1.00  0.00     0.251 C 
ATOM      9  H   UNL     1       9.113  -2.315   9.850  1.00  0.00     0.163 HD
BRANCH   8  10
ATOM     10  C   UNL     1       6.152  -3.707   9.233  1.00  0.00     0.039 A 
ATOM     11  C   UNL     1       6.411  -5.080   9.218  1.00  0.00     0.014 A 
ATOM     12  C   UNL     1       4.928  -3.219   8.769  1.00  0.00     0.014 A 
ATOM     13  C   UNL     1       5.510  -5.947   8.610  1.00  0.00     0.010 A 
ATOM     14  C   UNL     1       3.984  -4.104   8.240  1.00  0.00     0.010 A 
ATOM     15  C   UNL     1       4.279  -5.472   8.130  1.00  0.00    -0.014 A 
BRANCH  15  16
ATOM     16  C   UNL     1       3.284  -6.438   7.599  1.00  0.00     0.031 A 
ATOM     17  C   UNL     1       2.824  -6.384   6.169  1.00  0.00     0.074 A 
ATOM     18  C   UNL     1       2.789  -7.372   8.435  1.00  0.00     0.049 A 
ATOM     19  N   UNL     1       1.973  -7.162   5.551  1.00  0.00    -0.248 NA
ATOM     20  C   UNL     1       3.381  -5.318   5.322  1.00  0.00     0.031 C 
ATOM     21  C   UNL     1       3.129  -7.493   9.856  1.00  0.00     0.029 A 
ATOM     22  N   UNL     1       1.897  -8.391   8.221  1.00  0.00    -0.354 N 
ATOM     23  C   UNL     1       1.860  -6.662   4.260  1.00  0.00     0.074 A 
ATOM     24  C   UNL     1       2.727  -5.505   4.182  1.00  0.00     0.031 C 
ATOM     25  C   UNL     1       2.472  -8.537  10.380  1.00  0.00     0.029 A 
ATOM     26  C   UNL     1       1.622  -9.123   9.352  1.00  0.00     0.049 A 
ATOM     27  H   UNL     1       1.492  -8.579   7.343  1.00  0.00     0.167 HD
ATOM     28  C   UNL     1       1.113  -7.132   3.231  1.00  0.00     0.034 A 
ATOM     29  C   UNL     1       0.763 -10.141   9.550  1.00  0.00     0.034 A 
ATOM     30  C   UNL     1       0.272  -8.299   3.311  1.00  0.00     0.049 A 
ATOM     31  C   UNL     1      -0.043 -10.645   8.389  1.00  0.00     0.074 A 
ATOM     32  C   UNL     1      -0.472  -8.893   2.307  1.00  0.00     0.029 A 
ATOM     33  N   UNL     1       0.051  -9.041   4.462  1.00  0.00    -0.354 N 
ATOM     34  N   UNL     1      -0.034 -10.240   7.142  1.00  0.00    -0.248 NA
ATOM     35  C   UNL     1      -0.956 -11.765   8.653  1.00  0.00     0.031 C 
ATOM     36  C   UNL     1      -1.167  -9.975   2.857  1.00  0.00     0.029 A 
ATOM     37  C   UNL     1      -0.830 -10.077   4.197  1.00  0.00     0.049 A 
ATOM     38  H   UNL     1       0.459  -8.858   5.339  1.00  0.00     0.167 HD
ATOM     39  C   UNL     1      -0.918 -11.072   6.466  1.00  0.00     0.074 A 
ATOM     40  C   UNL     1      -1.423 -12.021   7.438  1.00  0.00     0.031 C 
ATOM     41  C   UNL     1      -1.290 -11.042   5.163  1.00  0.00     0.034 A 
BRANCH  28  42
ATOM     42  C   UNL     1       1.189  -6.404   1.913  1.00  0.00     0.023 A 
ATOM     43  C   UNL     1       2.351  -6.510   1.122  1.00  0.00     0.012 A 
ATOM     44  C   UNL     1       0.085  -5.679   1.422  1.00  0.00     0.148 A 
ATOM     45  C   UNL     1       2.426  -5.881  -0.121  1.00  0.00     0.002 A 
ATOM     46  C   UNL     1       0.151  -5.090   0.163  1.00  0.00     0.091 A 
ATOM     47  F   UNL     1      -1.006  -5.573   2.194  1.00  0.00    -0.205 F 
ATOM     48  C   UNL     1       1.323  -5.181  -0.604  1.00  0.00     0.022 A 
BRANCH  46  49
ATOM     49  S   UNL     1      -1.242  -4.234  -0.583  1.00  0.00     0.127 S 
ATOM     50  O   UNL     1      -0.791  -2.844  -0.536  1.00  0.00    -0.237 OA
ATOM     51  O   UNL     1      -1.279  -4.818  -1.924  1.00  0.00    -0.237 OA
ATOM     52  O   UNL     1      -2.397  -4.546   0.248  1.00  0.00    -0.744 OA
ENDBRANCH  46  49
ENDBRANCH  28  42
BRANCH  29  53
ATOM     53  C   UNL     1       0.654 -10.763  10.898  1.00  0.00     0.023 A 
ATOM     54  C   UNL     1       1.125 -12.075  11.099  1.00  0.00     0.012 A 
ATOM     55  C   UNL     1       0.127 -10.046  11.991  1.00  0.00     0.148 A 
ATOM     56  C   UNL     1       1.048 -12.671  12.358  1.00  0.00     0.002 A 
ATOM     57  C   UNL     1       0.110 -10.623  13.254  1.00  0.00     0.091 A 
ATOM     58  F   UNL     1      -0.327  -8.803  11.775  1.00  0.00    -0.205 F 
ATOM     59  C   UNL     1       0.553 -11.942  13.437  1.00  0.00     0.022 A 
BRANCH  57  60
ATOM     60  S   UNL     1      -0.377  -9.709  14.721  1.00  0.00     0.127 S 
ATOM     61  O   UNL     1      -1.660 -10.326  15.045  1.00  0.00    -0.237 OA
ATOM     62  O   UNL     1       0.711 -10.023  15.648  1.00  0.00    -0.237 OA
ATOM     63  O   UNL     1      -0.430  -8.312  14.312  1.00  0.00    -0.744 OA
ENDBRANCH  57  60
ENDBRANCH  29  53
BRANCH  41  64
ATOM     64  C   UNL     1      -2.270 -12.087   4.700  1.00  0.00     0.023 A 
ATOM     65  C   UNL     1      -3.619 -12.011   5.099  1.00  0.00     0.012 A 
ATOM     66  C   UNL     1      -1.865 -13.111   3.821  1.00  0.00     0.148 A 
ATOM     67  C   UNL     1      -4.543 -12.960   4.660  1.00  0.00     0.002 A 
ATOM     68  C   UNL     1      -2.801 -14.022   3.347  1.00  0.00     0.091 A 
ATOM     69  F   UNL     1      -0.573 -13.178   3.470  1.00  0.00    -0.205 F 
ATOM     70  C   UNL     1      -4.136 -13.956   3.775  1.00  0.00     0.022 A 
BRANCH  68  71
ATOM     71  S   UNL     1      -2.389 -15.279   2.132  1.00  0.00     0.127 S 
ATOM     72  O   UNL     1      -2.429 -16.498   2.938  1.00  0.00    -0.237 OA
ATOM     73  O   UNL     1      -3.483 -15.149   1.169  1.00  0.00    -0.237 OA
ATOM     74  O   UNL     1      -1.079 -14.919   1.609  1.00  0.00    -0.744 OA
ENDBRANCH  68  71
ENDBRANCH  41  64
ENDBRANCH  15  16
ENDBRANCH   8  10
ENDBRANCH   5   6
ENDBRANCH   4   5
ENDBRANCH   3   4
ENDBRANCH   2   3
ENDBRANCH   1   2
BRANCH   1  75
ATOM     75  C   UNL     1      13.299  -4.104   6.908  1.00  0.00     0.116 C 
BRANCH  75  76
ATOM     76  N   UNL     1      14.500  -3.296   6.924  1.00  0.00    -0.354 N 
ATOM     77  C   UNL     1      15.690  -3.522   6.295  1.00  0.00     0.244 C 
ATOM     78  H   UNL     1      14.451  -2.473   7.461  1.00  0.00     0.163 HD
ATOM     79  O   UNL     1      16.535  -2.622   6.294  1.00  0.00    -0.273 OA
BRANCH  77  80
ATOM     80  C   UNL     1      15.970  -4.864   5.593  1.00  0.00     0.197 C 
BRANCH  80  81
ATOM     81  N   UNL     1      16.286  -4.567   4.192  1.00  0.00    -0.340 N 
ATOM     82  C   UNL     1      15.617  -4.727   3.021  1.00  0.00     0.244 C 
ATOM     83  H   UNL     1      17.177  -4.165   4.075  1.00  0.00     0.164 HD
ATOM     84  O   UNL     1      16.166  -4.227   2.030  1.00  0.00    -0.273 OA
BRANCH  82  85
ATOM     85  C   UNL     1      14.354  -5.619   2.825  1.00  0.00     0.181 C 
BRANCH  85  86
ATOM     86  N   UNL     1      13.600  -5.987   4.019  1.00  0.00    -0.342 N 
ATOM     87  C   UNL     1      13.275  -7.175   4.590  1.00  0.00     0.243 C 
ATOM     88  H   UNL     1      13.254  -5.210   4.516  1.00  0.00     0.164 HD
ATOM     89  O   UNL     1      12.640  -7.116   5.649  1.00  0.00    -0.273 OA
BRANCH  87  90
ATOM     90  C   UNL     1      13.580  -8.518   3.905  1.00  0.00     0.176 C 
BRANCH  90  91
ATOM     91  N   UNL     1      13.422  -9.539   4.953  1.00  0.00    -0.340 N 
ATOM     92  C   UNL     1      14.205 -10.597   5.317  1.00  0.00     0.251 C 
ATOM     93  H   UNL     1      12.603  -9.441   5.490  1.00  0.00     0.164 HD
ATOM     94  O   UNL     1      13.758 -11.472   6.052  1.00  0.00    -0.269 OA
BRANCH  92  95
ATOM     95  C   UNL     1      15.607 -10.688   4.872  1.00  0.00     0.040 A 
ATOM     96  C   UNL     1      16.093 -11.901   4.371  1.00  0.00     0.017 A 
ATOM     97  C   UNL     1      16.482  -9.623   5.105  1.00  0.00     0.017 A 
ATOM     98  C   UNL     1      17.451 -12.029   4.068  1.00  0.00     0.040 A 
ATOM     99  C   UNL     1      17.838  -9.754   4.806  1.00  0.00     0.040 A 
ATOM    100  C   UNL     1      18.309 -10.955   4.287  1.00  0.00     0.123 A 
ATOM    101  F   UNL     1      19.613 -11.086   4.013  1.00  0.00    -0.207 F 
ENDBRANCH  92  95
ENDBRANCH  90  91
BRANCH  90 102
ATOM    102  C   UNL     1      12.525  -8.667   2.788  1.00  0.00     0.070 C 
BRANCH 102 103
ATOM    103  C   UNL     1      12.488  -9.975   2.039  1.00  0.00    -0.045 A 
ATOM    104  C   UNL     1      12.795 -10.021   0.672  1.00  0.00     0.004 A 
ATOM    105  C   UNL     1      12.037 -11.144   2.667  1.00  0.00     0.004 A 
ATOM    106  C   UNL     1      12.655 -11.211  -0.044  1.00  0.00     0.000 A 
ATOM    107  C   UNL     1      11.916 -12.336   1.955  1.00  0.00     0.000 A 
ATOM    108  C   UNL     1      12.220 -12.369   0.598  1.00  0.00     0.000 A 
ENDBRANCH 102 103
ENDBRANCH  90 102
ENDBRANCH  87  90
ENDBRANCH  85  86
BRANCH  85 109
ATOM    109  C   UNL     1      13.414  -4.934   1.795  1.00  0.00     0.101 C 
BRANCH 109 110
ATOM    110  S   UNL     1      12.108  -3.894   2.563  1.00  0.00    -0.177 SA
ATOM    111  H   UNL     1      11.302  -4.674   3.332  1.00  0.00     0.102 HD
ENDBRANCH 109 110
ENDBRANCH  85 109
ENDBRANCH  82  85
ENDBRANCH  80  81
BRANCH  80 112
ATOM    112  C   UNL     1      17.143  -5.545   6.322  1.00  0.00     0.191 C 
BRANCH 112 113
ATOM    113  O   UNL     1      16.735  -6.809   6.855  1.00  0.00    -0.394 OA
ATOM    114  H   UNL     1      16.013  -6.675   7.489  1.00  0.00     0.210 HD
ENDBRANCH 112 113
ENDBRANCH  80 112
ENDBRANCH  77  80
ENDBRANCH  75  76
ENDBRANCH   1  75
TORSDOF 28
