REMARK SMILES O=C(Cn1c(-c2nc(-c3ccc(C(F)(F)F)cc3)no2)cc2ccccc21)NCCCCCCNC(=O)c1ccc(-c2c3nc(c(-c4cccc(S(=O)(=O)[O-])c4F)c4ccc([nH]4)c(-c4cccc(S(=O)(=O)[O-])c4F)c4nc(c(-c5cccc(S(=O)(=O)[O-])c5F)c5ccc2[nH]5)C=C4)C=C3)cc1
REMARK SMILES IDX 31 1 30 2 29 3 28 4 1 5 2 6 3 8 4 9 5 10 27 11 21 12 22 13
REMARK SMILES IDX 26 14 23 15 25 16 24 17 6 18 7 19 20 20 8 21 19 22 9 23
REMARK SMILES IDX 10 24 18 25 11 26 17 27 12 28 13 29 14 30 15 31 16 32 32 33
REMARK SMILES IDX 33 34 34 35 35 36 36 37 37 39 38 40 39 41 100 42 40 43 99 44
REMARK SMILES IDX 41 45 42 46 43 47 93 48 44 49 98 50 92 51 94 52 45 53 97 54
REMARK SMILES IDX 91 55 90 56 46 58 78 59 58 60 77 61 59 62 62 63 76 64 95 65
REMARK SMILES IDX 60 66 61 67 75 69 96 70 63 71 47 72 48 73 56 74 49 75 51 76
REMARK SMILES IDX 57 77 50 78 52 79 53 80 54 81 55 82 79 83 80 84 88 85 81 86
REMARK SMILES IDX 83 87 89 88 82 89 84 90 85 91 86 92 87 93 64 94 65 95 73 96
REMARK SMILES IDX 66 97 68 98 74 99 67 100 69 101 70 102 71 103 72 104
REMARK H PARENT 28 7 35 38 94 57 62 68
REMARK Flexibility Score: inf
ROOT
ATOM      1  C   UNL     1       4.125   2.250  -3.303  1.00  0.00     0.002 C 
ENDROOT
BRANCH   1   2
ATOM      2  C   UNL     1       2.642   2.154  -2.925  1.00  0.00     0.021 C 
BRANCH   2   3
ATOM      3  C   UNL     1       2.184   0.769  -2.463  1.00  0.00     0.116 C 
BRANCH   3   4
ATOM      4  N   UNL     1       2.902   0.339  -1.279  1.00  0.00    -0.355 N 
ATOM      5  O   UNL     1       1.095   0.314   0.141  1.00  0.00    -0.273 OA
ATOM      6  C   UNL     1       2.297   0.141  -0.056  1.00  0.00     0.239 C 
ATOM      7  H   UNL     1       3.871   0.181  -1.351  1.00  0.00     0.163 HD
BRANCH   6   8
ATOM      8  C   UNL     1       3.236  -0.188   1.087  1.00  0.00     0.222 C 
BRANCH   8   9
ATOM      9  N   UNL     1       4.109  -1.320   0.802  1.00  0.00    -0.327 N 
ATOM     10  C   UNL     1       5.428  -1.252   0.394  1.00  0.00     0.109 A 
ATOM     11  C   UNL     1       3.712  -2.642   0.918  1.00  0.00     0.049 A 
ATOM     12  C   UNL     1       5.852  -2.547   0.169  1.00  0.00     0.042 A 
ATOM     13  C   UNL     1       4.800  -3.430   0.538  1.00  0.00     0.000 A 
ATOM     14  C   UNL     1       2.490  -3.208   1.322  1.00  0.00     0.027 A 
ATOM     15  C   UNL     1       4.677  -4.833   0.593  1.00  0.00     0.010 A 
ATOM     16  C   UNL     1       2.392  -4.601   1.367  1.00  0.00     0.002 A 
ATOM     17  C   UNL     1       3.471  -5.405   1.014  1.00  0.00     0.001 A 
BRANCH  10  18
ATOM     18  C   UNL     1       6.188  -0.042   0.321  1.00  0.00     0.274 A 
ATOM     19  N   UNL     1       6.788   0.435  -0.753  1.00  0.00    -0.185 NA
ATOM     20  O   UNL     1       6.359   0.760   1.416  1.00  0.00    -0.332 OA
ATOM     21  C   UNL     1       7.412   1.568  -0.269  1.00  0.00     0.202 A 
ATOM     22  N   UNL     1       7.164   1.814   1.027  1.00  0.00    -0.057 NA
BRANCH  21  23
ATOM     23  C   UNL     1       8.269   2.457  -1.042  1.00  0.00     0.023 A 
ATOM     24  C   UNL     1       9.523   2.808  -0.522  1.00  0.00     0.013 A 
ATOM     25  C   UNL     1       7.822   3.086  -2.208  1.00  0.00     0.013 A 
ATOM     26  C   UNL     1      10.282   3.823  -1.109  1.00  0.00     0.014 A 
ATOM     27  C   UNL     1       8.576   4.116  -2.792  1.00  0.00     0.014 A 
ATOM     28  C   UNL     1       9.797   4.517  -2.227  1.00  0.00     0.056 A 
BRANCH  28  29
ATOM     29  C   UNL     1      10.566   5.708  -2.750  1.00  0.00     0.416 C 
ATOM     30  F   UNL     1      10.683   6.686  -1.804  1.00  0.00    -0.166 F 
ATOM     31  F   UNL     1      11.840   5.397  -3.114  1.00  0.00    -0.166 F 
ATOM     32  F   UNL     1       9.994   6.309  -3.828  1.00  0.00    -0.166 F 
ENDBRANCH  28  29
ENDBRANCH  21  23
ENDBRANCH  10  18
ENDBRANCH   8   9
ENDBRANCH   6   8
ENDBRANCH   3   4
ENDBRANCH   2   3
ENDBRANCH   1   2
BRANCH   1  33
ATOM     33  C   UNL     1       4.591   1.353  -4.455  1.00  0.00     0.002 C 
BRANCH  33  34
ATOM     34  C   UNL     1       3.905   1.579  -5.810  1.00  0.00     0.021 C 
BRANCH  34  35
ATOM     35  C   UNL     1       4.050   2.987  -6.392  1.00  0.00     0.116 C 
BRANCH  35  36
ATOM     36  N   UNL     1       5.425   3.412  -6.566  1.00  0.00    -0.352 N 
ATOM     37  C   UNL     1       6.331   3.413  -7.592  1.00  0.00     0.251 C 
ATOM     38  H   UNL     1       5.800   3.796  -5.740  1.00  0.00     0.163 HD
ATOM     39  O   UNL     1       7.364   4.054  -7.371  1.00  0.00    -0.269 OA
BRANCH  37  40
ATOM     40  C   UNL     1       6.203   2.681  -8.887  1.00  0.00     0.039 A 
ATOM     41  C   UNL     1       5.126   1.889  -9.272  1.00  0.00     0.014 A 
ATOM     42  C   UNL     1       7.314   2.761  -9.758  1.00  0.00     0.014 A 
ATOM     43  C   UNL     1       5.189   1.148 -10.456  1.00  0.00     0.010 A 
ATOM     44  C   UNL     1       7.379   2.026 -10.943  1.00  0.00     0.010 A 
ATOM     45  C   UNL     1       6.327   1.188 -11.281  1.00  0.00    -0.014 A 
BRANCH  45  46
ATOM     46  C   UNL     1       6.276   0.469 -12.559  1.00  0.00     0.031 A 
ATOM     47  C   UNL     1       5.135   0.889 -13.416  1.00  0.00     0.074 A 
ATOM     48  C   UNL     1       7.151  -0.458 -13.010  1.00  0.00     0.049 A 
ATOM     49  N   UNL     1       4.013   0.265 -13.564  1.00  0.00    -0.248 NA
ATOM     50  C   UNL     1       5.167   2.224 -14.030  1.00  0.00     0.031 C 
ATOM     51  C   UNL     1       8.453  -0.823 -12.447  1.00  0.00     0.029 A 
ATOM     52  N   UNL     1       7.084  -1.233 -14.140  1.00  0.00    -0.354 N 
ATOM     53  C   UNL     1       3.304   1.001 -14.507  1.00  0.00     0.074 A 
ATOM     54  C   UNL     1       3.965   2.276 -14.610  1.00  0.00     0.031 C 
ATOM     55  C   UNL     1       9.140  -1.573 -13.342  1.00  0.00     0.029 A 
ATOM     56  C   UNL     1       8.277  -1.877 -14.470  1.00  0.00     0.049 A 
ATOM     57  H   UNL     1       6.262  -1.327 -14.674  1.00  0.00     0.167 HD
ATOM     58  C   UNL     1       2.415   0.393 -15.338  1.00  0.00     0.034 A 
ATOM     59  C   UNL     1       8.529  -2.593 -15.597  1.00  0.00     0.034 A 
ATOM     60  C   UNL     1       2.102  -0.939 -14.898  1.00  0.00     0.049 A 
ATOM     61  C   UNL     1       7.223  -3.094 -16.074  1.00  0.00     0.074 A 
ATOM     62  C   UNL     1       1.496  -1.523 -13.808  1.00  0.00     0.029 A 
ATOM     63  N   UNL     1       2.821  -1.915 -15.537  1.00  0.00    -0.354 N 
ATOM     64  N   UNL     1       6.514  -3.986 -15.440  1.00  0.00    -0.248 NA
ATOM     65  C   UNL     1       6.546  -2.402 -17.160  1.00  0.00     0.031 C 
ATOM     66  C   UNL     1       2.134  -2.788 -13.651  1.00  0.00     0.029 A 
ATOM     67  C   UNL     1       3.070  -2.943 -14.675  1.00  0.00     0.049 A 
ATOM     68  H   UNL     1       3.114  -1.879 -16.476  1.00  0.00     0.167 HD
ATOM     69  C   UNL     1       5.209  -3.641 -15.737  1.00  0.00     0.074 A 
ATOM     70  C   UNL     1       5.295  -2.800 -16.922  1.00  0.00     0.031 C 
ATOM     71  C   UNL     1       4.224  -3.804 -14.811  1.00  0.00     0.034 A 
BRANCH  58  72
ATOM     72  C   UNL     1       2.208   0.776 -16.787  1.00  0.00     0.023 A 
ATOM     73  C   UNL     1       1.121   0.187 -17.473  1.00  0.00     0.012 A 
ATOM     74  C   UNL     1       3.200   1.402 -17.575  1.00  0.00     0.148 A 
ATOM     75  C   UNL     1       1.040   0.205 -18.870  1.00  0.00     0.002 A 
ATOM     76  C   UNL     1       3.076   1.486 -18.955  1.00  0.00     0.091 A 
ATOM     77  F   UNL     1       4.350   1.787 -17.012  1.00  0.00    -0.205 F 
ATOM     78  C   UNL     1       2.010   0.868 -19.612  1.00  0.00     0.022 A 
BRANCH  76  79
ATOM     79  S   UNL     1       4.295   2.344 -19.958  1.00  0.00     0.127 S 
ATOM     80  O   UNL     1       4.966   1.229 -20.615  1.00  0.00    -0.237 OA
ATOM     81  O   UNL     1       3.445   3.161 -20.822  1.00  0.00    -0.237 OA
ATOM     82  O   UNL     1       5.100   3.113 -19.013  1.00  0.00    -0.744 OA
ENDBRANCH  76  79
ENDBRANCH  58  72
BRANCH  59  83
ATOM     83  C   UNL     1       9.755  -2.804 -16.415  1.00  0.00     0.023 A 
ATOM     84  C   UNL     1       9.746  -3.800 -17.422  1.00  0.00     0.012 A 
ATOM     85  C   UNL     1      10.784  -1.841 -16.456  1.00  0.00     0.148 A 
ATOM     86  C   UNL     1      10.667  -3.783 -18.477  1.00  0.00     0.002 A 
ATOM     87  C   UNL     1      11.706  -1.834 -17.505  1.00  0.00     0.091 A 
ATOM     88  F   UNL     1      10.803  -0.878 -15.525  1.00  0.00    -0.205 F 
ATOM     89  C   UNL     1      11.635  -2.788 -18.529  1.00  0.00     0.022 A 
BRANCH  87  90
ATOM     90  S   UNL     1      12.989  -0.582 -17.647  1.00  0.00     0.127 S 
ATOM     91  O   UNL     1      14.164  -1.384 -17.991  1.00  0.00    -0.237 OA
ATOM     92  O   UNL     1      12.482   0.254 -18.731  1.00  0.00    -0.237 OA
ATOM     93  O   UNL     1      13.065   0.053 -16.337  1.00  0.00    -0.744 OA
ENDBRANCH  87  90
ENDBRANCH  59  83
BRANCH  71  94
ATOM     94  C   UNL     1       4.437  -4.807 -13.718  1.00  0.00     0.023 A 
ATOM     95  C   UNL     1       5.346  -4.615 -12.661  1.00  0.00     0.012 A 
ATOM     96  C   UNL     1       3.542  -5.889 -13.676  1.00  0.00     0.148 A 
ATOM     97  C   UNL     1       5.348  -5.490 -11.570  1.00  0.00     0.002 A 
ATOM     98  C   UNL     1       3.516  -6.725 -12.572  1.00  0.00     0.091 A 
ATOM     99  F   UNL     1       2.693  -6.044 -14.704  1.00  0.00    -0.205 F 
ATOM    100  C   UNL     1       4.422  -6.532 -11.517  1.00  0.00     0.022 A 
BRANCH  98 101
ATOM    101  S   UNL     1       2.270  -8.001 -12.388  1.00  0.00     0.127 S 
ATOM    102  O   UNL     1       3.076  -9.221 -12.408  1.00  0.00    -0.237 OA
ATOM    103  O   UNL     1       1.686  -7.673 -11.087  1.00  0.00    -0.237 OA
ATOM    104  O   UNL     1       1.356  -7.846 -13.513  1.00  0.00    -0.744 OA
ENDBRANCH  98 101
ENDBRANCH  71  94
ENDBRANCH  45  46
ENDBRANCH  37  40
ENDBRANCH  35  36
ENDBRANCH  34  35
ENDBRANCH  33  34
ENDBRANCH   1  33
TORSDOF 20
