REMARK SMILES O=C(NCCCCCCNC(=O)c1ccc(-c2c3nc(c(-c4cccc(S(=O)(=O)[O-])c4F)c4ccc([nH]4)c(-c4cccc(S(=O)(=O)[O-])c4F)c4nc(c(-c5cccc(S(=O)(=O)[O-])c5F)c5ccc2[nH]5)C=C4)C=C3)cc1)c1ccc(CNC(=O)c2ccccc2I)cc1
REMARK SMILES IDX 6 1 5 2 4 3 3 4 1 5 2 6 76 8 77 9 92 10 78 11 91 12 79 13
REMARK SMILES IDX 80 14 81 15 82 16 83 18 84 19 85 20 89 21 86 22 88 23 90 24
REMARK SMILES IDX 87 25 7 26 8 27 9 28 10 29 11 30 12 32 13 33 14 34 75 35
REMARK SMILES IDX 15 36 74 37 16 38 17 39 18 40 68 41 19 42 73 43 67 44 69 45
REMARK SMILES IDX 20 46 72 47 66 48 65 49 21 51 53 52 33 53 52 54 34 55 37 56
REMARK SMILES IDX 51 57 70 58 35 59 36 60 50 62 71 63 38 64 22 65 23 66 31 67
REMARK SMILES IDX 24 68 26 69 32 70 25 71 27 72 28 73 29 74 30 75 54 76 55 77
REMARK SMILES IDX 63 78 56 79 58 80 64 81 57 82 59 83 60 84 61 85 62 86 39 87
REMARK SMILES IDX 40 88 48 89 41 90 43 91 49 92 42 93 44 94 45 95 46 96 47 97
REMARK H PARENT 3 7 81 17 10 31 69 50 37 61
REMARK Flexibility Score: inf
ROOT
ATOM      1  C   UNL     1       4.180  -3.273   1.955  1.00  0.00     0.002 C 
ENDROOT
BRANCH   1   2
ATOM      2  C   UNL     1       4.673  -1.835   1.772  1.00  0.00     0.021 C 
BRANCH   2   3
ATOM      3  C   UNL     1       4.422  -1.231   0.392  1.00  0.00     0.116 C 
BRANCH   3   4
ATOM      4  N   UNL     1       3.004  -1.135   0.086  1.00  0.00    -0.352 N 
ATOM      5  O   UNL     1       1.051  -0.073  -0.330  1.00  0.00    -0.269 OA
ATOM      6  C   UNL     1       2.275  -0.024  -0.246  1.00  0.00     0.251 C 
ATOM      7  H   UNL     1       2.502  -1.981   0.122  1.00  0.00     0.163 HD
BRANCH   6   8
ATOM      8  C   UNL     1       2.975   1.253  -0.483  1.00  0.00     0.039 A 
ATOM      9  C   UNL     1       3.977   1.346  -1.454  1.00  0.00     0.014 A 
ATOM     10  C   UNL     1       2.615   2.366   0.277  1.00  0.00     0.014 A 
ATOM     11  C   UNL     1       4.657   2.550  -1.629  1.00  0.00     0.006 A 
ATOM     12  C   UNL     1       3.293   3.572   0.094  1.00  0.00     0.006 A 
ATOM     13  C   UNL     1       4.323   3.672  -0.855  1.00  0.00    -0.029 A 
BRANCH  13  14
ATOM     14  C   UNL     1       5.018   4.984  -1.093  1.00  0.00     0.152 C 
BRANCH  14  15
ATOM     15  N   UNL     1       6.420   4.943  -0.739  1.00  0.00    -0.348 N 
ATOM     16  C   UNL     1       7.515   5.248  -1.507  1.00  0.00     0.252 C 
ATOM     17  H   UNL     1       6.616   4.657   0.182  1.00  0.00     0.164 HD
ATOM     18  O   UNL     1       8.643   5.218  -1.030  1.00  0.00    -0.269 OA
BRANCH  16  19
ATOM     19  C   UNL     1       7.346   5.523  -2.947  1.00  0.00     0.053 A 
ATOM     20  C   UNL     1       7.823   4.531  -3.818  1.00  0.00     0.015 A 
ATOM     21  C   UNL     1       6.774   6.691  -3.464  1.00  0.00     0.026 A 
ATOM     22  C   UNL     1       7.671   4.675  -5.197  1.00  0.00     0.001 A 
ATOM     23  C   UNL     1       6.598   6.815  -4.849  1.00  0.00     0.015 A 
ATOM     24  I   UNL     1       6.213   8.330  -2.282  1.00  0.00    -0.043 I 
ATOM     25  C   UNL     1       7.040   5.806  -5.709  1.00  0.00     0.001 A 
ENDBRANCH  16  19
ENDBRANCH  14  15
ENDBRANCH  13  14
ENDBRANCH   6   8
ENDBRANCH   3   4
ENDBRANCH   2   3
ENDBRANCH   1   2
BRANCH   1  26
ATOM     26  C   UNL     1       4.671  -4.280   0.912  1.00  0.00     0.002 C 
BRANCH  26  27
ATOM     27  C   UNL     1       6.188  -4.352   0.718  1.00  0.00     0.021 C 
BRANCH  27  28
ATOM     28  C   UNL     1       7.000  -4.620   1.981  1.00  0.00     0.116 C 
BRANCH  28  29
ATOM     29  N   UNL     1       6.665  -5.890   2.604  1.00  0.00    -0.352 N 
ATOM     30  C   UNL     1       7.497  -6.888   3.048  1.00  0.00     0.251 C 
ATOM     31  H   UNL     1       5.703  -6.059   2.725  1.00  0.00     0.163 HD
ATOM     32  O   UNL     1       7.023  -7.958   3.420  1.00  0.00    -0.269 OA
BRANCH  30  33
ATOM     33  C   UNL     1       8.964  -6.687   3.055  1.00  0.00     0.039 A 
ATOM     34  C   UNL     1       9.786  -7.709   2.570  1.00  0.00     0.014 A 
ATOM     35  C   UNL     1       9.530  -5.507   3.545  1.00  0.00     0.014 A 
ATOM     36  C   UNL     1      11.170  -7.524   2.521  1.00  0.00     0.010 A 
ATOM     37  C   UNL     1      10.904  -5.300   3.438  1.00  0.00     0.010 A 
ATOM     38  C   UNL     1      11.739  -6.306   2.928  1.00  0.00    -0.014 A 
BRANCH  38  39
ATOM     39  C   UNL     1      13.199  -6.060   2.815  1.00  0.00     0.031 A 
ATOM     40  C   UNL     1      14.032  -5.844   4.049  1.00  0.00     0.074 A 
ATOM     41  C   UNL     1      13.760  -5.938   1.595  1.00  0.00     0.049 A 
ATOM     42  N   UNL     1      15.305  -5.557   4.144  1.00  0.00    -0.248 NA
ATOM     43  C   UNL     1      13.340  -5.938   5.345  1.00  0.00     0.031 C 
ATOM     44  C   UNL     1      13.044  -6.044   0.322  1.00  0.00     0.029 A 
ATOM     45  N   UNL     1      15.054  -5.667   1.226  1.00  0.00    -0.354 N 
ATOM     46  C   UNL     1      15.559  -5.398   5.501  1.00  0.00     0.074 A 
ATOM     47  C   UNL     1      14.302  -5.594   6.191  1.00  0.00     0.031 C 
ATOM     48  C   UNL     1      13.908  -5.838  -0.686  1.00  0.00     0.029 A 
ATOM     49  C   UNL     1      15.231  -5.565  -0.134  1.00  0.00     0.049 A 
ATOM     50  H   UNL     1      15.787  -5.557   1.874  1.00  0.00     0.167 HD
ATOM     51  C   UNL     1      16.736  -5.144   6.121  1.00  0.00     0.034 A 
ATOM     52  C   UNL     1      16.333  -5.281  -0.856  1.00  0.00     0.034 A 
ATOM     53  C   UNL     1      17.994  -5.006   5.439  1.00  0.00     0.049 A 
ATOM     54  C   UNL     1      17.639  -5.060  -0.142  1.00  0.00     0.074 A 
ATOM     55  C   UNL     1      19.255  -4.844   5.984  1.00  0.00     0.029 A 
ATOM     56  N   UNL     1      18.151  -5.011   4.061  1.00  0.00    -0.354 N 
ATOM     57  N   UNL     1      17.890  -5.084   1.144  1.00  0.00    -0.248 NA
ATOM     58  C   UNL     1      18.822  -4.812  -0.980  1.00  0.00     0.031 C 
ATOM     59  C   UNL     1      20.175  -4.742   4.935  1.00  0.00     0.029 A 
ATOM     60  C   UNL     1      19.488  -4.852   3.737  1.00  0.00     0.049 A 
ATOM     61  H   UNL     1      17.421  -5.113   3.410  1.00  0.00     0.167 HD
ATOM     62  C   UNL     1      19.261  -4.888   1.270  1.00  0.00     0.074 A 
ATOM     63  C   UNL     1      19.790  -4.769  -0.073  1.00  0.00     0.031 C 
ATOM     64  C   UNL     1      20.010  -4.796   2.396  1.00  0.00     0.034 A 
BRANCH  51  65
ATOM     65  C   UNL     1      16.731  -5.068   7.625  1.00  0.00     0.023 A 
ATOM     66  C   UNL     1      16.585  -6.254   8.375  1.00  0.00     0.012 A 
ATOM     67  C   UNL     1      16.927  -3.846   8.297  1.00  0.00     0.148 A 
ATOM     68  C   UNL     1      16.604  -6.221   9.768  1.00  0.00     0.002 A 
ATOM     69  C   UNL     1      16.984  -3.827   9.686  1.00  0.00     0.091 A 
ATOM     70  F   UNL     1      17.040  -2.726   7.569  1.00  0.00    -0.205 F 
ATOM     71  C   UNL     1      16.813  -5.011  10.423  1.00  0.00     0.022 A 
BRANCH  69  72
ATOM     72  S   UNL     1      17.323  -2.328  10.618  1.00  0.00     0.127 S 
ATOM     73  O   UNL     1      16.001  -2.010  11.156  1.00  0.00    -0.237 OA
ATOM     74  O   UNL     1      18.289  -2.793  11.614  1.00  0.00    -0.237 OA
ATOM     75  O   UNL     1      17.858  -1.374   9.657  1.00  0.00    -0.744 OA
ENDBRANCH  69  72
ENDBRANCH  51  65
BRANCH  52  76
ATOM     76  C   UNL     1      16.262  -5.274  -2.345  1.00  0.00     0.023 A 
ATOM     77  C   UNL     1      16.870  -6.320  -3.065  1.00  0.00     0.012 A 
ATOM     78  C   UNL     1      15.566  -4.271  -3.046  1.00  0.00     0.148 A 
ATOM     79  C   UNL     1      16.811  -6.353  -4.458  1.00  0.00     0.002 A 
ATOM     80  C   UNL     1      15.466  -4.338  -4.432  1.00  0.00     0.091 A 
ATOM     81  F   UNL     1      15.005  -3.276  -2.345  1.00  0.00    -0.205 F 
ATOM     82  C   UNL     1      16.101  -5.370  -5.141  1.00  0.00     0.022 A 
BRANCH  80  83
ATOM     83  S   UNL     1      14.457  -3.190  -5.377  1.00  0.00     0.127 S 
ATOM     84  O   UNL     1      15.469  -2.333  -5.987  1.00  0.00    -0.237 OA
ATOM     85  O   UNL     1      13.764  -4.084  -6.306  1.00  0.00    -0.237 OA
ATOM     86  O   UNL     1      13.581  -2.550  -4.404  1.00  0.00    -0.744 OA
ENDBRANCH  80  83
ENDBRANCH  52  76
BRANCH  64  87
ATOM     87  C   UNL     1      21.492  -4.581   2.235  1.00  0.00     0.023 A 
ATOM     88  C   UNL     1      21.972  -3.314   1.849  1.00  0.00     0.012 A 
ATOM     89  C   UNL     1      22.409  -5.605   2.542  1.00  0.00     0.148 A 
ATOM     90  C   UNL     1      23.342  -3.077   1.746  1.00  0.00     0.002 A 
ATOM     91  C   UNL     1      23.774  -5.349   2.480  1.00  0.00     0.091 A 
ATOM     92  F   UNL     1      21.931  -6.810   2.886  1.00  0.00    -0.205 F 
ATOM     93  C   UNL     1      24.242  -4.089   2.073  1.00  0.00     0.022 A 
BRANCH  91  94
ATOM     94  S   UNL     1      25.000  -6.567   2.971  1.00  0.00     0.127 S 
ATOM     95  O   UNL     1      25.494  -7.032   1.676  1.00  0.00    -0.237 OA
ATOM     96  O   UNL     1      25.954  -5.761   3.734  1.00  0.00    -0.237 OA
ATOM     97  O   UNL     1      24.282  -7.557   3.763  1.00  0.00    -0.744 OA
ENDBRANCH  91  94
ENDBRANCH  64  87
ENDBRANCH  38  39
ENDBRANCH  30  33
ENDBRANCH  28  29
ENDBRANCH  27  28
ENDBRANCH  26  27
ENDBRANCH   1  26
TORSDOF 19
