REMARK SMILES O=C(NCCCCCCNC(=O)c1nn(Cc2ccc(F)cc2)c2c1CN(C(=O)[C@H]1CC1(F)F)CC2)c1ccc(-c2c3nc(c(-c4cccc(S(=O)(=O)[O-])c4F)c4ccc([nH]4)c(-c4cccc(S(=O)(=O)[O-])c4F)c4nc(c(-c5cccc(S(=O)(=O)[O-])c5F)c5ccc2[nH]5)C=C4)C=C3)cc1
REMARK SMILES IDX 6 1 5 2 4 3 3 4 1 5 2 6 37 8 38 9 99 10 39 11 98 12 40 13
REMARK SMILES IDX 41 14 42 15 92 16 43 17 97 18 91 19 93 20 44 21 96 22 90 23
REMARK SMILES IDX 89 24 45 26 77 27 57 28 76 29 58 30 61 31 75 32 94 33 59 34
REMARK SMILES IDX 60 35 74 37 95 38 62 39 46 40 47 41 55 42 48 43 50 44 56 45
REMARK SMILES IDX 49 46 51 47 52 48 53 49 54 50 78 51 79 52 87 53 80 54 82 55
REMARK SMILES IDX 88 56 81 57 83 58 84 59 85 60 86 61 63 62 64 63 72 64 65 65
REMARK SMILES IDX 67 66 73 67 66 68 68 69 69 70 70 71 71 72 7 73 8 74 9 75
REMARK SMILES IDX 10 76 11 77 12 79 13 80 14 81 25 82 15 83 24 84 26 85 36 86
REMARK SMILES IDX 27 87 35 88 16 89 17 90 18 91 23 92 19 93 22 94 20 95 21 96
REMARK SMILES IDX 28 97 29 98 30 99 31 100 32 101 33 102 34 103
REMARK H PARENT 3 7 93 25 61 36 10 78
REMARK Flexibility Score: inf
ROOT
ATOM      1  C   UNL     1      10.451   8.001  21.551  1.00  0.00     0.002 C 
ENDROOT
BRANCH   1   2
ATOM      2  C   UNL     1      10.255   9.523  21.477  1.00  0.00     0.021 C 
BRANCH   2   3
ATOM      3  C   UNL     1       8.805   9.994  21.386  1.00  0.00     0.116 C 
BRANCH   3   4
ATOM      4  N   UNL     1       7.993   9.677  22.542  1.00  0.00    -0.352 N 
ATOM      5  O   UNL     1       6.810   9.778  24.396  1.00  0.00    -0.269 OA
ATOM      6  C   UNL     1       7.722  10.287  23.737  1.00  0.00     0.251 C 
ATOM      7  H   UNL     1       7.524   8.816  22.446  1.00  0.00     0.163 HD
BRANCH   6   8
ATOM      8  C   UNL     1       8.476  11.432  24.322  1.00  0.00     0.039 A 
ATOM      9  C   UNL     1       9.303  12.318  23.630  1.00  0.00     0.014 A 
ATOM     10  C   UNL     1       8.320  11.613  25.712  1.00  0.00     0.014 A 
ATOM     11  C   UNL     1      10.012  13.305  24.323  1.00  0.00     0.010 A 
ATOM     12  C   UNL     1       9.026  12.592  26.407  1.00  0.00     0.010 A 
ATOM     13  C   UNL     1       9.898  13.425  25.716  1.00  0.00    -0.014 A 
BRANCH  13  14
ATOM     14  C   UNL     1      10.493  14.592  26.379  1.00  0.00     0.031 A 
ATOM     15  C   UNL     1       9.857  15.876  25.962  1.00  0.00     0.074 A 
ATOM     16  C   UNL     1      11.412  14.547  27.371  1.00  0.00     0.049 A 
ATOM     17  N   UNL     1      10.396  16.839  25.288  1.00  0.00    -0.248 NA
ATOM     18  C   UNL     1       8.409  16.035  26.170  1.00  0.00     0.031 C 
ATOM     19  C   UNL     1      11.910  13.360  28.071  1.00  0.00     0.029 A 
ATOM     20  N   UNL     1      12.023  15.571  28.048  1.00  0.00    -0.354 N 
ATOM     21  C   UNL     1       9.418  17.831  25.201  1.00  0.00     0.074 A 
ATOM     22  C   UNL     1       8.180  17.207  25.576  1.00  0.00     0.031 C 
ATOM     23  C   UNL     1      12.547  13.737  29.205  1.00  0.00     0.029 A 
ATOM     24  C   UNL     1      12.625  15.187  29.251  1.00  0.00     0.049 A 
ATOM     25  H   UNL     1      12.036  16.497  27.717  1.00  0.00     0.167 HD
ATOM     26  C   UNL     1       9.761  19.143  25.075  1.00  0.00     0.034 A 
ATOM     27  C   UNL     1      13.104  15.999  30.232  1.00  0.00     0.034 A 
ATOM     28  C   UNL     1      11.133  19.276  24.652  1.00  0.00     0.049 A 
ATOM     29  C   UNL     1      13.358  17.317  29.617  1.00  0.00     0.074 A 
ATOM     30  C   UNL     1      11.871  18.894  23.551  1.00  0.00     0.029 A 
ATOM     31  N   UNL     1      12.036  19.574  25.639  1.00  0.00    -0.354 N 
ATOM     32  N   UNL     1      14.285  17.533  28.731  1.00  0.00    -0.248 NA
ATOM     33  C   UNL     1      12.315  18.322  29.706  1.00  0.00     0.031 C 
ATOM     34  C   UNL     1      13.157  18.560  24.068  1.00  0.00     0.029 A 
ATOM     35  C   UNL     1      13.159  18.824  25.440  1.00  0.00     0.049 A 
ATOM     36  H   UNL     1      11.899  20.220  26.369  1.00  0.00     0.167 HD
ATOM     37  C   UNL     1      13.688  18.408  27.838  1.00  0.00     0.074 A 
ATOM     38  C   UNL     1      12.537  18.956  28.553  1.00  0.00     0.031 C 
ATOM     39  C   UNL     1      14.014  18.371  26.514  1.00  0.00     0.034 A 
BRANCH  26  40
ATOM     40  C   UNL     1       9.032  20.308  25.727  1.00  0.00     0.023 A 
ATOM     41  C   UNL     1       9.557  21.602  25.487  1.00  0.00     0.012 A 
ATOM     42  C   UNL     1       8.076  20.199  26.763  1.00  0.00     0.148 A 
ATOM     43  C   UNL     1       9.218  22.701  26.285  1.00  0.00     0.002 A 
ATOM     44  C   UNL     1       7.685  21.310  27.506  1.00  0.00     0.091 A 
ATOM     45  F   UNL     1       7.614  19.004  27.131  1.00  0.00    -0.205 F 
ATOM     46  C   UNL     1       8.280  22.555  27.296  1.00  0.00     0.022 A 
BRANCH  44  47
ATOM     47  S   UNL     1       6.438  21.200  28.798  1.00  0.00     0.127 S 
ATOM     48  O   UNL     1       7.236  21.436  29.997  1.00  0.00    -0.237 OA
ATOM     49  O   UNL     1       5.536  22.291  28.428  1.00  0.00    -0.237 OA
ATOM     50  O   UNL     1       5.852  19.871  28.674  1.00  0.00    -0.744 OA
ENDBRANCH  44  47
ENDBRANCH  26  40
BRANCH  27  51
ATOM     51  C   UNL     1      13.122  15.859  31.715  1.00  0.00     0.023 A 
ATOM     52  C   UNL     1      13.913  16.737  32.493  1.00  0.00     0.012 A 
ATOM     53  C   UNL     1      12.118  15.121  32.375  1.00  0.00     0.148 A 
ATOM     54  C   UNL     1      13.673  16.917  33.863  1.00  0.00     0.002 A 
ATOM     55  C   UNL     1      11.878  15.309  33.735  1.00  0.00     0.091 A 
ATOM     56  F   UNL     1      11.337  14.310  31.651  1.00  0.00    -0.205 F 
ATOM     57  C   UNL     1      12.643  16.216  34.480  1.00  0.00     0.022 A 
BRANCH  55  58
ATOM     58  S   UNL     1      10.524  14.489  34.589  1.00  0.00     0.127 S 
ATOM     59  O   UNL     1      11.201  13.927  35.758  1.00  0.00    -0.237 OA
ATOM     60  O   UNL     1       9.631  15.608  34.878  1.00  0.00    -0.237 OA
ATOM     61  O   UNL     1      10.009  13.496  33.656  1.00  0.00    -0.744 OA
ENDBRANCH  55  58
ENDBRANCH  27  51
BRANCH  39  62
ATOM     62  C   UNL     1      15.239  17.596  26.101  1.00  0.00     0.023 A 
ATOM     63  C   UNL     1      15.345  16.196  26.240  1.00  0.00     0.012 A 
ATOM     64  C   UNL     1      16.220  18.285  25.369  1.00  0.00     0.148 A 
ATOM     65  C   UNL     1      16.411  15.502  25.659  1.00  0.00     0.002 A 
ATOM     66  C   UNL     1      17.241  17.585  24.743  1.00  0.00     0.091 A 
ATOM     67  F   UNL     1      16.105  19.617  25.260  1.00  0.00    -0.205 F 
ATOM     68  C   UNL     1      17.347  16.194  24.893  1.00  0.00     0.022 A 
BRANCH  66  69
ATOM     69  S   UNL     1      18.377  18.398  23.618  1.00  0.00     0.127 S 
ATOM     70  O   UNL     1      19.627  18.371  24.374  1.00  0.00    -0.237 OA
ATOM     71  O   UNL     1      18.345  17.514  22.452  1.00  0.00    -0.237 OA
ATOM     72  O   UNL     1      17.823  19.725  23.373  1.00  0.00    -0.744 OA
ENDBRANCH  66  69
ENDBRANCH  39  62
ENDBRANCH  13  14
ENDBRANCH   6   8
ENDBRANCH   3   4
ENDBRANCH   2   3
ENDBRANCH   1   2
BRANCH   1  73
ATOM     73  C   UNL     1       9.880   7.175  20.390  1.00  0.00     0.002 C 
BRANCH  73  74
ATOM     74  C   UNL     1      10.355   7.562  18.984  1.00  0.00     0.021 C 
BRANCH  74  75
ATOM     75  C   UNL     1      11.853   7.378  18.715  1.00  0.00     0.116 C 
BRANCH  75  76
ATOM     76  N   UNL     1      12.216   5.971  18.624  1.00  0.00    -0.351 N 
ATOM     77  C   UNL     1      12.719   5.258  17.553  1.00  0.00     0.272 C 
ATOM     78  H   UNL     1      12.084   5.449  19.449  1.00  0.00     0.163 HD
ATOM     79  O   UNL     1      12.723   4.027  17.624  1.00  0.00    -0.267 OA
BRANCH  77  80
ATOM     80  C   UNL     1      13.189   5.957  16.344  1.00  0.00     0.155 A 
ATOM     81  N   UNL     1      13.820   7.149  16.385  1.00  0.00    -0.167 NA
ATOM     82  C   UNL     1      13.117   5.486  15.002  1.00  0.00     0.026 A 
ATOM     83  N   UNL     1      14.022   7.491  15.095  1.00  0.00    -0.264 N 
ATOM     84  C   UNL     1      13.578   6.538  14.233  1.00  0.00     0.046 A 
ATOM     85  C   UNL     1      12.591   4.205  14.436  1.00  0.00     0.159 C 
ATOM     86  C   UNL     1      13.567   6.566  12.749  1.00  0.00     0.078 C 
ATOM     87  N   UNL     1      12.794   4.214  12.965  1.00  0.00    -0.337 N 
ATOM     88  C   UNL     1      12.556   5.500  12.277  1.00  0.00     0.126 C 
BRANCH  83  89
ATOM     89  C   UNL     1      14.723   8.730  14.779  1.00  0.00     0.180 C 
BRANCH  89  90
ATOM     90  C   UNL     1      13.876   9.946  15.066  1.00  0.00    -0.026 A 
ATOM     91  C   UNL     1      13.755  10.419  16.384  1.00  0.00     0.008 A 
ATOM     92  C   UNL     1      13.193  10.613  14.036  1.00  0.00     0.008 A 
ATOM     93  C   UNL     1      12.969  11.535  16.669  1.00  0.00     0.039 A 
ATOM     94  C   UNL     1      12.410  11.732  14.324  1.00  0.00     0.039 A 
ATOM     95  C   UNL     1      12.304  12.181  15.636  1.00  0.00     0.123 A 
ATOM     96  F   UNL     1      11.543  13.249  15.905  1.00  0.00    -0.207 F 
ENDBRANCH  89  90
ENDBRANCH  83  89
BRANCH  87  97
ATOM     97  C   UNL     1      13.202   3.050  12.331  1.00  0.00     0.232 C 
ATOM     98  O   UNL     1      13.364   1.977  12.909  1.00  0.00    -0.274 OA
BRANCH  97  99
ATOM     99  C   UNL     1      13.389   3.115  10.867  1.00  0.00     0.154 C 
ATOM    100  C   UNL     1      14.615   3.798  10.278  1.00  0.00     0.097 C 
ATOM    101  C   UNL     1      14.447   2.329  10.189  1.00  0.00     0.260 C 
ATOM    102  F   UNL     1      15.343   1.521  10.845  1.00  0.00    -0.206 F 
ATOM    103  F   UNL     1      14.220   1.767   8.951  1.00  0.00    -0.206 F 
ENDBRANCH  97  99
ENDBRANCH  87  97
ENDBRANCH  77  80
ENDBRANCH  75  76
ENDBRANCH  74  75
ENDBRANCH  73  74
ENDBRANCH   1  73
TORSDOF 20
