REMARK SMILES O=C(NCCCCCCNC(=O)[C@@H]1C=C[C@@H](Nc2ccc3ccccc3n2)C1)c1ccc(-c2c3nc(c(-c4cccc(S(=O)(=O)[O-])c4F)c4ccc([nH]4)c(-c4cccc(S(=O)(=O)[O-])c4F)c4nc(c(-c5cccc(S(=O)(=O)[O-])c5F)c5ccc2[nH]5)C=C4)C=C3)cc1
REMARK SMILES IDX 6 1 5 2 4 3 3 4 1 5 2 6 29 8 30 9 91 10 31 11 90 12 32 13
REMARK SMILES IDX 33 14 34 15 84 16 35 17 89 18 83 19 85 20 36 21 88 22 82 23
REMARK SMILES IDX 81 24 37 26 69 27 49 28 68 29 50 30 53 31 67 32 86 33 51 34
REMARK SMILES IDX 52 35 66 37 87 38 54 39 38 40 39 41 47 42 40 43 42 44 48 45
REMARK SMILES IDX 41 46 43 47 44 48 45 49 46 50 70 51 71 52 79 53 72 54 74 55
REMARK SMILES IDX 80 56 73 57 75 58 76 59 77 60 78 61 55 62 56 63 64 64 57 65
REMARK SMILES IDX 59 66 65 67 58 68 60 69 61 70 62 71 63 72 7 73 8 74 9 75
REMARK SMILES IDX 10 76 11 77 12 79 13 80 14 81 28 82 15 83 16 84 17 85 18 87
REMARK SMILES IDX 19 88 27 89 20 90 26 91 21 92 25 93 22 94 24 95 23 96
REMARK H PARENT 3 7 85 25 53 36 10 78 17 86
REMARK Flexibility Score: inf
ROOT
ATOM      1  C   UNL     1       7.572   9.586  -2.228  1.00  0.00     0.002 C 
ENDROOT
BRANCH   1   2
ATOM      2  C   UNL     1       6.582  10.682  -1.829  1.00  0.00     0.021 C 
BRANCH   2   3
ATOM      3  C   UNL     1       7.102  12.100  -2.028  1.00  0.00     0.116 C 
BRANCH   3   4
ATOM      4  N   UNL     1       7.282  12.419  -3.433  1.00  0.00    -0.352 N 
ATOM      5  O   UNL     1       6.876  13.525  -5.354  1.00  0.00    -0.269 OA
ATOM      6  C   UNL     1       6.815  13.508  -4.127  1.00  0.00     0.251 C 
ATOM      7  H   UNL     1       7.806  11.770  -3.956  1.00  0.00     0.163 HD
BRANCH   6   8
ATOM      8  C   UNL     1       6.224  14.643  -3.386  1.00  0.00     0.039 A 
ATOM      9  C   UNL     1       6.855  15.148  -2.244  1.00  0.00     0.014 A 
ATOM     10  C   UNL     1       5.040  15.222  -3.849  1.00  0.00     0.014 A 
ATOM     11  C   UNL     1       6.252  16.163  -1.510  1.00  0.00     0.010 A 
ATOM     12  C   UNL     1       4.473  16.292  -3.151  1.00  0.00     0.010 A 
ATOM     13  C   UNL     1       5.069  16.764  -1.971  1.00  0.00    -0.014 A 
BRANCH  13  14
ATOM     14  C   UNL     1       4.554  17.971  -1.280  1.00  0.00     0.031 A 
ATOM     15  C   UNL     1       3.229  17.973  -0.573  1.00  0.00     0.074 A 
ATOM     16  C   UNL     1       5.303  19.092  -1.327  1.00  0.00     0.049 A 
ATOM     17  N   UNL     1       2.656  18.947   0.085  1.00  0.00    -0.248 NA
ATOM     18  C   UNL     1       2.439  16.732  -0.612  1.00  0.00     0.031 C 
ATOM     19  C   UNL     1       6.578  19.219  -2.040  1.00  0.00     0.029 A 
ATOM     20  N   UNL     1       5.103  20.334  -0.783  1.00  0.00    -0.354 N 
ATOM     21  C   UNL     1       1.426  18.457   0.505  1.00  0.00     0.074 A 
ATOM     22  C   UNL     1       1.334  17.092   0.031  1.00  0.00     0.031 C 
ATOM     23  C   UNL     1       7.049  20.464  -1.883  1.00  0.00     0.029 A 
ATOM     24  C   UNL     1       6.092  21.236  -1.101  1.00  0.00     0.049 A 
ATOM     25  H   UNL     1       4.327  20.559  -0.220  1.00  0.00     0.167 HD
ATOM     26  C   UNL     1       0.471  19.087   1.230  1.00  0.00     0.034 A 
ATOM     27  C   UNL     1       6.207  22.546  -0.816  1.00  0.00     0.034 A 
ATOM     28  C   UNL     1       0.591  20.432   1.731  1.00  0.00     0.049 A 
ATOM     29  C   UNL     1       5.142  23.203   0.013  1.00  0.00     0.074 A 
ATOM     30  C   UNL     1      -0.277  21.119   2.562  1.00  0.00     0.029 A 
ATOM     31  N   UNL     1       1.631  21.300   1.436  1.00  0.00    -0.354 N 
ATOM     32  N   UNL     1       4.071  22.669   0.548  1.00  0.00    -0.248 NA
ATOM     33  C   UNL     1       5.311  24.634   0.298  1.00  0.00     0.031 C 
ATOM     34  C   UNL     1       0.225  22.411   2.749  1.00  0.00     0.029 A 
ATOM     35  C   UNL     1       1.415  22.523   2.049  1.00  0.00     0.049 A 
ATOM     36  H   UNL     1       2.408  21.079   0.874  1.00  0.00     0.167 HD
ATOM     37  C   UNL     1       3.445  23.694   1.245  1.00  0.00     0.074 A 
ATOM     38  C   UNL     1       4.278  24.870   1.095  1.00  0.00     0.031 C 
ATOM     39  C   UNL     1       2.273  23.672   1.924  1.00  0.00     0.034 A 
BRANCH  26  40
ATOM     40  C   UNL     1      -0.783  18.329   1.577  1.00  0.00     0.023 A 
ATOM     41  C   UNL     1      -0.750  17.370   2.609  1.00  0.00     0.012 A 
ATOM     42  C   UNL     1      -2.013  18.652   0.970  1.00  0.00     0.148 A 
ATOM     43  C   UNL     1      -1.921  16.738   3.026  1.00  0.00     0.002 A 
ATOM     44  C   UNL     1      -3.181  18.042   1.414  1.00  0.00     0.091 A 
ATOM     45  F   UNL     1      -2.018  19.555  -0.021  1.00  0.00    -0.205 F 
ATOM     46  C   UNL     1      -3.135  17.081   2.438  1.00  0.00     0.022 A 
BRANCH  44  47
ATOM     47  S   UNL     1      -4.806  18.465   0.774  1.00  0.00     0.127 S 
ATOM     48  O   UNL     1      -5.173  17.237   0.070  1.00  0.00    -0.237 OA
ATOM     49  O   UNL     1      -5.563  18.714   2.000  1.00  0.00    -0.237 OA
ATOM     50  O   UNL     1      -4.614  19.633  -0.073  1.00  0.00    -0.744 OA
ENDBRANCH  44  47
ENDBRANCH  26  40
BRANCH  27  51
ATOM     51  C   UNL     1       7.391  23.308  -1.300  1.00  0.00     0.023 A 
ATOM     52  C   UNL     1       8.347  23.769  -0.375  1.00  0.00     0.012 A 
ATOM     53  C   UNL     1       7.595  23.544  -2.673  1.00  0.00     0.148 A 
ATOM     54  C   UNL     1       9.470  24.475  -0.808  1.00  0.00     0.002 A 
ATOM     55  C   UNL     1       8.746  24.193  -3.102  1.00  0.00     0.091 A 
ATOM     56  F   UNL     1       6.664  23.119  -3.540  1.00  0.00    -0.205 F 
ATOM     57  C   UNL     1       9.677  24.675  -2.171  1.00  0.00     0.022 A 
BRANCH  55  58
ATOM     58  S   UNL     1       9.143  24.346  -4.847  1.00  0.00     0.127 S 
ATOM     59  O   UNL     1       8.678  25.696  -5.145  1.00  0.00    -0.237 OA
ATOM     60  O   UNL     1      10.598  24.180  -4.852  1.00  0.00    -0.237 OA
ATOM     61  O   UNL     1       8.422  23.257  -5.495  1.00  0.00    -0.744 OA
ENDBRANCH  55  58
ENDBRANCH  27  51
BRANCH  39  62
ATOM     62  C   UNL     1       1.822  24.959   2.559  1.00  0.00     0.023 A 
ATOM     63  C   UNL     1       1.323  25.994   1.743  1.00  0.00     0.012 A 
ATOM     64  C   UNL     1       1.837  25.125   3.957  1.00  0.00     0.148 A 
ATOM     65  C   UNL     1       0.876  27.187   2.307  1.00  0.00     0.002 A 
ATOM     66  C   UNL     1       1.347  26.299   4.515  1.00  0.00     0.091 A 
ATOM     67  F   UNL     1       2.336  24.136   4.713  1.00  0.00    -0.205 F 
ATOM     68  C   UNL     1       0.877  27.336   3.692  1.00  0.00     0.022 A 
BRANCH  66  69
ATOM     69  S   UNL     1       1.230  26.541   6.291  1.00  0.00     0.127 S 
ATOM     70  O   UNL     1       2.333  27.468   6.539  1.00  0.00    -0.237 OA
ATOM     71  O   UNL     1      -0.103  27.126   6.439  1.00  0.00    -0.237 OA
ATOM     72  O   UNL     1       1.377  25.219   6.884  1.00  0.00    -0.744 OA
ENDBRANCH  66  69
ENDBRANCH  39  62
ENDBRANCH  13  14
ENDBRANCH   6   8
ENDBRANCH   3   4
ENDBRANCH   2   3
ENDBRANCH   1   2
BRANCH   1  73
ATOM     73  C   UNL     1       8.914   9.627  -1.488  1.00  0.00     0.002 C 
BRANCH  73  74
ATOM     74  C   UNL     1       8.813   9.647   0.043  1.00  0.00     0.021 C 
BRANCH  74  75
ATOM     75  C   UNL     1       8.041   8.465   0.630  1.00  0.00     0.116 C 
BRANCH  75  76
ATOM     76  N   UNL     1       8.756   7.227   0.389  1.00  0.00    -0.356 N 
ATOM     77  C   UNL     1       9.376   6.406   1.285  1.00  0.00     0.227 C 
ATOM     78  H   UNL     1       8.801   6.939  -0.551  1.00  0.00     0.163 HD
ATOM     79  O   UNL     1      10.083   5.498   0.847  1.00  0.00    -0.274 OA
BRANCH  77  80
ATOM     80  C   UNL     1       9.117   6.619   2.777  1.00  0.00     0.103 C 
ATOM     81  C   UNL     1       9.937   7.731   3.362  1.00  0.00    -0.016 C 
ATOM     82  C   UNL     1       9.554   5.403   3.607  1.00  0.00     0.046 C 
ATOM     83  C   UNL     1      10.874   7.277   4.200  1.00  0.00    -0.006 C 
ATOM     84  C   UNL     1      10.879   5.789   4.284  1.00  0.00     0.104 C 
BRANCH  84  85
ATOM     85  N   UNL     1      10.826   5.377   5.660  1.00  0.00    -0.364 N 
ATOM     86  H   UNL     1      10.036   5.592   6.206  1.00  0.00     0.162 HD
BRANCH  85  87
ATOM     87  C   UNL     1      11.875   4.683   6.215  1.00  0.00     0.127 A 
ATOM     88  C   UNL     1      11.601   3.517   6.916  1.00  0.00     0.047 A 
ATOM     89  N   UNL     1      13.133   5.123   6.026  1.00  0.00    -0.231 NA
ATOM     90  C   UNL     1      12.653   2.767   7.428  1.00  0.00     0.014 A 
ATOM     91  C   UNL     1      14.153   4.431   6.565  1.00  0.00     0.073 A 
ATOM     92  C   UNL     1      13.961   3.225   7.267  1.00  0.00     0.000 A 
ATOM     93  C   UNL     1      15.450   4.914   6.441  1.00  0.00     0.029 A 
ATOM     94  C   UNL     1      15.059   2.520   7.789  1.00  0.00     0.010 A 
ATOM     95  C   UNL     1      16.544   4.229   6.978  1.00  0.00     0.002 A 
ATOM     96  C   UNL     1      16.349   3.025   7.645  1.00  0.00     0.001 A 
ENDBRANCH  85  87
ENDBRANCH  84  85
ENDBRANCH  77  80
ENDBRANCH  75  76
ENDBRANCH  74  75
ENDBRANCH  73  74
ENDBRANCH   1  73
TORSDOF 18
