REMARK SMILES Cc1ccccc1[C@@H]1[NH2+][C@@H](C(=O)NCCCCCCNC(=O)c2ccc(-c3c4nc(c(-c5cccc(S(=O)(=O)[O-])c5F)c5ccc([nH]5)c(-c5cccc(S(=O)(=O)[O-])c5F)c5nc(c(-c6cccc(S(=O)(=O)[O-])c6F)c6ccc3[nH]6)C=C5)C=C4)cc2)CC2=c3ccccc3=N[C@H]21
REMARK SMILES IDX 17 1 16 2 15 3 14 4 13 5 11 6 12 7 10 9 8 10 9 11 95 12
REMARK SMILES IDX 87 15 94 16 86 17 88 18 93 19 89 20 92 21 90 22 91 23 7 24
REMARK SMILES IDX 1 25 2 26 3 27 4 28 6 29 5 30 18 31 19 32 20 33 21 34 22 36
REMARK SMILES IDX 23 37 24 38 85 39 25 40 84 41 26 42 27 43 28 44 78 45 29 46
REMARK SMILES IDX 83 47 77 48 79 49 30 50 82 51 76 52 75 53 31 55 63 56 43 57
REMARK SMILES IDX 62 58 44 59 47 60 61 61 80 62 45 63 46 64 60 66 81 67 48 68
REMARK SMILES IDX 32 69 33 70 41 71 34 72 36 73 42 74 35 75 37 76 38 77 39 78
REMARK SMILES IDX 40 79 64 80 65 81 73 82 66 83 68 84 74 85 67 86 69 87 70 88
REMARK SMILES IDX 71 89 72 90 49 91 50 92 58 93 51 94 53 95 59 96 52 97 54 98
REMARK SMILES IDX 55 99 56 100 57 101
REMARK H PARENT 13 8 9 13 9 14 20 35 79 54 47 65
REMARK Flexibility Score: inf
ROOT
ATOM      1  C   UNL     1      -5.977   7.818  -0.717  1.00  0.00     0.002 C 
ENDROOT
BRANCH   1   2
ATOM      2  C   UNL     1      -4.473   7.803  -1.045  1.00  0.00     0.002 C 
BRANCH   2   3
ATOM      3  C   UNL     1      -3.576   6.927  -0.162  1.00  0.00     0.021 C 
BRANCH   3   4
ATOM      4  C   UNL     1      -4.022   5.472  -0.028  1.00  0.00     0.116 C 
BRANCH   4   5
ATOM      5  N   UNL     1      -3.565   4.579  -1.074  1.00  0.00    -0.351 N 
ATOM      6  C   UNL     1      -2.475   3.760  -1.144  1.00  0.00     0.278 C 
ATOM      7  O   UNL     1      -2.619   2.745  -1.843  1.00  0.00    -0.268 OA
ATOM      8  H   UNL     1      -4.140   4.560  -1.873  1.00  0.00     0.163 HD
BRANCH   6   9
ATOM      9  C   UNL     1      -1.065   4.118  -0.564  1.00  0.00     0.277 C 
ATOM     10  C   UNL     1       0.655   2.402   0.333  1.00  0.00     0.243 C 
ATOM     11  N   UNL     1      -0.134   2.961  -0.798  1.00  0.00    -0.327 N 
ATOM     12  C   UNL     1       0.605   3.099   1.731  1.00  0.00     0.196 C 
ATOM     13  H   UNL     1      -0.699   2.198  -1.169  1.00  0.00     0.347 HD
ATOM     14  H   UNL     1       0.581   3.355  -1.410  1.00  0.00     0.347 HD
ATOM     15  C   UNL     1      -0.726   3.755   1.867  1.00  0.00    -0.024 C 
ATOM     16  N   UNL     1       0.665   2.115   2.854  1.00  0.00    -0.270 NA
ATOM     17  C   UNL     1      -0.989   4.764   0.820  1.00  0.00     0.109 C 
ATOM     18  C   UNL     1      -1.441   3.224   2.848  1.00  0.00     0.002 A 
ATOM     19  C   UNL     1      -0.486   2.266   3.435  1.00  0.00     0.066 A 
ATOM     20  C   UNL     1      -2.779   3.333   3.324  1.00  0.00     0.010 A 
ATOM     21  C   UNL     1      -0.938   1.550   4.645  1.00  0.00     0.028 A 
ATOM     22  C   UNL     1      -3.151   2.581   4.373  1.00  0.00     0.001 A 
ATOM     23  C   UNL     1      -2.203   1.720   5.062  1.00  0.00     0.002 A 
BRANCH  10  24
ATOM     24  C   UNL     1       2.117   2.171  -0.076  1.00  0.00     0.015 A 
ATOM     25  C   UNL     1       2.682   4.672  -0.366  1.00  0.00     0.045 C 
ATOM     26  C   UNL     1       3.046   3.213  -0.317  1.00  0.00    -0.042 A 
ATOM     27  C   UNL     1       4.410   2.897  -0.456  1.00  0.00     0.004 A 
ATOM     28  C   UNL     1       4.853   1.576  -0.439  1.00  0.00     0.000 A 
ATOM     29  C   UNL     1       2.582   0.840  -0.118  1.00  0.00     0.010 A 
ATOM     30  C   UNL     1       3.934   0.545  -0.300  1.00  0.00     0.001 A 
ENDBRANCH  10  24
ENDBRANCH   6   9
ENDBRANCH   4   5
ENDBRANCH   3   4
ENDBRANCH   2   3
ENDBRANCH   1   2
BRANCH   1  31
ATOM     31  C   UNL     1      -6.359   7.920   0.761  1.00  0.00     0.021 C 
BRANCH  31  32
ATOM     32  C   UNL     1      -5.937   9.218   1.430  1.00  0.00     0.116 C 
BRANCH  32  33
ATOM     33  N   UNL     1      -6.987  10.217   1.471  1.00  0.00    -0.352 N 
ATOM     34  C   UNL     1      -7.040  11.405   2.173  1.00  0.00     0.251 C 
ATOM     35  H   UNL     1      -7.777  10.020   0.917  1.00  0.00     0.163 HD
ATOM     36  O   UNL     1      -8.143  11.925   2.350  1.00  0.00    -0.269 OA
BRANCH  34  37
ATOM     37  C   UNL     1      -5.791  12.119   2.548  1.00  0.00     0.039 A 
ATOM     38  C   UNL     1      -5.777  13.514   2.393  1.00  0.00     0.014 A 
ATOM     39  C   UNL     1      -4.595  11.443   2.757  1.00  0.00     0.014 A 
ATOM     40  C   UNL     1      -4.576  14.174   2.146  1.00  0.00     0.010 A 
ATOM     41  C   UNL     1      -3.419  12.064   2.419  1.00  0.00     0.010 A 
ATOM     42  C   UNL     1      -3.428  13.406   2.030  1.00  0.00    -0.014 A 
BRANCH  42  43
ATOM     43  C   UNL     1      -2.147  13.859   1.530  1.00  0.00     0.031 A 
ATOM     44  C   UNL     1      -1.115  14.266   2.491  1.00  0.00     0.074 A 
ATOM     45  C   UNL     1      -1.828  13.503   0.266  1.00  0.00     0.049 A 
ATOM     46  N   UNL     1       0.050  14.691   2.156  1.00  0.00    -0.248 NA
ATOM     47  C   UNL     1      -1.330  14.224   3.930  1.00  0.00     0.031 C 
ATOM     48  C   UNL     1      -0.500  13.283  -0.287  1.00  0.00     0.029 A 
ATOM     49  N   UNL     1      -2.673  13.420  -0.844  1.00  0.00    -0.354 N 
ATOM     50  C   UNL     1       0.832  14.683   3.289  1.00  0.00     0.074 A 
ATOM     51  C   UNL     1      -0.103  14.510   4.374  1.00  0.00     0.031 C 
ATOM     52  C   UNL     1      -0.570  13.365  -1.623  1.00  0.00     0.029 A 
ATOM     53  C   UNL     1      -1.904  13.836  -1.948  1.00  0.00     0.049 A 
ATOM     54  H   UNL     1      -3.614  13.129  -0.853  1.00  0.00     0.167 HD
ATOM     55  C   UNL     1       2.187  14.682   3.130  1.00  0.00     0.034 A 
ATOM     56  C   UNL     1      -2.188  14.972  -2.655  1.00  0.00     0.034 A 
ATOM     57  C   UNL     1       2.539  14.894   1.710  1.00  0.00     0.049 A 
ATOM     58  C   UNL     1      -1.099  16.036  -2.530  1.00  0.00     0.074 A 
ATOM     59  C   UNL     1       2.981  14.098   0.665  1.00  0.00     0.029 A 
ATOM     60  N   UNL     1       2.155  16.088   1.128  1.00  0.00    -0.354 N 
ATOM     61  N   UNL     1       0.066  15.853  -1.966  1.00  0.00    -0.248 NA
ATOM     62  C   UNL     1      -1.282  17.422  -2.961  1.00  0.00     0.031 C 
ATOM     63  C   UNL     1       2.788  14.825  -0.557  1.00  0.00     0.029 A 
ATOM     64  C   UNL     1       2.265  16.070  -0.249  1.00  0.00     0.049 A 
ATOM     65  H   UNL     1       1.838  16.866   1.640  1.00  0.00     0.167 HD
ATOM     66  C   UNL     1       0.677  17.067  -1.770  1.00  0.00     0.074 A 
ATOM     67  C   UNL     1      -0.178  18.011  -2.470  1.00  0.00     0.031 C 
ATOM     68  C   UNL     1       1.789  17.238  -0.987  1.00  0.00     0.034 A 
BRANCH  55  69
ATOM     69  C   UNL     1       3.225  14.326   4.185  1.00  0.00     0.023 A 
ATOM     70  C   UNL     1       4.557  14.163   3.738  1.00  0.00     0.012 A 
ATOM     71  C   UNL     1       3.011  14.073   5.561  1.00  0.00     0.148 A 
ATOM     72  C   UNL     1       5.589  13.721   4.575  1.00  0.00     0.002 A 
ATOM     73  C   UNL     1       4.034  13.614   6.398  1.00  0.00     0.091 A 
ATOM     74  F   UNL     1       1.820  14.288   6.110  1.00  0.00    -0.205 F 
ATOM     75  C   UNL     1       5.325  13.430   5.904  1.00  0.00     0.022 A 
BRANCH  73  76
ATOM     76  S   UNL     1       3.756  13.190   8.131  1.00  0.00     0.127 S 
ATOM     77  O   UNL     1       4.157  11.782   8.165  1.00  0.00    -0.237 OA
ATOM     78  O   UNL     1       4.668  14.097   8.825  1.00  0.00    -0.237 OA
ATOM     79  O   UNL     1       2.341  13.417   8.396  1.00  0.00    -0.744 OA
ENDBRANCH  73  76
ENDBRANCH  55  69
BRANCH  56  80
ATOM     80  C   UNL     1      -3.660  15.220  -2.760  1.00  0.00     0.023 A 
ATOM     81  C   UNL     1      -4.405  14.259  -3.487  1.00  0.00     0.012 A 
ATOM     82  C   UNL     1      -4.332  16.042  -1.838  1.00  0.00     0.148 A 
ATOM     83  C   UNL     1      -5.744  14.011  -3.183  1.00  0.00     0.002 A 
ATOM     84  C   UNL     1      -5.670  15.788  -1.540  1.00  0.00     0.091 A 
ATOM     85  F   UNL     1      -3.632  16.980  -1.189  1.00  0.00    -0.205 F 
ATOM     86  C   UNL     1      -6.363  14.746  -2.179  1.00  0.00     0.022 A 
BRANCH  84  87
ATOM     87  S   UNL     1      -6.527  16.659  -0.222  1.00  0.00     0.127 S 
ATOM     88  O   UNL     1      -7.297  17.644  -0.975  1.00  0.00    -0.237 OA
ATOM     89  O   UNL     1      -7.319  15.594   0.390  1.00  0.00    -0.237 OA
ATOM     90  O   UNL     1      -5.471  17.184   0.632  1.00  0.00    -0.744 OA
ENDBRANCH  84  87
ENDBRANCH  56  80
BRANCH  68  91
ATOM     91  C   UNL     1       2.507  18.572  -0.837  1.00  0.00     0.023 A 
ATOM     92  C   UNL     1       2.673  19.416  -1.952  1.00  0.00     0.012 A 
ATOM     93  C   UNL     1       3.171  18.958   0.357  1.00  0.00     0.148 A 
ATOM     94  C   UNL     1       3.410  20.605  -1.875  1.00  0.00     0.002 A 
ATOM     95  C   UNL     1       3.993  20.080   0.398  1.00  0.00     0.091 A 
ATOM     96  F   UNL     1       2.970  18.274   1.487  1.00  0.00    -0.205 F 
ATOM     97  C   UNL     1       4.089  20.925  -0.707  1.00  0.00     0.022 A 
BRANCH  95  98
ATOM     98  S   UNL     1       5.058  20.438   1.805  1.00  0.00     0.127 S 
ATOM     99  O   UNL     1       6.360  20.609   1.155  1.00  0.00    -0.237 OA
ATOM    100  O   UNL     1       4.468  21.672   2.320  1.00  0.00    -0.237 OA
ATOM    101  O   UNL     1       4.972  19.279   2.681  1.00  0.00    -0.744 OA
ENDBRANCH  95  98
ENDBRANCH  68  91
ENDBRANCH  42  43
ENDBRANCH  34  37
ENDBRANCH  32  33
ENDBRANCH  31  32
ENDBRANCH   1  31
TORSDOF 17
