REMARK SMILES Cc1cccc(S(=O)(=O)Nc2cc(C(=O)NCCCCCCNC(=O)c3ccc(-c4c5nc(c(-c6cccc(S(=O)(=O)[O-])c6F)c6ccc([nH]6)c(-c6cccc(S(=O)(=O)[O-])c6F)c6nc(c(-c7cccc(S(=O)(=O)[O-])c7F)c7ccc4[nH]7)C=C6)C=C5)cc3)ccc2N2CCC[C@H](C[NH+]3CCCC3)C2)c1
REMARK SMILES IDX 19 1 18 2 17 3 16 4 14 5 15 6 13 8 11 9 12 10 91 11 90 12
REMARK SMILES IDX 89 13 10 14 7 16 8 17 9 18 6 19 1 20 2 21 3 22 104 23 4 24
REMARK SMILES IDX 5 25 92 26 93 27 103 28 94 29 96 30 95 31 97 32 98 33 99 34
REMARK SMILES IDX 102 35 100 37 101 38 20 39 21 40 22 41 23 42 24 43 25 45
REMARK SMILES IDX 26 46 27 47 88 48 28 49 87 50 29 51 30 52 31 53 81 54 32 55
REMARK SMILES IDX 86 56 80 57 82 58 33 59 85 60 79 61 78 62 34 64 66 65 46 66
REMARK SMILES IDX 65 67 47 68 50 69 64 70 83 71 48 72 49 73 63 75 84 76 51 77
REMARK SMILES IDX 35 78 36 79 44 80 37 81 39 82 45 83 38 84 40 85 41 86 42 87
REMARK SMILES IDX 43 88 67 89 68 90 76 91 69 92 71 93 77 94 70 95 72 96 73 97
REMARK SMILES IDX 74 98 75 99 52 100 53 101 61 102 54 103 56 104 62 105 55 106
REMARK SMILES IDX 57 107 58 108 59 109 60 110
REMARK H PARENT 16 7 10 15 98 36 23 44 82 63 50 74
REMARK Flexibility Score: inf
ROOT
ATOM      1  C   UNL     1       0.774   0.034  -5.287  1.00  0.00     0.002 C 
ENDROOT
BRANCH   1   2
ATOM      2  C   UNL     1       0.563   1.105  -4.211  1.00  0.00     0.021 C 
BRANCH   2   3
ATOM      3  C   UNL     1       1.211   0.746  -2.876  1.00  0.00     0.116 C 
BRANCH   3   4
ATOM      4  N   UNL     1       2.603   1.150  -2.850  1.00  0.00    -0.352 N 
ATOM      5  C   UNL     1       3.267   2.147  -2.185  1.00  0.00     0.251 C 
ATOM      6  O   UNL     1       4.491   2.208  -2.311  1.00  0.00    -0.269 OA
ATOM      7  H   UNL     1       3.186   0.600  -3.422  1.00  0.00     0.163 HD
BRANCH   5   8
ATOM      8  C   UNL     1       2.594   3.089  -1.250  1.00  0.00     0.042 A 
ATOM      9  C   UNL     1       0.651   4.149  -0.279  1.00  0.00     0.073 A 
ATOM     10  C   UNL     1       1.250   3.449  -1.328  1.00  0.00     0.042 A 
ATOM     11  C   UNL     1       1.421   4.702   0.765  1.00  0.00     0.061 A 
ATOM     12  C   UNL     1       2.794   4.433   0.767  1.00  0.00     0.029 A 
ATOM     13  C   UNL     1       3.368   3.609  -0.204  1.00  0.00     0.016 A 
BRANCH   9  14
ATOM     14  N   UNL     1      -0.772   4.278  -0.286  1.00  0.00    -0.277 N 
ATOM     15  H   UNL     1      -1.174   5.126  -0.582  1.00  0.00     0.180 HD
BRANCH  14  16
ATOM     16  S   UNL     1      -1.792   3.004   0.203  1.00  0.00     0.261 S 
ATOM     17  O   UNL     1      -2.789   2.906  -0.848  1.00  0.00    -0.201 OA
ATOM     18  O   UNL     1      -2.204   3.306   1.557  1.00  0.00    -0.201 OA
BRANCH  16  19
ATOM     19  C   UNL     1      -1.005   1.400   0.281  1.00  0.00     0.088 A 
ATOM     20  C   UNL     1       2.351  -0.295   0.875  1.00  0.00     0.044 C 
ATOM     21  C   UNL     1       0.883  -0.090   0.629  1.00  0.00    -0.050 A 
ATOM     22  C   UNL     1       0.099  -1.177   0.226  1.00  0.00     0.003 A 
ATOM     23  C   UNL     1       0.300   1.187   0.730  1.00  0.00     0.025 A 
ATOM     24  C   UNL     1      -1.236  -0.990  -0.120  1.00  0.00     0.002 A 
ATOM     25  C   UNL     1      -1.777   0.296  -0.118  1.00  0.00     0.022 A 
ENDBRANCH  16  19
ENDBRANCH  14  16
ENDBRANCH   9  14
BRANCH  11  26
ATOM     26  N   UNL     1       0.905   5.539   1.735  1.00  0.00    -0.369 N 
ATOM     27  C   UNL     1       1.158   6.972   1.611  1.00  0.00     0.116 C 
ATOM     28  C   UNL     1      -0.022   5.083   2.764  1.00  0.00     0.126 C 
ATOM     29  C   UNL     1       1.607   7.523   2.961  1.00  0.00     0.022 C 
ATOM     30  C   UNL     1       0.420   5.600   4.150  1.00  0.00     0.064 C 
ATOM     31  C   UNL     1       0.629   7.124   4.067  1.00  0.00     0.013 C 
BRANCH  30  32
ATOM     32  C   UNL     1       1.643   4.778   4.639  1.00  0.00     0.267 C 
BRANCH  32  33
ATOM     33  N   UNL     1       2.080   4.854   6.037  1.00  0.00    -0.335 N 
ATOM     34  C   UNL     1       1.050   4.573   7.034  1.00  0.00     0.262 C 
ATOM     35  C   UNL     1       2.768   6.080   6.433  1.00  0.00     0.262 C 
ATOM     36  H   UNL     1       2.760   4.094   6.038  1.00  0.00     0.348 HD
ATOM     37  C   UNL     1       0.634   5.928   7.568  1.00  0.00     0.067 C 
ATOM     38  C   UNL     1       1.906   6.753   7.496  1.00  0.00     0.067 C 
ENDBRANCH  32  33
ENDBRANCH  30  32
ENDBRANCH  11  26
ENDBRANCH   5   8
ENDBRANCH   3   4
ENDBRANCH   2   3
ENDBRANCH   1   2
BRANCH   1  39
ATOM     39  C   UNL     1       0.292  -1.381  -4.919  1.00  0.00     0.002 C 
BRANCH  39  40
ATOM     40  C   UNL     1      -1.080  -1.460  -4.243  1.00  0.00     0.021 C 
BRANCH  40  41
ATOM     41  C   UNL     1      -2.228  -1.059  -5.157  1.00  0.00     0.116 C 
BRANCH  41  42
ATOM     42  N   UNL     1      -2.787  -2.181  -5.888  1.00  0.00    -0.352 N 
ATOM     43  C   UNL     1      -3.775  -2.217  -6.862  1.00  0.00     0.251 C 
ATOM     44  H   UNL     1      -2.404  -3.057  -5.655  1.00  0.00     0.163 HD
ATOM     45  O   UNL     1      -4.207  -3.294  -7.211  1.00  0.00    -0.269 OA
BRANCH  43  46
ATOM     46  C   UNL     1      -4.171  -0.959  -7.553  1.00  0.00     0.039 A 
ATOM     47  C   UNL     1      -4.284  -1.001  -8.950  1.00  0.00     0.014 A 
ATOM     48  C   UNL     1      -4.201   0.264  -6.889  1.00  0.00     0.014 A 
ATOM     49  C   UNL     1      -4.147   0.175  -9.685  1.00  0.00     0.010 A 
ATOM     50  C   UNL     1      -3.985   1.418  -7.611  1.00  0.00     0.010 A 
ATOM     51  C   UNL     1      -3.874   1.355  -9.003  1.00  0.00    -0.014 A 
BRANCH  51  52
ATOM     52  C   UNL     1      -3.367   2.567  -9.623  1.00  0.00     0.031 A 
ATOM     53  C   UNL     1      -4.266   3.696  -9.899  1.00  0.00     0.074 A 
ATOM     54  C   UNL     1      -2.036   2.706  -9.790  1.00  0.00     0.049 A 
ATOM     55  N   UNL     1      -3.914   4.745 -10.555  1.00  0.00    -0.248 NA
ATOM     56  C   UNL     1      -5.662   3.703  -9.491  1.00  0.00     0.031 C 
ATOM     57  C   UNL     1      -1.270   3.932  -9.988  1.00  0.00     0.029 A 
ATOM     58  N   UNL     1      -1.108   1.703 -10.012  1.00  0.00    -0.354 N 
ATOM     59  C   UNL     1      -4.927   5.668 -10.451  1.00  0.00     0.074 A 
ATOM     60  C   UNL     1      -6.024   4.933  -9.867  1.00  0.00     0.031 C 
ATOM     61  C   UNL     1      -0.073   3.621 -10.512  1.00  0.00     0.029 A 
ATOM     62  C   UNL     1      -0.112   2.210 -10.854  1.00  0.00     0.049 A 
ATOM     63  H   UNL     1      -1.143   0.791  -9.642  1.00  0.00     0.167 HD
ATOM     64  C   UNL     1      -4.645   6.963 -10.768  1.00  0.00     0.034 A 
ATOM     65  C   UNL     1       0.023   1.714 -12.124  1.00  0.00     0.034 A 
ATOM     66  C   UNL     1      -3.334   7.066 -11.442  1.00  0.00     0.049 A 
ATOM     67  C   UNL     1      -0.229   2.732 -13.235  1.00  0.00     0.074 A 
ATOM     68  C   UNL     1      -2.063   7.486 -11.083  1.00  0.00     0.029 A 
ATOM     69  N   UNL     1      -3.185   6.426 -12.662  1.00  0.00    -0.354 N 
ATOM     70  N   UNL     1      -0.547   3.986 -13.055  1.00  0.00    -0.248 NA
ATOM     71  C   UNL     1      -0.222   2.367 -14.653  1.00  0.00     0.031 C 
ATOM     72  C   UNL     1      -1.150   7.070 -12.103  1.00  0.00     0.029 A 
ATOM     73  C   UNL     1      -1.870   6.423 -13.092  1.00  0.00     0.049 A 
ATOM     74  H   UNL     1      -3.928   6.020 -13.164  1.00  0.00     0.167 HD
ATOM     75  C   UNL     1      -0.960   4.529 -14.249  1.00  0.00     0.074 A 
ATOM     76  C   UNL     1      -0.695   3.486 -15.226  1.00  0.00     0.031 C 
ATOM     77  C   UNL     1      -1.564   5.755 -14.351  1.00  0.00     0.034 A 
BRANCH  64  78
ATOM     78  C   UNL     1      -5.433   8.184 -10.312  1.00  0.00     0.023 A 
ATOM     79  C   UNL     1      -4.813   9.445 -10.464  1.00  0.00     0.012 A 
ATOM     80  C   UNL     1      -6.689   8.200  -9.659  1.00  0.00     0.148 A 
ATOM     81  C   UNL     1      -5.355  10.624  -9.934  1.00  0.00     0.002 A 
ATOM     82  C   UNL     1      -7.219   9.367  -9.101  1.00  0.00     0.091 A 
ATOM     83  F   UNL     1      -7.425   7.096  -9.589  1.00  0.00    -0.205 F 
ATOM     84  C   UNL     1      -6.548  10.582  -9.231  1.00  0.00     0.022 A 
BRANCH  82  85
ATOM     85  S   UNL     1      -8.744   9.372  -8.137  1.00  0.00     0.127 S 
ATOM     86  O   UNL     1      -8.284   9.888  -6.846  1.00  0.00    -0.237 OA
ATOM     87  O   UNL     1      -9.590  10.293  -8.892  1.00  0.00    -0.237 OA
ATOM     88  O   UNL     1      -9.218   7.993  -8.096  1.00  0.00    -0.744 OA
ENDBRANCH  82  85
ENDBRANCH  64  78
BRANCH  65  89
ATOM     89  C   UNL     1      -0.328   0.256 -12.204  1.00  0.00     0.023 A 
ATOM     90  C   UNL     1       0.383  -0.632 -11.357  1.00  0.00     0.012 A 
ATOM     91  C   UNL     1      -1.528  -0.192 -12.784  1.00  0.00     0.148 A 
ATOM     92  C   UNL     1      -0.166  -1.856 -10.973  1.00  0.00     0.002 A 
ATOM     93  C   UNL     1      -2.053  -1.431 -12.422  1.00  0.00     0.091 A 
ATOM     94  F   UNL     1      -2.177   0.609 -13.639  1.00  0.00    -0.205 F 
ATOM     95  C   UNL     1      -1.400  -2.242 -11.481  1.00  0.00     0.022 A 
BRANCH  93  96
ATOM     96  S   UNL     1      -3.638  -1.984 -13.064  1.00  0.00     0.127 S 
ATOM     97  O   UNL     1      -3.230  -2.700 -14.269  1.00  0.00    -0.237 OA
ATOM     98  O   UNL     1      -4.144  -2.834 -11.986  1.00  0.00    -0.237 OA
ATOM     99  O   UNL     1      -4.403  -0.761 -13.265  1.00  0.00    -0.744 OA
ENDBRANCH  93  96
ENDBRANCH  65  89
BRANCH  77 100
ATOM    100  C   UNL     1      -1.980   6.392 -15.672  1.00  0.00     0.023 A 
ATOM    101  C   UNL     1      -1.232   6.175 -16.847  1.00  0.00     0.012 A 
ATOM    102  C   UNL     1      -3.055   7.316 -15.771  1.00  0.00     0.148 A 
ATOM    103  C   UNL     1      -1.592   6.750 -18.073  1.00  0.00     0.002 A 
ATOM    104  C   UNL     1      -3.370   7.939 -16.976  1.00  0.00     0.091 A 
ATOM    105  F   UNL     1      -3.790   7.604 -14.694  1.00  0.00    -0.205 F 
ATOM    106  C   UNL     1      -2.661   7.631 -18.138  1.00  0.00     0.022 A 
BRANCH 104 107
ATOM    107  S   UNL     1      -4.639   9.210 -17.113  1.00  0.00     0.127 S 
ATOM    108  O   UNL     1      -3.850  10.365 -17.545  1.00  0.00    -0.237 OA
ATOM    109  O   UNL     1      -5.513   8.651 -18.144  1.00  0.00    -0.237 OA
ATOM    110  O   UNL     1      -5.240   9.337 -15.794  1.00  0.00    -0.744 OA
ENDBRANCH 104 107
ENDBRANCH  77 100
ENDBRANCH  51  52
ENDBRANCH  43  46
ENDBRANCH  41  42
ENDBRANCH  40  41
ENDBRANCH  39  40
ENDBRANCH   1  39
TORSDOF 22
