REMARK SMILES CC(C)=C1[C@H]2CC[C@@H]1[C@H](C(=O)NNC(=O)c1ccoc1C)[C@H]2C(=O)NCCCCCCNC(=O)c1ccc(-c2c3nc(c(-c4cccc(S(=O)(=O)[O-])c4F)c4ccc([nH]4)c(-c4cccc(S(=O)(=O)[O-])c4F)c4nc(c(-c5cccc(S(=O)(=O)[O-])c5F)c5ccc2[nH]5)C=C4)C=C3)cc1
REMARK SMILES IDX 28 1 27 2 26 3 25 4 23 5 24 6 22 8 1 9 2 10 3 11 4 12 5 13
REMARK SMILES IDX 8 14 6 15 7 16 9 17 10 18 11 19 12 20 13 22 14 23 15 25
REMARK SMILES IDX 16 26 17 27 20 28 18 29 19 30 21 31 29 32 30 33 31 34 32 35
REMARK SMILES IDX 33 36 34 38 35 39 36 40 97 41 37 42 96 43 38 44 39 45 40 46
REMARK SMILES IDX 90 47 41 48 95 49 89 50 91 51 42 52 94 53 88 54 87 55 43 57
REMARK SMILES IDX 75 58 55 59 74 60 56 61 59 62 73 63 92 64 57 65 58 66 72 68
REMARK SMILES IDX 93 69 60 70 44 71 45 72 53 73 46 74 48 75 54 76 47 77 49 78
REMARK SMILES IDX 50 79 51 80 52 81 76 82 77 83 85 84 78 85 80 86 86 87 79 88
REMARK SMILES IDX 81 89 82 90 83 91 84 92 61 93 62 94 70 95 63 96 65 97 71 98
REMARK SMILES IDX 64 99 66 100 67 101 68 102 69 103
REMARK H PARENT 25 7 12 21 13 24 32 37 91 56 59 67
REMARK Flexibility Score: inf
ROOT
ATOM      1  C   UNL     1       2.736  -2.642  -2.297  1.00  0.00     0.002 C 
ENDROOT
BRANCH   1   2
ATOM      2  C   UNL     1       2.021  -1.294  -2.171  1.00  0.00     0.021 C 
BRANCH   2   3
ATOM      3  C   UNL     1       2.822  -0.091  -2.669  1.00  0.00     0.116 C 
BRANCH   3   4
ATOM      4  N   UNL     1       2.521   0.217  -4.059  1.00  0.00    -0.356 N 
ATOM      5  C   UNL     1       1.917   1.252  -4.686  1.00  0.00     0.224 C 
ATOM      6  O   UNL     1       1.790   1.134  -5.912  1.00  0.00    -0.275 OA
ATOM      7  H   UNL     1       2.824  -0.484  -4.681  1.00  0.00     0.163 HD
BRANCH   5   8
ATOM      8  C   UNL     1       1.410   2.535  -4.030  1.00  0.00     0.098 C 
ATOM      9  C   UNL     1       0.474   1.214   0.410  1.00  0.00     0.039 C 
ATOM     10  C   UNL     1       0.013   1.245  -1.021  1.00  0.00    -0.077 C 
ATOM     11  C   UNL     1      -1.044   0.225  -1.360  1.00  0.00     0.039 C 
ATOM     12  C   UNL     1       0.458   2.147  -1.914  1.00  0.00    -0.064 C 
ATOM     13  C   UNL     1       0.046   2.375  -3.338  1.00  0.00     0.028 C 
ATOM     14  C   UNL     1       1.345   3.367  -1.763  1.00  0.00     0.028 C 
ATOM     15  C   UNL     1      -0.595   3.766  -3.159  1.00  0.00     0.009 C 
ATOM     16  C   UNL     1       0.217   4.389  -2.007  1.00  0.00     0.009 C 
ATOM     17  C   UNL     1       2.312   3.215  -2.977  1.00  0.00     0.100 C 
BRANCH  17  18
ATOM     18  C   UNL     1       2.874   4.543  -3.484  1.00  0.00     0.242 C 
ATOM     19  O   UNL     1       2.717   5.614  -2.901  1.00  0.00    -0.273 OA
ATOM     20  N   UNL     1       3.608   4.561  -4.642  1.00  0.00    -0.267 N 
ATOM     21  H   UNL     1       3.610   5.394  -5.167  1.00  0.00     0.191 HD
BRANCH  20  22
ATOM     22  N   UNL     1       4.352   3.490  -5.130  1.00  0.00    -0.263 N 
ATOM     23  C   UNL     1       5.304   3.582  -6.132  1.00  0.00     0.273 C 
ATOM     24  H   UNL     1       4.189   2.603  -4.735  1.00  0.00     0.191 HD
ATOM     25  O   UNL     1       5.819   2.553  -6.565  1.00  0.00    -0.267 OA
BRANCH  23  26
ATOM     26  C   UNL     1       5.630   4.881  -6.704  1.00  0.00     0.082 A 
ATOM     27  C   UNL     1       5.739   5.169  -8.099  1.00  0.00     0.056 A 
ATOM     28  C   UNL     1       5.984   6.059  -6.061  1.00  0.00     0.113 A 
ATOM     29  C   UNL     1       6.071   6.496  -8.207  1.00  0.00     0.196 A 
ATOM     30  O   UNL     1       6.216   7.044  -6.977  1.00  0.00    -0.469 OA
ATOM     31  C   UNL     1       6.180   6.467  -4.651  1.00  0.00     0.088 C 
ENDBRANCH  23  26
ENDBRANCH  20  22
ENDBRANCH  17  18
ENDBRANCH   5   8
ENDBRANCH   3   4
ENDBRANCH   2   3
ENDBRANCH   1   2
BRANCH   1  32
ATOM     32  C   UNL     1       3.984  -2.813  -1.422  1.00  0.00     0.002 C 
BRANCH  32  33
ATOM     33  C   UNL     1       3.823  -2.499   0.070  1.00  0.00     0.021 C 
BRANCH  33  34
ATOM     34  C   UNL     1       2.700  -3.239   0.798  1.00  0.00     0.116 C 
BRANCH  34  35
ATOM     35  N   UNL     1       2.851  -4.682   0.734  1.00  0.00    -0.352 N 
ATOM     36  C   UNL     1       2.963  -5.614   1.734  1.00  0.00     0.251 C 
ATOM     37  H   UNL     1       2.877  -5.052  -0.178  1.00  0.00     0.163 HD
ATOM     38  O   UNL     1       3.251  -6.773   1.438  1.00  0.00    -0.269 OA
BRANCH  36  39
ATOM     39  C   UNL     1       2.757  -5.254   3.157  1.00  0.00     0.039 A 
ATOM     40  C   UNL     1       3.609  -5.816   4.114  1.00  0.00     0.014 A 
ATOM     41  C   UNL     1       1.701  -4.436   3.569  1.00  0.00     0.014 A 
ATOM     42  C   UNL     1       3.432  -5.525   5.471  1.00  0.00     0.010 A 
ATOM     43  C   UNL     1       1.557  -4.102   4.918  1.00  0.00     0.010 A 
ATOM     44  C   UNL     1       2.414  -4.651   5.884  1.00  0.00    -0.014 A 
BRANCH  44  45
ATOM     45  C   UNL     1       2.243  -4.307   7.320  1.00  0.00     0.031 A 
ATOM     46  C   UNL     1       1.020  -4.753   8.077  1.00  0.00     0.074 A 
ATOM     47  C   UNL     1       3.163  -3.537   7.934  1.00  0.00     0.049 A 
ATOM     48  N   UNL     1       0.704  -4.542   9.329  1.00  0.00    -0.248 NA
ATOM     49  C   UNL     1       0.011  -5.516   7.325  1.00  0.00     0.031 C 
ATOM     50  C   UNL     1       4.352  -2.971   7.294  1.00  0.00     0.029 A 
ATOM     51  N   UNL     1       3.232  -3.079   9.226  1.00  0.00    -0.354 N 
ATOM     52  C   UNL     1      -0.548  -5.116   9.509  1.00  0.00     0.074 A 
ATOM     53  C   UNL     1      -0.948  -5.662   8.230  1.00  0.00     0.031 C 
ATOM     54  C   UNL     1       5.032  -2.245   8.196  1.00  0.00     0.029 A 
ATOM     55  C   UNL     1       4.326  -2.284   9.473  1.00  0.00     0.049 A 
ATOM     56  H   UNL     1       2.560  -3.300   9.912  1.00  0.00     0.167 HD
ATOM     57  C   UNL     1      -1.286  -5.212  10.642  1.00  0.00     0.034 A 
ATOM     58  C   UNL     1       4.724  -1.665  10.602  1.00  0.00     0.034 A 
ATOM     59  C   UNL     1      -0.865  -4.723  11.927  1.00  0.00     0.049 A 
ATOM     60  C   UNL     1       3.925  -1.851  11.864  1.00  0.00     0.074 A 
ATOM     61  C   UNL     1      -1.503  -4.852  13.149  1.00  0.00     0.029 A 
ATOM     62  N   UNL     1       0.304  -4.016  12.160  1.00  0.00    -0.354 N 
ATOM     63  N   UNL     1       2.829  -2.545  12.050  1.00  0.00    -0.248 NA
ATOM     64  C   UNL     1       4.441  -1.205  13.081  1.00  0.00     0.031 C 
ATOM     65  C   UNL     1      -0.718  -4.221  14.122  1.00  0.00     0.029 A 
ATOM     66  C   UNL     1       0.408  -3.702  13.505  1.00  0.00     0.049 A 
ATOM     67  H   UNL     1       0.963  -3.772  11.471  1.00  0.00     0.167 HD
ATOM     68  C   UNL     1       2.541  -2.447  13.407  1.00  0.00     0.074 A 
ATOM     69  C   UNL     1       3.592  -1.645  14.000  1.00  0.00     0.031 C 
ATOM     70  C   UNL     1       1.491  -2.958  14.095  1.00  0.00     0.034 A 
BRANCH  57  71
ATOM     71  C   UNL     1      -2.598  -5.945  10.559  1.00  0.00     0.023 A 
ATOM     72  C   UNL     1      -2.592  -7.353  10.474  1.00  0.00     0.012 A 
ATOM     73  C   UNL     1      -3.827  -5.262  10.624  1.00  0.00     0.148 A 
ATOM     74  C   UNL     1      -3.788  -8.067  10.427  1.00  0.00     0.002 A 
ATOM     75  C   UNL     1      -5.016  -5.984  10.611  1.00  0.00     0.091 A 
ATOM     76  F   UNL     1      -3.815  -3.922  10.678  1.00  0.00    -0.205 F 
ATOM     77  C   UNL     1      -4.999  -7.384  10.506  1.00  0.00     0.022 A 
BRANCH  75  78
ATOM     78  S   UNL     1      -6.621  -5.192  10.776  1.00  0.00     0.127 S 
ATOM     79  O   UNL     1      -7.092  -5.188   9.392  1.00  0.00    -0.237 OA
ATOM     80  O   UNL     1      -7.337  -6.114  11.660  1.00  0.00    -0.237 OA
ATOM     81  O   UNL     1      -6.358  -3.884  11.358  1.00  0.00    -0.744 OA
ENDBRANCH  75  78
ENDBRANCH  57  71
BRANCH  58  82
ATOM     82  C   UNL     1       5.998  -0.894  10.611  1.00  0.00     0.023 A 
ATOM     83  C   UNL     1       7.120  -1.432  11.273  1.00  0.00     0.012 A 
ATOM     84  C   UNL     1       6.123   0.333   9.934  1.00  0.00     0.148 A 
ATOM     85  C   UNL     1       8.336  -0.749  11.280  1.00  0.00     0.002 A 
ATOM     86  C   UNL     1       7.353   0.984   9.902  1.00  0.00     0.091 A 
ATOM     87  F   UNL     1       5.041   0.840   9.325  1.00  0.00    -0.205 F 
ATOM     88  C   UNL     1       8.456   0.452  10.586  1.00  0.00     0.022 A 
BRANCH  86  89
ATOM     89  S   UNL     1       7.617   2.462   8.916  1.00  0.00     0.127 S 
ATOM     90  O   UNL     1       7.529   3.515   9.923  1.00  0.00    -0.237 OA
ATOM     91  O   UNL     1       8.959   2.238   8.374  1.00  0.00    -0.237 OA
ATOM     92  O   UNL     1       6.562   2.444   7.911  1.00  0.00    -0.744 OA
ENDBRANCH  86  89
ENDBRANCH  58  82
BRANCH  70  93
ATOM     93  C   UNL     1       1.427  -2.687  15.574  1.00  0.00     0.023 A 
ATOM     94  C   UNL     1       1.042  -1.410  16.027  1.00  0.00     0.012 A 
ATOM     95  C   UNL     1       1.676  -3.707  16.512  1.00  0.00     0.148 A 
ATOM     96  C   UNL     1       0.930  -1.145  17.391  1.00  0.00     0.002 A 
ATOM     97  C   UNL     1       1.525  -3.447  17.870  1.00  0.00     0.091 A 
ATOM     98  F   UNL     1       2.066  -4.910  16.066  1.00  0.00    -0.205 F 
ATOM     99  C   UNL     1       1.159  -2.165  18.312  1.00  0.00     0.022 A 
BRANCH  97 100
ATOM    100  S   UNL     1       1.721  -4.735  19.107  1.00  0.00     0.127 S 
ATOM    101  O   UNL     1       3.100  -4.527  19.542  1.00  0.00    -0.237 OA
ATOM    102  O   UNL     1       0.708  -4.380  20.103  1.00  0.00    -0.237 OA
ATOM    103  O   UNL     1       1.457  -5.987  18.410  1.00  0.00    -0.744 OA
ENDBRANCH  97 100
ENDBRANCH  70  93
ENDBRANCH  44  45
ENDBRANCH  36  39
ENDBRANCH  34  35
ENDBRANCH  33  34
ENDBRANCH  32  33
ENDBRANCH   1  32
TORSDOF 19
