REMARK SMILES Cc1c(CC(=O)NCCCCCCNC(=O)c2ccc(-c3c4nc(c(-c5cccc(S(=O)(=O)[O-])c5F)c5ccc([nH]5)c(-c5cccc(S(=O)(=O)[O-])c5F)c5nc(c(-c6cccc(S(=O)(=O)[O-])c6F)c6ccc3[nH]6)C=C5)C=C4)cc2)cc(-c2ccc(S(C)(=O)=O)cc2)n1-c1ccccc1
REMARK SMILES IDX 10 1 9 2 8 3 7 4 5 5 6 6 4 8 3 9 1 10 2 11 92 12 80 13 81 14
REMARK SMILES IDX 93 15 94 16 98 17 95 18 97 19 96 20 82 21 83 22 91 23 84 24
REMARK SMILES IDX 90 25 85 26 86 27 87 28 88 29 89 30 11 31 12 32 13 33 14 34
REMARK SMILES IDX 15 35 16 37 17 38 18 39 79 40 19 41 78 42 20 43 21 44 22 45
REMARK SMILES IDX 72 46 23 47 77 48 71 49 73 50 24 51 76 52 70 53 69 54 25 56
REMARK SMILES IDX 57 57 37 58 56 59 38 60 41 61 55 62 74 63 39 64 40 65 54 67
REMARK SMILES IDX 75 68 42 69 26 70 27 71 35 72 28 73 30 74 36 75 29 76 31 77
REMARK SMILES IDX 32 78 33 79 34 80 58 81 59 82 67 83 60 84 62 85 68 86 61 87
REMARK SMILES IDX 63 88 64 89 65 90 66 91 43 92 44 93 52 94 45 95 47 96 53 97
REMARK SMILES IDX 46 98 48 99 49 100 50 101 51 102
REMARK H PARENT 7 7 14 36 73 55 41 66
REMARK Flexibility Score: inf
ROOT
ATOM      1  C   UNL     1      -4.415   2.629  -0.284  1.00  0.00     0.002 C 
ENDROOT
BRANCH   1   2
ATOM      2  C   UNL     1      -3.268   2.438   0.735  1.00  0.00     0.021 C 
BRANCH   2   3
ATOM      3  C   UNL     1      -3.402   1.306   1.777  1.00  0.00     0.116 C 
BRANCH   3   4
ATOM      4  N   UNL     1      -3.028  -0.026   1.293  1.00  0.00    -0.356 N 
ATOM      5  C   UNL     1      -1.949  -0.818   1.599  1.00  0.00     0.224 C 
ATOM      6  O   UNL     1      -1.921  -1.969   1.150  1.00  0.00    -0.275 OA
ATOM      7  H   UNL     1      -3.653  -0.417   0.641  1.00  0.00     0.163 HD
BRANCH   5   8
ATOM      8  C   UNL     1      -0.833  -0.322   2.504  1.00  0.00     0.137 C 
BRANCH   8   9
ATOM      9  C   UNL     1      -0.082   0.813   1.900  1.00  0.00    -0.017 A 
ATOM     10  C   UNL     1       1.024  -0.263  -0.199  1.00  0.00     0.065 C 
ATOM     11  C   UNL     1       0.647   0.850   0.716  1.00  0.00     0.024 A 
ATOM     12  N   UNL     1       1.082   2.154   0.511  1.00  0.00    -0.314 N 
ATOM     13  C   UNL     1       0.032   2.085   2.493  1.00  0.00     0.033 A 
ATOM     14  C   UNL     1       0.730   2.892   1.627  1.00  0.00     0.053 A 
BRANCH  12  15
ATOM     15  C   UNL     1       1.754   2.656  -0.640  1.00  0.00     0.046 A 
ATOM     16  C   UNL     1       2.920   3.423  -0.501  1.00  0.00     0.026 A 
ATOM     17  C   UNL     1       1.171   2.485  -1.900  1.00  0.00     0.026 A 
ATOM     18  C   UNL     1       3.503   4.010  -1.625  1.00  0.00     0.002 A 
ATOM     19  C   UNL     1       1.755   3.087  -3.017  1.00  0.00     0.002 A 
ATOM     20  C   UNL     1       2.920   3.843  -2.880  1.00  0.00     0.000 A 
ENDBRANCH  12  15
BRANCH  14  21
ATOM     21  C   UNL     1       1.010   4.295   1.804  1.00  0.00    -0.001 A 
ATOM     22  C   UNL     1       0.542   5.240   0.881  1.00  0.00     0.011 A 
ATOM     23  C   UNL     1       1.778   4.665   2.912  1.00  0.00     0.011 A 
ATOM     24  C   UNL     1       0.891   6.565   1.044  1.00  0.00     0.021 A 
ATOM     25  C   UNL     1       2.133   5.979   3.077  1.00  0.00     0.021 A 
ATOM     26  C   UNL     1       1.696   6.902   2.134  1.00  0.00     0.067 A 
BRANCH  26  27
ATOM     27  S   UNL     1       1.986   8.576   2.546  1.00  0.00     0.175 S 
ATOM     28  C   UNL     1       2.350   9.319   0.956  1.00  0.00     0.163 C 
ATOM     29  O   UNL     1       0.674   8.910   3.125  1.00  0.00    -0.224 OA
ATOM     30  O   UNL     1       3.150   8.652   3.354  1.00  0.00    -0.224 OA
ENDBRANCH  26  27
ENDBRANCH  14  21
ENDBRANCH   8   9
ENDBRANCH   5   8
ENDBRANCH   3   4
ENDBRANCH   2   3
ENDBRANCH   1   2
BRANCH   1  31
ATOM     31  C   UNL     1      -5.746   3.304   0.155  1.00  0.00     0.002 C 
BRANCH  31  32
ATOM     32  C   UNL     1      -5.842   4.747   0.794  1.00  0.00     0.021 C 
BRANCH  32  33
ATOM     33  C   UNL     1      -5.574   6.131   0.014  1.00  0.00     0.116 C 
BRANCH  33  34
ATOM     34  N   UNL     1      -6.819   6.979  -0.225  1.00  0.00    -0.352 N 
ATOM     35  C   UNL     1      -7.337   8.303  -0.212  1.00  0.00     0.251 C 
ATOM     36  H   UNL     1      -7.548   6.374  -0.491  1.00  0.00     0.163 HD
ATOM     37  O   UNL     1      -8.568   8.322  -0.400  1.00  0.00    -0.269 OA
BRANCH  35  38
ATOM     38  C   UNL     1      -6.705   9.718  -0.053  1.00  0.00     0.039 A 
ATOM     39  C   UNL     1      -7.373  10.870   0.489  1.00  0.00     0.014 A 
ATOM     40  C   UNL     1      -5.588  10.127  -0.713  1.00  0.00     0.014 A 
ATOM     41  C   UNL     1      -6.802  12.299   0.613  1.00  0.00     0.010 A 
ATOM     42  C   UNL     1      -5.159  11.564  -0.695  1.00  0.00     0.010 A 
ATOM     43  C   UNL     1      -5.556  12.742   0.092  1.00  0.00    -0.014 A 
BRANCH  43  44
ATOM     44  C   UNL     1      -4.384  13.641   1.168  1.00  0.00     0.031 A 
ATOM     45  C   UNL     1      -4.245  12.553   2.184  1.00  0.00     0.074 A 
ATOM     46  C   UNL     1      -3.345  14.696   1.380  1.00  0.00     0.049 A 
ATOM     47  N   UNL     1      -4.174  11.356   1.649  1.00  0.00    -0.248 NA
ATOM     48  C   UNL     1      -3.479  12.622   3.399  1.00  0.00     0.031 C 
ATOM     49  C   UNL     1      -2.936  15.834   0.514  1.00  0.00     0.029 A 
ATOM     50  N   UNL     1      -2.233  14.929   2.469  1.00  0.00    -0.354 N 
ATOM     51  C   UNL     1      -2.828  11.281   1.588  1.00  0.00     0.074 A 
ATOM     52  C   UNL     1      -2.572  11.711   3.013  1.00  0.00     0.031 C 
ATOM     53  C   UNL     1      -1.829  16.511   0.964  1.00  0.00     0.029 A 
ATOM     54  C   UNL     1      -1.256  16.007   2.247  1.00  0.00     0.049 A 
ATOM     55  H   UNL     1      -2.192  14.368   3.277  1.00  0.00     0.167 HD
ATOM     56  C   UNL     1      -2.039  11.470   0.447  1.00  0.00     0.034 A 
ATOM     57  C   UNL     1      -0.104  16.662   2.832  1.00  0.00     0.034 A 
ATOM     58  C   UNL     1      -0.679  11.466   0.769  1.00  0.00     0.049 A 
ATOM     59  C   UNL     1       0.857  15.674   2.172  1.00  0.00     0.074 A 
ATOM     60  C   UNL     1      -0.029  11.109   1.898  1.00  0.00     0.029 A 
ATOM     61  N   UNL     1       0.253  11.948  -0.103  1.00  0.00    -0.354 N 
ATOM     62  N   UNL     1       1.578  15.819   1.095  1.00  0.00    -0.248 NA
ATOM     63  C   UNL     1       1.254  14.540   3.034  1.00  0.00     0.031 C 
ATOM     64  C   UNL     1       1.125  11.866   1.902  1.00  0.00     0.029 A 
ATOM     65  C   UNL     1       1.216  12.519   0.672  1.00  0.00     0.049 A 
ATOM     66  H   UNL     1       0.233  11.895  -1.086  1.00  0.00     0.167 HD
ATOM     67  C   UNL     1       2.265  14.613   1.070  1.00  0.00     0.074 A 
ATOM     68  C   UNL     1       2.412  14.230   2.453  1.00  0.00     0.031 C 
ATOM     69  C   UNL     1       1.851  13.697   0.148  1.00  0.00     0.034 A 
BRANCH  56  70
ATOM     70  C   UNL     1      -2.303  11.784  -1.078  1.00  0.00     0.023 A 
ATOM     71  C   UNL     1      -2.798  13.015  -1.614  1.00  0.00     0.012 A 
ATOM     72  C   UNL     1      -1.902  10.856  -2.061  1.00  0.00     0.148 A 
ATOM     73  C   UNL     1      -3.152  13.189  -2.974  1.00  0.00     0.002 A 
ATOM     74  C   UNL     1      -2.130  11.082  -3.433  1.00  0.00     0.091 A 
ATOM     75  F   UNL     1      -1.275   9.745  -1.648  1.00  0.00    -0.205 F 
ATOM     76  C   UNL     1      -2.828  12.205  -3.889  1.00  0.00     0.022 A 
BRANCH  74  77
ATOM     77  S   UNL     1      -1.457   9.959  -4.658  1.00  0.00     0.127 S 
ATOM     78  O   UNL     1      -2.538   8.987  -4.804  1.00  0.00    -0.237 OA
ATOM     79  O   UNL     1      -1.235  10.806  -5.828  1.00  0.00    -0.237 OA
ATOM     80  O   UNL     1      -0.229   9.456  -4.048  1.00  0.00    -0.744 OA
ENDBRANCH  74  77
ENDBRANCH  56  70
BRANCH  57  81
ATOM     81  C   UNL     1       1.167  17.247   3.855  1.00  0.00     0.023 A 
ATOM     82  C   UNL     1       1.655  18.542   3.503  1.00  0.00     0.012 A 
ATOM     83  C   UNL     1       2.086  16.578   4.784  1.00  0.00     0.148 A 
ATOM     84  C   UNL     1       2.884  19.103   3.989  1.00  0.00     0.002 A 
ATOM     85  C   UNL     1       3.368  17.100   5.170  1.00  0.00     0.091 A 
ATOM     86  F   UNL     1       1.731  15.422   5.362  1.00  0.00    -0.205 F 
ATOM     87  C   UNL     1       3.757  18.377   4.789  1.00  0.00     0.022 A 
BRANCH  85  88
ATOM     88  S   UNL     1       4.631  16.100   6.057  1.00  0.00     0.127 S 
ATOM     89  O   UNL     1       5.899  16.762   5.730  1.00  0.00    -0.237 OA
ATOM     90  O   UNL     1       4.231  16.250   7.454  1.00  0.00    -0.237 OA
ATOM     91  O   UNL     1       4.504  14.764   5.487  1.00  0.00    -0.744 OA
ENDBRANCH  85  88
ENDBRANCH  57  81
BRANCH  69  92
ATOM     92  C   UNL     1       1.671  14.281  -1.214  1.00  0.00     0.023 A 
ATOM     93  C   UNL     1       2.858  14.393  -1.946  1.00  0.00     0.012 A 
ATOM     94  C   UNL     1       0.489  14.885  -1.705  1.00  0.00     0.148 A 
ATOM     95  C   UNL     1       2.896  15.133  -3.118  1.00  0.00     0.002 A 
ATOM     96  C   UNL     1       0.533  15.641  -2.874  1.00  0.00     0.091 A 
ATOM     97  F   UNL     1      -0.646  14.727  -1.017  1.00  0.00    -0.205 F 
ATOM     98  C   UNL     1       1.743  15.768  -3.573  1.00  0.00     0.022 A 
BRANCH  96  99
ATOM     99  S   UNL     1      -0.849  16.629  -3.483  1.00  0.00     0.127 S 
ATOM    100  O   UNL     1      -0.208  17.911  -3.790  1.00  0.00    -0.237 OA
ATOM    101  O   UNL     1      -1.290  15.882  -4.656  1.00  0.00    -0.237 OA
ATOM    102  O   UNL     1      -1.817  16.702  -2.395  1.00  0.00    -0.744 OA
ENDBRANCH  96  99
ENDBRANCH  69  92
ENDBRANCH  43  44
ENDBRANCH  35  38
ENDBRANCH  33  34
ENDBRANCH  32  33
ENDBRANCH  31  32
ENDBRANCH   1  31
TORSDOF 20
