REMARK SMILES NC(=O)c1c(-c2ccc(Cl)cc2)csc1NC(=O)[C@H]1[C@@H](C(=O)NCCCCCCNC(=O)c2ccc(-c3c4nc(c(-c5cccc(S(=O)(=O)[O-])c5F)c5ccc([nH]5)c(-c5cccc(S(=O)(=O)[O-])c5F)c5nc(c(-c6cccc(S(=O)(=O)[O-])c6F)c6ccc3[nH]6)C=C5)C=C4)cc2)[C@@H]2CC[C@H]1O2
REMARK SMILES IDX 26 1 25 2 24 3 23 4 21 5 22 6 20 8 19 9 99 10 96 11 98 12
REMARK SMILES IDX 100 13 97 14 17 15 16 16 18 18 15 19 4 20 5 21 13 22 14 23
REMARK SMILES IDX 2 24 1 25 3 28 6 29 7 30 12 31 8 32 11 33 9 34 10 35 27 36
REMARK SMILES IDX 28 37 29 38 30 39 31 40 32 42 33 43 34 44 95 45 35 46 94 47
REMARK SMILES IDX 36 48 37 49 38 50 88 51 39 52 93 53 87 54 89 55 40 56 92 57
REMARK SMILES IDX 86 58 85 59 41 61 73 62 53 63 72 64 54 65 57 66 71 67 90 68
REMARK SMILES IDX 55 69 56 70 70 72 91 73 58 74 42 75 43 76 51 77 44 78 46 79
REMARK SMILES IDX 52 80 45 81 47 82 48 83 49 84 50 85 74 86 75 87 83 88 76 89
REMARK SMILES IDX 78 90 84 91 77 92 79 93 80 94 81 95 82 96 59 97 60 98 68 99
REMARK SMILES IDX 61 100 63 101 69 102 62 103 64 104 65 105 66 106 67 107
REMARK H PARENT 23 7 16 17 1 26 1 27 30 41 89 60 57 71
REMARK Flexibility Score: inf
ROOT
ATOM      1  C   UNL     1       2.209  -7.586  -2.970  1.00  0.00     0.002 C 
ENDROOT
BRANCH   1   2
ATOM      2  C   UNL     1       0.926  -6.801  -3.299  1.00  0.00     0.021 C 
BRANCH   2   3
ATOM      3  C   UNL     1       1.143  -5.306  -3.566  1.00  0.00     0.116 C 
BRANCH   3   4
ATOM      4  N   UNL     1       2.024  -5.152  -4.705  1.00  0.00    -0.356 N 
ATOM      5  C   UNL     1       2.103  -4.179  -5.644  1.00  0.00     0.226 C 
ATOM      6  O   UNL     1       2.691  -4.476  -6.685  1.00  0.00    -0.275 OA
ATOM      7  H   UNL     1       2.679  -5.879  -4.816  1.00  0.00     0.163 HD
BRANCH   5   8
ATOM      8  C   UNL     1       1.661  -2.767  -5.300  1.00  0.00     0.122 C 
ATOM      9  C   UNL     1       0.361  -2.169  -5.876  1.00  0.00     0.123 C 
ATOM     10  C   UNL     1       0.903  -1.179  -6.935  1.00  0.00     0.132 C 
ATOM     11  C   UNL     1       2.712  -1.843  -5.937  1.00  0.00     0.132 C 
ATOM     12  C   UNL     1       1.406   0.111  -6.288  1.00  0.00     0.035 C 
ATOM     13  O   UNL     1       2.194  -1.727  -7.284  1.00  0.00    -0.373 OA
ATOM     14  C   UNL     1       2.575  -0.401  -5.445  1.00  0.00     0.035 C 
BRANCH   9  15
ATOM     15  C   UNL     1      -0.708  -3.076  -6.465  1.00  0.00     0.231 C 
ATOM     16  N   UNL     1      -2.013  -2.681  -6.646  1.00  0.00    -0.317 N 
ATOM     17  H   UNL     1      -2.555  -3.377  -7.083  1.00  0.00     0.170 HD
ATOM     18  O   UNL     1      -0.447  -4.240  -6.781  1.00  0.00    -0.274 OA
BRANCH  16  19
ATOM     19  C   UNL     1      -2.756  -1.537  -6.360  1.00  0.00     0.108 A 
ATOM     20  C   UNL     1      -4.135  -1.374  -6.538  1.00  0.00     0.082 A 
ATOM     21  C   UNL     1      -4.575  -0.078  -6.036  1.00  0.00     0.007 A 
ATOM     22  C   UNL     1      -3.513   0.677  -5.585  1.00  0.00     0.076 A 
ATOM     23  S   UNL     1      -2.044  -0.130  -5.756  1.00  0.00    -0.125 S 
BRANCH  20  24
ATOM     24  C   UNL     1      -4.961  -2.428  -7.129  1.00  0.00     0.252 C 
ATOM     25  N   UNL     1      -6.138  -2.058  -7.700  1.00  0.00    -0.365 N 
ATOM     26  H   UNL     1      -6.722  -2.737  -8.109  1.00  0.00     0.159 HD
ATOM     27  H   UNL     1      -6.407  -1.111  -7.706  1.00  0.00     0.159 HD
ATOM     28  O   UNL     1      -4.600  -3.608  -7.178  1.00  0.00    -0.269 OA
ENDBRANCH  20  24
BRANCH  21  29
ATOM     29  C   UNL     1      -5.916   0.477  -5.897  1.00  0.00    -0.017 A 
ATOM     30  C   UNL     1      -6.238   1.696  -6.514  1.00  0.00     0.010 A 
ATOM     31  C   UNL     1      -6.877  -0.173  -5.113  1.00  0.00     0.010 A 
ATOM     32  C   UNL     1      -7.507   2.255  -6.352  1.00  0.00     0.021 A 
ATOM     33  C   UNL     1      -8.150   0.386  -4.957  1.00  0.00     0.021 A 
ATOM     34  C   UNL     1      -8.459   1.596  -5.577  1.00  0.00     0.041 A 
ATOM     35  Cl  UNL     1     -10.023   2.285  -5.384  1.00  0.00    -0.084 Cl
ENDBRANCH  21  29
ENDBRANCH  16  19
ENDBRANCH   9  15
ENDBRANCH   5   8
ENDBRANCH   3   4
ENDBRANCH   2   3
ENDBRANCH   1   2
BRANCH   1  36
ATOM     36  C   UNL     1       2.909  -7.162  -1.677  1.00  0.00     0.002 C 
BRANCH  36  37
ATOM     37  C   UNL     1       2.118  -7.464  -0.406  1.00  0.00     0.021 C 
BRANCH  37  38
ATOM     38  C   UNL     1       1.794  -8.940  -0.196  1.00  0.00     0.116 C 
BRANCH  38  39
ATOM     39  N   UNL     1       2.989  -9.762  -0.054  1.00  0.00    -0.352 N 
ATOM     40  C   UNL     1       3.251 -10.740   0.875  1.00  0.00     0.251 C 
ATOM     41  H   UNL     1       3.703  -9.595  -0.711  1.00  0.00     0.163 HD
ATOM     42  O   UNL     1       4.370 -11.237   0.959  1.00  0.00    -0.269 OA
BRANCH  40  43
ATOM     43  C   UNL     1       2.174 -11.166   1.793  1.00  0.00     0.039 A 
ATOM     44  C   UNL     1       2.433 -11.228   3.164  1.00  0.00     0.014 A 
ATOM     45  C   UNL     1       0.901 -11.461   1.298  1.00  0.00     0.014 A 
ATOM     46  C   UNL     1       1.391 -11.518   4.049  1.00  0.00     0.010 A 
ATOM     47  C   UNL     1      -0.148 -11.676   2.184  1.00  0.00     0.010 A 
ATOM     48  C   UNL     1       0.085 -11.706   3.568  1.00  0.00    -0.014 A 
BRANCH  48  49
ATOM     49  C   UNL     1      -1.063 -11.918   4.487  1.00  0.00     0.031 A 
ATOM     50  C   UNL     1      -1.853 -13.197   4.420  1.00  0.00     0.074 A 
ATOM     51  C   UNL     1      -1.462 -10.919   5.299  1.00  0.00     0.049 A 
ATOM     52  N   UNL     1      -2.950 -13.522   5.052  1.00  0.00    -0.248 NA
ATOM     53  C   UNL     1      -1.362 -14.234   3.498  1.00  0.00     0.031 C 
ATOM     54  C   UNL     1      -0.822  -9.605   5.403  1.00  0.00     0.029 A 
ATOM     55  N   UNL     1      -2.525 -10.838   6.164  1.00  0.00    -0.354 N 
ATOM     56  C   UNL     1      -3.303 -14.779   4.576  1.00  0.00     0.074 A 
ATOM     57  C   UNL     1      -2.321 -15.145   3.580  1.00  0.00     0.031 C 
ATOM     58  C   UNL     1      -1.506  -8.850   6.277  1.00  0.00     0.029 A 
ATOM     59  C   UNL     1      -2.654  -9.607   6.767  1.00  0.00     0.049 A 
ATOM     60  H   UNL     1      -3.137 -11.589   6.338  1.00  0.00     0.167 HD
ATOM     61  C   UNL     1      -4.338 -15.568   4.951  1.00  0.00     0.034 A 
ATOM     62  C   UNL     1      -3.598  -9.136   7.605  1.00  0.00     0.034 A 
ATOM     63  C   UNL     1      -5.287 -15.217   5.972  1.00  0.00     0.049 A 
ATOM     64  C   UNL     1      -4.718 -10.046   8.031  1.00  0.00     0.074 A 
ATOM     65  C   UNL     1      -6.319 -15.984   6.486  1.00  0.00     0.029 A 
ATOM     66  N   UNL     1      -5.329 -13.998   6.630  1.00  0.00    -0.354 N 
ATOM     67  N   UNL     1      -4.951 -11.287   7.681  1.00  0.00    -0.248 NA
ATOM     68  C   UNL     1      -5.687  -9.504   8.995  1.00  0.00     0.031 C 
ATOM     69  C   UNL     1      -7.000 -15.217   7.436  1.00  0.00     0.029 A 
ATOM     70  C   UNL     1      -6.372 -13.986   7.539  1.00  0.00     0.049 A 
ATOM     71  H   UNL     1      -4.707 -13.251   6.474  1.00  0.00     0.167 HD
ATOM     72  C   UNL     1      -6.063 -11.689   8.412  1.00  0.00     0.074 A 
ATOM     73  C   UNL     1      -6.451 -10.561   9.235  1.00  0.00     0.031 C 
ATOM     74  C   UNL     1      -6.710 -12.880   8.396  1.00  0.00     0.034 A 
BRANCH  61  75
ATOM     75  C   UNL     1      -4.471 -16.913   4.286  1.00  0.00     0.023 A 
ATOM     76  C   UNL     1      -3.540 -17.930   4.577  1.00  0.00     0.012 A 
ATOM     77  C   UNL     1      -5.550 -17.191   3.424  1.00  0.00     0.148 A 
ATOM     78  C   UNL     1      -3.657 -19.191   3.993  1.00  0.00     0.002 A 
ATOM     79  C   UNL     1      -5.688 -18.465   2.883  1.00  0.00     0.091 A 
ATOM     80  F   UNL     1      -6.415 -16.206   3.142  1.00  0.00    -0.205 F 
ATOM     81  C   UNL     1      -4.736 -19.461   3.156  1.00  0.00     0.022 A 
BRANCH  79  82
ATOM     82  S   UNL     1      -7.088 -18.937   1.861  1.00  0.00     0.127 S 
ATOM     83  O   UNL     1      -6.461 -19.072   0.547  1.00  0.00    -0.237 OA
ATOM     84  O   UNL     1      -7.501 -20.201   2.472  1.00  0.00    -0.237 OA
ATOM     85  O   UNL     1      -8.057 -17.858   1.984  1.00  0.00    -0.744 OA
ENDBRANCH  79  82
ENDBRANCH  61  75
BRANCH  62  86
ATOM     86  C   UNL     1      -3.491  -7.750   8.144  1.00  0.00     0.023 A 
ATOM     87  C   UNL     1      -3.184  -7.560   9.505  1.00  0.00     0.012 A 
ATOM     88  C   UNL     1      -3.664  -6.624   7.316  1.00  0.00     0.148 A 
ATOM     89  C   UNL     1      -3.087  -6.275  10.041  1.00  0.00     0.002 A 
ATOM     90  C   UNL     1      -3.511  -5.346   7.843  1.00  0.00     0.091 A 
ATOM     91  F   UNL     1      -3.965  -6.825   6.025  1.00  0.00    -0.205 F 
ATOM     92  C   UNL     1      -3.240  -5.170   9.209  1.00  0.00     0.022 A 
BRANCH  90  93
ATOM     93  S   UNL     1      -3.561  -3.869   6.822  1.00  0.00     0.127 S 
ATOM     94  O   UNL     1      -4.814  -3.252   7.249  1.00  0.00    -0.237 OA
ATOM     95  O   UNL     1      -2.351  -3.166   7.247  1.00  0.00    -0.237 OA
ATOM     96  O   UNL     1      -3.526  -4.341   5.444  1.00  0.00    -0.744 OA
ENDBRANCH  90  93
ENDBRANCH  62  86
BRANCH  74  97
ATOM     97  C   UNL     1      -7.877 -13.060   9.331  1.00  0.00     0.023 A 
ATOM     98  C   UNL     1      -9.101 -12.417   9.065  1.00  0.00     0.012 A 
ATOM     99  C   UNL     1      -7.783 -13.945  10.424  1.00  0.00     0.148 A 
ATOM    100  C   UNL     1     -10.207 -12.631   9.888  1.00  0.00     0.002 A 
ATOM    101  C   UNL     1      -8.902 -14.193  11.209  1.00  0.00     0.091 A 
ATOM    102  F   UNL     1      -6.603 -14.534  10.670  1.00  0.00    -0.205 F 
ATOM    103  C   UNL     1     -10.111 -13.527  10.950  1.00  0.00     0.022 A 
BRANCH 101 104
ATOM    104  S   UNL     1      -8.901 -15.405  12.535  1.00  0.00     0.127 S 
ATOM    105  O   UNL     1      -8.977 -14.551  13.719  1.00  0.00    -0.237 OA
ATOM    106  O   UNL     1     -10.116 -16.170  12.255  1.00  0.00    -0.237 OA
ATOM    107  O   UNL     1      -7.664 -16.160  12.390  1.00  0.00    -0.744 OA
ENDBRANCH 101 104
ENDBRANCH  74  97
ENDBRANCH  48  49
ENDBRANCH  40  43
ENDBRANCH  38  39
ENDBRANCH  37  38
ENDBRANCH  36  37
ENDBRANCH   1  36
TORSDOF 20
