REMARK SMILES COc1cc(/C=C2/SC(=S)N(c3ccc(C)cc3C)C2=O)ccc1O[C@@H](C)C(=O)NCCCCCCNC(=O)c1ccc(-c2c3nc(c(-c4cccc(S(=O)(=O)[O-])c4F)c4ccc([nH]4)c(-c4cccc(S(=O)(=O)[O-])c4F)c4nc(c(-c5cccc(S(=O)(=O)[O-])c5F)c5ccc2[nH]5)C=C4)C=C3)cc1
REMARK SMILES IDX 33 1 32 2 31 3 30 4 28 5 29 6 26 8 27 9 25 10 24 11 3 12
REMARK SMILES IDX 4 13 5 14 23 15 22 16 2 17 1 18 6 19 7 20 8 21 20 22 9 23
REMARK SMILES IDX 11 24 21 25 10 26 12 27 13 28 18 29 14 30 17 31 19 32 15 33
REMARK SMILES IDX 16 34 34 35 35 36 36 37 37 38 38 39 39 41 40 42 41 43 102 44
REMARK SMILES IDX 42 45 101 46 43 47 44 48 45 49 95 50 46 51 100 52 94 53
REMARK SMILES IDX 96 54 47 55 99 56 93 57 92 58 48 60 80 61 60 62 79 63 61 64
REMARK SMILES IDX 64 65 78 66 97 67 62 68 63 69 77 71 98 72 65 73 49 74 50 75
REMARK SMILES IDX 58 76 51 77 53 78 59 79 52 80 54 81 55 82 56 83 57 84 81 85
REMARK SMILES IDX 82 86 90 87 83 88 85 89 91 90 84 91 86 92 87 93 88 94 89 95
REMARK SMILES IDX 66 96 67 97 75 98 68 99 70 100 76 101 69 102 71 103 72 104
REMARK SMILES IDX 73 105 74 106
REMARK H PARENT 30 7 37 40 96 59 64 70
REMARK Flexibility Score: inf
ROOT
ATOM      1  C   UNL     1      -0.679  -5.037   0.407  1.00  0.00     0.002 C 
ENDROOT
BRANCH   1   2
ATOM      2  C   UNL     1       0.402  -4.225  -0.320  1.00  0.00     0.021 C 
BRANCH   2   3
ATOM      3  C   UNL     1       0.560  -2.771   0.124  1.00  0.00     0.116 C 
BRANCH   3   4
ATOM      4  N   UNL     1       1.800  -2.491   0.809  1.00  0.00    -0.353 N 
ATOM      5  C   UNL     1       2.721  -1.504   0.717  1.00  0.00     0.260 C 
ATOM      6  O   UNL     1       3.457  -1.431   1.721  1.00  0.00    -0.271 OA
ATOM      7  H   UNL     1       2.023  -3.164   1.492  1.00  0.00     0.163 HD
BRANCH   5   8
ATOM      8  C   UNL     1       2.980  -0.456  -0.461  1.00  0.00     0.259 C 
ATOM      9  C   UNL     1       2.799   0.958   0.135  1.00  0.00     0.064 C 
BRANCH   8  10
ATOM     10  O   UNL     1       2.755  -0.236  -1.834  1.00  0.00    -0.477 OA
BRANCH  10  11
ATOM     11  C   UNL     1       1.982  -1.096  -2.527  1.00  0.00     0.162 A 
ATOM     12  C   UNL     1       0.616  -0.857  -2.716  1.00  0.00     0.161 A 
ATOM     13  C   UNL     1      -0.158  -1.772  -3.443  1.00  0.00     0.058 A 
ATOM     14  C   UNL     1       0.455  -2.885  -4.040  1.00  0.00    -0.020 A 
ATOM     15  C   UNL     1       2.612  -2.105  -3.241  1.00  0.00     0.051 A 
ATOM     16  C   UNL     1       1.854  -2.961  -4.033  1.00  0.00     0.012 A 
BRANCH  12  17
ATOM     17  O   UNL     1       0.068   0.329  -2.303  1.00  0.00    -0.493 OA
ATOM     18  C   UNL     1      -0.580   0.256  -1.039  1.00  0.00     0.278 C 
ENDBRANCH  12  17
BRANCH  14  19
ATOM     19  C   UNL     1      -0.335  -3.932  -4.709  1.00  0.00     0.029 C 
ATOM     20  C   UNL     1      -0.136  -5.262  -4.620  1.00  0.00     0.081 C 
ATOM     21  S   UNL     1      -1.087  -6.394  -5.511  1.00  0.00    -0.054 SA
ATOM     22  C   UNL     1       0.870  -6.019  -3.802  1.00  0.00     0.270 C 
ATOM     23  C   UNL     1      -0.360  -7.790  -4.721  1.00  0.00     0.152 C 
ATOM     24  N   UNL     1       0.769  -7.385  -4.038  1.00  0.00    -0.261 N 
ATOM     25  O   UNL     1       1.645  -5.491  -3.015  1.00  0.00    -0.268 OA
ATOM     26  S   UNL     1      -1.086  -9.296  -4.747  1.00  0.00    -0.051 S 
BRANCH  24  27
ATOM     27  C   UNL     1       1.789  -8.262  -3.554  1.00  0.00     0.054 A 
ATOM     28  C   UNL     1       2.210  -8.157  -2.215  1.00  0.00     0.027 A 
ATOM     29  C   UNL     1       2.486  -9.136  -4.415  1.00  0.00    -0.027 A 
ATOM     30  C   UNL     1       3.283  -8.908  -1.728  1.00  0.00     0.005 A 
ATOM     31  C   UNL     1       3.548  -9.906  -3.899  1.00  0.00     0.009 A 
ATOM     32  C   UNL     1       2.233  -9.256  -5.896  1.00  0.00     0.046 C 
ATOM     33  C   UNL     1       3.964  -9.787  -2.569  1.00  0.00    -0.051 A 
ATOM     34  C   UNL     1       5.147 -10.554  -2.060  1.00  0.00     0.044 C 
ENDBRANCH  24  27
ENDBRANCH  14  19
ENDBRANCH  10  11
ENDBRANCH   8  10
ENDBRANCH   5   8
ENDBRANCH   3   4
ENDBRANCH   2   3
ENDBRANCH   1   2
BRANCH   1  35
ATOM     35  C   UNL     1      -2.100  -4.454   0.416  1.00  0.00     0.002 C 
BRANCH  35  36
ATOM     36  C   UNL     1      -2.717  -4.102  -0.942  1.00  0.00     0.021 C 
BRANCH  36  37
ATOM     37  C   UNL     1      -2.927  -5.265  -1.914  1.00  0.00     0.116 C 
BRANCH  37  38
ATOM     38  N   UNL     1      -3.820  -6.292  -1.397  1.00  0.00    -0.352 N 
ATOM     39  C   UNL     1      -4.973  -6.842  -1.912  1.00  0.00     0.251 C 
ATOM     40  H   UNL     1      -3.552  -6.659  -0.523  1.00  0.00     0.163 HD
ATOM     41  O   UNL     1      -5.631  -7.605  -1.207  1.00  0.00    -0.269 OA
BRANCH  39  42
ATOM     42  C   UNL     1      -5.445  -6.530  -3.284  1.00  0.00     0.039 A 
ATOM     43  C   UNL     1      -6.812  -6.370  -3.526  1.00  0.00     0.014 A 
ATOM     44  C   UNL     1      -4.558  -6.450  -4.354  1.00  0.00     0.014 A 
ATOM     45  C   UNL     1      -7.267  -6.042  -4.812  1.00  0.00     0.010 A 
ATOM     46  C   UNL     1      -4.997  -6.058  -5.621  1.00  0.00     0.010 A 
ATOM     47  C   UNL     1      -6.358  -5.836  -5.864  1.00  0.00    -0.014 A 
BRANCH  47  48
ATOM     48  C   UNL     1      -6.802  -5.324  -7.192  1.00  0.00     0.031 A 
ATOM     49  C   UNL     1      -6.610  -6.132  -8.451  1.00  0.00     0.074 A 
ATOM     50  C   UNL     1      -7.294  -4.070  -7.279  1.00  0.00     0.049 A 
ATOM     51  N   UNL     1      -6.889  -5.807  -9.688  1.00  0.00    -0.248 NA
ATOM     52  C   UNL     1      -6.010  -7.468  -8.306  1.00  0.00     0.031 C 
ATOM     53  C   UNL     1      -7.449  -3.144  -6.155  1.00  0.00     0.029 A 
ATOM     54  N   UNL     1      -7.725  -3.344  -8.364  1.00  0.00    -0.354 N 
ATOM     55  C   UNL     1      -6.488  -6.885 -10.470  1.00  0.00     0.074 A 
ATOM     56  C   UNL     1      -5.909  -7.860  -9.570  1.00  0.00     0.031 C 
ATOM     57  C   UNL     1      -7.938  -1.978  -6.606  1.00  0.00     0.029 A 
ATOM     58  C   UNL     1      -8.108  -2.059  -8.053  1.00  0.00     0.049 A 
ATOM     59  H   UNL     1      -7.757  -3.709  -9.278  1.00  0.00     0.167 HD
ATOM     60  C   UNL     1      -6.621  -7.065 -11.807  1.00  0.00     0.034 A 
ATOM     61  C   UNL     1      -8.540  -1.054  -8.840  1.00  0.00     0.034 A 
ATOM     62  C   UNL     1      -7.230  -6.114 -12.700  1.00  0.00     0.049 A 
ATOM     63  C   UNL     1      -8.696  -1.289 -10.318  1.00  0.00     0.074 A 
ATOM     64  C   UNL     1      -7.476  -6.244 -14.057  1.00  0.00     0.029 A 
ATOM     65  N   UNL     1      -7.686  -4.858 -12.333  1.00  0.00    -0.354 N 
ATOM     66  N   UNL     1      -8.467  -2.380 -11.007  1.00  0.00    -0.248 NA
ATOM     67  C   UNL     1      -9.202  -0.166 -11.122  1.00  0.00     0.031 C 
ATOM     68  C   UNL     1      -8.072  -5.062 -14.511  1.00  0.00     0.029 A 
ATOM     69  C   UNL     1      -8.206  -4.201 -13.435  1.00  0.00     0.049 A 
ATOM     70  H   UNL     1      -7.645  -4.488 -11.421  1.00  0.00     0.167 HD
ATOM     71  C   UNL     1      -8.832  -2.085 -12.316  1.00  0.00     0.074 A 
ATOM     72  C   UNL     1      -9.320  -0.722 -12.320  1.00  0.00     0.031 C 
ATOM     73  C   UNL     1      -8.748  -2.868 -13.419  1.00  0.00     0.034 A 
BRANCH  60  74
ATOM     74  C   UNL     1      -6.178  -8.384 -12.388  1.00  0.00     0.023 A 
ATOM     75  C   UNL     1      -6.966  -9.530 -12.155  1.00  0.00     0.012 A 
ATOM     76  C   UNL     1      -5.055  -8.479 -13.233  1.00  0.00     0.148 A 
ATOM     77  C   UNL     1      -6.632 -10.754 -12.731  1.00  0.00     0.002 A 
ATOM     78  C   UNL     1      -4.748  -9.696 -13.835  1.00  0.00     0.091 A 
ATOM     79  F   UNL     1      -4.310  -7.383 -13.433  1.00  0.00    -0.205 F 
ATOM     80  C   UNL     1      -5.530 -10.835 -13.579  1.00  0.00     0.022 A 
BRANCH  78  81
ATOM     81  S   UNL     1      -3.393  -9.892 -15.000  1.00  0.00     0.127 S 
ATOM     82  O   UNL     1      -2.451 -10.696 -14.223  1.00  0.00    -0.237 OA
ATOM     83  O   UNL     1      -4.036 -10.605 -16.104  1.00  0.00    -0.237 OA
ATOM     84  O   UNL     1      -2.945  -8.546 -15.325  1.00  0.00    -0.744 OA
ENDBRANCH  78  81
ENDBRANCH  60  74
BRANCH  61  85
ATOM     85  C   UNL     1      -8.921   0.256  -8.236  1.00  0.00     0.023 A 
ATOM     86  C   UNL     1     -10.277   0.636  -8.212  1.00  0.00     0.012 A 
ATOM     87  C   UNL     1      -7.957   1.116  -7.676  1.00  0.00     0.148 A 
ATOM     88  C   UNL     1     -10.662   1.864  -7.673  1.00  0.00     0.002 A 
ATOM     89  C   UNL     1      -8.354   2.312  -7.090  1.00  0.00     0.091 A 
ATOM     90  F   UNL     1      -6.668   0.749  -7.725  1.00  0.00    -0.205 F 
ATOM     91  C   UNL     1      -9.703   2.697  -7.103  1.00  0.00     0.022 A 
BRANCH  89  92
ATOM     92  S   UNL     1      -7.194   3.367  -6.213  1.00  0.00     0.127 S 
ATOM     93  O   UNL     1      -6.909   4.394  -7.210  1.00  0.00    -0.237 OA
ATOM     94  O   UNL     1      -7.987   3.819  -5.070  1.00  0.00    -0.237 OA
ATOM     95  O   UNL     1      -6.083   2.493  -5.854  1.00  0.00    -0.744 OA
ENDBRANCH  89  92
ENDBRANCH  61  85
BRANCH  73  96
ATOM     96  C   UNL     1      -9.216  -2.287 -14.728  1.00  0.00     0.023 A 
ATOM     97  C   UNL     1      -8.422  -1.326 -15.384  1.00  0.00     0.012 A 
ATOM     98  C   UNL     1     -10.397  -2.747 -15.344  1.00  0.00     0.148 A 
ATOM     99  C   UNL     1      -8.807  -0.813 -16.622  1.00  0.00     0.002 A 
ATOM    100  C   UNL     1     -10.753  -2.263 -16.597  1.00  0.00     0.091 A 
ATOM    101  F   UNL     1     -11.147  -3.648 -14.694  1.00  0.00    -0.205 F 
ATOM    102  C   UNL     1      -9.965  -1.289 -17.233  1.00  0.00     0.022 A 
BRANCH 100 103
ATOM    103  S   UNL     1     -12.179  -2.876 -17.503  1.00  0.00     0.127 S 
ATOM    104  O   UNL     1     -13.082  -1.727 -17.449  1.00  0.00    -0.237 OA
ATOM    105  O   UNL     1     -11.613  -3.146 -18.825  1.00  0.00    -0.237 OA
ATOM    106  O   UNL     1     -12.633  -4.059 -16.785  1.00  0.00    -0.744 OA
ENDBRANCH 100 103
ENDBRANCH  73  96
ENDBRANCH  47  48
ENDBRANCH  39  42
ENDBRANCH  37  38
ENDBRANCH  36  37
ENDBRANCH  35  36
ENDBRANCH   1  35
TORSDOF 21
