REMARK SMILES CC[C@@]1(C(=O)NCCCCCCNC(=O)c2ccc(-c3c4nc(c(-c5cccc(S(=O)(=O)[O-])c5F)c5ccc([nH]5)c(-c5cccc(S(=O)(=O)[O-])c5F)c5nc(c(-c6cccc(S(=O)(=O)[O-])c6F)c6ccc3[nH]6)C=C5)C=C4)cc2)CCC[N@@H+](Cc2ccc(C3CC3)cc2)C1
REMARK SMILES IDX 9 1 8 2 7 3 6 4 4 5 5 6 3 8 79 9 93 10 80 11 82 12 81 13
REMARK SMILES IDX 2 15 1 16 83 17 84 18 85 19 92 20 86 21 91 22 87 23 88 24
REMARK SMILES IDX 89 25 90 26 10 27 11 28 12 29 13 30 14 31 15 33 16 34 17 35
REMARK SMILES IDX 78 36 18 37 77 38 19 39 20 40 21 41 71 42 22 43 76 44 70 45
REMARK SMILES IDX 72 46 23 47 75 48 69 49 68 50 24 52 56 53 36 54 55 55 37 56
REMARK SMILES IDX 40 57 54 58 73 59 38 60 39 61 53 63 74 64 41 65 25 66 26 67
REMARK SMILES IDX 34 68 27 69 29 70 35 71 28 72 30 73 31 74 32 75 33 76 57 77
REMARK SMILES IDX 58 78 66 79 59 80 61 81 67 82 60 83 62 84 63 85 64 86 65 87
REMARK SMILES IDX 42 88 43 89 51 90 44 91 46 92 52 93 45 94 47 95 48 96 49 97
REMARK SMILES IDX 50 98
REMARK H PARENT 6 7 82 14 13 32 72 51 40 62
REMARK Flexibility Score: inf
ROOT
ATOM      1  C   UNL     1      -3.809  -1.041   0.009  1.00  0.00     0.002 C 
ENDROOT
BRANCH   1   2
ATOM      2  C   UNL     1      -3.141  -0.477   1.268  1.00  0.00     0.021 C 
BRANCH   2   3
ATOM      3  C   UNL     1      -2.077  -1.401   1.861  1.00  0.00     0.116 C 
BRANCH   3   4
ATOM      4  N   UNL     1      -0.887  -1.386   1.044  1.00  0.00    -0.355 N 
ATOM      5  C   UNL     1       0.326  -0.794   1.160  1.00  0.00     0.231 C 
ATOM      6  O   UNL     1       1.041  -0.915   0.154  1.00  0.00    -0.274 OA
ATOM      7  H   UNL     1      -0.976  -1.922   0.223  1.00  0.00     0.163 HD
BRANCH   5   8
ATOM      8  C   UNL     1       0.907  -0.221   2.478  1.00  0.00     0.098 C 
ATOM      9  C   UNL     1      -0.001   0.576   3.436  1.00  0.00     0.028 C 
ATOM     10  C   UNL     1       2.029   0.782   2.075  1.00  0.00     0.279 C 
ATOM     11  C   UNL     1      -0.549   1.832   2.773  1.00  0.00     0.063 C 
ATOM     12  N   UNL     1       1.555   2.054   1.488  1.00  0.00    -0.330 N 
ATOM     13  C   UNL     1       0.590   2.750   2.345  1.00  0.00     0.262 C 
ATOM     14  H   UNL     1       1.051   1.803   0.637  1.00  0.00     0.348 HD
BRANCH   8  15
ATOM     15  C   UNL     1       1.485  -1.472   3.222  1.00  0.00     0.019 C 
ATOM     16  C   UNL     1       2.730  -1.249   4.075  1.00  0.00     0.005 C 
ENDBRANCH   8  15
BRANCH  12  17
ATOM     17  C   UNL     1       2.675   2.932   1.078  1.00  0.00     0.299 C 
BRANCH  17  18
ATOM     18  C   UNL     1       3.542   3.456   2.211  1.00  0.00     0.006 A 
ATOM     19  C   UNL     1       3.339   4.735   2.738  1.00  0.00     0.010 A 
ATOM     20  C   UNL     1       4.491   2.632   2.824  1.00  0.00     0.010 A 
ATOM     21  C   UNL     1       4.003   5.134   3.904  1.00  0.00     0.004 A 
ATOM     22  C   UNL     1       5.119   3.023   4.009  1.00  0.00     0.004 A 
ATOM     23  C   UNL     1       4.877   4.275   4.595  1.00  0.00    -0.045 A 
BRANCH  23  24
ATOM     24  C   UNL     1       5.494   4.710   5.910  1.00  0.00     0.019 C 
ATOM     25  C   UNL     1       5.808   3.715   7.003  1.00  0.00     0.009 C 
ATOM     26  C   UNL     1       6.926   4.363   6.238  1.00  0.00     0.009 C 
ENDBRANCH  23  24
ENDBRANCH  17  18
ENDBRANCH  12  17
ENDBRANCH   5   8
ENDBRANCH   3   4
ENDBRANCH   2   3
ENDBRANCH   1   2
BRANCH   1  27
ATOM     27  C   UNL     1      -4.508  -2.389   0.209  1.00  0.00     0.002 C 
BRANCH  27  28
ATOM     28  C   UNL     1      -5.496  -2.427   1.378  1.00  0.00     0.021 C 
BRANCH  28  29
ATOM     29  C   UNL     1      -6.596  -1.374   1.304  1.00  0.00     0.116 C 
BRANCH  29  30
ATOM     30  N   UNL     1      -7.411  -1.533   0.111  1.00  0.00    -0.352 N 
ATOM     31  C   UNL     1      -8.769  -1.693   0.008  1.00  0.00     0.251 C 
ATOM     32  H   UNL     1      -6.919  -1.525  -0.743  1.00  0.00     0.163 HD
ATOM     33  O   UNL     1      -9.269  -2.048  -1.053  1.00  0.00    -0.269 OA
BRANCH  31  34
ATOM     34  C   UNL     1      -9.621  -1.444   1.190  1.00  0.00     0.039 A 
ATOM     35  C   UNL     1     -10.639  -2.350   1.491  1.00  0.00     0.014 A 
ATOM     36  C   UNL     1      -9.417  -0.317   1.991  1.00  0.00     0.014 A 
ATOM     37  C   UNL     1     -11.426  -2.147   2.626  1.00  0.00     0.010 A 
ATOM     38  C   UNL     1     -10.150  -0.160   3.163  1.00  0.00     0.010 A 
ATOM     39  C   UNL     1     -11.171  -1.065   3.486  1.00  0.00    -0.014 A 
BRANCH  39  40
ATOM     40  C   UNL     1     -11.961  -0.880   4.729  1.00  0.00     0.031 A 
ATOM     41  C   UNL     1     -12.813   0.346   4.918  1.00  0.00     0.074 A 
ATOM     42  C   UNL     1     -11.859  -1.790   5.718  1.00  0.00     0.049 A 
ATOM     43  N   UNL     1     -13.568   0.674   5.934  1.00  0.00    -0.248 NA
ATOM     44  C   UNL     1     -12.794   1.349   3.840  1.00  0.00     0.031 C 
ATOM     45  C   UNL     1     -10.997  -2.974   5.690  1.00  0.00     0.029 A 
ATOM     46  N   UNL     1     -12.470  -1.854   6.945  1.00  0.00    -0.354 N 
ATOM     47  C   UNL     1     -14.089   1.927   5.634  1.00  0.00     0.074 A 
ATOM     48  C   UNL     1     -13.532   2.320   4.359  1.00  0.00     0.031 C 
ATOM     49  C   UNL     1     -11.145  -3.654   6.838  1.00  0.00     0.029 A 
ATOM     50  C   UNL     1     -12.088  -2.942   7.694  1.00  0.00     0.049 A 
ATOM     51  H   UNL     1     -13.120  -1.185   7.259  1.00  0.00     0.167 HD
ATOM     52  C   UNL     1     -14.974   2.670   6.340  1.00  0.00     0.034 A 
ATOM     53  C   UNL     1     -12.455  -3.324   8.933  1.00  0.00     0.034 A 
ATOM     54  C   UNL     1     -15.551   2.258   7.591  1.00  0.00     0.049 A 
ATOM     55  C   UNL     1     -13.475  -2.505   9.676  1.00  0.00     0.074 A 
ATOM     56  C   UNL     1     -16.523   2.895   8.342  1.00  0.00     0.029 A 
ATOM     57  N   UNL     1     -15.203   1.108   8.283  1.00  0.00    -0.354 N 
ATOM     58  N   UNL     1     -14.082  -1.405   9.301  1.00  0.00    -0.248 NA
ATOM     59  C   UNL     1     -13.893  -3.002  10.995  1.00  0.00     0.031 C 
ATOM     60  C   UNL     1     -16.739   2.146   9.503  1.00  0.00     0.029 A 
ATOM     61  C   UNL     1     -15.931   1.022   9.457  1.00  0.00     0.049 A 
ATOM     62  H   UNL     1     -14.535   0.449   7.983  1.00  0.00     0.167 HD
ATOM     63  C   UNL     1     -14.980  -1.100  10.316  1.00  0.00     0.074 A 
ATOM     64  C   UNL     1     -14.851  -2.142  11.314  1.00  0.00     0.031 C 
ATOM     65  C   UNL     1     -15.829  -0.047  10.418  1.00  0.00     0.034 A 
BRANCH  52  66
ATOM     66  C   UNL     1     -15.409   3.989   5.753  1.00  0.00     0.023 A 
ATOM     67  C   UNL     1     -16.231   4.005   4.607  1.00  0.00     0.012 A 
ATOM     68  C   UNL     1     -15.057   5.207   6.366  1.00  0.00     0.148 A 
ATOM     69  C   UNL     1     -16.663   5.212   4.058  1.00  0.00     0.002 A 
ATOM     70  C   UNL     1     -15.531   6.404   5.842  1.00  0.00     0.091 A 
ATOM     71  F   UNL     1     -14.259   5.175   7.443  1.00  0.00    -0.205 F 
ATOM     72  C   UNL     1     -16.323   6.409   4.681  1.00  0.00     0.022 A 
BRANCH  70  73
ATOM     73  S   UNL     1     -15.219   7.994   6.617  1.00  0.00     0.127 S 
ATOM     74  O   UNL     1     -14.300   8.612   5.663  1.00  0.00    -0.237 OA
ATOM     75  O   UNL     1     -16.556   8.588   6.649  1.00  0.00    -0.237 OA
ATOM     76  O   UNL     1     -14.654   7.699   7.926  1.00  0.00    -0.744 OA
ENDBRANCH  70  73
ENDBRANCH  52  66
BRANCH  53  77
ATOM     77  C   UNL     1     -11.904  -4.579   9.517  1.00  0.00     0.023 A 
ATOM     78  C   UNL     1     -12.746  -5.696   9.685  1.00  0.00     0.012 A 
ATOM     79  C   UNL     1     -10.546  -4.683   9.877  1.00  0.00     0.148 A 
ATOM     80  C   UNL     1     -12.255  -6.882  10.231  1.00  0.00     0.002 A 
ATOM     81  C   UNL     1     -10.050  -5.885  10.367  1.00  0.00     0.091 A 
ATOM     82  F   UNL     1      -9.764  -3.606   9.717  1.00  0.00    -0.205 F 
ATOM     83  C   UNL     1     -10.906  -6.980  10.563  1.00  0.00     0.022 A 
BRANCH  81  84
ATOM     84  S   UNL     1      -8.303  -6.143  10.692  1.00  0.00     0.127 S 
ATOM     85  O   UNL     1      -8.280  -6.233  12.150  1.00  0.00    -0.237 OA
ATOM     86  O   UNL     1      -8.049  -7.403   9.992  1.00  0.00    -0.237 OA
ATOM     87  O   UNL     1      -7.620  -4.991  10.119  1.00  0.00    -0.744 OA
ENDBRANCH  81  84
ENDBRANCH  53  77
BRANCH  65  88
ATOM     88  C   UNL     1     -16.724   0.015  11.628  1.00  0.00     0.023 A 
ATOM     89  C   UNL     1     -16.182   0.316  12.893  1.00  0.00     0.012 A 
ATOM     90  C   UNL     1     -18.116  -0.155  11.494  1.00  0.00     0.148 A 
ATOM     91  C   UNL     1     -17.008   0.410  14.013  1.00  0.00     0.002 A 
ATOM     92  C   UNL     1     -18.939  -0.008  12.604  1.00  0.00     0.091 A 
ATOM     93  F   UNL     1     -18.610  -0.459  10.285  1.00  0.00    -0.205 F 
ATOM     94  C   UNL     1     -18.385   0.260  13.866  1.00  0.00     0.022 A 
BRANCH  92  95
ATOM     95  S   UNL     1     -20.730  -0.084  12.491  1.00  0.00     0.127 S 
ATOM     96  O   UNL     1     -21.015  -1.363  13.137  1.00  0.00    -0.237 OA
ATOM     97  O   UNL     1     -21.138   1.093  13.260  1.00  0.00    -0.237 OA
ATOM     98  O   UNL     1     -21.046  -0.016  11.071  1.00  0.00    -0.744 OA
ENDBRANCH  92  95
ENDBRANCH  65  88
ENDBRANCH  39  40
ENDBRANCH  31  34
ENDBRANCH  29  30
ENDBRANCH  28  29
ENDBRANCH  27  28
ENDBRANCH   1  27
TORSDOF 20
