REMARK SMILES CC(C)(C[NH+]1CCC(C(N)=S)CC1)C(=O)NCCCCCCNC(=O)c1ccc(-c2c3nc(c(-c4cccc(S(=O)(=O)[O-])c4F)c4ccc([nH]4)c(-c4cccc(S(=O)(=O)[O-])c4F)c4nc(c(-c5cccc(S(=O)(=O)[O-])c5F)c5ccc2[nH]5)C=C4)C=C3)cc1
REMARK SMILES IDX 19 1 18 2 17 3 16 4 14 5 15 6 2 8 1 9 3 10 4 11 5 12 6 13
REMARK SMILES IDX 13 14 7 16 12 17 8 18 9 19 11 20 10 21 20 24 21 25 22 26
REMARK SMILES IDX 23 27 24 28 25 30 26 31 27 32 88 33 28 34 87 35 29 36 30 37
REMARK SMILES IDX 31 38 81 39 32 40 86 41 80 42 82 43 33 44 85 45 79 46 78 47
REMARK SMILES IDX 34 49 66 50 46 51 65 52 47 53 50 54 64 55 83 56 48 57 49 58
REMARK SMILES IDX 63 60 84 61 51 62 35 63 36 64 44 65 37 66 39 67 45 68 38 69
REMARK SMILES IDX 40 70 41 71 42 72 43 73 67 74 68 75 76 76 69 77 71 78 77 79
REMARK SMILES IDX 70 80 72 81 73 82 74 83 75 84 52 85 53 86 61 87 54 88 56 89
REMARK SMILES IDX 62 90 55 91 57 92 58 93 59 94 60 95
REMARK H PARENT 16 7 5 15 10 22 10 23 23 29 82 48 50 59
REMARK Flexibility Score: inf
ROOT
ATOM      1  C   UNL     1      -0.904  -4.326   4.581  1.00  0.00     0.002 C 
ENDROOT
BRANCH   1   2
ATOM      2  C   UNL     1      -1.386  -2.943   4.138  1.00  0.00     0.021 C 
BRANCH   2   3
ATOM      3  C   UNL     1      -0.298  -1.885   3.976  1.00  0.00     0.116 C 
BRANCH   3   4
ATOM      4  N   UNL     1       0.711  -2.244   2.996  1.00  0.00    -0.355 N 
ATOM      5  C   UNL     1       1.199  -1.616   1.893  1.00  0.00     0.231 C 
ATOM      6  O   UNL     1       2.153  -2.182   1.343  1.00  0.00    -0.274 OA
ATOM      7  H   UNL     1       1.125  -3.121   3.163  1.00  0.00     0.163 HD
BRANCH   5   8
ATOM      8  C   UNL     1       0.616  -0.306   1.326  1.00  0.00     0.092 C 
ATOM      9  C   UNL     1       1.505   0.162   0.146  1.00  0.00     0.027 C 
ATOM     10  C   UNL     1       0.759   0.827   2.373  1.00  0.00     0.027 C 
BRANCH   8  11
ATOM     11  C   UNL     1      -0.881  -0.445   0.883  1.00  0.00     0.278 C 
BRANCH  11  12
ATOM     12  N   UNL     1      -1.353  -1.388  -0.154  1.00  0.00    -0.334 N 
ATOM     13  C   UNL     1      -0.904  -1.098  -1.513  1.00  0.00     0.262 C 
ATOM     14  C   UNL     1      -1.251  -2.799   0.220  1.00  0.00     0.262 C 
ATOM     15  H   UNL     1      -2.356  -1.204  -0.192  1.00  0.00     0.348 HD
ATOM     16  C   UNL     1      -1.564  -2.010  -2.552  1.00  0.00     0.072 C 
ATOM     17  C   UNL     1      -1.889  -3.741  -0.803  1.00  0.00     0.072 C 
ATOM     18  C   UNL     1      -1.298  -3.473  -2.185  1.00  0.00     0.058 C 
BRANCH  18  19
ATOM     19  C   UNL     1      -1.760  -4.458  -3.247  1.00  0.00     0.076 C 
ATOM     20  S   UNL     1      -3.333  -4.675  -3.752  1.00  0.00    -0.066 S 
BRANCH  19  21
ATOM     21  N   UNL     1      -0.767  -5.207  -3.816  1.00  0.00    -0.393 N 
ATOM     22  H   UNL     1       0.166  -5.088  -3.527  1.00  0.00     0.157 HD
ATOM     23  H   UNL     1      -0.986  -5.864  -4.516  1.00  0.00     0.157 HD
ENDBRANCH  19  21
ENDBRANCH  18  19
ENDBRANCH  11  12
ENDBRANCH   8  11
ENDBRANCH   5   8
ENDBRANCH   3   4
ENDBRANCH   2   3
ENDBRANCH   1   2
BRANCH   1  24
ATOM     24  C   UNL     1      -0.158  -4.358   5.916  1.00  0.00     0.002 C 
BRANCH  24  25
ATOM     25  C   UNL     1      -0.878  -3.685   7.089  1.00  0.00     0.021 C 
BRANCH  25  26
ATOM     26  C   UNL     1      -2.297  -4.178   7.358  1.00  0.00     0.116 C 
BRANCH  26  27
ATOM     27  N   UNL     1      -2.336  -5.588   7.701  1.00  0.00    -0.352 N 
ATOM     28  C   UNL     1      -2.929  -6.209   8.772  1.00  0.00     0.251 C 
ATOM     29  H   UNL     1      -1.869  -6.187   7.074  1.00  0.00     0.163 HD
ATOM     30  O   UNL     1      -2.703  -7.397   8.985  1.00  0.00    -0.269 OA
BRANCH  28  31
ATOM     31  C   UNL     1      -3.820  -5.452   9.681  1.00  0.00     0.039 A 
ATOM     32  C   UNL     1      -3.690  -5.647  11.059  1.00  0.00     0.014 A 
ATOM     33  C   UNL     1      -4.795  -4.578   9.189  1.00  0.00     0.014 A 
ATOM     34  C   UNL     1      -4.505  -4.935  11.942  1.00  0.00     0.010 A 
ATOM     35  C   UNL     1      -5.563  -3.820  10.074  1.00  0.00     0.010 A 
ATOM     36  C   UNL     1      -5.432  -3.996  11.459  1.00  0.00    -0.014 A 
BRANCH  36  37
ATOM     37  C   UNL     1      -6.244  -3.183  12.402  1.00  0.00     0.031 A 
ATOM     38  C   UNL     1      -7.742  -3.325  12.455  1.00  0.00     0.074 A 
ATOM     39  C   UNL     1      -5.631  -2.266  13.177  1.00  0.00     0.049 A 
ATOM     40  N   UNL     1      -8.598  -2.718  13.238  1.00  0.00    -0.248 NA
ATOM     41  C   UNL     1      -8.363  -4.248  11.492  1.00  0.00     0.031 C 
ATOM     42  C   UNL     1      -4.199  -1.960  13.150  1.00  0.00     0.029 A 
ATOM     43  N   UNL     1      -6.135  -1.410  14.124  1.00  0.00    -0.354 N 
ATOM     44  C   UNL     1      -9.855  -3.162  12.846  1.00  0.00     0.074 A 
ATOM     45  C   UNL     1      -9.654  -4.064  11.733  1.00  0.00     0.031 C 
ATOM     46  C   UNL     1      -3.939  -0.994  14.045  1.00  0.00     0.029 A 
ATOM     47  C   UNL     1      -5.183  -0.600  14.698  1.00  0.00     0.049 A 
ATOM     48  H   UNL     1      -7.088  -1.379  14.370  1.00  0.00     0.167 HD
ATOM     49  C   UNL     1     -11.065  -2.870  13.383  1.00  0.00     0.034 A 
ATOM     50  C   UNL     1      -5.296   0.348  15.649  1.00  0.00     0.034 A 
ATOM     51  C   UNL     1     -11.259  -2.008  14.518  1.00  0.00     0.049 A 
ATOM     52  C   UNL     1      -6.640   0.598  16.277  1.00  0.00     0.074 A 
ATOM     53  C   UNL     1     -12.432  -1.731  15.198  1.00  0.00     0.029 A 
ATOM     54  N   UNL     1     -10.258  -1.277  15.138  1.00  0.00    -0.354 N 
ATOM     55  N   UNL     1      -7.791   0.026  16.019  1.00  0.00    -0.248 NA
ATOM     56  C   UNL     1      -6.693   1.591  17.360  1.00  0.00     0.031 C 
ATOM     57  C   UNL     1     -12.143  -0.818  16.219  1.00  0.00     0.029 A 
ATOM     58  C   UNL     1     -10.786  -0.541  16.186  1.00  0.00     0.049 A 
ATOM     59  H   UNL     1      -9.310  -1.280  14.873  1.00  0.00     0.167 HD
ATOM     60  C   UNL     1      -8.697   0.567  16.923  1.00  0.00     0.074 A 
ATOM     61  C   UNL     1      -7.954   1.489  17.757  1.00  0.00     0.031 C 
ATOM     62  C   UNL     1     -10.029   0.339  17.039  1.00  0.00     0.034 A 
BRANCH  49  63
ATOM     63  C   UNL     1     -12.276  -3.542  12.787  1.00  0.00     0.023 A 
ATOM     64  C   UNL     1     -12.486  -4.918  13.015  1.00  0.00     0.012 A 
ATOM     65  C   UNL     1     -13.238  -2.807  12.067  1.00  0.00     0.148 A 
ATOM     66  C   UNL     1     -13.616  -5.558  12.509  1.00  0.00     0.002 A 
ATOM     67  C   UNL     1     -14.383  -3.444  11.601  1.00  0.00     0.091 A 
ATOM     68  F   UNL     1     -13.012  -1.505  11.842  1.00  0.00    -0.205 F 
ATOM     69  C   UNL     1     -14.569  -4.820  11.812  1.00  0.00     0.022 A 
BRANCH  67  70
ATOM     70  S   UNL     1     -15.707  -2.567  10.761  1.00  0.00     0.127 S 
ATOM     71  O   UNL     1     -15.548  -3.040   9.387  1.00  0.00    -0.237 OA
ATOM     72  O   UNL     1     -16.896  -3.072  11.446  1.00  0.00    -0.237 OA
ATOM     73  O   UNL     1     -15.443  -1.149  10.969  1.00  0.00    -0.744 OA
ENDBRANCH  67  70
ENDBRANCH  49  63
BRANCH  50  74
ATOM     74  C   UNL     1      -4.083   1.072  16.121  1.00  0.00     0.023 A 
ATOM     75  C   UNL     1      -3.579   0.810  17.410  1.00  0.00     0.012 A 
ATOM     76  C   UNL     1      -3.407   1.989  15.293  1.00  0.00     0.148 A 
ATOM     77  C   UNL     1      -2.442   1.471  17.877  1.00  0.00     0.002 A 
ATOM     78  C   UNL     1      -2.243   2.601  15.743  1.00  0.00     0.091 A 
ATOM     79  F   UNL     1      -3.910   2.236  14.075  1.00  0.00    -0.205 F 
ATOM     80  C   UNL     1      -1.769   2.357  17.041  1.00  0.00     0.022 A 
BRANCH  78  81
ATOM     81  S   UNL     1      -1.239   3.646  14.681  1.00  0.00     0.127 S 
ATOM     82  O   UNL     1      -1.538   4.977  15.200  1.00  0.00    -0.237 OA
ATOM     83  O   UNL     1       0.112   3.161  14.965  1.00  0.00    -0.237 OA
ATOM     84  O   UNL     1      -1.696   3.374  13.324  1.00  0.00    -0.744 OA
ENDBRANCH  78  81
ENDBRANCH  50  74
BRANCH  62  85
ATOM     85  C   UNL     1     -10.770   1.087  18.117  1.00  0.00     0.023 A 
ATOM     86  C   UNL     1     -10.998   2.470  17.973  1.00  0.00     0.012 A 
ATOM     87  C   UNL     1     -11.280   0.417  19.246  1.00  0.00     0.148 A 
ATOM     88  C   UNL     1     -11.687   3.182  18.955  1.00  0.00     0.002 A 
ATOM     89  C   UNL     1     -12.007   1.124  20.197  1.00  0.00     0.091 A 
ATOM     90  F   UNL     1     -11.036  -0.895  19.379  1.00  0.00    -0.205 F 
ATOM     91  C   UNL     1     -12.200   2.508  20.060  1.00  0.00     0.022 A 
BRANCH  89  92
ATOM     92  S   UNL     1     -12.780   0.315  21.602  1.00  0.00     0.127 S 
ATOM     93  O   UNL     1     -11.847   0.633  22.681  1.00  0.00    -0.237 OA
ATOM     94  O   UNL     1     -14.070   1.001  21.691  1.00  0.00    -0.237 OA
ATOM     95  O   UNL     1     -12.875  -1.094  21.244  1.00  0.00    -0.744 OA
ENDBRANCH  89  92
ENDBRANCH  62  85
ENDBRANCH  36  37
ENDBRANCH  28  31
ENDBRANCH  26  27
ENDBRANCH  25  26
ENDBRANCH  24  25
ENDBRANCH   1  24
TORSDOF 20
