REMARK SMILES NNS(=O)(=O)c1ccc(O)c(C(=O)NCCCCCCNC(=O)c2ccc(-c3c4nc(c(-c5cccc(S(=O)(=O)[O-])c5F)c5ccc([nH]5)c(-c5cccc(S(=O)(=O)[O-])c5F)c5nc(c(-c6cccc(S(=O)(=O)[O-])c6F)c6ccc3[nH]6)C=C5)C=C4)cc2)c1
REMARK SMILES IDX 17 1 16 2 15 3 14 4 12 5 13 6 11 8 6 9 7 10 87 11 8 12 9 13
REMARK SMILES IDX 3 14 4 15 5 16 2 17 1 19 10 22 18 24 19 25 20 26 21 27 22 28
REMARK SMILES IDX 23 30 24 31 25 32 86 33 26 34 85 35 27 36 28 37 29 38 79 39
REMARK SMILES IDX 30 40 84 41 78 42 80 43 31 44 83 45 77 46 76 47 32 49 64 50
REMARK SMILES IDX 44 51 63 52 45 53 48 54 62 55 81 56 46 57 47 58 61 60 82 61
REMARK SMILES IDX 49 62 33 63 34 64 42 65 35 66 37 67 43 68 36 69 38 70 39 71
REMARK SMILES IDX 40 72 41 73 65 74 66 75 74 76 67 77 69 78 75 79 68 80 70 81
REMARK SMILES IDX 71 82 72 83 73 84 50 85 51 86 59 87 52 88 54 89 60 90 53 91
REMARK SMILES IDX 55 92 56 93 57 94 58 95
REMARK H PARENT 14 7 2 18 1 20 1 21 10 23 21 29 80 48 48 59
REMARK Flexibility Score: inf
ROOT
ATOM      1  C   UNL     1      -6.753   6.536   2.205  1.00  0.00     0.002 C 
ENDROOT
BRANCH   1   2
ATOM      2  C   UNL     1      -5.361   5.968   1.908  1.00  0.00     0.021 C 
BRANCH   2   3
ATOM      3  C   UNL     1      -4.864   4.973   2.964  1.00  0.00     0.116 C 
BRANCH   3   4
ATOM      4  N   UNL     1      -5.351   3.644   2.653  1.00  0.00    -0.352 N 
ATOM      5  C   UNL     1      -4.780   2.577   2.012  1.00  0.00     0.255 C 
ATOM      6  O   UNL     1      -5.508   1.595   1.832  1.00  0.00    -0.269 OA
ATOM      7  H   UNL     1      -6.270   3.475   2.963  1.00  0.00     0.163 HD
BRANCH   5   8
ATOM      8  C   UNL     1      -3.345   2.475   1.601  1.00  0.00     0.082 A 
ATOM      9  C   UNL     1      -1.526   0.899   1.181  1.00  0.00     0.084 A 
ATOM     10  C   UNL     1      -0.676   1.940   0.818  1.00  0.00     0.025 A 
ATOM     11  C   UNL     1      -2.831   1.161   1.608  1.00  0.00     0.039 A 
ATOM     12  C   UNL     1      -1.170   3.240   0.797  1.00  0.00     0.048 A 
ATOM     13  C   UNL     1      -2.507   3.497   1.131  1.00  0.00     0.128 A 
BRANCH   9  14
ATOM     14  S   UNL     1      -1.013  -0.786   0.982  1.00  0.00     0.253 S 
ATOM     15  O   UNL     1      -1.336  -1.168  -0.377  1.00  0.00    -0.206 OA
ATOM     16  O   UNL     1      -1.454  -1.538   2.137  1.00  0.00    -0.206 OA
BRANCH  14  17
ATOM     17  N   UNL     1       0.716  -0.677   1.116  1.00  0.00    -0.150 NA
ATOM     18  H   UNL     1       0.977   0.294   1.285  1.00  0.00     0.160 HD
BRANCH  17  19
ATOM     19  N   UNL     1       1.350  -1.129  -0.076  1.00  0.00    -0.257 NA
ATOM     20  H   UNL     1       2.362  -1.055   0.029  1.00  0.00     0.138 HD
ATOM     21  H   UNL     1       1.046  -0.553  -0.861  1.00  0.00     0.138 HD
ENDBRANCH  17  19
ENDBRANCH  14  17
ENDBRANCH   9  14
BRANCH  13  22
ATOM     22  O   UNL     1      -2.966   4.758   0.890  1.00  0.00    -0.507 OA
ATOM     23  H   UNL     1      -2.380   5.418   0.576  1.00  0.00     0.293 HD
ENDBRANCH  13  22
ENDBRANCH   5   8
ENDBRANCH   3   4
ENDBRANCH   2   3
ENDBRANCH   1   2
BRANCH   1  24
ATOM     24  C   UNL     1      -6.807   7.506   3.391  1.00  0.00     0.002 C 
BRANCH  24  25
ATOM     25  C   UNL     1      -5.864   8.710   3.296  1.00  0.00     0.021 C 
BRANCH  25  26
ATOM     26  C   UNL     1      -6.080   9.600   2.074  1.00  0.00     0.116 C 
BRANCH  26  27
ATOM     27  N   UNL     1      -7.375  10.262   2.114  1.00  0.00    -0.352 N 
ATOM     28  C   UNL     1      -7.662  11.603   2.046  1.00  0.00     0.251 C 
ATOM     29  H   UNL     1      -8.153   9.666   2.202  1.00  0.00     0.163 HD
ATOM     30  O   UNL     1      -8.789  12.005   2.321  1.00  0.00    -0.269 OA
BRANCH  28  31
ATOM     31  C   UNL     1      -6.610  12.562   1.645  1.00  0.00     0.039 A 
ATOM     32  C   UNL     1      -6.451  13.743   2.376  1.00  0.00     0.014 A 
ATOM     33  C   UNL     1      -5.804  12.310   0.531  1.00  0.00     0.014 A 
ATOM     34  C   UNL     1      -5.451  14.652   2.017  1.00  0.00     0.010 A 
ATOM     35  C   UNL     1      -4.774  13.190   0.208  1.00  0.00     0.010 A 
ATOM     36  C   UNL     1      -4.594  14.373   0.940  1.00  0.00    -0.014 A 
BRANCH  36  37
ATOM     37  C   UNL     1      -3.510  15.308   0.549  1.00  0.00     0.031 A 
ATOM     38  C   UNL     1      -3.562  16.003  -0.784  1.00  0.00     0.074 A 
ATOM     39  C   UNL     1      -2.434  15.455   1.347  1.00  0.00     0.049 A 
ATOM     40  N   UNL     1      -2.670  16.775  -1.348  1.00  0.00    -0.248 NA
ATOM     41  C   UNL     1      -4.764  15.776  -1.605  1.00  0.00     0.031 C 
ATOM     42  C   UNL     1      -2.233  14.779   2.630  1.00  0.00     0.029 A 
ATOM     43  N   UNL     1      -1.290  16.195   1.179  1.00  0.00    -0.354 N 
ATOM     44  C   UNL     1      -3.180  17.091  -2.601  1.00  0.00     0.074 A 
ATOM     45  C   UNL     1      -4.449  16.409  -2.727  1.00  0.00     0.031 C 
ATOM     46  C   UNL     1      -1.036  15.128   3.128  1.00  0.00     0.029 A 
ATOM     47  C   UNL     1      -0.376  16.035   2.194  1.00  0.00     0.049 A 
ATOM     48  H   UNL     1      -1.138  16.784   0.405  1.00  0.00     0.167 HD
ATOM     49  C   UNL     1      -2.654  17.901  -3.551  1.00  0.00     0.034 A 
ATOM     50  C   UNL     1       0.857  16.558   2.352  1.00  0.00     0.034 A 
ATOM     51  C   UNL     1      -1.424  18.629  -3.397  1.00  0.00     0.049 A 
ATOM     52  C   UNL     1       1.386  17.510   1.313  1.00  0.00     0.074 A 
ATOM     53  C   UNL     1      -0.849  19.540  -4.265  1.00  0.00     0.029 A 
ATOM     54  N   UNL     1      -0.583  18.535  -2.300  1.00  0.00    -0.354 N 
ATOM     55  N   UNL     1       0.820  17.915   0.202  1.00  0.00    -0.248 NA
ATOM     56  C   UNL     1       2.705  18.109   1.567  1.00  0.00     0.031 C 
ATOM     57  C   UNL     1       0.342  19.998  -3.691  1.00  0.00     0.029 A 
ATOM     58  C   UNL     1       0.504  19.375  -2.464  1.00  0.00     0.049 A 
ATOM     59  H   UNL     1      -0.736  17.956  -1.518  1.00  0.00     0.167 HD
ATOM     60  C   UNL     1       1.693  18.841  -0.356  1.00  0.00     0.074 A 
ATOM     61  C   UNL     1       2.820  18.951   0.548  1.00  0.00     0.031 C 
ATOM     62  C   UNL     1       1.581  19.525  -1.521  1.00  0.00     0.034 A 
BRANCH  49  63
ATOM     63  C   UNL     1      -3.445  18.101  -4.816  1.00  0.00     0.023 A 
ATOM     64  C   UNL     1      -4.600  18.908  -4.785  1.00  0.00     0.012 A 
ATOM     65  C   UNL     1      -3.020  17.547  -6.039  1.00  0.00     0.148 A 
ATOM     66  C   UNL     1      -5.336  19.139  -5.946  1.00  0.00     0.002 A 
ATOM     67  C   UNL     1      -3.739  17.812  -7.200  1.00  0.00     0.091 A 
ATOM     68  F   UNL     1      -1.933  16.761  -6.044  1.00  0.00    -0.205 F 
ATOM     69  C   UNL     1      -4.901  18.600  -7.153  1.00  0.00     0.022 A 
BRANCH  67  70
ATOM     70  S   UNL     1      -3.216  17.221  -8.814  1.00  0.00     0.127 S 
ATOM     71  O   UNL     1      -4.167  16.137  -9.053  1.00  0.00    -0.237 OA
ATOM     72  O   UNL     1      -3.414  18.401  -9.657  1.00  0.00    -0.237 OA
ATOM     73  O   UNL     1      -1.826  16.816  -8.659  1.00  0.00    -0.744 OA
ENDBRANCH  67  70
ENDBRANCH  49  63
BRANCH  50  74
ATOM     74  C   UNL     1       1.637  16.257   3.585  1.00  0.00     0.023 A 
ATOM     75  C   UNL     1       1.801  17.265   4.555  1.00  0.00     0.012 A 
ATOM     76  C   UNL     1       2.180  14.980   3.823  1.00  0.00     0.148 A 
ATOM     77  C   UNL     1       2.515  17.015   5.727  1.00  0.00     0.002 A 
ATOM     78  C   UNL     1       2.847  14.723   5.016  1.00  0.00     0.091 A 
ATOM     79  F   UNL     1       2.030  14.038   2.881  1.00  0.00    -0.205 F 
ATOM     80  C   UNL     1       3.029  15.743   5.963  1.00  0.00     0.022 A 
BRANCH  78  81
ATOM     81  S   UNL     1       3.419  13.075   5.448  1.00  0.00     0.127 S 
ATOM     82  O   UNL     1       4.844  13.162   5.145  1.00  0.00    -0.237 OA
ATOM     83  O   UNL     1       3.095  12.998   6.874  1.00  0.00    -0.237 OA
ATOM     84  O   UNL     1       2.640  12.168   4.614  1.00  0.00    -0.744 OA
ENDBRANCH  78  81
ENDBRANCH  50  74
BRANCH  62  85
ATOM     85  C   UNL     1       2.685  20.483  -1.879  1.00  0.00     0.023 A 
ATOM     86  C   UNL     1       3.910  19.982  -2.361  1.00  0.00     0.012 A 
ATOM     87  C   UNL     1       2.476  21.875  -1.827  1.00  0.00     0.148 A 
ATOM     88  C   UNL     1       4.919  20.854  -2.767  1.00  0.00     0.002 A 
ATOM     89  C   UNL     1       3.472  22.737  -2.272  1.00  0.00     0.091 A 
ATOM     90  F   UNL     1       1.311  22.331  -1.344  1.00  0.00    -0.205 F 
ATOM     91  C   UNL     1       4.696  22.229  -2.734  1.00  0.00     0.022 A 
BRANCH  89  92
ATOM     92  S   UNL     1       3.232  24.516  -2.347  1.00  0.00     0.127 S 
ATOM     93  O   UNL     1       3.977  24.967  -1.173  1.00  0.00    -0.237 OA
ATOM     94  O   UNL     1       3.847  24.862  -3.629  1.00  0.00    -0.237 OA
ATOM     95  O   UNL     1       1.791  24.724  -2.297  1.00  0.00    -0.744 OA
ENDBRANCH  89  92
ENDBRANCH  62  85
ENDBRANCH  36  37
ENDBRANCH  28  31
ENDBRANCH  26  27
ENDBRANCH  25  26
ENDBRANCH  24  25
ENDBRANCH   1  24
TORSDOF 20
