REMARK SMILES O=C(CSc1ccc2ccccc2n1)NCc1ccc(C(=O)NCCCCCCNC(=O)c2ccc(-c3c4nc(c(-c5cccc(S(=O)(=O)[O-])c5F)c5ccc([nH]5)c(-c5cccc(S(=O)(=O)[O-])c5F)c5nc(c(-c6cccc(S(=O)(=O)[O-])c6F)c6ccc3[nH]6)C=C5)C=C4)cc2)cc1
REMARK SMILES IDX 25 1 24 2 23 3 21 4 22 5 20 7 17 8 18 9 97 10 19 11 96 12
REMARK SMILES IDX 16 13 15 14 1 15 2 16 3 18 4 19 5 20 6 21 14 22 7 23 13 24
REMARK SMILES IDX 8 25 12 26 9 27 11 28 10 29 26 30 27 31 28 32 29 33 30 34
REMARK SMILES IDX 31 35 32 37 33 38 34 39 95 40 35 41 94 42 36 43 37 44 38 45
REMARK SMILES IDX 88 46 39 47 93 48 87 49 89 50 40 51 92 52 86 53 85 54 41 56
REMARK SMILES IDX 73 57 53 58 72 59 54 60 57 61 71 62 90 63 55 64 56 65 70 67
REMARK SMILES IDX 91 68 58 69 42 70 43 71 51 72 44 73 46 74 52 75 45 76 47 77
REMARK SMILES IDX 48 78 49 79 50 80 74 81 75 82 83 83 76 84 78 85 84 86 77 87
REMARK SMILES IDX 79 88 80 89 81 90 82 91 59 92 60 93 68 94 61 95 63 96 69 97
REMARK SMILES IDX 62 98 64 99 65 100 66 101 67 102
REMARK H PARENT 23 6 15 17 30 36 89 55 57 66
REMARK Flexibility Score: inf
ROOT
ATOM      1  C   UNL     1       2.739   5.353   7.681  1.00  0.00     0.021 C 
ENDROOT
BRANCH   1   2
ATOM      2  C   UNL     1       3.875   4.510   7.097  1.00  0.00     0.116 C 
BRANCH   2   3
ATOM      3  N   UNL     1       3.694   3.122   7.474  1.00  0.00    -0.352 N 
ATOM      4  C   UNL     1       3.233   2.027   6.792  1.00  0.00     0.251 C 
ATOM      5  O   UNL     1       3.166   0.962   7.408  1.00  0.00    -0.269 OA
ATOM      6  H   UNL     1       3.954   2.927   8.404  1.00  0.00     0.163 HD
BRANCH   4   7
ATOM      7  C   UNL     1       2.883   2.050   5.344  1.00  0.00     0.039 A 
ATOM      8  C   UNL     1       2.406   1.918   2.554  1.00  0.00    -0.029 A 
ATOM      9  C   UNL     1       2.787   0.775   3.266  1.00  0.00     0.006 A 
ATOM     10  C   UNL     1       2.190   3.104   3.271  1.00  0.00     0.006 A 
ATOM     11  C   UNL     1       3.037   0.846   4.641  1.00  0.00     0.014 A 
ATOM     12  C   UNL     1       2.394   3.160   4.654  1.00  0.00     0.014 A 
BRANCH   8  13
ATOM     13  C   UNL     1       2.135   1.909   1.069  1.00  0.00     0.151 C 
BRANCH  13  14
ATOM     14  N   UNL     1       2.783   0.826   0.363  1.00  0.00    -0.351 N 
ATOM     15  O   UNL     1       0.845  -0.203  -0.301  1.00  0.00    -0.274 OA
ATOM     16  C   UNL     1       2.071  -0.134  -0.325  1.00  0.00     0.230 C 
ATOM     17  H   UNL     1       3.766   0.771   0.375  1.00  0.00     0.163 HD
BRANCH  16  18
ATOM     18  C   UNL     1       2.917  -1.171  -1.045  1.00  0.00     0.176 C 
BRANCH  18  19
ATOM     19  S   UNL     1       4.202  -0.406  -2.080  1.00  0.00    -0.096 SA
BRANCH  19  20
ATOM     20  C   UNL     1       3.158   0.495  -3.211  1.00  0.00     0.097 A 
ATOM     21  C   UNL     1       3.294   1.872  -3.299  1.00  0.00     0.036 A 
ATOM     22  N   UNL     1       2.314  -0.220  -3.987  1.00  0.00    -0.241 NA
ATOM     23  C   UNL     1       2.524   2.555  -4.232  1.00  0.00     0.013 A 
ATOM     24  C   UNL     1       1.577   0.444  -4.901  1.00  0.00     0.072 A 
ATOM     25  C   UNL     1       1.655   1.844  -5.064  1.00  0.00     0.000 A 
ATOM     26  C   UNL     1       0.715  -0.257  -5.737  1.00  0.00     0.029 A 
ATOM     27  C   UNL     1       0.886   2.494  -6.045  1.00  0.00     0.010 A 
ATOM     28  C   UNL     1      -0.049   0.385  -6.719  1.00  0.00     0.002 A 
ATOM     29  C   UNL     1       0.039   1.764  -6.874  1.00  0.00     0.001 A 
ENDBRANCH  19  20
ENDBRANCH  18  19
ENDBRANCH  16  18
ENDBRANCH  13  14
ENDBRANCH   8  13
ENDBRANCH   4   7
ENDBRANCH   2   3
ENDBRANCH   1   2
BRANCH   1  30
ATOM     30  C   UNL     1       2.939   5.677   9.168  1.00  0.00     0.002 C 
BRANCH  30  31
ATOM     31  C   UNL     1       4.173   6.536   9.473  1.00  0.00     0.002 C 
BRANCH  31  32
ATOM     32  C   UNL     1       4.235   7.860   8.708  1.00  0.00     0.021 C 
BRANCH  32  33
ATOM     33  C   UNL     1       3.067   8.798   8.998  1.00  0.00     0.116 C 
BRANCH  33  34
ATOM     34  N   UNL     1       3.060   9.222  10.391  1.00  0.00    -0.352 N 
ATOM     35  C   UNL     1       3.195  10.485  10.912  1.00  0.00     0.251 C 
ATOM     36  H   UNL     1       2.942   8.502  11.052  1.00  0.00     0.163 HD
ATOM     37  O   UNL     1       3.426  10.640  12.105  1.00  0.00    -0.269 OA
BRANCH  35  38
ATOM     38  C   UNL     1       3.067  11.655  10.018  1.00  0.00     0.039 A 
ATOM     39  C   UNL     1       4.003  12.686  10.107  1.00  0.00     0.014 A 
ATOM     40  C   UNL     1       2.024  11.723   9.090  1.00  0.00     0.014 A 
ATOM     41  C   UNL     1       3.930  13.760   9.218  1.00  0.00     0.010 A 
ATOM     42  C   UNL     1       1.997  12.755   8.158  1.00  0.00     0.010 A 
ATOM     43  C   UNL     1       2.948  13.785   8.213  1.00  0.00    -0.014 A 
BRANCH  43  44
ATOM     44  C   UNL     1       2.915  14.864   7.194  1.00  0.00     0.031 A 
ATOM     45  C   UNL     1       1.725  15.780   7.095  1.00  0.00     0.074 A 
ATOM     46  C   UNL     1       3.918  14.960   6.299  1.00  0.00     0.049 A 
ATOM     47  N   UNL     1       1.492  16.734   6.232  1.00  0.00    -0.248 NA
ATOM     48  C   UNL     1       0.646  15.581   8.076  1.00  0.00     0.031 C 
ATOM     49  C   UNL     1       5.090  14.083   6.247  1.00  0.00     0.029 A 
ATOM     50  N   UNL     1       4.099  15.819   5.244  1.00  0.00    -0.354 N 
ATOM     51  C   UNL     1       0.231  17.228   6.544  1.00  0.00     0.074 A 
ATOM     52  C   UNL     1      -0.267  16.444   7.653  1.00  0.00     0.031 C 
ATOM     53  C   UNL     1       5.869  14.452   5.218  1.00  0.00     0.029 A 
ATOM     54  C   UNL     1       5.237  15.563   4.515  1.00  0.00     0.049 A 
ATOM     55  H   UNL     1       3.474  16.549   5.030  1.00  0.00     0.167 HD
ATOM     56  C   UNL     1      -0.442  18.257   5.976  1.00  0.00     0.034 A 
ATOM     57  C   UNL     1       5.710  16.146   3.396  1.00  0.00     0.034 A 
ATOM     58  C   UNL     1       0.068  19.052   4.891  1.00  0.00     0.049 A 
ATOM     59  C   UNL     1       4.949  17.295   2.793  1.00  0.00     0.074 A 
ATOM     60  C   UNL     1      -0.498  20.169   4.303  1.00  0.00     0.029 A 
ATOM     61  N   UNL     1       1.255  18.805   4.219  1.00  0.00    -0.354 N 
ATOM     62  N   UNL     1       3.834  17.851   3.201  1.00  0.00    -0.248 NA
ATOM     63  C   UNL     1       5.527  17.918   1.594  1.00  0.00     0.031 C 
ATOM     64  C   UNL     1       0.328  20.575   3.251  1.00  0.00     0.029 A 
ATOM     65  C   UNL     1       1.429  19.735   3.208  1.00  0.00     0.049 A 
ATOM     66  H   UNL     1       1.882  18.076   4.429  1.00  0.00     0.167 HD
ATOM     67  C   UNL     1       3.593  18.906   2.328  1.00  0.00     0.074 A 
ATOM     68  C   UNL     1       4.693  18.927   1.386  1.00  0.00     0.031 C 
ATOM     69  C   UNL     1       2.548  19.770   2.301  1.00  0.00     0.034 A 
BRANCH  56  70
ATOM     70  C   UNL     1      -1.793  18.608   6.545  1.00  0.00     0.023 A 
ATOM     71  C   UNL     1      -1.881  19.192   7.826  1.00  0.00     0.012 A 
ATOM     72  C   UNL     1      -2.969  18.413   5.794  1.00  0.00     0.148 A 
ATOM     73  C   UNL     1      -3.119  19.539   8.366  1.00  0.00     0.002 A 
ATOM     74  C   UNL     1      -4.194  18.806   6.319  1.00  0.00     0.091 A 
ATOM     75  F   UNL     1      -2.868  17.840   4.587  1.00  0.00    -0.205 F 
ATOM     76  C   UNL     1      -4.273  19.357   7.609  1.00  0.00     0.022 A 
BRANCH  74  77
ATOM     77  S   UNL     1      -5.729  18.688   5.394  1.00  0.00     0.127 S 
ATOM     78  O   UNL     1      -6.429  17.629   6.119  1.00  0.00    -0.237 OA
ATOM     79  O   UNL     1      -6.296  20.025   5.569  1.00  0.00    -0.237 OA
ATOM     80  O   UNL     1      -5.350  18.363   4.026  1.00  0.00    -0.744 OA
ENDBRANCH  74  77
ENDBRANCH  56  70
BRANCH  57  81
ATOM     81  C   UNL     1       6.995  15.682   2.800  1.00  0.00     0.023 A 
ATOM     82  C   UNL     1       8.126  16.520   2.852  1.00  0.00     0.012 A 
ATOM     83  C   UNL     1       7.109  14.411   2.206  1.00  0.00     0.148 A 
ATOM     84  C   UNL     1       9.337  16.115   2.292  1.00  0.00     0.002 A 
ATOM     85  C   UNL     1       8.333  13.989   1.702  1.00  0.00     0.091 A 
ATOM     86  F   UNL     1       6.019  13.632   2.160  1.00  0.00    -0.205 F 
ATOM     87  C   UNL     1       9.444  14.847   1.726  1.00  0.00     0.022 A 
BRANCH  85  88
ATOM     88  S   UNL     1       8.597  12.327   1.074  1.00  0.00     0.127 S 
ATOM     89  O   UNL     1       8.801  12.574  -0.351  1.00  0.00    -0.237 OA
ATOM     90  O   UNL     1       9.794  11.915   1.807  1.00  0.00    -0.237 OA
ATOM     91  O   UNL     1       7.396  11.579   1.418  1.00  0.00    -0.744 OA
ENDBRANCH  85  88
ENDBRANCH  57  81
BRANCH  69  92
ATOM     92  C   UNL     1       2.550  20.834   1.233  1.00  0.00     0.023 A 
ATOM     93  C   UNL     1       2.317  20.481  -0.111  1.00  0.00     0.012 A 
ATOM     94  C   UNL     1       2.713  22.192   1.572  1.00  0.00     0.148 A 
ATOM     95  C   UNL     1       2.281  21.458  -1.105  1.00  0.00     0.002 A 
ATOM     96  C   UNL     1       2.623  23.165   0.584  1.00  0.00     0.091 A 
ATOM     97  F   UNL     1       2.950  22.507   2.853  1.00  0.00    -0.205 F 
ATOM     98  C   UNL     1       2.422  22.799  -0.757  1.00  0.00     0.022 A 
BRANCH  96  99
ATOM     99  S   UNL     1       2.695  24.922   0.948  1.00  0.00     0.127 S 
ATOM    100  O   UNL     1       3.979  25.296   0.358  1.00  0.00    -0.237 OA
ATOM    101  O   UNL     1       1.524  25.433   0.236  1.00  0.00    -0.237 OA
ATOM    102  O   UNL     1       2.620  25.037   2.398  1.00  0.00    -0.744 OA
ENDBRANCH  96  99
ENDBRANCH  69  92
ENDBRANCH  43  44
ENDBRANCH  35  38
ENDBRANCH  33  34
ENDBRANCH  32  33
ENDBRANCH  31  32
ENDBRANCH  30  31
ENDBRANCH   1  30
TORSDOF 21
