REMARK SMILES Cc1oc2cc3c(cc2c1C)[C@H](C)[C@@H](CC(=O)N[C@H](CC1=c2ccccc2=NC1)C(=O)NCCCCCCNC(=O)c1ccc(-c2c4nc(c(-c5cccc(S(=O)(=O)[O-])c5F)c5ccc([nH]5)c(-c5cccc(S(=O)(=O)[O-])c5F)c5nc(c(-c6cccc(S(=O)(=O)[O-])c6F)c6ccc2[nH]6)C=C5)C=C4)cc1)C(=O)O3
REMARK SMILES IDX 35 1 34 2 33 3 32 4 30 5 31 6 19 8 18 9 16 10 17 11 15 13
REMARK SMILES IDX 14 14 1 15 2 16 3 17 10 18 4 19 9 20 11 21 5 22 8 23 6 24
REMARK SMILES IDX 7 25 107 26 12 27 105 28 13 29 106 30 20 31 21 32 22 33
REMARK SMILES IDX 29 34 23 35 27 36 28 37 24 38 26 39 25 40 36 41 37 42 38 43
REMARK SMILES IDX 39 44 40 45 41 47 42 48 43 49 104 50 44 51 103 52 45 53
REMARK SMILES IDX 46 54 47 55 97 56 48 57 102 58 96 59 98 60 49 61 101 62
REMARK SMILES IDX 95 63 94 64 50 66 82 67 62 68 81 69 63 70 66 71 80 72 99 73
REMARK SMILES IDX 64 74 65 75 79 77 100 78 67 79 51 80 52 81 60 82 53 83 55 84
REMARK SMILES IDX 61 85 54 86 56 87 57 88 58 89 59 90 83 91 84 92 92 93 85 94
REMARK SMILES IDX 87 95 93 96 86 97 88 98 89 99 90 100 91 101 68 102 69 103
REMARK SMILES IDX 77 104 70 105 72 106 78 107 71 108 73 109 74 110 75 111
REMARK SMILES IDX 76 112
REMARK H PARENT 32 7 18 12 39 46 98 65 66 76
REMARK Flexibility Score: inf
ROOT
ATOM      1  C   UNL     1       1.524  14.830   3.613  1.00  0.00     0.002 C 
ENDROOT
BRANCH   1   2
ATOM      2  C   UNL     1       0.834  13.669   2.885  1.00  0.00     0.021 C 
BRANCH   2   3
ATOM      3  C   UNL     1       1.369  12.236   3.102  1.00  0.00     0.116 C 
BRANCH   3   4
ATOM      4  N   UNL     1       0.313  11.358   3.614  1.00  0.00    -0.354 N 
ATOM      5  C   UNL     1      -0.594  10.496   3.087  1.00  0.00     0.242 C 
ATOM      6  O   UNL     1      -1.488  10.151   3.882  1.00  0.00    -0.273 OA
ATOM      7  H   UNL     1       0.242  11.407   4.594  1.00  0.00     0.163 HD
BRANCH   5   8
ATOM      8  C   UNL     1      -0.591   9.834   1.662  1.00  0.00     0.175 C 
BRANCH   8   9
ATOM      9  N   UNL     1       0.476   9.935   0.646  1.00  0.00    -0.344 N 
ATOM     10  C   UNL     1       0.813  10.740  -0.383  1.00  0.00     0.221 C 
ATOM     11  O   UNL     1       1.428  10.179  -1.300  1.00  0.00    -0.275 OA
ATOM     12  H   UNL     1       1.130   9.206   0.750  1.00  0.00     0.164 HD
BRANCH  10  13
ATOM     13  C   UNL     1       0.650  12.247  -0.437  1.00  0.00     0.116 C 
BRANCH  13  14
ATOM     14  C   UNL     1      -0.699  12.895  -0.708  1.00  0.00     0.116 C 
ATOM     15  C   UNL     1      -7.000  18.481   0.343  1.00  0.00     0.088 C 
ATOM     16  C   UNL     1      -5.790  17.640   0.270  1.00  0.00     0.105 A 
ATOM     17  O   UNL     1      -6.003  16.320   0.019  1.00  0.00    -0.461 OA
ATOM     18  C   UNL     1      -4.435  17.900   0.392  1.00  0.00    -0.002 A 
ATOM     19  C   UNL     1      -4.783  15.737  -0.095  1.00  0.00     0.138 A 
ATOM     20  C   UNL     1      -3.777  16.684   0.042  1.00  0.00     0.024 A 
ATOM     21  C   UNL     1      -3.780  19.167   0.793  1.00  0.00     0.049 C 
ATOM     22  C   UNL     1      -4.565  14.383  -0.289  1.00  0.00     0.095 A 
ATOM     23  C   UNL     1      -2.436  16.289  -0.140  1.00  0.00     0.020 A 
ATOM     24  C   UNL     1      -3.225  14.015  -0.383  1.00  0.00     0.138 A 
ATOM     25  C   UNL     1      -2.160  14.945  -0.421  1.00  0.00    -0.001 A 
ATOM     26  O   UNL     1      -2.986  12.644  -0.325  1.00  0.00    -0.426 OA
ATOM     27  C   UNL     1      -0.720  14.442  -0.589  1.00  0.00     0.035 C 
ATOM     28  C   UNL     1      -1.759  12.568   0.285  1.00  0.00     0.315 C 
ATOM     29  C   UNL     1       0.003  15.110  -1.750  1.00  0.00     0.014 C 
ATOM     30  O   UNL     1      -1.602  12.450   1.487  1.00  0.00    -0.251 OA
ENDBRANCH  13  14
ENDBRANCH  10  13
ENDBRANCH   8   9
BRANCH   8  31
ATOM     31  C   UNL     1      -2.044   9.772   1.010  1.00  0.00     0.068 C 
BRANCH  31  32
ATOM     32  C   UNL     1      -2.693   8.420   0.794  1.00  0.00    -0.037 C 
ATOM     33  C   UNL     1      -2.475   7.711  -0.316  1.00  0.00     0.001 A 
ATOM     34  C   UNL     1      -2.765   7.496   1.969  1.00  0.00     0.174 C 
ATOM     35  C   UNL     1      -3.293   7.514  -1.490  1.00  0.00     0.010 A 
ATOM     36  C   UNL     1      -1.912   6.476   0.268  1.00  0.00     0.065 A 
ATOM     37  N   UNL     1      -1.984   6.311   1.552  1.00  0.00    -0.280 NA
ATOM     38  C   UNL     1      -3.012   6.445  -2.261  1.00  0.00     0.001 A 
ATOM     39  C   UNL     1      -1.310   5.574  -0.730  1.00  0.00     0.028 A 
ATOM     40  C   UNL     1      -1.861   5.599  -1.957  1.00  0.00     0.002 A 
ENDBRANCH  31  32
ENDBRANCH   8  31
ENDBRANCH   5   8
ENDBRANCH   3   4
ENDBRANCH   2   3
ENDBRANCH   1   2
BRANCH   1  41
ATOM     41  C   UNL     1       2.801  15.407   2.974  1.00  0.00     0.002 C 
BRANCH  41  42
ATOM     42  C   UNL     1       2.717  15.940   1.530  1.00  0.00     0.021 C 
BRANCH  42  43
ATOM     43  C   UNL     1       1.633  16.982   1.247  1.00  0.00     0.116 C 
BRANCH  43  44
ATOM     44  N   UNL     1       2.027  18.371   1.412  1.00  0.00    -0.352 N 
ATOM     45  C   UNL     1       2.537  19.234   0.467  1.00  0.00     0.251 C 
ATOM     46  H   UNL     1       1.915  18.744   2.317  1.00  0.00     0.163 HD
ATOM     47  O   UNL     1       2.649  20.432   0.702  1.00  0.00    -0.269 OA
BRANCH  45  48
ATOM     48  C   UNL     1       2.968  18.685  -0.831  1.00  0.00     0.039 A 
ATOM     49  C   UNL     1       2.030  18.291  -1.790  1.00  0.00     0.014 A 
ATOM     50  C   UNL     1       4.334  18.526  -1.058  1.00  0.00     0.014 A 
ATOM     51  C   UNL     1       2.462  17.650  -2.952  1.00  0.00     0.010 A 
ATOM     52  C   UNL     1       4.763  17.901  -2.226  1.00  0.00     0.010 A 
ATOM     53  C   UNL     1       3.831  17.449  -3.173  1.00  0.00    -0.014 A 
BRANCH  53  54
ATOM     54  C   UNL     1       4.270  16.874  -4.462  1.00  0.00     0.031 A 
ATOM     55  C   UNL     1       5.095  17.817  -5.274  1.00  0.00     0.074 A 
ATOM     56  C   UNL     1       4.383  15.541  -4.665  1.00  0.00     0.049 A 
ATOM     57  N   UNL     1       6.338  18.052  -4.974  1.00  0.00    -0.248 NA
ATOM     58  C   UNL     1       4.544  18.742  -6.261  1.00  0.00     0.031 C 
ATOM     59  C   UNL     1       4.508  14.564  -3.575  1.00  0.00     0.029 A 
ATOM     60  N   UNL     1       4.647  14.807  -5.805  1.00  0.00    -0.354 N 
ATOM     61  C   UNL     1       6.728  19.181  -5.665  1.00  0.00     0.074 A 
ATOM     62  C   UNL     1       5.591  19.557  -6.479  1.00  0.00     0.031 C 
ATOM     63  C   UNL     1       5.008  13.416  -4.076  1.00  0.00     0.029 A 
ATOM     64  C   UNL     1       5.100  13.511  -5.533  1.00  0.00     0.049 A 
ATOM     65  H   UNL     1       4.529  15.160  -6.716  1.00  0.00     0.167 HD
ATOM     66  C   UNL     1       7.963  19.730  -5.512  1.00  0.00     0.034 A 
ATOM     67  C   UNL     1       6.032  12.830  -6.264  1.00  0.00     0.034 A 
ATOM     68  C   UNL     1       8.807  19.078  -4.547  1.00  0.00     0.049 A 
ATOM     69  C   UNL     1       7.253  13.699  -6.087  1.00  0.00     0.074 A 
ATOM     70  C   UNL     1       9.155  19.248  -3.224  1.00  0.00     0.029 A 
ATOM     71  N   UNL     1       9.412  17.897  -4.907  1.00  0.00    -0.354 N 
ATOM     72  N   UNL     1       8.004  13.763  -5.019  1.00  0.00    -0.248 NA
ATOM     73  C   UNL     1       7.428  14.805  -7.027  1.00  0.00     0.031 C 
ATOM     74  C   UNL     1       9.546  17.949  -2.759  1.00  0.00     0.029 A 
ATOM     75  C   UNL     1       9.366  17.063  -3.819  1.00  0.00     0.049 A 
ATOM     76  H   UNL     1       9.805  17.689  -5.785  1.00  0.00     0.167 HD
ATOM     77  C   UNL     1       8.534  15.056  -5.015  1.00  0.00     0.074 A 
ATOM     78  C   UNL     1       8.150  15.636  -6.288  1.00  0.00     0.031 C 
ATOM     79  C   UNL     1       9.117  15.640  -3.926  1.00  0.00     0.034 A 
BRANCH  66  80
ATOM     80  C   UNL     1       8.536  20.749  -6.421  1.00  0.00     0.023 A 
ATOM     81  C   UNL     1       9.354  20.244  -7.453  1.00  0.00     0.012 A 
ATOM     82  C   UNL     1       8.468  22.134  -6.206  1.00  0.00     0.148 A 
ATOM     83  C   UNL     1      10.143  21.088  -8.223  1.00  0.00     0.002 A 
ATOM     84  C   UNL     1       9.249  22.979  -6.995  1.00  0.00     0.091 A 
ATOM     85  F   UNL     1       7.687  22.597  -5.221  1.00  0.00    -0.205 F 
ATOM     86  C   UNL     1      10.097  22.455  -7.989  1.00  0.00     0.022 A 
BRANCH  84  87
ATOM     87  S   UNL     1       9.268  24.767  -6.814  1.00  0.00     0.127 S 
ATOM     88  O   UNL     1      10.620  25.009  -6.314  1.00  0.00    -0.237 OA
ATOM     89  O   UNL     1       9.039  25.212  -8.190  1.00  0.00    -0.237 OA
ATOM     90  O   UNL     1       8.189  25.087  -5.889  1.00  0.00    -0.744 OA
ENDBRANCH  84  87
ENDBRANCH  66  80
BRANCH  67  91
ATOM     91  C   UNL     1       5.593  12.317  -7.611  1.00  0.00     0.023 A 
ATOM     92  C   UNL     1       4.329  11.686  -7.696  1.00  0.00     0.012 A 
ATOM     93  C   UNL     1       6.353  12.396  -8.796  1.00  0.00     0.148 A 
ATOM     94  C   UNL     1       3.798  11.260  -8.918  1.00  0.00     0.002 A 
ATOM     95  C   UNL     1       5.791  12.043 -10.023  1.00  0.00     0.091 A 
ATOM     96  F   UNL     1       7.624  12.808  -8.726  1.00  0.00    -0.205 F 
ATOM     97  C   UNL     1       4.514  11.473 -10.087  1.00  0.00     0.022 A 
BRANCH  95  98
ATOM     98  S   UNL     1       6.598  12.391 -11.593  1.00  0.00     0.127 S 
ATOM     99  O   UNL     1       6.614  11.074 -12.226  1.00  0.00    -0.237 OA
ATOM    100  O   UNL     1       5.669  13.351 -12.188  1.00  0.00    -0.237 OA
ATOM    101  O   UNL     1       7.906  12.933 -11.254  1.00  0.00    -0.744 OA
ENDBRANCH  95  98
ENDBRANCH  67  91
BRANCH  79 102
ATOM    102  C   UNL     1       9.340  14.762  -2.730  1.00  0.00     0.023 A 
ATOM    103  C   UNL     1      10.310  13.746  -2.819  1.00  0.00     0.012 A 
ATOM    104  C   UNL     1       8.685  14.979  -1.500  1.00  0.00     0.148 A 
ATOM    105  C   UNL     1      10.648  12.982  -1.703  1.00  0.00     0.002 A 
ATOM    106  C   UNL     1       9.051  14.237  -0.381  1.00  0.00     0.091 A 
ATOM    107  F   UNL     1       7.739  15.928  -1.427  1.00  0.00    -0.205 F 
ATOM    108  C   UNL     1      10.032  13.238  -0.482  1.00  0.00     0.022 A 
BRANCH 106 109
ATOM    109  S   UNL     1       8.355  14.529   1.251  1.00  0.00     0.127 S 
ATOM    110  O   UNL     1       7.996  13.178   1.685  1.00  0.00    -0.237 OA
ATOM    111  O   UNL     1       9.492  15.112   1.963  1.00  0.00    -0.237 OA
ATOM    112  O   UNL     1       7.216  15.419   1.061  1.00  0.00    -0.744 OA
ENDBRANCH 106 109
ENDBRANCH  79 102
ENDBRANCH  53  54
ENDBRANCH  45  48
ENDBRANCH  43  44
ENDBRANCH  42  43
ENDBRANCH  41  42
ENDBRANCH   1  41
TORSDOF 21
