REMARK SMILES CCCN1CCC[C@@]2(CCN(c3ccc(C(=O)NCCCCCCNC(=O)c4ccc(-c5c6nc(c(-c7cccc(S(=O)(=O)[O-])c7F)c7ccc([nH]7)c(-c7cccc(S(=O)(=O)[O-])c7F)c7nc(c(-c8cccc(S(=O)(=O)[O-])c8F)c8ccc5[nH]8)C=C7)C=C6)cc4)cn3)C2)C1=O
REMARK SMILES IDX 21 1 20 2 19 3 18 4 16 5 17 6 15 8 12 9 13 10 92 11 14 12
REMARK SMILES IDX 91 13 11 14 4 15 5 16 94 17 6 18 8 19 95 20 7 21 9 22 93 23
REMARK SMILES IDX 10 24 3 25 2 26 1 27 22 28 23 29 24 30 25 31 26 32 27 34
REMARK SMILES IDX 28 35 29 36 90 37 30 38 89 39 31 40 32 41 33 42 83 43 34 44
REMARK SMILES IDX 88 45 82 46 84 47 35 48 87 49 81 50 80 51 36 53 68 54 48 55
REMARK SMILES IDX 67 56 49 57 52 58 66 59 85 60 50 61 51 62 65 64 86 65 53 66
REMARK SMILES IDX 37 67 38 68 46 69 39 70 41 71 47 72 40 73 42 74 43 75 44 76
REMARK SMILES IDX 45 77 69 78 70 79 78 80 71 81 73 82 79 83 72 84 74 85 75 86
REMARK SMILES IDX 76 87 77 88 54 89 55 90 63 91 56 92 58 93 64 94 57 95 59 96
REMARK SMILES IDX 60 97 61 98 62 99
REMARK H PARENT 18 7 25 33 84 52 52 63
REMARK Flexibility Score: inf
ROOT
ATOM      1  C   UNL     1      10.016   8.432   0.683  1.00  0.00     0.002 C 
ENDROOT
BRANCH   1   2
ATOM      2  C   UNL     1       8.616   7.879   0.982  1.00  0.00     0.021 C 
BRANCH   2   3
ATOM      3  C   UNL     1       8.569   6.349   0.962  1.00  0.00     0.116 C 
BRANCH   3   4
ATOM      4  N   UNL     1       9.015   5.820   2.238  1.00  0.00    -0.352 N 
ATOM      5  C   UNL     1       8.351   5.361   3.345  1.00  0.00     0.252 C 
ATOM      6  O   UNL     1       9.038   4.987   4.298  1.00  0.00    -0.269 OA
ATOM      7  H   UNL     1       9.995   5.785   2.325  1.00  0.00     0.163 HD
BRANCH   5   8
ATOM      8  C   UNL     1       6.874   5.246   3.438  1.00  0.00     0.058 A 
ATOM      9  C   UNL     1       4.157   4.727   3.738  1.00  0.00     0.128 A 
ATOM     10  C   UNL     1       4.600   5.593   2.747  1.00  0.00     0.048 A 
ATOM     11  N   UNL     1       5.019   4.172   4.611  1.00  0.00    -0.239 NA
ATOM     12  C   UNL     1       5.952   5.900   2.635  1.00  0.00     0.019 A 
ATOM     13  C   UNL     1       6.347   4.417   4.425  1.00  0.00     0.127 A 
BRANCH   9  14
ATOM     14  N   UNL     1       2.816   4.487   3.836  1.00  0.00    -0.356 N 
ATOM     15  N   UNL     1       0.240   1.272   2.499  1.00  0.00    -0.342 N 
ATOM     16  C   UNL     1      -0.855   1.742   1.662  1.00  0.00     0.119 C 
ATOM     17  C   UNL     1       0.585   2.052   3.608  1.00  0.00     0.230 C 
ATOM     18  C   UNL     1      -0.580   3.153   1.176  1.00  0.00     0.023 C 
ATOM     19  C   UNL     1       0.685   3.561   3.335  1.00  0.00     0.069 C 
ATOM     20  O   UNL     1       0.912   1.551   4.683  1.00  0.00    -0.274 OA
ATOM     21  C   UNL     1      -0.413   4.063   2.384  1.00  0.00     0.021 C 
ATOM     22  C   UNL     1       0.676   4.373   4.649  1.00  0.00     0.040 C 
ATOM     23  C   UNL     1       2.100   3.816   2.758  1.00  0.00     0.135 C 
ATOM     24  C   UNL     1       2.135   4.377   5.103  1.00  0.00     0.119 C 
BRANCH  15  25
ATOM     25  C   UNL     1       0.602  -0.144   2.541  1.00  0.00     0.119 C 
BRANCH  25  26
ATOM     26  C   UNL     1       0.525  -0.917   1.222  1.00  0.00     0.018 C 
ATOM     27  C   UNL     1       1.339  -0.310   0.087  1.00  0.00     0.006 C 
ENDBRANCH  25  26
ENDBRANCH  15  25
ENDBRANCH   9  14
ENDBRANCH   5   8
ENDBRANCH   3   4
ENDBRANCH   2   3
ENDBRANCH   1   2
BRANCH   1  28
ATOM     28  C   UNL     1      10.560   8.066  -0.705  1.00  0.00     0.002 C 
BRANCH  28  29
ATOM     29  C   UNL     1       9.649   8.454  -1.873  1.00  0.00     0.021 C 
BRANCH  29  30
ATOM     30  C   UNL     1       9.399   9.953  -1.991  1.00  0.00     0.116 C 
BRANCH  30  31
ATOM     31  N   UNL     1      10.635  10.676  -2.256  1.00  0.00    -0.352 N 
ATOM     32  C   UNL     1      10.959  11.475  -3.324  1.00  0.00     0.251 C 
ATOM     33  H   UNL     1      11.336  10.579  -1.573  1.00  0.00     0.163 HD
ATOM     34  O   UNL     1      12.125  11.795  -3.522  1.00  0.00    -0.269 OA
BRANCH  32  35
ATOM     35  C   UNL     1       9.892  11.940  -4.234  1.00  0.00     0.039 A 
ATOM     36  C   UNL     1      10.104  11.892  -5.613  1.00  0.00     0.014 A 
ATOM     37  C   UNL     1       8.686  12.426  -3.720  1.00  0.00     0.014 A 
ATOM     38  C   UNL     1       9.082  12.283  -6.480  1.00  0.00     0.010 A 
ATOM     39  C   UNL     1       7.644  12.742  -4.585  1.00  0.00     0.010 A 
ATOM     40  C   UNL     1       7.833  12.681  -5.973  1.00  0.00    -0.014 A 
BRANCH  40  41
ATOM     41  C   UNL     1       6.708  13.022  -6.879  1.00  0.00     0.031 A 
ATOM     42  C   UNL     1       6.120  14.407  -6.870  1.00  0.00     0.074 A 
ATOM     43  C   UNL     1       6.159  12.059  -7.645  1.00  0.00     0.049 A 
ATOM     44  N   UNL     1       5.098  14.872  -7.541  1.00  0.00    -0.248 NA
ATOM     45  C   UNL     1       6.745  15.392  -5.971  1.00  0.00     0.031 C 
ATOM     46  C   UNL     1       6.590  10.660  -7.681  1.00  0.00     0.029 A 
ATOM     47  N   UNL     1       5.101  12.102  -8.518  1.00  0.00    -0.354 N 
ATOM     48  C   UNL     1       4.937  16.187  -7.124  1.00  0.00     0.074 A 
ATOM     49  C   UNL     1       5.942  16.436  -6.114  1.00  0.00     0.031 C 
ATOM     50  C   UNL     1       5.805   9.979  -8.531  1.00  0.00     0.029 A 
ATOM     51  C   UNL     1       4.795  10.882  -9.073  1.00  0.00     0.049 A 
ATOM     52  H   UNL     1       4.607  12.929  -8.726  1.00  0.00     0.167 HD
ATOM     53  C   UNL     1       4.052  17.114  -7.562  1.00  0.00     0.034 A 
ATOM     54  C   UNL     1       3.802  10.525  -9.911  1.00  0.00     0.034 A 
ATOM     55  C   UNL     1       3.074  16.870  -8.588  1.00  0.00     0.049 A 
ATOM     56  C   UNL     1       2.847  11.579 -10.402  1.00  0.00     0.074 A 
ATOM     57  C   UNL     1       2.186  17.764  -9.160  1.00  0.00     0.029 A 
ATOM     58  N   UNL     1       2.845  15.641  -9.187  1.00  0.00    -0.354 N 
ATOM     59  N   UNL     1       2.808  12.856 -10.111  1.00  0.00    -0.248 NA
ATOM     60  C   UNL     1       1.821  11.150 -11.363  1.00  0.00     0.031 C 
ATOM     61  C   UNL     1       1.398  17.067 -10.082  1.00  0.00     0.029 A 
ATOM     62  C   UNL     1       1.821  15.748 -10.112  1.00  0.00     0.049 A 
ATOM     63  H   UNL     1       3.339  14.813  -8.985  1.00  0.00     0.167 HD
ATOM     64  C   UNL     1       1.779  13.391 -10.877  1.00  0.00     0.074 A 
ATOM     65  C   UNL     1       1.234  12.301 -11.662  1.00  0.00     0.031 C 
ATOM     66  C   UNL     1       1.318  14.665 -10.919  1.00  0.00     0.034 A 
BRANCH  53  67
ATOM     67  C   UNL     1       4.131  18.495  -6.963  1.00  0.00     0.023 A 
ATOM     68  C   UNL     1       5.231  19.324  -7.264  1.00  0.00     0.012 A 
ATOM     69  C   UNL     1       3.095  18.994  -6.149  1.00  0.00     0.148 A 
ATOM     70  C   UNL     1       5.320  20.611  -6.734  1.00  0.00     0.002 A 
ATOM     71  C   UNL     1       3.166  20.294  -5.664  1.00  0.00     0.091 A 
ATOM     72  F   UNL     1       2.066  18.186  -5.857  1.00  0.00    -0.205 F 
ATOM     73  C   UNL     1       4.283  21.099  -5.944  1.00  0.00     0.022 A 
BRANCH  71  74
ATOM     74  S   UNL     1       1.846  21.046  -4.705  1.00  0.00     0.127 S 
ATOM     75  O   UNL     1       2.464  21.147  -3.383  1.00  0.00    -0.237 OA
ATOM     76  O   UNL     1       1.659  22.325  -5.390  1.00  0.00    -0.237 OA
ATOM     77  O   UNL     1       0.714  20.135  -4.796  1.00  0.00    -0.744 OA
ENDBRANCH  71  74
ENDBRANCH  53  67
BRANCH  54  78
ATOM     78  C   UNL     1       3.693   9.113 -10.375  1.00  0.00     0.023 A 
ATOM     79  C   UNL     1       3.978   8.798 -11.718  1.00  0.00     0.012 A 
ATOM     80  C   UNL     1       3.338   8.079  -9.487  1.00  0.00     0.148 A 
ATOM     81  C   UNL     1       3.878   7.484 -12.176  1.00  0.00     0.002 A 
ATOM     82  C   UNL     1       3.297   6.765  -9.936  1.00  0.00     0.091 A 
ATOM     83  F   UNL     1       3.063   8.402  -8.215  1.00  0.00    -0.205 F 
ATOM     84  C   UNL     1       3.548   6.467 -11.284  1.00  0.00     0.022 A 
BRANCH  82  85
ATOM     85  S   UNL     1       3.012   5.378  -8.830  1.00  0.00     0.127 S 
ATOM     86  O   UNL     1       1.691   4.922  -9.255  1.00  0.00    -0.237 OA
ATOM     87  O   UNL     1       4.116   4.484  -9.177  1.00  0.00    -0.237 OA
ATOM     88  O   UNL     1       3.086   5.926  -7.482  1.00  0.00    -0.744 OA
ENDBRANCH  82  85
ENDBRANCH  54  78
BRANCH  66  89
ATOM     89  C   UNL     1       0.189  14.970 -11.869  1.00  0.00     0.023 A 
ATOM     90  C   UNL     1      -1.111  14.501 -11.592  1.00  0.00     0.012 A 
ATOM     91  C   UNL     1       0.404  15.786 -12.997  1.00  0.00     0.148 A 
ATOM     92  C   UNL     1      -2.172  14.812 -12.441  1.00  0.00     0.002 A 
ATOM     93  C   UNL     1      -0.668  16.135 -13.809  1.00  0.00     0.091 A 
ATOM     94  F   UNL     1       1.651  16.208 -13.252  1.00  0.00    -0.205 F 
ATOM     95  C   UNL     1      -1.953  15.638 -13.541  1.00  0.00     0.022 A 
BRANCH  93  96
ATOM     96  S   UNL     1      -0.502  17.271 -15.191  1.00  0.00     0.127 S 
ATOM     97  O   UNL     1      -0.691  16.380 -16.334  1.00  0.00    -0.237 OA
ATOM     98  O   UNL     1      -1.604  18.205 -14.955  1.00  0.00    -0.237 OA
ATOM     99  O   UNL     1       0.826  17.859 -15.072  1.00  0.00    -0.744 OA
ENDBRANCH  93  96
ENDBRANCH  66  89
ENDBRANCH  40  41
ENDBRANCH  32  35
ENDBRANCH  30  31
ENDBRANCH  29  30
ENDBRANCH  28  29
ENDBRANCH   1  28
TORSDOF 19
