REMARK SMILES O=C(NCCCCCCNC(=O)[C@@H]1CSCN1C(=O)c1cccc(Cl)c1)c1ccc(-c2c3nc(c(-c4cccc(S(=O)(=O)[O-])c4F)c4ccc([nH]4)c(-c4cccc(S(=O)(=O)[O-])c4F)c4nc(c(-c5cccc(S(=O)(=O)[O-])c5F)c5ccc2[nH]5)C=C4)C=C3)cc1
REMARK SMILES IDX 6 1 5 2 4 3 3 4 1 5 2 6 27 8 28 9 89 10 29 11 88 12 30 13
REMARK SMILES IDX 31 14 32 15 82 16 33 17 87 18 81 19 83 20 34 21 86 22 80 23
REMARK SMILES IDX 79 24 35 26 67 27 47 28 66 29 48 30 51 31 65 32 84 33 49 34
REMARK SMILES IDX 50 35 64 37 85 38 52 39 36 40 37 41 45 42 38 43 40 44 46 45
REMARK SMILES IDX 39 46 41 47 42 48 43 49 44 50 68 51 69 52 77 53 70 54 72 55
REMARK SMILES IDX 78 56 71 57 73 58 74 59 75 60 76 61 53 62 54 63 62 64 55 65
REMARK SMILES IDX 57 66 63 67 56 68 58 69 59 70 60 71 61 72 7 73 8 74 9 75
REMARK SMILES IDX 10 76 11 77 12 79 13 80 14 81 17 82 15 83 16 84 18 85 19 86
REMARK SMILES IDX 20 87 21 88 26 89 22 90 24 91 23 92 25 93
REMARK H PARENT 3 7 83 25 51 36 10 78
REMARK Flexibility Score: inf
ROOT
ATOM      1  C   UNL     1      11.601 -11.053  -4.890  1.00  0.00     0.002 C 
ENDROOT
BRANCH   1   2
ATOM      2  C   UNL     1      11.737 -11.373  -3.400  1.00  0.00     0.021 C 
BRANCH   2   3
ATOM      3  C   UNL     1      10.764 -12.430  -2.894  1.00  0.00     0.116 C 
BRANCH   3   4
ATOM      4  N   UNL     1      10.999 -13.724  -3.517  1.00  0.00    -0.352 N 
ATOM      5  O   UNL     1      11.777 -15.833  -3.663  1.00  0.00    -0.269 OA
ATOM      6  C   UNL     1      11.400 -14.908  -2.947  1.00  0.00     0.251 C 
ATOM      7  H   UNL     1      10.850 -13.756  -4.490  1.00  0.00     0.163 HD
BRANCH   6   8
ATOM      8  C   UNL     1      11.393 -15.054  -1.476  1.00  0.00     0.039 A 
ATOM      9  C   UNL     1      10.325 -14.562  -0.723  1.00  0.00     0.014 A 
ATOM     10  C   UNL     1      12.463 -15.690  -0.840  1.00  0.00     0.014 A 
ATOM     11  C   UNL     1      10.403 -14.554   0.664  1.00  0.00     0.010 A 
ATOM     12  C   UNL     1      12.491 -15.772   0.556  1.00  0.00     0.010 A 
ATOM     13  C   UNL     1      11.481 -15.168   1.322  1.00  0.00    -0.014 A 
BRANCH  13  14
ATOM     14  C   UNL     1      11.494 -15.204   2.807  1.00  0.00     0.031 A 
ATOM     15  C   UNL     1      12.581 -14.527   3.598  1.00  0.00     0.074 A 
ATOM     16  C   UNL     1      10.493 -15.843   3.446  1.00  0.00     0.049 A 
ATOM     17  N   UNL     1      12.703 -14.417   4.897  1.00  0.00    -0.248 NA
ATOM     18  C   UNL     1      13.678 -13.904   2.842  1.00  0.00     0.031 C 
ATOM     19  C   UNL     1       9.407 -16.575   2.786  1.00  0.00     0.029 A 
ATOM     20  N   UNL     1      10.217 -15.976   4.782  1.00  0.00    -0.354 N 
ATOM     21  C   UNL     1      13.908 -13.760   5.116  1.00  0.00     0.074 A 
ATOM     22  C   UNL     1      14.485 -13.500   3.814  1.00  0.00     0.031 C 
ATOM     23  C   UNL     1       8.563 -17.043   3.716  1.00  0.00     0.029 A 
ATOM     24  C   UNL     1       9.072 -16.696   5.036  1.00  0.00     0.049 A 
ATOM     25  H   UNL     1      10.783 -15.594   5.491  1.00  0.00     0.167 HD
ATOM     26  C   UNL     1      14.474 -13.394   6.292  1.00  0.00     0.034 A 
ATOM     27  C   UNL     1       8.498 -17.046   6.202  1.00  0.00     0.034 A 
ATOM     28  C   UNL     1      13.873 -13.619   7.581  1.00  0.00     0.049 A 
ATOM     29  C   UNL     1       9.130 -16.593   7.487  1.00  0.00     0.074 A 
ATOM     30  C   UNL     1      14.329 -13.217   8.825  1.00  0.00     0.029 A 
ATOM     31  N   UNL     1      12.692 -14.314   7.796  1.00  0.00    -0.354 N 
ATOM     32  N   UNL     1      10.197 -15.854   7.665  1.00  0.00    -0.248 NA
ATOM     33  C   UNL     1       8.461 -16.997   8.731  1.00  0.00     0.031 C 
ATOM     34  C   UNL     1      13.440 -13.695   9.793  1.00  0.00     0.029 A 
ATOM     35  C   UNL     1      12.411 -14.364   9.152  1.00  0.00     0.049 A 
ATOM     36  H   UNL     1      12.136 -14.714   7.090  1.00  0.00     0.167 HD
ATOM     37  C   UNL     1      10.309 -15.673   9.038  1.00  0.00     0.074 A 
ATOM     38  C   UNL     1       9.186 -16.362   9.641  1.00  0.00     0.031 C 
ATOM     39  C   UNL     1      11.262 -15.008   9.736  1.00  0.00     0.034 A 
BRANCH  26  40
ATOM     40  C   UNL     1      15.805 -12.687   6.245  1.00  0.00     0.023 A 
ATOM     41  C   UNL     1      15.878 -11.356   5.786  1.00  0.00     0.012 A 
ATOM     42  C   UNL     1      16.973 -13.316   6.722  1.00  0.00     0.148 A 
ATOM     43  C   UNL     1      17.095 -10.674   5.770  1.00  0.00     0.002 A 
ATOM     44  C   UNL     1      18.174 -12.615   6.744  1.00  0.00     0.091 A 
ATOM     45  F   UNL     1      16.891 -14.587   7.138  1.00  0.00    -0.205 F 
ATOM     46  C   UNL     1      18.239 -11.299   6.258  1.00  0.00     0.022 A 
BRANCH  44  47
ATOM     47  S   UNL     1      19.685 -13.304   7.431  1.00  0.00     0.127 S 
ATOM     48  O   UNL     1      20.477 -13.537   6.224  1.00  0.00    -0.237 OA
ATOM     49  O   UNL     1      20.168 -12.209   8.273  1.00  0.00    -0.237 OA
ATOM     50  O   UNL     1      19.286 -14.499   8.160  1.00  0.00    -0.744 OA
ENDBRANCH  44  47
ENDBRANCH  26  40
BRANCH  27  51
ATOM     51  C   UNL     1       7.225 -17.819   6.200  1.00  0.00     0.023 A 
ATOM     52  C   UNL     1       6.037 -17.199   6.632  1.00  0.00     0.012 A 
ATOM     53  C   UNL     1       7.179 -19.149   5.739  1.00  0.00     0.148 A 
ATOM     54  C   UNL     1       4.830 -17.900   6.635  1.00  0.00     0.002 A 
ATOM     55  C   UNL     1       5.964 -19.821   5.688  1.00  0.00     0.091 A 
ATOM     56  F   UNL     1       8.323 -19.724   5.343  1.00  0.00    -0.205 F 
ATOM     57  C   UNL     1       4.792 -19.206   6.152  1.00  0.00     0.022 A 
BRANCH  55  58
ATOM     58  S   UNL     1       5.799 -21.453   4.956  1.00  0.00     0.127 S 
ATOM     59  O   UNL     1       5.558 -22.284   6.132  1.00  0.00    -0.237 OA
ATOM     60  O   UNL     1       4.641 -21.274   4.079  1.00  0.00    -0.237 OA
ATOM     61  O   UNL     1       7.051 -21.696   4.253  1.00  0.00    -0.744 OA
ENDBRANCH  55  58
ENDBRANCH  27  51
BRANCH  39  62
ATOM     62  C   UNL     1      11.109 -14.951  11.234  1.00  0.00     0.023 A 
ATOM     63  C   UNL     1      11.320 -16.107  12.010  1.00  0.00     0.012 A 
ATOM     64  C   UNL     1      10.805 -13.734  11.875  1.00  0.00     0.148 A 
ATOM     65  C   UNL     1      11.190 -16.063  13.398  1.00  0.00     0.002 A 
ATOM     66  C   UNL     1      10.730 -13.685  13.261  1.00  0.00     0.091 A 
ATOM     67  F   UNL     1      10.586 -12.648  11.118  1.00  0.00    -0.205 F 
ATOM     68  C   UNL     1      10.907 -14.851  14.023  1.00  0.00     0.022 A 
BRANCH  66  69
ATOM     69  S   UNL     1      10.469 -12.147  14.152  1.00  0.00     0.127 S 
ATOM     70  O   UNL     1       9.074 -12.276  14.569  1.00  0.00    -0.237 OA
ATOM     71  O   UNL     1      11.443 -12.247  15.239  1.00  0.00    -0.237 OA
ATOM     72  O   UNL     1      10.742 -11.081  13.196  1.00  0.00    -0.744 OA
ENDBRANCH  66  69
ENDBRANCH  39  62
ENDBRANCH  13  14
ENDBRANCH   6   8
ENDBRANCH   3   4
ENDBRANCH   2   3
ENDBRANCH   1   2
BRANCH   1  73
ATOM     73  C   UNL     1      10.226 -10.526  -5.327  1.00  0.00     0.002 C 
BRANCH  73  74
ATOM     74  C   UNL     1       9.670  -9.373  -4.483  1.00  0.00     0.021 C 
BRANCH  74  75
ATOM     75  C   UNL     1      10.588  -8.152  -4.434  1.00  0.00     0.116 C 
BRANCH  75  76
ATOM     76  N   UNL     1      10.314  -7.253  -5.529  1.00  0.00    -0.354 N 
ATOM     77  C   UNL     1       9.573  -6.122  -5.615  1.00  0.00     0.243 C 
ATOM     78  H   UNL     1      10.748  -7.511  -6.374  1.00  0.00     0.163 HD
ATOM     79  O   UNL     1       9.373  -5.719  -6.771  1.00  0.00    -0.273 OA
BRANCH  77  80
ATOM     80  C   UNL     1       8.920  -5.371  -4.417  1.00  0.00     0.185 C 
ATOM     81  C   UNL     1       9.140  -3.865  -4.662  1.00  0.00     0.106 C 
ATOM     82  N   UNL     1       9.292  -5.651  -3.023  1.00  0.00    -0.317 N 
ATOM     83  S   UNL     1      10.246  -3.256  -3.353  1.00  0.00    -0.138 SA
ATOM     84  C   UNL     1      10.410  -4.862  -2.558  1.00  0.00     0.190 C 
BRANCH  82  85
ATOM     85  C   UNL     1       8.600  -6.598  -2.281  1.00  0.00     0.255 C 
ATOM     86  O   UNL     1       7.664  -7.251  -2.733  1.00  0.00    -0.269 OA
BRANCH  85  87
ATOM     87  C   UNL     1       9.080  -6.929  -0.918  1.00  0.00     0.041 A 
ATOM     88  C   UNL     1       8.871  -6.065   0.159  1.00  0.00     0.014 A 
ATOM     89  C   UNL     1       9.738  -8.147  -0.726  1.00  0.00     0.034 A 
ATOM     90  C   UNL     1       9.373  -6.405   1.419  1.00  0.00     0.002 A 
ATOM     91  C   UNL     1      10.238  -8.476   0.529  1.00  0.00     0.041 A 
ATOM     92  C   UNL     1      10.066  -7.606   1.602  1.00  0.00     0.020 A 
ATOM     93  Cl  UNL     1      11.085  -9.959   0.736  1.00  0.00    -0.084 Cl
ENDBRANCH  85  87
ENDBRANCH  82  85
ENDBRANCH  77  80
ENDBRANCH  75  76
ENDBRANCH  74  75
ENDBRANCH  73  74
ENDBRANCH   1  73
TORSDOF 18
