REMARK SMILES C[C@]12CC[C@@H]3[C@@H](CCC4=C/C(=N\OCC(=O)N5CCC[C@@H]5C(=O)NCCCCCCNC(=O)c5ccc(-c6c7nc(c(-c8cccc(S(=O)(=O)[O-])c8F)c8ccc([nH]8)c(-c8cccc(S(=O)(=O)[O-])c8F)c8nc(c(-c9cccc(S(=O)(=O)[O-])c9F)c9ccc6[nH]9)C=C8)C=C7)cc5)CC[C@@]43C)[C@@H]1CC[C@@H]2O
REMARK SMILES IDX 26 1 25 2 24 3 22 4 23 5 21 7 17 8 18 9 19 10 20 11 15 12
REMARK SMILES IDX 16 13 14 14 13 15 12 16 1 17 2 18 3 19 101 20 104 21 4 22
REMARK SMILES IDX 6 23 102 24 103 25 5 26 7 27 99 28 8 29 9 30 98 31 100 32
REMARK SMILES IDX 10 33 97 34 11 35 105 36 27 38 28 39 29 40 30 41 31 42 32 43
REMARK SMILES IDX 33 45 34 46 35 47 96 48 36 49 95 50 37 51 38 52 39 53 89 54
REMARK SMILES IDX 40 55 94 56 88 57 90 58 41 59 93 60 87 61 86 62 42 64 74 65
REMARK SMILES IDX 54 66 73 67 55 68 58 69 72 70 91 71 56 72 57 73 71 75 92 76
REMARK SMILES IDX 59 77 43 78 44 79 52 80 45 81 47 82 53 83 46 84 48 85 49 86
REMARK SMILES IDX 50 87 51 88 75 89 76 90 84 91 77 92 79 93 85 94 78 95 80 96
REMARK SMILES IDX 81 97 82 98 83 99 60 100 61 101 69 102 62 103 64 104 70 105
REMARK SMILES IDX 63 106 65 107 66 108 67 109 68 110
REMARK H PARENT 24 6 105 37 31 44 90 63 58 74
REMARK Flexibility Score: inf
ROOT
ATOM      1  C   UNL     1      -7.440  -7.226  -1.482  1.00  0.00     0.021 C 
ENDROOT
BRANCH   1   2
ATOM      2  C   UNL     1      -6.086  -7.825  -1.847  1.00  0.00     0.116 C 
BRANCH   2   3
ATOM      3  N   UNL     1      -5.054  -7.460  -0.900  1.00  0.00    -0.354 N 
ATOM      4  C   UNL     1      -3.848  -8.038  -0.650  1.00  0.00     0.242 C 
ATOM      5  O   UNL     1      -3.136  -7.501   0.210  1.00  0.00    -0.273 OA
ATOM      6  H   UNL     1      -5.257  -6.669  -0.350  1.00  0.00     0.163 HD
BRANCH   4   7
ATOM      7  C   UNL     1      -3.402  -9.396  -1.226  1.00  0.00     0.174 C 
ATOM      8  N   UNL     1      -4.082  -9.989  -2.374  1.00  0.00    -0.328 N 
ATOM      9  C   UNL     1      -4.841 -11.169  -1.978  1.00  0.00     0.120 C 
ATOM     10  C   UNL     1      -4.919 -11.096  -0.464  1.00  0.00     0.024 C 
ATOM     11  C   UNL     1      -3.598 -10.433  -0.104  1.00  0.00     0.037 C 
BRANCH   8  12
ATOM     12  C   UNL     1      -3.964  -9.674  -3.708  1.00  0.00     0.264 C 
ATOM     13  O   UNL     1      -4.607 -10.321  -4.544  1.00  0.00    -0.271 OA
BRANCH  12  14
ATOM     14  C   UNL     1      -3.039  -8.548  -4.211  1.00  0.00     0.363 C 
BRANCH  14  15
ATOM     15  O   UNL     1      -2.306  -7.711  -3.334  1.00  0.00    -0.385 OA
BRANCH  15  16
ATOM     16  N   UNL     1      -3.022  -6.523  -3.176  1.00  0.00    -0.091 NA
ATOM     17  C   UNL     1       0.207   1.043  -0.042  1.00  0.00     0.014 C 
ATOM     18  C   UNL     1      -0.126  -0.078  -1.075  1.00  0.00    -0.003 C 
ATOM     19  C   UNL     1      -1.595  -0.402  -0.850  1.00  0.00     0.010 C 
ATOM     20  C   UNL     1       0.799  -1.325  -1.024  1.00  0.00     0.001 C 
ATOM     21  C   UNL     1       0.255   0.323  -2.513  1.00  0.00     0.120 C 
ATOM     22  C   UNL     1      -1.773  -1.264   0.409  1.00  0.00     0.005 C 
ATOM     23  C   UNL     1       0.604  -2.216   0.200  1.00  0.00    -0.003 C 
ATOM     24  C   UNL     1       2.164  -0.692  -1.385  1.00  0.00     0.007 C 
ATOM     25  C   UNL     1       1.784   0.429  -2.404  1.00  0.00     0.032 C 
ATOM     26  C   UNL     1      -0.900  -2.538   0.419  1.00  0.00     0.002 C 
ATOM     27  C   UNL     1       1.389  -3.536   0.194  1.00  0.00     0.008 C 
ATOM     28  C   UNL     1      -1.550  -3.723  -0.418  1.00  0.00    -0.008 C 
ATOM     29  C   UNL     1       0.909  -4.598  -0.801  1.00  0.00     0.032 C 
ATOM     30  C   UNL     1      -0.575  -4.714  -1.059  1.00  0.00    -0.062 C 
ATOM     31  C   UNL     1      -2.447  -3.251  -1.595  1.00  0.00     0.018 C 
ATOM     32  C   UNL     1      -2.444  -4.463   0.617  1.00  0.00     0.016 C 
ATOM     33  C   UNL     1      -1.000  -5.621  -1.975  1.00  0.00     0.027 C 
ATOM     34  C   UNL     1      -3.220  -4.355  -2.288  1.00  0.00     0.061 C 
ATOM     35  C   UNL     1      -2.401  -5.606  -2.506  1.00  0.00     0.080 C 
BRANCH  21  36
ATOM     36  O   UNL     1      -0.386   1.472  -3.004  1.00  0.00    -0.393 OA
ATOM     37  H   UNL     1      -0.183   2.226  -2.429  1.00  0.00     0.210 HD
ENDBRANCH  21  36
ENDBRANCH  15  16
ENDBRANCH  14  15
ENDBRANCH  12  14
ENDBRANCH   8  12
ENDBRANCH   4   7
ENDBRANCH   2   3
ENDBRANCH   1   2
BRANCH   1  38
ATOM     38  C   UNL     1      -7.565  -5.716  -1.692  1.00  0.00     0.002 C 
BRANCH  38  39
ATOM     39  C   UNL     1      -7.321  -5.218  -3.119  1.00  0.00     0.002 C 
BRANCH  39  40
ATOM     40  C   UNL     1      -8.116  -5.921  -4.221  1.00  0.00     0.021 C 
BRANCH  40  41
ATOM     41  C   UNL     1      -9.622  -6.016  -3.996  1.00  0.00     0.116 C 
BRANCH  41  42
ATOM     42  N   UNL     1     -10.254  -4.719  -3.816  1.00  0.00    -0.352 N 
ATOM     43  C   UNL     1     -11.400  -4.230  -4.387  1.00  0.00     0.251 C 
ATOM     44  H   UNL     1      -9.794  -4.107  -3.197  1.00  0.00     0.163 HD
ATOM     45  O   UNL     1     -11.721  -3.053  -4.206  1.00  0.00    -0.269 OA
BRANCH  43  46
ATOM     46  C   UNL     1     -12.236  -5.101  -5.240  1.00  0.00     0.039 A 
ATOM     47  C   UNL     1     -12.692  -4.605  -6.464  1.00  0.00     0.014 A 
ATOM     48  C   UNL     1     -12.562  -6.401  -4.845  1.00  0.00     0.014 A 
ATOM     49  C   UNL     1     -13.428  -5.432  -7.316  1.00  0.00     0.010 A 
ATOM     50  C   UNL     1     -13.230  -7.247  -5.728  1.00  0.00     0.010 A 
ATOM     51  C   UNL     1     -13.675  -6.770  -6.970  1.00  0.00    -0.014 A 
BRANCH  51  52
ATOM     52  C   UNL     1     -14.389  -7.685  -7.900  1.00  0.00     0.031 A 
ATOM     53  C   UNL     1     -15.706  -8.297  -7.505  1.00  0.00     0.074 A 
ATOM     54  C   UNL     1     -13.813  -8.025  -9.071  1.00  0.00     0.049 A 
ATOM     55  N   UNL     1     -16.449  -9.148  -8.163  1.00  0.00    -0.248 NA
ATOM     56  C   UNL     1     -16.247  -7.924  -6.188  1.00  0.00     0.031 C 
ATOM     57  C   UNL     1     -12.504  -7.560  -9.537  1.00  0.00     0.029 A 
ATOM     58  N   UNL     1     -14.241  -8.862 -10.072  1.00  0.00    -0.354 N 
ATOM     59  C   UNL     1     -17.523  -9.439  -7.330  1.00  0.00     0.074 A 
ATOM     60  C   UNL     1     -17.318  -8.700  -6.104  1.00  0.00     0.031 C 
ATOM     61  C   UNL     1     -12.240  -8.112 -10.731  1.00  0.00     0.029 A 
ATOM     62  C   UNL     1     -13.340  -8.995 -11.103  1.00  0.00     0.049 A 
ATOM     63  H   UNL     1     -15.111  -9.322 -10.053  1.00  0.00     0.167 HD
ATOM     64  C   UNL     1     -18.597 -10.229  -7.573  1.00  0.00     0.034 A 
ATOM     65  C   UNL     1     -13.388  -9.753 -12.216  1.00  0.00     0.034 A 
ATOM     66  C   UNL     1     -18.815 -10.935  -8.806  1.00  0.00     0.049 A 
ATOM     67  C   UNL     1     -14.605 -10.600 -12.473  1.00  0.00     0.074 A 
ATOM     68  C   UNL     1     -19.912 -11.691  -9.182  1.00  0.00     0.029 A 
ATOM     69  N   UNL     1     -17.915 -10.987  -9.859  1.00  0.00    -0.354 N 
ATOM     70  N   UNL     1     -15.684 -10.738 -11.742  1.00  0.00    -0.248 NA
ATOM     71  C   UNL     1     -14.628 -11.368 -13.726  1.00  0.00     0.031 C 
ATOM     72  C   UNL     1     -19.660 -12.227 -10.448  1.00  0.00     0.029 A 
ATOM     73  C   UNL     1     -18.424 -11.773 -10.879  1.00  0.00     0.049 A 
ATOM     74  H   UNL     1     -17.043 -10.531  -9.879  1.00  0.00     0.167 HD
ATOM     75  C   UNL     1     -16.529 -11.575 -12.462  1.00  0.00     0.074 A 
ATOM     76  C   UNL     1     -15.843 -11.897 -13.697  1.00  0.00     0.031 C 
ATOM     77  C   UNL     1     -17.755 -12.046 -12.126  1.00  0.00     0.034 A 
BRANCH  64  78
ATOM     78  C   UNL     1     -19.646 -10.338  -6.495  1.00  0.00     0.023 A 
ATOM     79  C   UNL     1     -20.467  -9.228  -6.204  1.00  0.00     0.012 A 
ATOM     80  C   UNL     1     -19.861 -11.552  -5.814  1.00  0.00     0.148 A 
ATOM     81  C   UNL     1     -21.458  -9.313  -5.227  1.00  0.00     0.002 A 
ATOM     82  C   UNL     1     -20.883 -11.643  -4.875  1.00  0.00     0.091 A 
ATOM     83  F   UNL     1     -19.060 -12.591  -6.090  1.00  0.00    -0.205 F 
ATOM     84  C   UNL     1     -21.672 -10.522  -4.571  1.00  0.00     0.022 A 
BRANCH  82  85
ATOM     85  S   UNL     1     -21.295 -13.177  -4.036  1.00  0.00     0.127 S 
ATOM     86  O   UNL     1     -20.878 -12.883  -2.665  1.00  0.00    -0.237 OA
ATOM     87  O   UNL     1     -22.744 -13.252  -4.229  1.00  0.00    -0.237 OA
ATOM     88  O   UNL     1     -20.536 -14.222  -4.708  1.00  0.00    -0.744 OA
ENDBRANCH  82  85
ENDBRANCH  64  78
BRANCH  65  89
ATOM     89  C   UNL     1     -12.271  -9.704 -13.202  1.00  0.00     0.023 A 
ATOM     90  C   UNL     1     -12.483  -9.111 -14.462  1.00  0.00     0.012 A 
ATOM     91  C   UNL     1     -10.998 -10.223 -12.894  1.00  0.00     0.148 A 
ATOM     92  C   UNL     1     -11.460  -9.069 -15.411  1.00  0.00     0.002 A 
ATOM     93  C   UNL     1      -9.968 -10.127 -13.822  1.00  0.00     0.091 A 
ATOM     94  F   UNL     1     -10.819 -10.791 -11.693  1.00  0.00    -0.205 F 
ATOM     95  C   UNL     1     -10.202  -9.569 -15.088  1.00  0.00     0.022 A 
BRANCH  93  96
ATOM     96  S   UNL     1      -8.284 -10.627 -13.449  1.00  0.00     0.127 S 
ATOM     97  O   UNL     1      -8.120 -11.794 -14.312  1.00  0.00    -0.237 OA
ATOM     98  O   UNL     1      -7.523  -9.446 -13.859  1.00  0.00    -0.237 OA
ATOM     99  O   UNL     1      -8.259 -10.891 -12.017  1.00  0.00    -0.744 OA
ENDBRANCH  93  96
ENDBRANCH  65  89
BRANCH  77 100
ATOM    100  C   UNL     1     -18.466 -12.925 -13.122  1.00  0.00     0.023 A 
ATOM    101  C   UNL     1     -18.013 -14.238 -13.355  1.00  0.00     0.012 A 
ATOM    102  C   UNL     1     -19.630 -12.469 -13.774  1.00  0.00     0.148 A 
ATOM    103  C   UNL     1     -18.686 -15.072 -14.248  1.00  0.00     0.002 A 
ATOM    104  C   UNL     1     -20.325 -13.323 -14.621  1.00  0.00     0.091 A 
ATOM    105  F   UNL     1     -20.035 -11.210 -13.552  1.00  0.00    -0.205 F 
ATOM    106  C   UNL     1     -19.847 -14.620 -14.870  1.00  0.00     0.022 A 
BRANCH 104 107
ATOM    107  S   UNL     1     -21.883 -12.863 -15.387  1.00  0.00     0.127 S 
ATOM    108  O   UNL     1     -21.496 -12.727 -16.791  1.00  0.00    -0.237 OA
ATOM    109  O   UNL     1     -22.725 -14.024 -15.097  1.00  0.00    -0.237 OA
ATOM    110  O   UNL     1     -22.305 -11.631 -14.735  1.00  0.00    -0.744 OA
ENDBRANCH 104 107
ENDBRANCH  77 100
ENDBRANCH  51  52
ENDBRANCH  43  46
ENDBRANCH  41  42
ENDBRANCH  40  41
ENDBRANCH  39  40
ENDBRANCH  38  39
ENDBRANCH   1  38
TORSDOF 21
