REMARK SMILES O=C(C[C@@H]([NH2+]Cc1cccnc1)C(=O)NCCCCCCNC(=O)c1ccc(-c2c3nc(c(-c4cccc(S(=O)(=O)[O-])c4F)c4ccc([nH]4)c(-c4cccc(S(=O)(=O)[O-])c4F)c4nc(c(-c5cccc(S(=O)(=O)[O-])c5F)c5ccc2[nH]5)C=C4)C=C3)cc1)Nc1ccc2ccccc2c1
REMARK SMILES IDX 18 1 17 2 16 3 15 4 13 5 14 6 4 8 3 9 2 10 1 11 88 12 89 14
REMARK SMILES IDX 90 15 98 16 91 17 97 18 92 19 96 20 93 21 95 22 94 23 5 24
REMARK SMILES IDX 6 27 7 28 8 29 12 30 9 31 11 32 10 33 19 34 20 35 21 36
REMARK SMILES IDX 22 37 23 38 24 40 25 41 26 42 87 43 27 44 86 45 28 46 29 47
REMARK SMILES IDX 30 48 80 49 31 50 85 51 79 52 81 53 32 54 84 55 78 56 77 57
REMARK SMILES IDX 33 59 65 60 45 61 64 62 46 63 49 64 63 65 82 66 47 67 48 68
REMARK SMILES IDX 62 70 83 71 50 72 34 73 35 74 43 75 36 76 38 77 44 78 37 79
REMARK SMILES IDX 39 80 40 81 41 82 42 83 66 84 67 85 75 86 68 87 70 88 76 89
REMARK SMILES IDX 69 90 71 91 72 92 73 93 74 94 51 95 52 96 60 97 53 98 55 99
REMARK SMILES IDX 61 100 54 101 56 102 57 103 58 104 59 105
REMARK H PARENT 15 7 88 13 5 25 5 26 22 39 81 58 49 69
REMARK Flexibility Score: inf
ROOT
ATOM      1  C   UNL     1       6.285  -4.402   1.585  1.00  0.00     0.002 C 
ENDROOT
BRANCH   1   2
ATOM      2  C   UNL     1       5.452  -3.114   1.612  1.00  0.00     0.021 C 
BRANCH   2   3
ATOM      3  C   UNL     1       5.833  -2.131   0.504  1.00  0.00     0.116 C 
BRANCH   3   4
ATOM      4  N   UNL     1       5.403  -2.663  -0.775  1.00  0.00    -0.351 N 
ATOM      5  C   UNL     1       4.368  -2.280  -1.573  1.00  0.00     0.278 C 
ATOM      6  O   UNL     1       4.091  -2.999  -2.537  1.00  0.00    -0.268 OA
ATOM      7  H   UNL     1       5.941  -3.413  -1.118  1.00  0.00     0.163 HD
BRANCH   5   8
ATOM      8  C   UNL     1       3.614  -0.958  -1.325  1.00  0.00     0.282 C 
BRANCH   8   9
ATOM      9  C   UNL     1       2.757  -1.074  -0.046  1.00  0.00     0.175 C 
BRANCH   9  10
ATOM     10  C   UNL     1       1.939   0.163   0.264  1.00  0.00     0.230 C 
ATOM     11  O   UNL     1       0.713   0.147   0.235  1.00  0.00    -0.274 OA
ATOM     12  N   UNL     1       2.732   1.266   0.528  1.00  0.00    -0.326 N 
ATOM     13  H   UNL     1       3.694   1.125   0.679  1.00  0.00     0.169 HD
BRANCH  12  14
ATOM     14  C   UNL     1       2.232   2.572   0.591  1.00  0.00     0.041 A 
ATOM     15  C   UNL     1       2.768   3.511  -0.288  1.00  0.00     0.027 A 
ATOM     16  C   UNL     1       1.260   2.950   1.518  1.00  0.00     0.034 A 
ATOM     17  C   UNL     1       2.254   4.805  -0.322  1.00  0.00     0.011 A 
ATOM     18  C   UNL     1       0.839   4.291   1.587  1.00  0.00    -0.016 A 
ATOM     19  C   UNL     1       1.296   5.211   0.613  1.00  0.00    -0.018 A 
ATOM     20  C   UNL     1       0.005   4.758   2.616  1.00  0.00     0.009 A 
ATOM     21  C   UNL     1       0.821   6.529   0.623  1.00  0.00     0.009 A 
ATOM     22  C   UNL     1      -0.391   6.097   2.662  1.00  0.00     0.001 A 
ATOM     23  C   UNL     1      -0.011   6.973   1.649  1.00  0.00     0.001 A 
ENDBRANCH  12  14
ENDBRANCH   9  10
ENDBRANCH   8   9
BRANCH   8  24
ATOM     24  N   UNL     1       4.547   0.215  -1.348  1.00  0.00    -0.332 N 
ATOM     25  H   UNL     1       5.104   0.194  -0.494  1.00  0.00     0.347 HD
ATOM     26  H   UNL     1       3.963   1.047  -1.426  1.00  0.00     0.347 HD
BRANCH  24  27
ATOM     27  C   UNL     1       5.471   0.245  -2.501  1.00  0.00     0.299 C 
BRANCH  27  28
ATOM     28  C   UNL     1       4.782   0.632  -3.780  1.00  0.00     0.024 A 
ATOM     29  C   UNL     1       4.228  -0.325  -4.633  1.00  0.00     0.013 A 
ATOM     30  C   UNL     1       4.596   1.970  -4.115  1.00  0.00     0.120 A 
ATOM     31  C   UNL     1       3.480   0.080  -5.733  1.00  0.00     0.021 A 
ATOM     32  N   UNL     1       3.888   2.393  -5.186  1.00  0.00    -0.264 NA
ATOM     33  C   UNL     1       3.333   1.437  -5.960  1.00  0.00     0.111 A 
ENDBRANCH  27  28
ENDBRANCH  24  27
ENDBRANCH   8  24
ENDBRANCH   5   8
ENDBRANCH   3   4
ENDBRANCH   2   3
ENDBRANCH   1   2
BRANCH   1  34
ATOM     34  C   UNL     1       7.793  -4.184   1.746  1.00  0.00     0.002 C 
BRANCH  34  35
ATOM     35  C   UNL     1       8.189  -3.391   2.993  1.00  0.00     0.021 C 
BRANCH  35  36
ATOM     36  C   UNL     1       7.726  -4.020   4.302  1.00  0.00     0.116 C 
BRANCH  36  37
ATOM     37  N   UNL     1       8.330  -5.327   4.513  1.00  0.00    -0.352 N 
ATOM     38  C   UNL     1       9.057  -5.779   5.586  1.00  0.00     0.251 C 
ATOM     39  H   UNL     1       8.199  -5.976   3.785  1.00  0.00     0.163 HD
ATOM     40  O   UNL     1       9.684  -6.828   5.506  1.00  0.00    -0.269 OA
BRANCH  38  41
ATOM     41  C   UNL     1       9.087  -4.981   6.830  1.00  0.00     0.039 A 
ATOM     42  C   UNL     1      10.309  -4.782   7.477  1.00  0.00     0.014 A 
ATOM     43  C   UNL     1       7.913  -4.429   7.351  1.00  0.00     0.014 A 
ATOM     44  C   UNL     1      10.359  -3.986   8.622  1.00  0.00     0.010 A 
ATOM     45  C   UNL     1       7.979  -3.571   8.444  1.00  0.00     0.010 A 
ATOM     46  C   UNL     1       9.200  -3.350   9.098  1.00  0.00    -0.014 A 
BRANCH  46  47
ATOM     47  C   UNL     1       9.251  -2.441  10.271  1.00  0.00     0.031 A 
ATOM     48  C   UNL     1       8.467  -2.757  11.515  1.00  0.00     0.074 A 
ATOM     49  C   UNL     1       9.935  -1.283  10.183  1.00  0.00     0.049 A 
ATOM     50  N   UNL     1       8.359  -2.064  12.618  1.00  0.00    -0.248 NA
ATOM     51  C   UNL     1       7.678  -4.000  11.509  1.00  0.00     0.031 C 
ATOM     52  C   UNL     1      10.660  -0.819   8.999  1.00  0.00     0.029 A 
ATOM     53  N   UNL     1      10.105  -0.271  11.095  1.00  0.00    -0.354 N 
ATOM     54  C   UNL     1       7.459  -2.759  13.418  1.00  0.00     0.074 A 
ATOM     55  C   UNL     1       7.028  -3.914  12.660  1.00  0.00     0.031 C 
ATOM     56  C   UNL     1      11.196   0.384   9.256  1.00  0.00     0.029 A 
ATOM     57  C   UNL     1      10.825   0.793  10.607  1.00  0.00     0.049 A 
ATOM     58  H   UNL     1       9.745  -0.305  12.011  1.00  0.00     0.167 HD
ATOM     59  C   UNL     1       7.046  -2.475  14.675  1.00  0.00     0.034 A 
ATOM     60  C   UNL     1      11.137   1.975  11.174  1.00  0.00     0.034 A 
ATOM     61  C   UNL     1       7.504  -1.344  15.436  1.00  0.00     0.049 A 
ATOM     62  C   UNL     1      10.708   2.246  12.588  1.00  0.00     0.074 A 
ATOM     63  C   UNL     1       7.234  -1.031  16.757  1.00  0.00     0.029 A 
ATOM     64  N   UNL     1       8.306  -0.328  14.941  1.00  0.00    -0.354 N 
ATOM     65  N   UNL     1      10.004   1.489  13.395  1.00  0.00    -0.248 NA
ATOM     66  C   UNL     1      11.146   3.515  13.185  1.00  0.00     0.031 C 
ATOM     67  C   UNL     1       7.835   0.199  17.045  1.00  0.00     0.029 A 
ATOM     68  C   UNL     1       8.520   0.628  15.919  1.00  0.00     0.049 A 
ATOM     69  H   UNL     1       8.669  -0.291  14.027  1.00  0.00     0.167 HD
ATOM     70  C   UNL     1       9.939   2.175  14.602  1.00  0.00     0.074 A 
ATOM     71  C   UNL     1      10.695   3.398  14.427  1.00  0.00     0.031 C 
ATOM     72  C   UNL     1       9.302   1.827  15.748  1.00  0.00     0.034 A 
BRANCH  59  73
ATOM     73  C   UNL     1       6.062  -3.420  15.318  1.00  0.00     0.023 A 
ATOM     74  C   UNL     1       6.466  -4.722  15.678  1.00  0.00     0.012 A 
ATOM     75  C   UNL     1       4.748  -3.002  15.605  1.00  0.00     0.148 A 
ATOM     76  C   UNL     1       5.567  -5.608  16.270  1.00  0.00     0.002 A 
ATOM     77  C   UNL     1       3.872  -3.873  16.242  1.00  0.00     0.091 A 
ATOM     78  F   UNL     1       4.373  -1.769  15.238  1.00  0.00    -0.205 F 
ATOM     79  C   UNL     1       4.274  -5.181  16.561  1.00  0.00     0.022 A 
BRANCH  77  80
ATOM     80  S   UNL     1       2.215  -3.388  16.736  1.00  0.00     0.127 S 
ATOM     81  O   UNL     1       1.393  -4.139  15.788  1.00  0.00    -0.237 OA
ATOM     82  O   UNL     1       2.151  -3.873  18.115  1.00  0.00    -0.237 OA
ATOM     83  O   UNL     1       2.163  -1.940  16.600  1.00  0.00    -0.744 OA
ENDBRANCH  77  80
ENDBRANCH  59  73
BRANCH  60  84
ATOM     84  C   UNL     1      11.937   2.969  10.405  1.00  0.00     0.023 A 
ATOM     85  C   UNL     1      13.273   3.223  10.768  1.00  0.00     0.012 A 
ATOM     86  C   UNL     1      11.392   3.623   9.282  1.00  0.00     0.148 A 
ATOM     87  C   UNL     1      14.046   4.130  10.042  1.00  0.00     0.002 A 
ATOM     88  C   UNL     1      12.185   4.480   8.529  1.00  0.00     0.091 A 
ATOM     89  F   UNL     1      10.116   3.371   8.959  1.00  0.00    -0.205 F 
ATOM     90  C   UNL     1      13.506   4.749   8.917  1.00  0.00     0.022 A 
BRANCH  88  91
ATOM     91  S   UNL     1      11.621   5.209   6.987  1.00  0.00     0.127 S 
ATOM     92  O   UNL     1      11.570   6.628   7.328  1.00  0.00    -0.237 OA
ATOM     93  O   UNL     1      12.695   4.833   6.068  1.00  0.00    -0.237 OA
ATOM     94  O   UNL     1      10.337   4.584   6.699  1.00  0.00    -0.744 OA
ENDBRANCH  88  91
ENDBRANCH  60  84
BRANCH  72  95
ATOM     95  C   UNL     1       9.414   2.763  16.924  1.00  0.00     0.023 A 
ATOM     96  C   UNL     1       8.745   4.003  16.906  1.00  0.00     0.012 A 
ATOM     97  C   UNL     1      10.127   2.379  18.077  1.00  0.00     0.148 A 
ATOM     98  C   UNL     1       8.814   4.861  18.004  1.00  0.00     0.002 A 
ATOM     99  C   UNL     1      10.146   3.215  19.187  1.00  0.00     0.091 A 
ATOM    100  F   UNL     1      10.772   1.203  18.069  1.00  0.00    -0.205 F 
ATOM    101  C   UNL     1       9.503   4.462  19.147  1.00  0.00     0.022 A 
BRANCH  99 102
ATOM    102  S   UNL     1      10.923   2.743  20.736  1.00  0.00     0.127 S 
ATOM    103  O   UNL     1      12.083   3.631  20.770  1.00  0.00    -0.237 OA
ATOM    104  O   UNL     1       9.882   3.061  21.713  1.00  0.00    -0.237 OA
ATOM    105  O   UNL     1      11.227   1.323  20.618  1.00  0.00    -0.744 OA
ENDBRANCH  99 102
ENDBRANCH  72  95
ENDBRANCH  46  47
ENDBRANCH  38  41
ENDBRANCH  36  37
ENDBRANCH  35  36
ENDBRANCH  34  35
ENDBRANCH   1  34
TORSDOF 22
