REMARK SMILES Cc1coc2cc3c(cc12)[C@@H](C)[C@H](CCC(=O)N[C@@H](Cc1c[nH]c2ccccc12)C(=O)NCCCCCCNC(=O)c1ccc(-c2c4nc(c(-c5cccc(S(=O)(=O)[O-])c5F)c5ccc([nH]5)c(-c5cccc(S(=O)(=O)[O-])c5F)c5nc(c(-c6cccc(S(=O)(=O)[O-])c6F)c6ccc2[nH]6)C=C5)C=C4)cc1)C(=O)O3
REMARK SMILES IDX 35 1 34 2 33 3 32 4 30 5 31 6 19 8 18 9 16 10 17 11 15 13
REMARK SMILES IDX 14 14 13 15 1 16 2 17 3 18 10 19 4 20 5 21 9 22 6 23 8 24
REMARK SMILES IDX 7 25 11 26 107 27 12 28 105 29 106 30 20 31 21 32 22 33
REMARK SMILES IDX 29 34 23 35 24 36 28 37 25 39 27 40 26 41 36 42 37 43 38 44
REMARK SMILES IDX 39 45 40 46 41 48 42 49 43 50 104 51 44 52 103 53 45 54
REMARK SMILES IDX 46 55 47 56 97 57 48 58 102 59 96 60 98 61 49 62 101 63
REMARK SMILES IDX 95 64 94 65 50 67 82 68 62 69 81 70 63 71 66 72 80 73 99 74
REMARK SMILES IDX 64 75 65 76 79 78 100 79 67 80 51 81 52 82 60 83 53 84 55 85
REMARK SMILES IDX 61 86 54 87 56 88 57 89 58 90 59 91 83 92 84 93 92 94 85 95
REMARK SMILES IDX 87 96 93 97 86 98 88 99 89 100 90 101 91 102 68 103 69 104
REMARK SMILES IDX 77 105 70 106 72 107 78 108 71 109 73 110 74 111 75 112
REMARK SMILES IDX 76 113
REMARK H PARENT 32 7 18 12 23 38 39 47 98 66 66 77
REMARK Flexibility Score: inf
ROOT
ATOM      1  C   UNL     1      -5.601  -4.200  -4.116  1.00  0.00     0.002 C 
ENDROOT
BRANCH   1   2
ATOM      2  C   UNL     1      -4.084  -4.261  -4.231  1.00  0.00     0.021 C 
BRANCH   2   3
ATOM      3  C   UNL     1      -3.401  -5.325  -3.391  1.00  0.00     0.116 C 
BRANCH   3   4
ATOM      4  N   UNL     1      -2.978  -6.521  -4.077  1.00  0.00    -0.354 N 
ATOM      5  C   UNL     1      -1.777  -7.179  -3.951  1.00  0.00     0.242 C 
ATOM      6  O   UNL     1      -1.587  -8.144  -4.701  1.00  0.00    -0.273 OA
ATOM      7  H   UNL     1      -3.623  -6.912  -4.709  1.00  0.00     0.163 HD
BRANCH   5   8
ATOM      8  C   UNL     1      -0.627  -6.683  -2.995  1.00  0.00     0.175 C 
BRANCH   8   9
ATOM      9  N   UNL     1       0.365  -5.870  -3.770  1.00  0.00    -0.344 N 
ATOM     10  C   UNL     1       1.712  -5.921  -4.059  1.00  0.00     0.220 C 
ATOM     11  O   UNL     1       2.087  -5.134  -4.943  1.00  0.00    -0.275 OA
ATOM     12  H   UNL     1      -0.061  -5.086  -4.186  1.00  0.00     0.164 HD
BRANCH  10  13
ATOM     13  C   UNL     1       2.808  -6.816  -3.386  1.00  0.00     0.101 C 
BRANCH  13  14
ATOM     14  C   UNL     1       3.804  -6.188  -2.274  1.00  0.00     0.026 C 
BRANCH  14  15
ATOM     15  C   UNL     1       3.364  -6.324  -0.752  1.00  0.00     0.107 C 
ATOM     16  C   UNL     1       1.456   0.469   0.963  1.00  0.00     0.048 C 
ATOM     17  C   UNL     1       1.732  -0.237  -0.307  1.00  0.00    -0.005 A 
ATOM     18  C   UNL     1       1.463   0.244  -1.575  1.00  0.00     0.199 A 
ATOM     19  C   UNL     1       2.185  -1.582  -0.481  1.00  0.00     0.024 A 
ATOM     20  O   UNL     1       1.572  -0.742  -2.496  1.00  0.00    -0.464 OA
ATOM     21  C   UNL     1       1.884  -1.868  -1.808  1.00  0.00     0.137 A 
ATOM     22  C   UNL     1       2.717  -2.625   0.322  1.00  0.00     0.020 A 
ATOM     23  C   UNL     1       1.774  -3.151  -2.304  1.00  0.00     0.095 A 
ATOM     24  C   UNL     1       2.719  -3.921  -0.206  1.00  0.00    -0.001 A 
ATOM     25  C   UNL     1       1.987  -4.132  -1.351  1.00  0.00     0.138 A 
ATOM     26  C   UNL     1       3.383  -5.163   0.338  1.00  0.00     0.034 C 
ATOM     27  O   UNL     1       1.345  -5.391  -1.439  1.00  0.00    -0.426 OA
ATOM     28  C   UNL     1       2.628  -5.603   1.618  1.00  0.00     0.014 C 
ATOM     29  C   UNL     1       1.927  -6.540  -0.901  1.00  0.00     0.314 C 
ATOM     30  O   UNL     1       1.388  -7.638  -0.755  1.00  0.00    -0.251 OA
ENDBRANCH  14  15
ENDBRANCH  13  14
ENDBRANCH  10  13
ENDBRANCH   8   9
BRANCH   8  31
ATOM     31  C   UNL     1      -1.197  -6.287  -1.577  1.00  0.00     0.072 C 
BRANCH  31  32
ATOM     32  C   UNL     1      -1.443  -4.911  -0.929  1.00  0.00    -0.020 A 
ATOM     33  C   UNL     1      -1.797  -4.853   0.417  1.00  0.00     0.087 A 
ATOM     34  C   UNL     1      -1.507  -3.532  -1.384  1.00  0.00     0.003 A 
ATOM     35  N   UNL     1      -2.130  -3.575   0.759  1.00  0.00    -0.361 N 
ATOM     36  C   UNL     1      -1.993  -2.752  -0.327  1.00  0.00     0.046 A 
ATOM     37  C   UNL     1      -1.282  -2.849  -2.603  1.00  0.00     0.010 A 
ATOM     38  H   UNL     1      -2.424  -3.288   1.653  1.00  0.00     0.166 HD
ATOM     39  C   UNL     1      -2.293  -1.385  -0.440  1.00  0.00     0.026 A 
ATOM     40  C   UNL     1      -1.564  -1.482  -2.736  1.00  0.00     0.001 A 
ATOM     41  C   UNL     1      -2.075  -0.763  -1.667  1.00  0.00     0.002 A 
ENDBRANCH  31  32
ENDBRANCH   8  31
ENDBRANCH   5   8
ENDBRANCH   3   4
ENDBRANCH   2   3
ENDBRANCH   1   2
BRANCH   1  42
ATOM     42  C   UNL     1      -6.200  -3.907  -2.732  1.00  0.00     0.002 C 
BRANCH  42  43
ATOM     43  C   UNL     1      -5.691  -2.696  -1.938  1.00  0.00     0.021 C 
BRANCH  43  44
ATOM     44  C   UNL     1      -5.487  -1.388  -2.696  1.00  0.00     0.116 C 
BRANCH  44  45
ATOM     45  N   UNL     1      -6.586  -0.988  -3.545  1.00  0.00    -0.352 N 
ATOM     46  C   UNL     1      -7.801  -0.396  -3.355  1.00  0.00     0.251 C 
ATOM     47  H   UNL     1      -6.417  -1.192  -4.493  1.00  0.00     0.163 HD
ATOM     48  O   UNL     1      -8.465  -0.195  -4.376  1.00  0.00    -0.269 OA
BRANCH  46  49
ATOM     49  C   UNL     1      -8.378  -0.026  -2.037  1.00  0.00     0.039 A 
ATOM     50  C   UNL     1      -7.657   0.152  -0.856  1.00  0.00     0.014 A 
ATOM     51  C   UNL     1      -9.768   0.195  -2.014  1.00  0.00     0.014 A 
ATOM     52  C   UNL     1      -8.315   0.468   0.333  1.00  0.00     0.010 A 
ATOM     53  C   UNL     1     -10.424   0.540  -0.837  1.00  0.00     0.010 A 
ATOM     54  C   UNL     1      -9.702   0.641   0.350  1.00  0.00    -0.014 A 
BRANCH  54  55
ATOM     55  C   UNL     1     -10.342   0.987   1.621  1.00  0.00     0.031 A 
ATOM     56  C   UNL     1      -9.922   2.269   2.265  1.00  0.00     0.074 A 
ATOM     57  C   UNL     1     -11.363   0.287   2.156  1.00  0.00     0.049 A 
ATOM     58  N   UNL     1      -9.409   2.441   3.442  1.00  0.00    -0.248 NA
ATOM     59  C   UNL     1     -10.052   3.506   1.483  1.00  0.00     0.031 C 
ATOM     60  C   UNL     1     -12.130  -0.797   1.538  1.00  0.00     0.029 A 
ATOM     61  N   UNL     1     -12.026   0.511   3.329  1.00  0.00    -0.354 N 
ATOM     62  C   UNL     1      -9.311   3.822   3.626  1.00  0.00     0.074 A 
ATOM     63  C   UNL     1      -9.619   4.421   2.352  1.00  0.00     0.031 C 
ATOM     64  C   UNL     1     -13.292  -0.950   2.210  1.00  0.00     0.029 A 
ATOM     65  C   UNL     1     -13.279  -0.085   3.376  1.00  0.00     0.049 A 
ATOM     66  H   UNL     1     -11.652   1.042   4.069  1.00  0.00     0.167 HD
ATOM     67  C   UNL     1      -9.134   4.390   4.852  1.00  0.00     0.034 A 
ATOM     68  C   UNL     1     -14.266   0.180   4.263  1.00  0.00     0.034 A 
ATOM     69  C   UNL     1      -8.728   3.432   5.843  1.00  0.00     0.049 A 
ATOM     70  C   UNL     1     -13.650   0.797   5.458  1.00  0.00     0.074 A 
ATOM     71  C   UNL     1      -7.653   2.583   6.011  1.00  0.00     0.029 A 
ATOM     72  N   UNL     1      -9.664   3.038   6.766  1.00  0.00    -0.354 N 
ATOM     73  N   UNL     1     -12.869   0.164   6.287  1.00  0.00    -0.248 NA
ATOM     74  C   UNL     1     -13.632   2.246   5.563  1.00  0.00     0.031 C 
ATOM     75  C   UNL     1      -8.185   1.445   6.682  1.00  0.00     0.029 A 
ATOM     76  C   UNL     1      -9.546   1.681   6.890  1.00  0.00     0.049 A 
ATOM     77  H   UNL     1     -10.297   3.620   7.245  1.00  0.00     0.167 HD
ATOM     78  C   UNL     1     -11.955   1.121   6.704  1.00  0.00     0.074 A 
ATOM     79  C   UNL     1     -12.559   2.400   6.341  1.00  0.00     0.031 C 
ATOM     80  C   UNL     1     -10.672   0.782   7.034  1.00  0.00     0.034 A 
BRANCH  67  81
ATOM     81  C   UNL     1      -9.570   5.778   5.260  1.00  0.00     0.023 A 
ATOM     82  C   UNL     1      -9.083   6.285   6.489  1.00  0.00     0.012 A 
ATOM     83  C   UNL     1     -10.620   6.494   4.645  1.00  0.00     0.148 A 
ATOM     84  C   UNL     1      -9.639   7.417   7.095  1.00  0.00     0.002 A 
ATOM     85  C   UNL     1     -11.115   7.666   5.212  1.00  0.00     0.091 A 
ATOM     86  F   UNL     1     -11.238   5.980   3.576  1.00  0.00    -0.205 F 
ATOM     87  C   UNL     1     -10.650   8.116   6.450  1.00  0.00     0.022 A 
BRANCH  85  88
ATOM     88  S   UNL     1     -12.370   8.646   4.381  1.00  0.00     0.127 S 
ATOM     89  O   UNL     1     -13.581   8.230   5.082  1.00  0.00    -0.237 OA
ATOM     90  O   UNL     1     -11.929  10.012   4.665  1.00  0.00    -0.237 OA
ATOM     91  O   UNL     1     -12.271   8.271   2.976  1.00  0.00    -0.744 OA
ENDBRANCH  85  88
ENDBRANCH  67  81
BRANCH  68  92
ATOM     92  C   UNL     1     -15.733   0.141   4.065  1.00  0.00     0.023 A 
ATOM     93  C   UNL     1     -16.583   0.048   5.184  1.00  0.00     0.012 A 
ATOM     94  C   UNL     1     -16.308   0.459   2.814  1.00  0.00     0.148 A 
ATOM     95  C   UNL     1     -17.956   0.292   5.067  1.00  0.00     0.002 A 
ATOM     96  C   UNL     1     -17.676   0.689   2.701  1.00  0.00     0.091 A 
ATOM     97  F   UNL     1     -15.505   0.633   1.756  1.00  0.00    -0.205 F 
ATOM     98  C   UNL     1     -18.502   0.617   3.829  1.00  0.00     0.022 A 
BRANCH  96  99
ATOM     99  S   UNL     1     -18.440   1.129   1.134  1.00  0.00     0.127 S 
ATOM    100  O   UNL     1     -19.640   0.290   1.133  1.00  0.00    -0.237 OA
ATOM    101  O   UNL     1     -18.690   2.556   1.311  1.00  0.00    -0.237 OA
ATOM    102  O   UNL     1     -17.467   0.774   0.108  1.00  0.00    -0.744 OA
ENDBRANCH  96  99
ENDBRANCH  68  92
BRANCH  80 103
ATOM    103  C   UNL     1     -10.326  -0.679   7.205  1.00  0.00     0.023 A 
ATOM    104  C   UNL     1     -10.491  -1.603   6.152  1.00  0.00     0.012 A 
ATOM    105  C   UNL     1      -9.622  -1.083   8.355  1.00  0.00     0.148 A 
ATOM    106  C   UNL     1      -9.990  -2.903   6.249  1.00  0.00     0.002 A 
ATOM    107  C   UNL     1      -9.073  -2.360   8.423  1.00  0.00     0.091 A 
ATOM    108  F   UNL     1      -9.461  -0.195   9.348  1.00  0.00    -0.205 F 
ATOM    109  C   UNL     1      -9.266  -3.276   7.377  1.00  0.00     0.022 A 
BRANCH 107 110
ATOM    110  S   UNL     1      -7.986  -2.846   9.768  1.00  0.00     0.127 S 
ATOM    111  O   UNL     1      -8.852  -3.729  10.556  1.00  0.00    -0.237 OA
ATOM    112  O   UNL     1      -6.902  -3.539   9.059  1.00  0.00    -0.237 OA
ATOM    113  O   UNL     1      -7.577  -1.619  10.419  1.00  0.00    -0.744 OA
ENDBRANCH 107 110
ENDBRANCH  80 103
ENDBRANCH  54  55
ENDBRANCH  46  49
ENDBRANCH  44  45
ENDBRANCH  43  44
ENDBRANCH  42  43
ENDBRANCH   1  42
TORSDOF 22
