REMARK SMILES CC1=C(C)C[C@@H](C(=O)NNC(=O)c2ccccc2C)[C@@H](C(=O)NCCCCCCNC(=O)c2ccc(-c3c4nc(c(-c5cccc(S(=O)(=O)[O-])c5F)c5ccc([nH]5)c(-c5cccc(S(=O)(=O)[O-])c5F)c5nc(c(-c6cccc(S(=O)(=O)[O-])c6F)c6ccc3[nH]6)C=C5)C=C4)cc2)C1
REMARK SMILES IDX 26 1 25 2 24 3 23 4 21 5 22 6 20 8 1 9 2 10 3 11 96 12 4 13
REMARK SMILES IDX 5 14 6 15 7 16 8 17 9 18 10 20 11 21 12 23 13 24 14 25 18 26
REMARK SMILES IDX 15 27 17 28 19 29 16 30 27 31 28 32 29 33 30 34 31 35 32 37
REMARK SMILES IDX 33 38 34 39 95 40 35 41 94 42 36 43 37 44 38 45 88 46 39 47
REMARK SMILES IDX 93 48 87 49 89 50 40 51 92 52 86 53 85 54 41 56 73 57 53 58
REMARK SMILES IDX 72 59 54 60 57 61 71 62 90 63 55 64 56 65 70 67 91 68 58 69
REMARK SMILES IDX 42 70 43 71 51 72 44 73 46 74 52 75 45 76 47 77 48 78 49 79
REMARK SMILES IDX 50 80 74 81 75 82 83 83 76 84 78 85 84 86 77 87 79 88 80 89
REMARK SMILES IDX 81 90 82 91 59 92 60 93 68 94 61 95 63 96 69 97 62 98 64 99
REMARK SMILES IDX 65 100 66 101 67 102
REMARK H PARENT 23 7 9 19 10 22 30 36 89 55 57 66
REMARK Flexibility Score: inf
ROOT
ATOM      1  C   UNL     1       1.710   7.359   2.994  1.00  0.00     0.002 C 
ENDROOT
BRANCH   1   2
ATOM      2  C   UNL     1       0.461   6.645   2.441  1.00  0.00     0.021 C 
BRANCH   2   3
ATOM      3  C   UNL     1       0.710   5.390   1.602  1.00  0.00     0.116 C 
BRANCH   3   4
ATOM      4  N   UNL     1       1.676   4.542   2.256  1.00  0.00    -0.356 N 
ATOM      5  C   UNL     1       1.385   3.595   3.182  1.00  0.00     0.224 C 
ATOM      6  O   UNL     1       2.102   3.579   4.177  1.00  0.00    -0.275 OA
ATOM      7  H   UNL     1       2.622   4.659   2.010  1.00  0.00     0.163 HD
BRANCH   5   8
ATOM      8  C   UNL     1       0.247   2.608   2.887  1.00  0.00     0.095 C 
ATOM      9  C   UNL     1       0.766   0.117  -0.135  1.00  0.00     0.039 C 
ATOM     10  C   UNL     1       0.307   0.544   1.240  1.00  0.00    -0.074 C 
ATOM     11  C   UNL     1      -0.161  -0.284   2.194  1.00  0.00    -0.074 C 
ATOM     12  C   UNL     1       0.427   2.034   1.458  1.00  0.00     0.045 C 
ATOM     13  C   UNL     1      -0.323  -1.776   2.050  1.00  0.00     0.039 C 
ATOM     14  C   UNL     1      -0.601   0.242   3.538  1.00  0.00     0.045 C 
ATOM     15  C   UNL     1       0.030   1.560   3.997  1.00  0.00     0.097 C 
BRANCH  15  16
ATOM     16  C   UNL     1       1.157   1.311   5.012  1.00  0.00     0.242 C 
ATOM     17  O   UNL     1       0.919   1.390   6.223  1.00  0.00    -0.273 OA
ATOM     18  N   UNL     1       2.419   0.943   4.625  1.00  0.00    -0.267 N 
ATOM     19  H   UNL     1       3.119   0.922   5.316  1.00  0.00     0.191 HD
BRANCH  18  20
ATOM     20  N   UNL     1       2.782   0.601   3.345  1.00  0.00    -0.263 N 
ATOM     21  C   UNL     1       3.675  -0.378   2.985  1.00  0.00     0.269 C 
ATOM     22  H   UNL     1       2.360   1.107   2.614  1.00  0.00     0.191 HD
ATOM     23  O   UNL     1       3.938  -0.531   1.791  1.00  0.00    -0.267 OA
BRANCH  21  24
ATOM     24  C   UNL     1       4.426  -1.178   3.992  1.00  0.00     0.044 A 
ATOM     25  C   UNL     1       5.793  -1.340   3.686  1.00  0.00     0.014 A 
ATOM     26  C   UNL     1       3.898  -1.809   5.134  1.00  0.00    -0.038 A 
ATOM     27  C   UNL     1       6.638  -2.079   4.512  1.00  0.00     0.001 A 
ATOM     28  C   UNL     1       4.779  -2.510   5.981  1.00  0.00     0.004 A 
ATOM     29  C   UNL     1       2.449  -1.808   5.527  1.00  0.00     0.045 C 
ATOM     30  C   UNL     1       6.131  -2.652   5.670  1.00  0.00     0.000 A 
ENDBRANCH  21  24
ENDBRANCH  18  20
ENDBRANCH  15  16
ENDBRANCH   5   8
ENDBRANCH   3   4
ENDBRANCH   2   3
ENDBRANCH   1   2
BRANCH   1  31
ATOM     31  C   UNL     1       2.866   7.647   2.025  1.00  0.00     0.002 C 
BRANCH  31  32
ATOM     32  C   UNL     1       2.490   8.155   0.641  1.00  0.00     0.021 C 
BRANCH  32  33
ATOM     33  C   UNL     1       1.695   9.446   0.645  1.00  0.00     0.116 C 
BRANCH  33  34
ATOM     34  N   UNL     1       2.494  10.563   0.185  1.00  0.00    -0.352 N 
ATOM     35  C   UNL     1       2.070  11.739  -0.398  1.00  0.00     0.251 C 
ATOM     36  H   UNL     1       3.467  10.472   0.304  1.00  0.00     0.163 HD
ATOM     37  O   UNL     1       2.826  12.356  -1.148  1.00  0.00    -0.269 OA
BRANCH  35  38
ATOM     38  C   UNL     1       0.802  12.339   0.082  1.00  0.00     0.039 A 
ATOM     39  C   UNL     1       0.925  13.615   0.646  1.00  0.00     0.014 A 
ATOM     40  C   UNL     1      -0.302  11.545   0.366  1.00  0.00     0.014 A 
ATOM     41  C   UNL     1       0.130  13.962   1.729  1.00  0.00     0.010 A 
ATOM     42  C   UNL     1      -1.028  11.839   1.494  1.00  0.00     0.010 A 
ATOM     43  C   UNL     1      -0.749  13.007   2.215  1.00  0.00    -0.014 A 
BRANCH  43  44
ATOM     44  C   UNL     1      -1.498  13.122   3.447  1.00  0.00     0.031 A 
ATOM     45  C   UNL     1      -2.871  13.643   3.367  1.00  0.00     0.074 A 
ATOM     46  C   UNL     1      -1.037  12.453   4.527  1.00  0.00     0.049 A 
ATOM     47  N   UNL     1      -3.624  13.854   4.387  1.00  0.00    -0.248 NA
ATOM     48  C   UNL     1      -3.495  14.012   2.098  1.00  0.00     0.031 C 
ATOM     49  C   UNL     1      -1.819  11.945   5.646  1.00  0.00     0.029 A 
ATOM     50  N   UNL     1       0.293  12.256   4.921  1.00  0.00    -0.354 N 
ATOM     51  C   UNL     1      -4.900  14.044   3.906  1.00  0.00     0.074 A 
ATOM     52  C   UNL     1      -4.739  14.290   2.498  1.00  0.00     0.031 C 
ATOM     53  C   UNL     1      -1.000  11.746   6.690  1.00  0.00     0.029 A 
ATOM     54  C   UNL     1       0.290  12.307   6.327  1.00  0.00     0.049 A 
ATOM     55  H   UNL     1       1.070  12.111   4.335  1.00  0.00     0.167 HD
ATOM     56  C   UNL     1      -5.942  13.796   4.744  1.00  0.00     0.034 A 
ATOM     57  C   UNL     1       0.943  13.268   7.045  1.00  0.00     0.034 A 
ATOM     58  C   UNL     1      -5.459  13.686   6.131  1.00  0.00     0.049 A 
ATOM     59  C   UNL     1       0.000  14.142   7.860  1.00  0.00     0.074 A 
ATOM     60  C   UNL     1      -5.236  12.619   6.984  1.00  0.00     0.029 A 
ATOM     61  N   UNL     1      -4.822  14.784   6.708  1.00  0.00    -0.354 N 
ATOM     62  N   UNL     1      -1.303  14.076   7.800  1.00  0.00    -0.248 NA
ATOM     63  C   UNL     1       0.448  15.167   8.799  1.00  0.00     0.031 C 
ATOM     64  C   UNL     1      -4.333  13.056   7.997  1.00  0.00     0.029 A 
ATOM     65  C   UNL     1      -4.050  14.398   7.794  1.00  0.00     0.049 A 
ATOM     66  H   UNL     1      -4.908  15.711   6.387  1.00  0.00     0.167 HD
ATOM     67  C   UNL     1      -1.865  15.084   8.538  1.00  0.00     0.074 A 
ATOM     68  C   UNL     1      -0.724  15.685   9.211  1.00  0.00     0.031 C 
ATOM     69  C   UNL     1      -3.205  15.376   8.484  1.00  0.00     0.034 A 
BRANCH  56  70
ATOM     70  C   UNL     1      -7.362  13.445   4.321  1.00  0.00     0.023 A 
ATOM     71  C   UNL     1      -8.277  13.139   5.354  1.00  0.00     0.012 A 
ATOM     72  C   UNL     1      -7.853  13.274   2.999  1.00  0.00     0.148 A 
ATOM     73  C   UNL     1      -9.577  12.681   5.101  1.00  0.00     0.002 A 
ATOM     74  C   UNL     1      -9.168  12.870   2.745  1.00  0.00     0.091 A 
ATOM     75  F   UNL     1      -7.040  13.416   1.952  1.00  0.00    -0.205 F 
ATOM     76  C   UNL     1     -10.029  12.556   3.796  1.00  0.00     0.022 A 
BRANCH  74  77
ATOM     77  S   UNL     1      -9.833  12.720   1.072  1.00  0.00     0.127 S 
ATOM     78  O   UNL     1     -10.027  11.275   0.948  1.00  0.00    -0.237 OA
ATOM     79  O   UNL     1     -11.071  13.495   1.157  1.00  0.00    -0.237 OA
ATOM     80  O   UNL     1      -8.830  13.286   0.178  1.00  0.00    -0.744 OA
ENDBRANCH  74  77
ENDBRANCH  56  70
BRANCH  57  81
ATOM     81  C   UNL     1       2.243  13.684   6.444  1.00  0.00     0.023 A 
ATOM     82  C   UNL     1       3.286  12.727   6.488  1.00  0.00     0.012 A 
ATOM     83  C   UNL     1       2.316  14.727   5.503  1.00  0.00     0.148 A 
ATOM     84  C   UNL     1       4.306  12.730   5.536  1.00  0.00     0.002 A 
ATOM     85  C   UNL     1       3.324  14.708   4.540  1.00  0.00     0.091 A 
ATOM     86  F   UNL     1       1.337  15.640   5.489  1.00  0.00    -0.205 F 
ATOM     87  C   UNL     1       4.301  13.696   4.538  1.00  0.00     0.022 A 
BRANCH  85  88
ATOM     88  S   UNL     1       3.345  15.824   3.131  1.00  0.00     0.127 S 
ATOM     89  O   UNL     1       4.527  16.634   3.410  1.00  0.00    -0.237 OA
ATOM     90  O   UNL     1       3.491  14.889   2.018  1.00  0.00    -0.237 OA
ATOM     91  O   UNL     1       2.070  16.525   3.172  1.00  0.00    -0.744 OA
ENDBRANCH  85  88
ENDBRANCH  57  81
BRANCH  69  92
ATOM     92  C   UNL     1      -3.844  16.631   9.062  1.00  0.00     0.023 A 
ATOM     93  C   UNL     1      -3.106  17.802   9.324  1.00  0.00     0.012 A 
ATOM     94  C   UNL     1      -5.252  16.726   9.222  1.00  0.00     0.148 A 
ATOM     95  C   UNL     1      -3.710  18.976   9.793  1.00  0.00     0.002 A 
ATOM     96  C   UNL     1      -5.860  17.932   9.567  1.00  0.00     0.091 A 
ATOM     97  F   UNL     1      -6.020  15.639   9.056  1.00  0.00    -0.205 F 
ATOM     98  C   UNL     1      -5.091  19.049   9.893  1.00  0.00     0.022 A 
BRANCH  96  99
ATOM     99  S   UNL     1      -7.643  18.135   9.433  1.00  0.00     0.127 S 
ATOM    100  O   UNL     1      -8.094  17.787  10.778  1.00  0.00    -0.237 OA
ATOM    101  O   UNL     1      -7.776  19.554   9.094  1.00  0.00    -0.237 OA
ATOM    102  O   UNL     1      -8.040  17.231   8.362  1.00  0.00    -0.744 OA
ENDBRANCH  96  99
ENDBRANCH  69  92
ENDBRANCH  43  44
ENDBRANCH  35  38
ENDBRANCH  33  34
ENDBRANCH  32  33
ENDBRANCH  31  32
ENDBRANCH   1  31
TORSDOF 19
