REMARK SMILES COC(=O)c1ccc(C)c2c1[C@H]1C=CC[C@H]1[C@@H](c1ccc(C(=O)NCCCCCCNC(=O)c3ccc(-c4c5nc(c(-c6cccc(S(=O)(=O)[O-])c6F)c6ccc([nH]6)c(-c6cccc(S(=O)(=O)[O-])c6F)c6nc(c(-c7cccc(S(=O)(=O)[O-])c7F)c7ccc4[nH]7)C=C6)C=C5)cc3)cc1)N2
REMARK SMILES IDX 27 1 26 2 25 3 24 4 22 5 23 6 21 8 18 9 19 10 98 11 20 12
REMARK SMILES IDX 97 13 17 14 5 15 6 16 11 17 7 18 10 19 12 20 8 21 99 22
REMARK SMILES IDX 13 23 16 24 9 25 14 27 15 28 3 29 4 30 2 31 1 32 28 33 29 34
REMARK SMILES IDX 30 35 31 36 32 37 33 39 34 40 35 41 96 42 36 43 95 44 37 45
REMARK SMILES IDX 38 46 39 47 89 48 40 49 94 50 88 51 90 52 41 53 93 54 87 55
REMARK SMILES IDX 86 56 42 58 74 59 54 60 73 61 55 62 58 63 72 64 91 65 56 66
REMARK SMILES IDX 57 67 71 69 92 70 59 71 43 72 44 73 52 74 45 75 47 76 53 77
REMARK SMILES IDX 46 78 48 79 49 80 50 81 51 82 75 83 76 84 84 85 77 86 79 87
REMARK SMILES IDX 85 88 78 89 80 90 81 91 82 92 83 93 60 94 61 95 69 96 62 97
REMARK SMILES IDX 64 98 70 99 63 100 65 101 66 102 67 103 68 104
REMARK H PARENT 24 7 99 26 31 38 90 57 58 68
REMARK Flexibility Score: inf
ROOT
ATOM      1  C   UNL     1       8.287   9.223  -2.284  1.00  0.00     0.002 C 
ENDROOT
BRANCH   1   2
ATOM      2  C   UNL     1       7.508   8.870  -1.009  1.00  0.00     0.021 C 
BRANCH   2   3
ATOM      3  C   UNL     1       6.110   9.488  -0.998  1.00  0.00     0.116 C 
BRANCH   3   4
ATOM      4  N   UNL     1       5.221   8.668  -1.786  1.00  0.00    -0.352 N 
ATOM      5  C   UNL     1       4.316   7.705  -1.448  1.00  0.00     0.251 C 
ATOM      6  O   UNL     1       3.751   7.127  -2.380  1.00  0.00    -0.269 OA
ATOM      7  H   UNL     1       5.279   8.837  -2.755  1.00  0.00     0.163 HD
BRANCH   5   8
ATOM      8  C   UNL     1       3.954   7.357  -0.045  1.00  0.00     0.039 A 
ATOM      9  C   UNL     1       3.066   6.499   2.522  1.00  0.00    -0.025 A 
ATOM     10  C   UNL     1       2.302   6.276   1.367  1.00  0.00     0.006 A 
ATOM     11  C   UNL     1       4.261   7.212   2.368  1.00  0.00     0.006 A 
ATOM     12  C   UNL     1       2.733   6.698   0.111  1.00  0.00     0.014 A 
ATOM     13  C   UNL     1       4.721   7.587   1.099  1.00  0.00     0.014 A 
BRANCH   9  14
ATOM     14  C   UNL     1       2.735   5.891   3.888  1.00  0.00     0.114 C 
ATOM     15  C   UNL     1       0.174   2.820   2.448  1.00  0.00     0.065 A 
ATOM     16  C   UNL     1      -1.150   3.159   2.149  1.00  0.00     0.016 A 
ATOM     17  C   UNL     1       1.010   3.719   3.146  1.00  0.00    -0.003 A 
ATOM     18  C   UNL     1      -1.662   4.387   2.550  1.00  0.00     0.006 A 
ATOM     19  C   UNL     1       0.472   4.963   3.575  1.00  0.00     0.042 A 
ATOM     20  C   UNL     1       2.469   3.386   3.415  1.00  0.00     0.050 C 
ATOM     21  C   UNL     1      -0.865   5.300   3.257  1.00  0.00    -0.028 A 
ATOM     22  N   UNL     1       1.306   5.911   4.153  1.00  0.00    -0.377 N 
ATOM     23  C   UNL     1       3.350   3.191   2.201  1.00  0.00    -0.023 C 
ATOM     24  C   UNL     1       3.263   4.468   4.180  1.00  0.00     0.031 C 
ATOM     25  C   UNL     1      -1.489   6.634   3.579  1.00  0.00     0.046 C 
ATOM     26  H   UNL     1       0.928   6.600   4.745  1.00  0.00     0.161 HD
ATOM     27  C   UNL     1       4.593   3.644   2.410  1.00  0.00    -0.030 C 
ATOM     28  C   UNL     1       4.728   4.237   3.775  1.00  0.00     0.034 C 
BRANCH  15  29
ATOM     29  C   UNL     1       0.659   1.488   2.009  1.00  0.00     0.338 C 
ATOM     30  O   UNL     1       1.240   0.692   2.719  1.00  0.00    -0.246 OA
BRANCH  29  31
ATOM     31  O   UNL     1       0.378   1.342   0.687  1.00  0.00    -0.465 OA
ATOM     32  C   UNL     1       0.880   0.129   0.125  1.00  0.00     0.282 C 
ENDBRANCH  29  31
ENDBRANCH  15  29
ENDBRANCH   9  14
ENDBRANCH   5   8
ENDBRANCH   3   4
ENDBRANCH   2   3
ENDBRANCH   1   2
BRANCH   1  33
ATOM     33  C   UNL     1       8.462  10.730  -2.510  1.00  0.00     0.002 C 
BRANCH  33  34
ATOM     34  C   UNL     1       9.050  11.476  -1.310  1.00  0.00     0.021 C 
BRANCH  34  35
ATOM     35  C   UNL     1      10.454  11.009  -0.948  1.00  0.00     0.116 C 
BRANCH  35  36
ATOM     36  N   UNL     1      11.380  11.296  -2.034  1.00  0.00    -0.352 N 
ATOM     37  C   UNL     1      12.462  12.136  -2.017  1.00  0.00     0.251 C 
ATOM     38  H   UNL     1      11.207  10.830  -2.884  1.00  0.00     0.163 HD
ATOM     39  O   UNL     1      12.964  12.537  -3.061  1.00  0.00    -0.269 OA
BRANCH  37  40
ATOM     40  C   UNL     1      13.014  12.535  -0.712  1.00  0.00     0.039 A 
ATOM     41  C   UNL     1      13.273  13.883  -0.456  1.00  0.00     0.014 A 
ATOM     42  C   UNL     1      13.265  11.556   0.256  1.00  0.00     0.014 A 
ATOM     43  C   UNL     1      13.766  14.255   0.794  1.00  0.00     0.010 A 
ATOM     44  C   UNL     1      13.701  11.934   1.516  1.00  0.00     0.010 A 
ATOM     45  C   UNL     1      13.975  13.283   1.785  1.00  0.00    -0.014 A 
BRANCH  45  46
ATOM     46  C   UNL     1      14.541  13.637   3.103  1.00  0.00     0.031 A 
ATOM     47  C   UNL     1      15.926  13.177   3.454  1.00  0.00     0.074 A 
ATOM     48  C   UNL     1      13.790  14.303   3.999  1.00  0.00     0.049 A 
ATOM     49  N   UNL     1      16.571  13.301   4.582  1.00  0.00    -0.248 NA
ATOM     50  C   UNL     1      16.678  12.467   2.403  1.00  0.00     0.031 C 
ATOM     51  C   UNL     1      12.419  14.763   3.777  1.00  0.00     0.029 A 
ATOM     52  N   UNL     1      14.070  14.683   5.285  1.00  0.00    -0.354 N 
ATOM     53  C   UNL     1      17.794  12.675   4.384  1.00  0.00     0.074 A 
ATOM     54  C   UNL     1      17.791  12.138   3.042  1.00  0.00     0.031 C 
ATOM     55  C   UNL     1      11.975  15.364   4.893  1.00  0.00     0.029 A 
ATOM     56  C   UNL     1      13.020  15.307   5.913  1.00  0.00     0.049 A 
ATOM     57  H   UNL     1      14.940  14.525   5.718  1.00  0.00     0.167 HD
ATOM     58  C   UNL     1      18.841  12.586   5.235  1.00  0.00     0.034 A 
ATOM     59  C   UNL     1      12.911  15.776   7.170  1.00  0.00     0.034 A 
ATOM     60  C   UNL     1      18.851  13.143   6.558  1.00  0.00     0.049 A 
ATOM     61  C   UNL     1      14.085  15.665   8.100  1.00  0.00     0.074 A 
ATOM     62  C   UNL     1      19.877  13.134   7.485  1.00  0.00     0.029 A 
ATOM     63  N   UNL     1      17.786  13.812   7.141  1.00  0.00    -0.354 N 
ATOM     64  N   UNL     1      15.262  15.133   7.875  1.00  0.00    -0.248 NA
ATOM     65  C   UNL     1      13.931  16.241   9.443  1.00  0.00     0.031 C 
ATOM     66  C   UNL     1      19.429  13.791   8.634  1.00  0.00     0.029 A 
ATOM     67  C   UNL     1      18.132  14.227   8.414  1.00  0.00     0.049 A 
ATOM     68  H   UNL     1      16.913  13.967   6.713  1.00  0.00     0.167 HD
ATOM     69  C   UNL     1      16.001  15.337   9.034  1.00  0.00     0.074 A 
ATOM     70  C   UNL     1      15.139  16.044   9.959  1.00  0.00     0.031 C 
ATOM     71  C   UNL     1      17.276  14.966   9.305  1.00  0.00     0.034 A 
BRANCH  58  72
ATOM     72  C   UNL     1      20.090  11.918   4.736  1.00  0.00     0.023 A 
ATOM     73  C   UNL     1      20.927  12.614   3.840  1.00  0.00     0.012 A 
ATOM     74  C   UNL     1      20.475  10.648   5.203  1.00  0.00     0.148 A 
ATOM     75  C   UNL     1      22.125  12.051   3.406  1.00  0.00     0.002 A 
ATOM     76  C   UNL     1      21.686  10.106   4.791  1.00  0.00     0.091 A 
ATOM     77  F   UNL     1      19.652  10.000   6.039  1.00  0.00    -0.205 F 
ATOM     78  C   UNL     1      22.509  10.803   3.890  1.00  0.00     0.022 A 
BRANCH  76  79
ATOM     79  S   UNL     1      22.299   8.527   5.389  1.00  0.00     0.127 S 
ATOM     80  O   UNL     1      22.312   7.733   4.161  1.00  0.00    -0.237 OA
ATOM     81  O   UNL     1      23.622   8.887   5.898  1.00  0.00    -0.237 OA
ATOM     82  O   UNL     1      21.352   8.082   6.401  1.00  0.00    -0.744 OA
ENDBRANCH  76  79
ENDBRANCH  58  72
BRANCH  59  83
ATOM     83  C   UNL     1      11.656  16.461   7.576  1.00  0.00     0.023 A 
ATOM     84  C   UNL     1      11.629  17.868   7.624  1.00  0.00     0.012 A 
ATOM     85  C   UNL     1      10.472  15.736   7.811  1.00  0.00     0.148 A 
ATOM     86  C   UNL     1      10.441  18.544   7.901  1.00  0.00     0.002 A 
ATOM     87  C   UNL     1       9.284  16.416   8.052  1.00  0.00     0.091 A 
ATOM     88  F   UNL     1      10.527  14.398   7.751  1.00  0.00    -0.205 F 
ATOM     89  C   UNL     1       9.268  17.820   8.105  1.00  0.00     0.022 A 
BRANCH  87  90
ATOM     90  S   UNL     1       7.705  15.580   8.228  1.00  0.00     0.127 S 
ATOM     91  O   UNL     1       7.294  15.995   9.568  1.00  0.00    -0.237 OA
ATOM     92  O   UNL     1       6.933  16.172   7.136  1.00  0.00    -0.237 OA
ATOM     93  O   UNL     1       7.985  14.159   8.076  1.00  0.00    -0.744 OA
ENDBRANCH  87  90
ENDBRANCH  59  83
BRANCH  71  94
ATOM     94  C   UNL     1      17.849  15.335  10.645  1.00  0.00     0.023 A 
ATOM     95  C   UNL     1      17.497  14.586  11.784  1.00  0.00     0.012 A 
ATOM     96  C   UNL     1      18.830  16.342  10.748  1.00  0.00     0.148 A 
ATOM     97  C   UNL     1      18.107  14.841  13.011  1.00  0.00     0.002 A 
ATOM     98  C   UNL     1      19.459  16.566  11.966  1.00  0.00     0.091 A 
ATOM     99  F   UNL     1      19.141  17.044   9.648  1.00  0.00    -0.205 F 
ATOM    100  C   UNL     1      19.095  15.820  13.099  1.00  0.00     0.022 A 
BRANCH  98 101
ATOM    101  S   UNL     1      20.791  17.755  12.162  1.00  0.00     0.127 S 
ATOM    102  O   UNL     1      20.165  18.762  13.017  1.00  0.00    -0.237 OA
ATOM    103  O   UNL     1      21.825  16.954  12.819  1.00  0.00    -0.237 OA
ATOM    104  O   UNL     1      21.133  18.206  10.820  1.00  0.00    -0.744 OA
ENDBRANCH  98 101
ENDBRANCH  71  94
ENDBRANCH  45  46
ENDBRANCH  37  40
ENDBRANCH  35  36
ENDBRANCH  34  35
ENDBRANCH  33  34
ENDBRANCH   1  33
TORSDOF 19
