REMARK SMILES Cc1ncc(CC(=O)N2CCc3c(c(C(=O)NCCCCCCNC(=O)c4ccc(-c5c6nc(c(-c7cccc(S(=O)(=O)[O-])c7F)c7ccc([nH]7)c(-c7cccc(S(=O)(=O)[O-])c7F)c7nc(c(-c8cccc(S(=O)(=O)[O-])c8F)c8ccc5[nH]8)C=C7)C=C6)cc4)nn3CC3CC3)C2)c(=O)[nH]1
REMARK SMILES IDX 20 1 19 2 18 3 17 4 15 5 16 6 14 8 9 9 10 10 96 11 11 12
REMARK SMILES IDX 13 13 12 14 91 15 90 16 7 17 8 18 6 19 5 20 1 21 2 22 3 23
REMARK SMILES IDX 99 24 4 25 97 26 98 28 92 29 93 30 94 31 95 32 21 33 22 34
REMARK SMILES IDX 23 35 24 36 25 37 26 39 27 40 28 41 89 42 29 43 88 44 30 45
REMARK SMILES IDX 31 46 32 47 82 48 33 49 87 50 81 51 83 52 34 53 86 54 80 55
REMARK SMILES IDX 79 56 35 58 67 59 47 60 66 61 48 62 51 63 65 64 84 65 49 66
REMARK SMILES IDX 50 67 64 69 85 70 52 71 36 72 37 73 45 74 38 75 40 76 46 77
REMARK SMILES IDX 39 78 41 79 42 80 43 81 44 82 68 83 69 84 77 85 70 86 72 87
REMARK SMILES IDX 78 88 71 89 73 90 74 91 75 92 76 93 53 94 54 95 62 96 55 97
REMARK SMILES IDX 57 98 63 99 56 100 58 101 59 102 60 103 61 104
REMARK H PARENT 17 7 99 27 24 38 83 57 51 68
REMARK Flexibility Score: inf
ROOT
ATOM      1  C   UNL     1       2.640   7.684   9.900  1.00  0.00     0.002 C 
ENDROOT
BRANCH   1   2
ATOM      2  C   UNL     1       1.598   6.848   9.155  1.00  0.00     0.021 C 
BRANCH   2   3
ATOM      3  C   UNL     1       1.681   6.899   7.631  1.00  0.00     0.116 C 
BRANCH   3   4
ATOM      4  N   UNL     1       2.866   6.237   7.104  1.00  0.00    -0.351 N 
ATOM      5  C   UNL     1       3.003   5.303   6.095  1.00  0.00     0.272 C 
ATOM      6  O   UNL     1       4.145   4.903   5.849  1.00  0.00    -0.267 OA
ATOM      7  H   UNL     1       3.710   6.497   7.539  1.00  0.00     0.163 HD
BRANCH   5   8
ATOM      8  C   UNL     1       1.837   4.781   5.354  1.00  0.00     0.155 A 
ATOM      9  N   UNL     1       2.342   1.996   2.826  1.00  0.00    -0.338 N 
ATOM     10  C   UNL     1       1.054   1.346   3.135  1.00  0.00     0.126 C 
ATOM     11  C   UNL     1       2.917   2.780   3.947  1.00  0.00     0.159 C 
ATOM     12  C   UNL     1      -0.065   2.386   3.323  1.00  0.00     0.078 C 
ATOM     13  C   UNL     1       1.819   3.666   4.464  1.00  0.00     0.026 A 
ATOM     14  C   UNL     1       0.481   3.474   4.169  1.00  0.00     0.046 A 
ATOM     15  N   UNL     1      -0.209   4.454   4.806  1.00  0.00    -0.268 N 
ATOM     16  N   UNL     1       0.610   5.338   5.402  1.00  0.00    -0.167 NA
BRANCH   9  17
ATOM     17  C   UNL     1       3.030   1.958   1.627  1.00  0.00     0.227 C 
ATOM     18  O   UNL     1       4.258   2.110   1.600  1.00  0.00    -0.275 OA
BRANCH  17  19
ATOM     19  C   UNL     1       2.270   2.028   0.286  1.00  0.00     0.143 C 
BRANCH  19  20
ATOM     20  C   UNL     1       1.071   1.180   0.046  1.00  0.00     0.045 A 
ATOM     21  C   UNL     1      -2.352  -1.295  -0.082  1.00  0.00     0.087 C 
ATOM     22  C   UNL     1      -1.162  -0.382  -0.105  1.00  0.00     0.105 A 
ATOM     23  N   UNL     1      -1.309   0.899  -0.201  1.00  0.00    -0.243 NA
ATOM     24  N   UNL     1       0.058  -0.992  -0.009  1.00  0.00    -0.311 N 
ATOM     25  C   UNL     1      -0.172   1.656  -0.125  1.00  0.00     0.123 A 
ATOM     26  C   UNL     1       1.223  -0.287   0.009  1.00  0.00     0.254 A 
ATOM     27  H   UNL     1       0.095  -1.974   0.049  1.00  0.00     0.171 HD
ATOM     28  O   UNL     1       2.324  -0.838   0.014  1.00  0.00    -0.269 OA
ENDBRANCH  19  20
ENDBRANCH  17  19
ENDBRANCH   9  17
BRANCH  15  29
ATOM     29  C   UNL     1      -1.650   4.674   4.831  1.00  0.00     0.148 C 
BRANCH  29  30
ATOM     30  C   UNL     1      -2.357   4.172   6.059  1.00  0.00     0.011 C 
ATOM     31  C   UNL     1      -1.674   3.659   7.309  1.00  0.00     0.006 C 
ATOM     32  C   UNL     1      -2.332   5.009   7.318  1.00  0.00     0.006 C 
ENDBRANCH  29  30
ENDBRANCH  15  29
ENDBRANCH   5   8
ENDBRANCH   3   4
ENDBRANCH   2   3
ENDBRANCH   1   2
BRANCH   1  33
ATOM     33  C   UNL     1       2.708   9.175   9.534  1.00  0.00     0.002 C 
BRANCH  33  34
ATOM     34  C   UNL     1       1.390   9.963   9.575  1.00  0.00     0.021 C 
BRANCH  34  35
ATOM     35  C   UNL     1       0.735  10.020  10.947  1.00  0.00     0.116 C 
BRANCH  35  36
ATOM     36  N   UNL     1       1.505  10.809  11.911  1.00  0.00    -0.352 N 
ATOM     37  C   UNL     1       1.187  11.090  13.225  1.00  0.00     0.251 C 
ATOM     38  H   UNL     1       2.353  11.187  11.582  1.00  0.00     0.163 HD
ATOM     39  O   UNL     1       1.697  12.045  13.805  1.00  0.00    -0.269 OA
BRANCH  37  40
ATOM     40  C   UNL     1       0.231  10.216  13.928  1.00  0.00     0.039 A 
ATOM     41  C   UNL     1      -0.715  10.729  14.821  1.00  0.00     0.014 A 
ATOM     42  C   UNL     1       0.289   8.850  13.663  1.00  0.00     0.014 A 
ATOM     43  C   UNL     1      -1.647   9.861  15.384  1.00  0.00     0.010 A 
ATOM     44  C   UNL     1      -0.724   8.030  14.080  1.00  0.00     0.010 A 
ATOM     45  C   UNL     1      -1.654   8.513  14.992  1.00  0.00    -0.014 A 
BRANCH  45  46
ATOM     46  C   UNL     1      -2.717   7.611  15.413  1.00  0.00     0.031 A 
ATOM     47  C   UNL     1      -4.077   8.078  15.035  1.00  0.00     0.074 A 
ATOM     48  C   UNL     1      -2.469   6.364  15.873  1.00  0.00     0.049 A 
ATOM     49  N   UNL     1      -5.015   8.478  15.828  1.00  0.00    -0.248 NA
ATOM     50  C   UNL     1      -4.373   8.299  13.609  1.00  0.00     0.031 C 
ATOM     51  C   UNL     1      -1.169   5.688  15.975  1.00  0.00     0.029 A 
ATOM     52  N   UNL     1      -3.343   5.368  16.190  1.00  0.00    -0.354 N 
ATOM     53  C   UNL     1      -6.111   8.727  15.005  1.00  0.00     0.074 A 
ATOM     54  C   UNL     1      -5.587   8.850  13.672  1.00  0.00     0.031 C 
ATOM     55  C   UNL     1      -1.360   4.353  16.050  1.00  0.00     0.029 A 
ATOM     56  C   UNL     1      -2.781   4.092  16.164  1.00  0.00     0.049 A 
ATOM     57  H   UNL     1      -4.286   5.535  16.417  1.00  0.00     0.167 HD
ATOM     58  C   UNL     1      -7.379   8.497  15.449  1.00  0.00     0.034 A 
ATOM     59  C   UNL     1      -3.443   2.906  16.169  1.00  0.00     0.034 A 
ATOM     60  C   UNL     1      -7.404   8.347  16.886  1.00  0.00     0.049 A 
ATOM     61  C   UNL     1      -4.803   3.172  16.692  1.00  0.00     0.074 A 
ATOM     62  C   UNL     1      -6.968   9.108  17.954  1.00  0.00     0.029 A 
ATOM     63  N   UNL     1      -7.564   7.072  17.375  1.00  0.00    -0.354 N 
ATOM     64  N   UNL     1      -5.037   3.548  17.919  1.00  0.00    -0.248 NA
ATOM     65  C   UNL     1      -5.849   3.478  15.730  1.00  0.00     0.031 C 
ATOM     66  C   UNL     1      -6.413   8.165  18.868  1.00  0.00     0.029 A 
ATOM     67  C   UNL     1      -6.629   6.885  18.356  1.00  0.00     0.049 A 
ATOM     68  H   UNL     1      -8.231   6.413  17.074  1.00  0.00     0.167 HD
ATOM     69  C   UNL     1      -5.990   4.549  17.787  1.00  0.00     0.074 A 
ATOM     70  C   UNL     1      -6.531   4.384  16.436  1.00  0.00     0.031 C 
ATOM     71  C   UNL     1      -6.031   5.603  18.654  1.00  0.00     0.034 A 
BRANCH  58  72
ATOM     72  C   UNL     1      -8.522   7.986  14.593  1.00  0.00     0.023 A 
ATOM     73  C   UNL     1      -9.788   7.883  15.218  1.00  0.00     0.012 A 
ATOM     74  C   UNL     1      -8.377   7.338  13.344  1.00  0.00     0.148 A 
ATOM     75  C   UNL     1     -10.817   7.108  14.675  1.00  0.00     0.002 A 
ATOM     76  C   UNL     1      -9.430   6.634  12.769  1.00  0.00     0.091 A 
ATOM     77  F   UNL     1      -7.186   7.276  12.748  1.00  0.00    -0.205 F 
ATOM     78  C   UNL     1     -10.639   6.483  13.448  1.00  0.00     0.022 A 
BRANCH  76  79
ATOM     79  S   UNL     1      -9.268   5.844  11.161  1.00  0.00     0.127 S 
ATOM     80  O   UNL     1      -9.242   4.432  11.530  1.00  0.00    -0.237 OA
ATOM     81  O   UNL     1     -10.489   6.289  10.489  1.00  0.00    -0.237 OA
ATOM     82  O   UNL     1      -8.041   6.374  10.580  1.00  0.00    -0.744 OA
ENDBRANCH  76  79
ENDBRANCH  58  72
BRANCH  59  83
ATOM     83  C   UNL     1      -3.088   1.614  15.530  1.00  0.00     0.023 A 
ATOM     84  C   UNL     1      -3.730   0.427  15.941  1.00  0.00     0.012 A 
ATOM     85  C   UNL     1      -2.331   1.576  14.337  1.00  0.00     0.148 A 
ATOM     86  C   UNL     1      -3.648  -0.744  15.175  1.00  0.00     0.002 A 
ATOM     87  C   UNL     1      -2.245   0.408  13.584  1.00  0.00     0.091 A 
ATOM     88  F   UNL     1      -1.775   2.709  13.889  1.00  0.00    -0.205 F 
ATOM     89  C   UNL     1      -2.912  -0.752  13.993  1.00  0.00     0.022 A 
BRANCH  87  90
ATOM     90  S   UNL     1      -1.331   0.338  12.035  1.00  0.00     0.127 S 
ATOM     91  O   UNL     1      -0.555  -0.892  12.195  1.00  0.00    -0.237 OA
ATOM     92  O   UNL     1      -2.406   0.258  11.050  1.00  0.00    -0.237 OA
ATOM     93  O   UNL     1      -0.526   1.552  11.993  1.00  0.00    -0.744 OA
ENDBRANCH  87  90
ENDBRANCH  59  83
BRANCH  71  94
ATOM     94  C   UNL     1      -5.200   5.537  19.911  1.00  0.00     0.023 A 
ATOM     95  C   UNL     1      -3.791   5.462  19.894  1.00  0.00     0.012 A 
ATOM     96  C   UNL     1      -5.852   5.750  21.136  1.00  0.00     0.148 A 
ATOM     97  C   UNL     1      -3.054   5.579  21.077  1.00  0.00     0.002 A 
ATOM     98  C   UNL     1      -5.116   5.915  22.301  1.00  0.00     0.091 A 
ATOM     99  F   UNL     1      -7.192   5.820  21.135  1.00  0.00    -0.205 F 
ATOM    100  C   UNL     1      -3.716   5.822  22.279  1.00  0.00     0.022 A 
BRANCH  98 101
ATOM    101  S   UNL     1      -5.907   6.357  23.849  1.00  0.00     0.127 S 
ATOM    102  O   UNL     1      -5.856   5.097  24.587  1.00  0.00    -0.237 OA
ATOM    103  O   UNL     1      -5.026   7.406  24.365  1.00  0.00    -0.237 OA
ATOM    104  O   UNL     1      -7.243   6.824  23.497  1.00  0.00    -0.744 OA
ENDBRANCH  98 101
ENDBRANCH  71  94
ENDBRANCH  45  46
ENDBRANCH  37  40
ENDBRANCH  35  36
ENDBRANCH  34  35
ENDBRANCH  33  34
ENDBRANCH   1  33
TORSDOF 21
