REMARK SMILES CC[NH2+][C@]1(C(=O)NCCCCCCNC(=O)c2ccc(-c3c4nc(c(-c5cccc(S(=O)(=O)[O-])c5F)c5ccc([nH]5)c(-c5cccc(S(=O)(=O)[O-])c5F)c5nc(c(-c6cccc(S(=O)(=O)[O-])c6F)c6ccc3[nH]6)C=C5)C=C4)cc2)CCC[C@H]1CCSc1n[nH]c(=O)n1C
REMARK SMILES IDX 10 1 9 2 8 3 7 4 5 5 6 6 4 8 80 9 83 10 81 11 82 12 3 13
REMARK SMILES IDX 2 16 1 17 84 18 85 19 86 20 87 21 88 22 92 23 89 24 90 25
REMARK SMILES IDX 93 26 91 28 11 29 12 30 13 31 14 32 15 33 16 35 17 36 18 37
REMARK SMILES IDX 79 38 19 39 78 40 20 41 21 42 22 43 72 44 23 45 77 46 71 47
REMARK SMILES IDX 73 48 24 49 76 50 70 51 69 52 25 54 57 55 37 56 56 57 38 58
REMARK SMILES IDX 41 59 55 60 74 61 39 62 40 63 54 65 75 66 42 67 26 68 27 69
REMARK SMILES IDX 35 70 28 71 30 72 36 73 29 74 31 75 32 76 33 77 34 78 58 79
REMARK SMILES IDX 59 80 67 81 60 82 62 83 68 84 61 85 63 86 64 87 65 88 66 89
REMARK SMILES IDX 43 90 44 91 52 92 45 93 47 94 53 95 46 96 48 97 49 98 50 99
REMARK SMILES IDX 51 100
REMARK H PARENT 7 7 3 14 3 15 89 27 14 34 73 53 41 64
REMARK Flexibility Score: inf
ROOT
ATOM      1  C   UNL     1      -0.312   1.004  -1.890  1.00  0.00     0.002 C 
ENDROOT
BRANCH   1   2
ATOM      2  C   UNL     1      -0.752  -0.432  -2.202  1.00  0.00     0.021 C 
BRANCH   2   3
ATOM      3  C   UNL     1       0.398  -1.432  -2.308  1.00  0.00     0.116 C 
BRANCH   3   4
ATOM      4  N   UNL     1       1.096  -1.526  -1.049  1.00  0.00    -0.351 N 
ATOM      5  C   UNL     1       0.943  -2.448  -0.063  1.00  0.00     0.281 C 
ATOM      6  O   UNL     1       1.102  -2.008   1.073  1.00  0.00    -0.268 OA
ATOM      7  H   UNL     1       1.772  -0.830  -0.881  1.00  0.00     0.163 HD
BRANCH   5   8
ATOM      8  C   UNL     1       0.473  -3.901  -0.374  1.00  0.00     0.178 C 
ATOM      9  C   UNL     1       1.312  -4.481  -1.534  1.00  0.00     0.079 C 
ATOM     10  C   UNL     1       0.757  -4.956   0.756  1.00  0.00     0.061 C 
ATOM     11  C   UNL     1       1.204  -5.991  -1.454  1.00  0.00     0.008 C 
ATOM     12  C   UNL     1       0.825  -6.304  -0.017  1.00  0.00     0.011 C 
BRANCH   8  13
ATOM     13  N   UNL     1      -1.006  -3.845  -0.500  1.00  0.00    -0.334 N 
ATOM     14  H   UNL     1      -1.386  -4.301   0.329  1.00  0.00     0.347 HD
ATOM     15  H   UNL     1      -1.186  -2.848  -0.622  1.00  0.00     0.347 HD
BRANCH  13  16
ATOM     16  C   UNL     1      -1.677  -4.435  -1.642  1.00  0.00     0.257 C 
ATOM     17  C   UNL     1      -3.136  -3.988  -1.641  1.00  0.00     0.071 C 
ENDBRANCH  13  16
ENDBRANCH   8  13
BRANCH  10  18
ATOM     18  C   UNL     1       2.005  -4.841   1.665  1.00  0.00     0.022 C 
BRANCH  18  19
ATOM     19  C   UNL     1       2.076  -3.861   2.856  1.00  0.00     0.079 C 
BRANCH  19  20
ATOM     20  S   UNL     1       0.846  -3.784   4.200  1.00  0.00    -0.086 SA
BRANCH  20  21
ATOM     21  C   UNL     1      -0.698  -3.803   3.443  1.00  0.00     0.191 A 
ATOM     22  N   UNL     1      -1.385  -4.906   3.342  1.00  0.00    -0.146 NA
ATOM     23  N   UNL     1      -1.328  -2.698   2.982  1.00  0.00    -0.273 N 
ATOM     24  N   UNL     1      -2.527  -4.520   2.699  1.00  0.00    -0.226 N 
ATOM     25  C   UNL     1      -2.512  -3.154   2.457  1.00  0.00     0.343 A 
ATOM     26  C   UNL     1      -0.990  -1.295   3.009  1.00  0.00     0.157 C 
ATOM     27  H   UNL     1      -3.259  -5.127   2.443  1.00  0.00     0.195 HD
ATOM     28  O   UNL     1      -3.382  -2.511   1.900  1.00  0.00    -0.246 OA
ENDBRANCH  20  21
ENDBRANCH  19  20
ENDBRANCH  18  19
ENDBRANCH  10  18
ENDBRANCH   5   8
ENDBRANCH   3   4
ENDBRANCH   2   3
ENDBRANCH   1   2
BRANCH   1  29
ATOM     29  C   UNL     1       0.799   1.551  -2.790  1.00  0.00     0.002 C 
BRANCH  29  30
ATOM     30  C   UNL     1       0.541   1.411  -4.292  1.00  0.00     0.021 C 
BRANCH  30  31
ATOM     31  C   UNL     1      -0.759   2.041  -4.767  1.00  0.00     0.116 C 
BRANCH  31  32
ATOM     32  N   UNL     1      -0.765   3.481  -4.570  1.00  0.00    -0.352 N 
ATOM     33  C   UNL     1      -0.975   4.472  -5.495  1.00  0.00     0.251 C 
ATOM     34  H   UNL     1      -0.595   3.786  -3.650  1.00  0.00     0.163 HD
ATOM     35  O   UNL     1      -0.734   5.641  -5.210  1.00  0.00    -0.269 OA
BRANCH  33  36
ATOM     36  C   UNL     1      -1.475   4.117  -6.840  1.00  0.00     0.039 A 
ATOM     37  C   UNL     1      -0.869   4.691  -7.959  1.00  0.00     0.014 A 
ATOM     38  C   UNL     1      -2.526   3.208  -6.994  1.00  0.00     0.014 A 
ATOM     39  C   UNL     1      -1.286   4.314  -9.236  1.00  0.00     0.010 A 
ATOM     40  C   UNL     1      -2.881   2.772  -8.266  1.00  0.00     0.010 A 
ATOM     41  C   UNL     1      -2.273   3.328  -9.401  1.00  0.00    -0.014 A 
BRANCH  41  42
ATOM     42  C   UNL     1      -2.666   2.855 -10.752  1.00  0.00     0.031 A 
ATOM     43  C   UNL     1      -4.076   3.032 -11.243  1.00  0.00     0.074 A 
ATOM     44  C   UNL     1      -1.771   2.187 -11.505  1.00  0.00     0.049 A 
ATOM     45  N   UNL     1      -4.606   2.656 -12.378  1.00  0.00    -0.248 NA
ATOM     46  C   UNL     1      -5.022   3.690 -10.329  1.00  0.00     0.031 C 
ATOM     47  C   UNL     1      -0.399   1.870 -11.103  1.00  0.00     0.029 A 
ATOM     48  N   UNL     1      -1.889   1.628 -12.753  1.00  0.00    -0.354 N 
ATOM     49  C   UNL     1      -5.950   2.995 -12.301  1.00  0.00     0.074 A 
ATOM     50  C   UNL     1      -6.163   3.574 -10.992  1.00  0.00     0.031 C 
ATOM     51  C   UNL     1       0.197   1.177 -12.085  1.00  0.00     0.029 A 
ATOM     52  C   UNL     1      -0.756   0.971 -13.171  1.00  0.00     0.049 A 
ATOM     53  H   UNL     1      -2.707   1.692 -13.297  1.00  0.00     0.167 HD
ATOM     54  C   UNL     1      -6.917   2.862 -13.241  1.00  0.00     0.034 A 
ATOM     55  C   UNL     1      -0.513   0.268 -14.294  1.00  0.00     0.034 A 
ATOM     56  C   UNL     1      -6.693   2.311 -14.550  1.00  0.00     0.049 A 
ATOM     57  C   UNL     1      -1.586   0.167 -15.342  1.00  0.00     0.074 A 
ATOM     58  C   UNL     1      -7.577   2.228 -15.612  1.00  0.00     0.029 A 
ATOM     59  N   UNL     1      -5.509   1.725 -14.972  1.00  0.00    -0.354 N 
ATOM     60  N   UNL     1      -2.804   0.652 -15.323  1.00  0.00    -0.248 NA
ATOM     61  C   UNL     1      -1.241  -0.545 -16.580  1.00  0.00     0.031 C 
ATOM     62  C   UNL     1      -6.940   1.554 -16.660  1.00  0.00     0.029 A 
ATOM     63  C   UNL     1      -5.645   1.255 -16.267  1.00  0.00     0.049 A 
ATOM     64  H   UNL     1      -4.691   1.653 -14.429  1.00  0.00     0.167 HD
ATOM     65  C   UNL     1      -3.363   0.328 -16.554  1.00  0.00     0.074 A 
ATOM     66  C   UNL     1      -2.340  -0.375 -17.303  1.00  0.00     0.031 C 
ATOM     67  C   UNL     1      -4.613   0.582 -17.016  1.00  0.00     0.034 A 
BRANCH  54  68
ATOM     68  C   UNL     1      -8.300   3.349 -12.889  1.00  0.00     0.023 A 
ATOM     69  C   UNL     1      -8.538   4.730 -12.723  1.00  0.00     0.012 A 
ATOM     70  C   UNL     1      -9.370   2.445 -12.748  1.00  0.00     0.148 A 
ATOM     71  C   UNL     1      -9.804   5.197 -12.370  1.00  0.00     0.002 A 
ATOM     72  C   UNL     1     -10.641   2.923 -12.446  1.00  0.00     0.091 A 
ATOM     73  F   UNL     1      -9.125   1.135 -12.887  1.00  0.00    -0.205 F 
ATOM     74  C   UNL     1     -10.856   4.296 -12.241  1.00  0.00     0.022 A 
BRANCH  72  75
ATOM     75  S   UNL     1     -12.076   1.849 -12.343  1.00  0.00     0.127 S 
ATOM     76  O   UNL     1     -12.312   1.810 -10.901  1.00  0.00    -0.237 OA
ATOM     77  O   UNL     1     -13.077   2.597 -13.104  1.00  0.00    -0.237 OA
ATOM     78  O   UNL     1     -11.675   0.587 -12.948  1.00  0.00    -0.744 OA
ENDBRANCH  72  75
ENDBRANCH  54  68
BRANCH  55  79
ATOM     79  C   UNL     1       0.829  -0.346 -14.494  1.00  0.00     0.023 A 
ATOM     80  C   UNL     1       1.713   0.204 -15.441  1.00  0.00     0.012 A 
ATOM     81  C   UNL     1       1.256  -1.427 -13.699  1.00  0.00     0.148 A 
ATOM     82  C   UNL     1       2.994  -0.324 -15.605  1.00  0.00     0.002 A 
ATOM     83  C   UNL     1       2.551  -1.911 -13.827  1.00  0.00     0.091 A 
ATOM     84  F   UNL     1       0.394  -1.937 -12.808  1.00  0.00    -0.205 F 
ATOM     85  C   UNL     1       3.417  -1.371 -14.791  1.00  0.00     0.022 A 
BRANCH  83  86
ATOM     86  S   UNL     1       3.230  -3.158 -12.727  1.00  0.00     0.127 S 
ATOM     87  O   UNL     1       3.466  -4.270 -13.644  1.00  0.00    -0.237 OA
ATOM     88  O   UNL     1       4.439  -2.496 -12.236  1.00  0.00    -0.237 OA
ATOM     89  O   UNL     1       2.213  -3.388 -11.710  1.00  0.00    -0.744 OA
ENDBRANCH  83  86
ENDBRANCH  55  79
BRANCH  67  90
ATOM     90  C   UNL     1      -4.949   0.118 -18.411  1.00  0.00     0.023 A 
ATOM     91  C   UNL     1      -5.109  -1.257 -18.676  1.00  0.00     0.012 A 
ATOM     92  C   UNL     1      -5.175   1.051 -19.442  1.00  0.00     0.148 A 
ATOM     93  C   UNL     1      -5.454  -1.698 -19.953  1.00  0.00     0.002 A 
ATOM     94  C   UNL     1      -5.570   0.608 -20.699  1.00  0.00     0.091 A 
ATOM     95  F   UNL     1      -5.001   2.353 -19.175  1.00  0.00    -0.205 F 
ATOM     96  C   UNL     1      -5.697  -0.766 -20.960  1.00  0.00     0.022 A 
BRANCH  94  97
ATOM     97  S   UNL     1      -5.999   1.737 -22.028  1.00  0.00     0.127 S 
ATOM     98  O   UNL     1      -4.882   1.547 -22.952  1.00  0.00    -0.237 OA
ATOM     99  O   UNL     1      -7.276   1.195 -22.495  1.00  0.00    -0.237 OA
ATOM    100  O   UNL     1      -6.089   3.058 -21.422  1.00  0.00    -0.744 OA
ENDBRANCH  94  97
ENDBRANCH  67  90
ENDBRANCH  41  42
ENDBRANCH  33  36
ENDBRANCH  31  32
ENDBRANCH  30  31
ENDBRANCH  29  30
ENDBRANCH   1  29
TORSDOF 22
