REMARK SMILES Cc1cc(C(=O)N[C@H]2C=C[C@H](C(=O)NCCCCCCNC(=O)c3ccc(-c4c5nc(c(-c6cccc(S(=O)(=O)[O-])c6F)c6ccc([nH]6)c(-c6cccc(S(=O)(=O)[O-])c6F)c6nc(c(-c7cccc(S(=O)(=O)[O-])c7F)c7ccc4[nH]7)C=C6)C=C5)cc3)C2)ccc1F
REMARK SMILES IDX 18 1 17 2 16 3 15 4 14 5 12 6 13 7 11 9 8 10 9 11 87 12
REMARK SMILES IDX 10 13 7 14 5 15 6 16 4 18 1 19 2 20 3 21 90 22 89 23 91 24
REMARK SMILES IDX 88 25 19 26 20 27 21 28 22 29 23 31 24 32 25 33 86 34 26 35
REMARK SMILES IDX 85 36 27 37 28 38 29 39 79 40 30 41 84 42 78 43 80 44 31 45
REMARK SMILES IDX 83 46 77 47 76 48 32 50 64 51 44 52 63 53 45 54 48 55 62 56
REMARK SMILES IDX 81 57 46 58 47 59 61 61 82 62 49 63 33 64 34 65 42 66 35 67
REMARK SMILES IDX 37 68 43 69 36 70 38 71 39 72 40 73 41 74 65 75 66 76 74 77
REMARK SMILES IDX 67 78 69 79 75 80 68 81 70 82 71 83 72 84 73 85 50 86 51 87
REMARK SMILES IDX 59 88 52 89 54 90 60 91 53 92 55 93 56 94 57 95 58 96
REMARK H PARENT 14 8 7 17 21 30 80 49 48 60
REMARK Flexibility Score: inf
ROOT
ATOM      1  C   UNL     1       2.748   7.975  -0.347  1.00  0.00     0.002 C 
ENDROOT
BRANCH   1   2
ATOM      2  C   UNL     1       2.469   8.117   1.158  1.00  0.00     0.002 C 
BRANCH   2   3
ATOM      3  C   UNL     1       1.020   8.166   1.660  1.00  0.00     0.021 C 
BRANCH   3   4
ATOM      4  C   UNL     1       0.059   7.083   1.186  1.00  0.00     0.116 C 
BRANCH   4   5
ATOM      5  N   UNL     1       0.556   5.746   1.401  1.00  0.00    -0.356 N 
ATOM      6  C   UNL     1      -0.096   4.591   1.671  1.00  0.00     0.227 C 
ATOM      7  O   UNL     1       0.590   3.562   1.634  1.00  0.00    -0.274 OA
ATOM      8  H   UNL     1       1.535   5.659   1.342  1.00  0.00     0.163 HD
BRANCH   6   9
ATOM      9  C   UNL     1      -1.590   4.532   2.078  1.00  0.00     0.103 C 
ATOM     10  C   UNL     1      -2.557   3.297   0.265  1.00  0.00     0.106 C 
ATOM     11  C   UNL     1      -3.177   4.652   0.328  1.00  0.00    -0.006 C 
ATOM     12  C   UNL     1      -2.122   3.126   1.722  1.00  0.00     0.047 C 
ATOM     13  C   UNL     1      -2.600   5.355   1.313  1.00  0.00    -0.016 C 
BRANCH  10  14
ATOM     14  N   UNL     1      -3.462   2.294  -0.218  1.00  0.00    -0.346 N 
ATOM     15  C   UNL     1      -3.213   0.980  -0.541  1.00  0.00     0.251 C 
ATOM     16  O   UNL     1      -4.156   0.278  -0.906  1.00  0.00    -0.269 OA
ATOM     17  H   UNL     1      -4.395   2.588  -0.335  1.00  0.00     0.164 HD
BRANCH  15  18
ATOM     18  C   UNL     1      -1.863   0.351  -0.395  1.00  0.00     0.040 A 
ATOM     19  C   UNL     1       1.860   1.174  -0.455  1.00  0.00     0.047 C 
ATOM     20  C   UNL     1       0.580   0.399  -0.355  1.00  0.00    -0.015 A 
ATOM     21  C   UNL     1      -0.651   1.010  -0.639  1.00  0.00     0.020 A 
ATOM     22  C   UNL     1       0.587  -0.933   0.050  1.00  0.00     0.126 A 
ATOM     23  C   UNL     1      -0.601  -1.640   0.206  1.00  0.00     0.040 A 
ATOM     24  F   UNL     1       1.750  -1.555   0.288  1.00  0.00    -0.207 F 
ATOM     25  C   UNL     1      -1.823  -0.995  -0.000  1.00  0.00     0.017 A 
ENDBRANCH  15  18
ENDBRANCH  10  14
ENDBRANCH   6   9
ENDBRANCH   4   5
ENDBRANCH   3   4
ENDBRANCH   2   3
ENDBRANCH   1   2
BRANCH   1  26
ATOM     26  C   UNL     1       1.921   8.811  -1.319  1.00  0.00     0.021 C 
BRANCH  26  27
ATOM     27  C   UNL     1       1.862  10.290  -1.006  1.00  0.00     0.116 C 
BRANCH  27  28
ATOM     28  N   UNL     1       2.748  11.152  -1.747  1.00  0.00    -0.352 N 
ATOM     29  C   UNL     1       2.765  12.537  -1.804  1.00  0.00     0.251 C 
ATOM     30  H   UNL     1       3.434  10.696  -2.285  1.00  0.00     0.163 HD
ATOM     31  O   UNL     1       3.520  13.079  -2.598  1.00  0.00    -0.269 OA
BRANCH  29  32
ATOM     32  C   UNL     1       1.957  13.383  -0.860  1.00  0.00     0.039 A 
ATOM     33  C   UNL     1       2.310  14.740  -0.736  1.00  0.00     0.014 A 
ATOM     34  C   UNL     1       0.990  12.877   0.006  1.00  0.00     0.014 A 
ATOM     35  C   UNL     1       1.852  15.492   0.349  1.00  0.00     0.010 A 
ATOM     36  C   UNL     1       0.578  13.584   1.106  1.00  0.00     0.010 A 
ATOM     37  C   UNL     1       1.053  14.866   1.302  1.00  0.00    -0.014 A 
BRANCH  37  38
ATOM     38  C   UNL     1       0.672  15.433   2.575  1.00  0.00     0.031 A 
ATOM     39  C   UNL     1      -0.504  16.289   2.645  1.00  0.00     0.074 A 
ATOM     40  C   UNL     1       1.354  15.077   3.681  1.00  0.00     0.049 A 
ATOM     41  N   UNL     1      -0.549  17.405   3.280  1.00  0.00    -0.248 NA
ATOM     42  C   UNL     1      -1.744  15.937   1.963  1.00  0.00     0.031 C 
ATOM     43  C   UNL     1       1.083  15.430   5.067  1.00  0.00     0.029 A 
ATOM     44  N   UNL     1       2.593  14.460   3.716  1.00  0.00    -0.354 N 
ATOM     45  C   UNL     1      -1.880  17.729   3.386  1.00  0.00     0.074 A 
ATOM     46  C   UNL     1      -2.566  16.878   2.435  1.00  0.00     0.031 C 
ATOM     47  C   UNL     1       2.221  15.281   5.772  1.00  0.00     0.029 A 
ATOM     48  C   UNL     1       3.284  14.921   4.842  1.00  0.00     0.049 A 
ATOM     49  H   UNL     1       2.930  13.808   3.061  1.00  0.00     0.167 HD
ATOM     50  C   UNL     1      -2.309  18.515   4.415  1.00  0.00     0.034 A 
ATOM     51  C   UNL     1       4.448  15.611   4.649  1.00  0.00     0.034 A 
ATOM     52  C   UNL     1      -1.213  18.796   5.343  1.00  0.00     0.049 A 
ATOM     53  C   UNL     1       4.286  17.084   4.963  1.00  0.00     0.074 A 
ATOM     54  C   UNL     1      -0.873  18.218   6.557  1.00  0.00     0.029 A 
ATOM     55  N   UNL     1      -0.077  19.480   4.911  1.00  0.00    -0.354 N 
ATOM     56  N   UNL     1       3.134  17.689   5.071  1.00  0.00    -0.248 NA
ATOM     57  C   UNL     1       5.411  17.989   5.168  1.00  0.00     0.031 C 
ATOM     58  C   UNL     1       0.495  18.489   6.812  1.00  0.00     0.029 A 
ATOM     59  C   UNL     1       0.985  19.258   5.772  1.00  0.00     0.049 A 
ATOM     60  H   UNL     1      -0.036  20.044   4.105  1.00  0.00     0.167 HD
ATOM     61  C   UNL     1       3.332  19.013   5.365  1.00  0.00     0.074 A 
ATOM     62  C   UNL     1       4.777  19.147   5.426  1.00  0.00     0.031 C 
ATOM     63  C   UNL     1       2.289  19.880   5.544  1.00  0.00     0.034 A 
BRANCH  50  64
ATOM     64  C   UNL     1      -3.785  18.663   4.720  1.00  0.00     0.023 A 
ATOM     65  C   UNL     1      -4.747  18.684   3.683  1.00  0.00     0.012 A 
ATOM     66  C   UNL     1      -4.288  18.753   6.034  1.00  0.00     0.148 A 
ATOM     67  C   UNL     1      -6.123  18.607   3.933  1.00  0.00     0.002 A 
ATOM     68  C   UNL     1      -5.663  18.736   6.282  1.00  0.00     0.091 A 
ATOM     69  F   UNL     1      -3.449  18.855   7.072  1.00  0.00    -0.205 F 
ATOM     70  C   UNL     1      -6.584  18.617   5.240  1.00  0.00     0.022 A 
BRANCH  68  71
ATOM     71  S   UNL     1      -6.251  18.895   7.972  1.00  0.00     0.127 S 
ATOM     72  O   UNL     1      -5.709  17.706   8.622  1.00  0.00    -0.237 OA
ATOM     73  O   UNL     1      -5.704  20.182   8.389  1.00  0.00    -0.237 OA
ATOM     74  O   UNL     1      -7.708  18.885   7.822  1.00  0.00    -0.744 OA
ENDBRANCH  68  71
ENDBRANCH  50  64
BRANCH  51  75
ATOM     75  C   UNL     1       5.245  15.038   3.511  1.00  0.00     0.023 A 
ATOM     76  C   UNL     1       5.153  15.591   2.222  1.00  0.00     0.012 A 
ATOM     77  C   UNL     1       5.651  13.687   3.638  1.00  0.00     0.148 A 
ATOM     78  C   UNL     1       5.333  14.778   1.093  1.00  0.00     0.002 A 
ATOM     79  C   UNL     1       5.740  12.870   2.514  1.00  0.00     0.091 A 
ATOM     80  F   UNL     1       5.804  13.177   4.872  1.00  0.00    -0.205 F 
ATOM     81  C   UNL     1       5.569  13.409   1.236  1.00  0.00     0.022 A 
BRANCH  79  82
ATOM     82  S   UNL     1       5.784  11.082   2.728  1.00  0.00     0.127 S 
ATOM     83  O   UNL     1       7.182  10.833   3.061  1.00  0.00    -0.237 OA
ATOM     84  O   UNL     1       4.807  10.838   3.786  1.00  0.00    -0.237 OA
ATOM     85  O   UNL     1       5.364  10.568   1.422  1.00  0.00    -0.744 OA
ENDBRANCH  79  82
ENDBRANCH  51  75
BRANCH  63  86
ATOM     86  C   UNL     1       2.381  21.386   5.686  1.00  0.00     0.023 A 
ATOM     87  C   UNL     1       1.255  22.071   6.219  1.00  0.00     0.012 A 
ATOM     88  C   UNL     1       3.453  22.187   5.270  1.00  0.00     0.148 A 
ATOM     89  C   UNL     1       1.196  23.460   6.330  1.00  0.00     0.002 A 
ATOM     90  C   UNL     1       3.439  23.566   5.492  1.00  0.00     0.091 A 
ATOM     91  F   UNL     1       4.479  21.652   4.598  1.00  0.00    -0.205 F 
ATOM     92  C   UNL     1       2.306  24.213   5.991  1.00  0.00     0.022 A 
BRANCH  90  93
ATOM     93  S   UNL     1       4.959  24.488   5.254  1.00  0.00     0.127 S 
ATOM     94  O   UNL     1       5.877  23.826   6.178  1.00  0.00    -0.237 OA
ATOM     95  O   UNL     1       5.239  24.322   3.832  1.00  0.00    -0.237 OA
ATOM     96  O   UNL     1       4.595  25.852   5.643  1.00  0.00    -0.744 OA
ENDBRANCH  90  93
ENDBRANCH  63  86
ENDBRANCH  37  38
ENDBRANCH  29  32
ENDBRANCH  27  28
ENDBRANCH  26  27
ENDBRANCH   1  26
TORSDOF 18
