REMARK SMILES Cc1cc(C)c2c(c1)C=C(C(=O)NCCCCCCNC(=O)c1ccc(-c3c4nc(c(-c5cccc(S(=O)(=O)[O-])c5F)c5ccc([nH]5)c(-c5cccc(S(=O)(=O)[O-])c5F)c5nc(c(-c6cccc(S(=O)(=O)[O-])c6F)c6ccc3[nH]6)C=C5)C=C4)cc1)[C@@H](C(F)(F)F)O2
REMARK SMILES IDX 17 1 16 2 15 3 14 4 13 5 11 6 12 7 10 9 1 10 2 11 3 12 8 13
REMARK SMILES IDX 4 14 7 15 5 16 6 17 9 18 91 19 86 20 87 21 88 22 89 23 90 24
REMARK SMILES IDX 18 25 19 26 20 27 21 28 22 30 23 31 24 32 85 33 25 34 84 35
REMARK SMILES IDX 26 36 27 37 28 38 78 39 29 40 83 41 77 42 79 43 30 44 82 45
REMARK SMILES IDX 76 46 75 47 31 49 63 50 43 51 62 52 44 53 47 54 61 55 80 56
REMARK SMILES IDX 45 57 46 58 60 60 81 61 48 62 32 63 33 64 41 65 34 66 36 67
REMARK SMILES IDX 42 68 35 69 37 70 38 71 39 72 40 73 64 74 65 75 73 76 66 77
REMARK SMILES IDX 68 78 74 79 67 80 69 81 70 82 71 83 72 84 49 85 50 86 58 87
REMARK SMILES IDX 51 88 53 89 59 90 52 91 54 92 55 93 56 94 57 95
REMARK H PARENT 13 8 20 29 79 48 47 59
REMARK Flexibility Score: inf
ROOT
ATOM      1  C   UNL     1       0.475  12.194  -1.055  1.00  0.00     0.002 C 
ENDROOT
BRANCH   1   2
ATOM      2  C   UNL     1       0.013  11.410   0.181  1.00  0.00     0.002 C 
BRANCH   2   3
ATOM      3  C   UNL     1      -0.562  10.023  -0.115  1.00  0.00     0.021 C 
BRANCH   3   4
ATOM      4  C   UNL     1       0.390   9.129  -0.901  1.00  0.00     0.116 C 
BRANCH   4   5
ATOM      5  N   UNL     1       1.325   8.443  -0.027  1.00  0.00    -0.352 N 
ATOM      6  C   UNL     1       1.639   7.162   0.277  1.00  0.00     0.251 C 
ATOM      7  O   UNL     1       2.553   7.021   1.096  1.00  0.00    -0.270 OA
ATOM      8  H   UNL     1       1.879   9.080   0.480  1.00  0.00     0.163 HD
BRANCH   6   9
ATOM      9  C   UNL     1       0.969   5.956  -0.296  1.00  0.00     0.067 C 
ATOM     10  C   UNL     1       0.987  -0.216   0.121  1.00  0.00     0.044 C 
ATOM     11  C   UNL     1       0.531   1.133  -0.351  1.00  0.00    -0.050 A 
ATOM     12  C   UNL     1      -0.543   1.246  -1.244  1.00  0.00     0.010 A 
ATOM     13  C   UNL     1       1.144   2.294   0.141  1.00  0.00     0.015 A 
ATOM     14  C   UNL     1      -0.995   2.501  -1.664  1.00  0.00    -0.008 A 
ATOM     15  C   UNL     1       0.706   3.555  -0.272  1.00  0.00     0.018 A 
ATOM     16  C   UNL     1      -2.141   2.627  -2.628  1.00  0.00     0.048 C 
ATOM     17  C   UNL     1      -0.353   3.645  -1.177  1.00  0.00     0.130 A 
ATOM     18  C   UNL     1       1.307   4.775   0.255  1.00  0.00     0.025 C 
ATOM     19  O   UNL     1      -0.853   4.844  -1.592  1.00  0.00    -0.475 OA
ATOM     20  C   UNL     1       0.003   6.000  -1.445  1.00  0.00     0.314 C 
BRANCH  20  21
ATOM     21  C   UNL     1       0.692   6.297  -2.789  1.00  0.00     0.429 C 
ATOM     22  F   UNL     1      -0.217   6.690  -3.714  1.00  0.00    -0.167 F 
ATOM     23  F   UNL     1       1.601   7.298  -2.696  1.00  0.00    -0.167 F 
ATOM     24  F   UNL     1       1.345   5.222  -3.285  1.00  0.00    -0.167 F 
ENDBRANCH  20  21
ENDBRANCH   6   9
ENDBRANCH   4   5
ENDBRANCH   3   4
ENDBRANCH   2   3
ENDBRANCH   1   2
BRANCH   1  25
ATOM     25  C   UNL     1      -0.547  12.277  -2.193  1.00  0.00     0.021 C 
BRANCH  25  26
ATOM     26  C   UNL     1      -1.881  12.897  -1.792  1.00  0.00     0.116 C 
BRANCH  26  27
ATOM     27  N   UNL     1      -1.712  14.252  -1.292  1.00  0.00    -0.352 N 
ATOM     28  C   UNL     1      -2.252  15.418  -1.763  1.00  0.00     0.251 C 
ATOM     29  H   UNL     1      -1.128  14.342  -0.504  1.00  0.00     0.163 HD
ATOM     30  O   UNL     1      -1.821  16.501  -1.371  1.00  0.00    -0.269 OA
BRANCH  28  31
ATOM     31  C   UNL     1      -3.349  15.365  -2.748  1.00  0.00     0.039 A 
ATOM     32  C   UNL     1      -3.300  16.200  -3.866  1.00  0.00     0.014 A 
ATOM     33  C   UNL     1      -4.426  14.492  -2.562  1.00  0.00     0.014 A 
ATOM     34  C   UNL     1      -4.315  16.130  -4.820  1.00  0.00     0.010 A 
ATOM     35  C   UNL     1      -5.396  14.371  -3.550  1.00  0.00     0.010 A 
ATOM     36  C   UNL     1      -5.359  15.200  -4.681  1.00  0.00    -0.014 A 
BRANCH  36  37
ATOM     37  C   UNL     1      -6.431  15.095  -5.701  1.00  0.00     0.031 A 
ATOM     38  C   UNL     1      -7.850  15.434  -5.337  1.00  0.00     0.074 A 
ATOM     39  C   UNL     1      -6.134  14.642  -6.934  1.00  0.00     0.049 A 
ATOM     40  N   UNL     1      -8.924  15.379  -6.080  1.00  0.00    -0.248 NA
ATOM     41  C   UNL     1      -8.102  15.874  -3.953  1.00  0.00     0.031 C 
ATOM     42  C   UNL     1      -4.804  14.222  -7.382  1.00  0.00     0.029 A 
ATOM     43  N   UNL     1      -6.931  14.443  -8.033  1.00  0.00    -0.354 N 
ATOM     44  C   UNL     1      -9.976  15.753  -5.254  1.00  0.00     0.074 A 
ATOM     45  C   UNL     1      -9.422  15.992  -3.941  1.00  0.00     0.031 C 
ATOM     46  C   UNL     1      -4.875  13.830  -8.664  1.00  0.00     0.029 A 
ATOM     47  C   UNL     1      -6.257  13.939  -9.121  1.00  0.00     0.049 A 
ATOM     48  H   UNL     1      -7.896  14.642  -8.041  1.00  0.00     0.167 HD
ATOM     49  C   UNL     1     -11.281  15.918  -5.570  1.00  0.00     0.034 A 
ATOM     50  C   UNL     1      -6.704  13.602 -10.348  1.00  0.00     0.034 A 
ATOM     51  C   UNL     1     -11.817  15.722  -6.889  1.00  0.00     0.049 A 
ATOM     52  C   UNL     1      -8.158  13.812 -10.677  1.00  0.00     0.074 A 
ATOM     53  C   UNL     1     -13.112  15.935  -7.327  1.00  0.00     0.029 A 
ATOM     54  N   UNL     1     -11.094  15.267  -7.981  1.00  0.00    -0.354 N 
ATOM     55  N   UNL     1      -9.111  14.305  -9.922  1.00  0.00    -0.248 NA
ATOM     56  C   UNL     1      -8.595  13.449 -12.033  1.00  0.00     0.031 C 
ATOM     57  C   UNL     1     -13.179  15.581  -8.677  1.00  0.00     0.029 A 
ATOM     58  C   UNL     1     -11.918  15.179  -9.088  1.00  0.00     0.049 A 
ATOM     59  H   UNL     1     -10.136  15.040  -7.969  1.00  0.00     0.167 HD
ATOM     60  C   UNL     1     -10.250  14.340 -10.719  1.00  0.00     0.074 A 
ATOM     61  C   UNL     1      -9.862  13.843 -12.023  1.00  0.00     0.031 C 
ATOM     62  C   UNL     1     -11.507  14.731 -10.395  1.00  0.00     0.034 A 
BRANCH  49  63
ATOM     63  C   UNL     1     -12.219  16.399  -4.494  1.00  0.00     0.023 A 
ATOM     64  C   UNL     1     -12.137  17.736  -4.053  1.00  0.00     0.012 A 
ATOM     65  C   UNL     1     -13.245  15.570  -4.001  1.00  0.00     0.148 A 
ATOM     66  C   UNL     1     -13.049  18.235  -3.124  1.00  0.00     0.002 A 
ATOM     67  C   UNL     1     -14.179  16.088  -3.112  1.00  0.00     0.091 A 
ATOM     68  F   UNL     1     -13.293  14.297  -4.418  1.00  0.00    -0.205 F 
ATOM     69  C   UNL     1     -14.077  17.416  -2.665  1.00  0.00     0.022 A 
BRANCH  67  70
ATOM     70  S   UNL     1     -15.594  15.147  -2.528  1.00  0.00     0.127 S 
ATOM     71  O   UNL     1     -15.304  15.034  -1.099  1.00  0.00    -0.237 OA
ATOM     72  O   UNL     1     -16.708  16.038  -2.855  1.00  0.00    -0.237 OA
ATOM     73  O   UNL     1     -15.577  13.892  -3.265  1.00  0.00    -0.744 OA
ENDBRANCH  67  70
ENDBRANCH  49  63
BRANCH  50  74
ATOM     74  C   UNL     1      -5.745  13.103 -11.376  1.00  0.00     0.023 A 
ATOM     75  C   UNL     1      -5.448  13.909 -12.492  1.00  0.00     0.012 A 
ATOM     76  C   UNL     1      -5.096  11.861 -11.236  1.00  0.00     0.148 A 
ATOM     77  C   UNL     1      -4.543  13.477 -13.463  1.00  0.00     0.002 A 
ATOM     78  C   UNL     1      -4.151  11.463 -12.175  1.00  0.00     0.091 A 
ATOM     79  F   UNL     1      -5.401  11.102 -10.174  1.00  0.00    -0.205 F 
ATOM     80  C   UNL     1      -3.887  12.260 -13.299  1.00  0.00     0.022 A 
BRANCH  78  81
ATOM     81  S   UNL     1      -3.154   9.982 -11.973  1.00  0.00     0.127 S 
ATOM     82  O   UNL     1      -3.662   9.130 -13.045  1.00  0.00    -0.237 OA
ATOM     83  O   UNL     1      -1.802  10.500 -12.185  1.00  0.00    -0.237 OA
ATOM     84  O   UNL     1      -3.412   9.515 -10.618  1.00  0.00    -0.744 OA
ENDBRANCH  78  81
ENDBRANCH  50  74
BRANCH  62  85
ATOM     85  C   UNL     1     -12.570  14.658 -11.460  1.00  0.00     0.023 A 
ATOM     86  C   UNL     1     -13.065  13.403 -11.865  1.00  0.00     0.012 A 
ATOM     87  C   UNL     1     -13.163  15.832 -11.967  1.00  0.00     0.148 A 
ATOM     88  C   UNL     1     -14.118  13.316 -12.774  1.00  0.00     0.002 A 
ATOM     89  C   UNL     1     -14.248  15.738 -12.831  1.00  0.00     0.091 A 
ATOM     90  F   UNL     1     -12.669  17.017 -11.580  1.00  0.00    -0.205 F 
ATOM     91  C   UNL     1     -14.719  14.481 -13.244  1.00  0.00     0.022 A 
BRANCH  89  92
ATOM     92  S   UNL     1     -15.159  17.178 -13.401  1.00  0.00     0.127 S 
ATOM     93  O   UNL     1     -14.816  17.202 -14.822  1.00  0.00    -0.237 OA
ATOM     94  O   UNL     1     -16.543  16.801 -13.114  1.00  0.00    -0.237 OA
ATOM     95  O   UNL     1     -14.662  18.304 -12.623  1.00  0.00    -0.744 OA
ENDBRANCH  89  92
ENDBRANCH  62  85
ENDBRANCH  36  37
ENDBRANCH  28  31
ENDBRANCH  26  27
ENDBRANCH  25  26
ENDBRANCH   1  25
TORSDOF 17
