REMARK SMILES CCOc1ccc(NC(=O)N2CC[C@@H](C(=O)NCCCCCCNC(=O)c3ccc(-c4c5nc(c(-c6cccc(S(=O)(=O)[O-])c6F)c6ccc([nH]6)c(-c6cccc(S(=O)(=O)[O-])c6F)c6nc(c(-c7cccc(S(=O)(=O)[O-])c7F)c7ccc4[nH]7)C=C6)C=C5)cc3)[C@@H]2C)cc1
REMARK SMILES IDX 20 1 19 2 18 3 17 4 15 5 16 6 14 8 11 9 12 10 90 11 13 12
REMARK SMILES IDX 91 13 9 14 8 15 10 17 7 18 4 19 5 20 93 21 6 22 92 23 3 24
REMARK SMILES IDX 2 25 1 26 21 27 22 28 23 29 24 30 25 31 26 33 27 34 28 35
REMARK SMILES IDX 89 36 29 37 88 38 30 39 31 40 32 41 82 42 33 43 87 44 81 45
REMARK SMILES IDX 83 46 34 47 86 48 80 49 79 50 35 52 67 53 47 54 66 55 48 56
REMARK SMILES IDX 51 57 65 58 84 59 49 60 50 61 64 63 85 64 52 65 36 66 37 67
REMARK SMILES IDX 45 68 38 69 40 70 46 71 39 72 41 73 42 74 43 75 44 76 68 77
REMARK SMILES IDX 69 78 77 79 70 80 72 81 78 82 71 83 73 84 74 85 75 86 76 87
REMARK SMILES IDX 53 88 54 89 62 90 55 91 57 92 63 93 56 94 58 95 59 96 60 97
REMARK SMILES IDX 61 98
REMARK H PARENT 17 7 8 16 24 32 83 51 51 62
REMARK Flexibility Score: inf
ROOT
ATOM      1  C   UNL     1       1.442  -4.021  -2.929  1.00  0.00     0.002 C 
ENDROOT
BRANCH   1   2
ATOM      2  C   UNL     1       2.907  -3.872  -3.350  1.00  0.00     0.021 C 
BRANCH   2   3
ATOM      3  C   UNL     1       3.210  -3.970  -4.846  1.00  0.00     0.116 C 
BRANCH   3   4
ATOM      4  N   UNL     1       2.601  -2.918  -5.652  1.00  0.00    -0.356 N 
ATOM      5  C   UNL     1       3.051  -2.097  -6.635  1.00  0.00     0.225 C 
ATOM      6  O   UNL     1       2.201  -1.340  -7.128  1.00  0.00    -0.275 OA
ATOM      7  H   UNL     1       1.652  -2.771  -5.435  1.00  0.00     0.163 HD
BRANCH   5   8
ATOM      8  C   UNL     1       4.498  -1.967  -7.126  1.00  0.00     0.102 C 
ATOM      9  N   UNL     1       6.048  -1.953  -5.390  1.00  0.00    -0.321 N 
ATOM     10  C   UNL     1       6.417  -3.120  -6.180  1.00  0.00     0.122 C 
ATOM     11  C   UNL     1       5.347  -1.021  -6.261  1.00  0.00     0.096 C 
ATOM     12  C   UNL     1       5.317  -3.257  -7.232  1.00  0.00     0.037 C 
ATOM     13  C   UNL     1       6.328  -0.187  -7.097  1.00  0.00     0.032 C 
BRANCH   9  14
ATOM     14  C   UNL     1       6.709  -1.719  -4.230  1.00  0.00     0.322 C 
ATOM     15  N   UNL     1       6.170  -1.123  -3.141  1.00  0.00    -0.308 N 
ATOM     16  H   UNL     1       6.870  -0.896  -2.487  1.00  0.00     0.171 HD
ATOM     17  O   UNL     1       7.848  -2.178  -4.072  1.00  0.00    -0.248 OA
BRANCH  15  18
ATOM     18  C   UNL     1       4.901  -0.732  -2.667  1.00  0.00     0.043 A 
ATOM     19  C   UNL     1       2.370  -0.361  -1.480  1.00  0.00     0.119 A 
ATOM     20  C   UNL     1       2.493  -0.352  -2.853  1.00  0.00     0.048 A 
ATOM     21  C   UNL     1       3.500  -0.464  -0.679  1.00  0.00     0.048 A 
ATOM     22  C   UNL     1       3.748  -0.575  -3.423  1.00  0.00     0.030 A 
ATOM     23  C   UNL     1       4.764  -0.610  -1.273  1.00  0.00     0.030 A 
BRANCH  19  24
ATOM     24  O   UNL     1       1.127  -0.545  -0.955  1.00  0.00    -0.494 OA
BRANCH  24  25
ATOM     25  C   UNL     1       0.478   0.678  -0.619  1.00  0.00     0.226 C 
ATOM     26  C   UNL     1       0.362   0.722   0.891  1.00  0.00     0.049 C 
ENDBRANCH  24  25
ENDBRANCH  19  24
ENDBRANCH  15  18
ENDBRANCH   9  14
ENDBRANCH   5   8
ENDBRANCH   3   4
ENDBRANCH   2   3
ENDBRANCH   1   2
BRANCH   1  27
ATOM     27  C   UNL     1       1.059  -5.424  -2.452  1.00  0.00     0.002 C 
BRANCH  27  28
ATOM     28  C   UNL     1       1.939  -6.019  -1.345  1.00  0.00     0.021 C 
BRANCH  28  29
ATOM     29  C   UNL     1       2.177  -5.117  -0.135  1.00  0.00     0.116 C 
BRANCH  29  30
ATOM     30  N   UNL     1       0.974  -4.954   0.665  1.00  0.00    -0.352 N 
ATOM     31  C   UNL     1       0.710  -5.417   1.932  1.00  0.00     0.251 C 
ATOM     32  H   UNL     1       0.248  -4.441   0.241  1.00  0.00     0.163 HD
ATOM     33  O   UNL     1      -0.435  -5.397   2.373  1.00  0.00    -0.269 OA
BRANCH  31  34
ATOM     34  C   UNL     1       1.812  -5.950   2.764  1.00  0.00     0.039 A 
ATOM     35  C   UNL     1       1.644  -7.174   3.418  1.00  0.00     0.014 A 
ATOM     36  C   UNL     1       3.004  -5.234   2.912  1.00  0.00     0.014 A 
ATOM     37  C   UNL     1       2.693  -7.704   4.176  1.00  0.00     0.010 A 
ATOM     38  C   UNL     1       4.069  -5.794   3.615  1.00  0.00     0.010 A 
ATOM     39  C   UNL     1       3.924  -7.031   4.262  1.00  0.00    -0.014 A 
BRANCH  39  40
ATOM     40  C   UNL     1       5.069  -7.617   5.008  1.00  0.00     0.031 A 
ATOM     41  C   UNL     1       5.621  -6.929   6.229  1.00  0.00     0.074 A 
ATOM     42  C   UNL     1       5.665  -8.733   4.543  1.00  0.00     0.049 A 
ATOM     43  N   UNL     1       6.617  -7.288   6.998  1.00  0.00    -0.248 NA
ATOM     44  C   UNL     1       4.989  -5.660   6.624  1.00  0.00     0.031 C 
ATOM     45  C   UNL     1       5.282  -9.450   3.325  1.00  0.00     0.029 A 
ATOM     46  N   UNL     1       6.733  -9.449   5.026  1.00  0.00    -0.354 N 
ATOM     47  C   UNL     1       6.757  -6.276   7.939  1.00  0.00     0.074 A 
ATOM     48  C   UNL     1       5.761  -5.273   7.629  1.00  0.00     0.031 C 
ATOM     49  C   UNL     1       6.093 -10.509   3.164  1.00  0.00     0.029 A 
ATOM     50  C   UNL     1       7.068 -10.534   4.250  1.00  0.00     0.049 A 
ATOM     51  H   UNL     1       7.213  -9.207   5.851  1.00  0.00     0.167 HD
ATOM     52  C   UNL     1       7.616  -6.198   8.984  1.00  0.00     0.034 A 
ATOM     53  C   UNL     1       8.046 -11.449   4.397  1.00  0.00     0.034 A 
ATOM     54  C   UNL     1       8.572  -7.220   9.321  1.00  0.00     0.049 A 
ATOM     55  C   UNL     1       8.954 -11.366   5.595  1.00  0.00     0.074 A 
ATOM     56  C   UNL     1       9.406  -7.287  10.423  1.00  0.00     0.029 A 
ATOM     57  N   UNL     1       8.830  -8.346   8.555  1.00  0.00    -0.354 N 
ATOM     58  N   UNL     1       8.947 -10.499   6.578  1.00  0.00    -0.248 NA
ATOM     59  C   UNL     1       9.981 -12.410   5.723  1.00  0.00     0.031 C 
ATOM     60  C   UNL     1      10.189  -8.442  10.309  1.00  0.00     0.029 A 
ATOM     61  C   UNL     1       9.823  -9.106   9.150  1.00  0.00     0.049 A 
ATOM     62  H   UNL     1       8.375  -8.572   7.712  1.00  0.00     0.167 HD
ATOM     63  C   UNL     1       9.941 -10.912   7.459  1.00  0.00     0.074 A 
ATOM     64  C   UNL     1      10.514 -12.121   6.903  1.00  0.00     0.031 C 
ATOM     65  C   UNL     1      10.352 -10.335   8.615  1.00  0.00     0.034 A 
BRANCH  52  66
ATOM     66  C   UNL     1       7.530  -4.985   9.875  1.00  0.00     0.023 A 
ATOM     67  C   UNL     1       6.425  -4.832  10.738  1.00  0.00     0.012 A 
ATOM     68  C   UNL     1       8.565  -4.030   9.904  1.00  0.00     0.148 A 
ATOM     69  C   UNL     1       6.333  -3.730  11.588  1.00  0.00     0.002 A 
ATOM     70  C   UNL     1       8.488  -2.958  10.786  1.00  0.00     0.091 A 
ATOM     71  F   UNL     1       9.598  -4.180   9.063  1.00  0.00    -0.205 F 
ATOM     72  C   UNL     1       7.368  -2.800  11.619  1.00  0.00     0.022 A 
BRANCH  70  73
ATOM     73  S   UNL     1       9.806  -1.750  10.957  1.00  0.00     0.127 S 
ATOM     74  O   UNL     1       9.220  -0.579  10.306  1.00  0.00    -0.237 OA
ATOM     75  O   UNL     1       9.936  -1.637  12.410  1.00  0.00    -0.237 OA
ATOM     76  O   UNL     1      10.965  -2.325  10.289  1.00  0.00    -0.744 OA
ENDBRANCH  70  73
ENDBRANCH  52  66
BRANCH  53  77
ATOM     77  C   UNL     1       8.164 -12.576   3.429  1.00  0.00     0.023 A 
ATOM     78  C   UNL     1       7.829 -13.879   3.848  1.00  0.00     0.012 A 
ATOM     79  C   UNL     1       8.576 -12.367   2.099  1.00  0.00     0.148 A 
ATOM     80  C   UNL     1       7.931 -14.958   2.970  1.00  0.00     0.002 A 
ATOM     81  C   UNL     1       8.623 -13.438   1.213  1.00  0.00     0.091 A 
ATOM     82  F   UNL     1       8.902 -11.123   1.722  1.00  0.00    -0.205 F 
ATOM     83  C   UNL     1       8.318 -14.737   1.651  1.00  0.00     0.022 A 
BRANCH  81  84
ATOM     84  S   UNL     1       8.984 -13.230  -0.534  1.00  0.00     0.127 S 
ATOM     85  O   UNL     1      10.310 -13.831  -0.641  1.00  0.00    -0.237 OA
ATOM     86  O   UNL     1       7.906 -13.997  -1.159  1.00  0.00    -0.237 OA
ATOM     87  O   UNL     1       8.917 -11.795  -0.780  1.00  0.00    -0.744 OA
ENDBRANCH  81  84
ENDBRANCH  53  77
BRANCH  65  88
ATOM     88  C   UNL     1      11.459 -11.015   9.380  1.00  0.00     0.023 A 
ATOM     89  C   UNL     1      12.777 -10.982   8.882  1.00  0.00     0.012 A 
ATOM     90  C   UNL     1      11.205 -11.630  10.621  1.00  0.00     0.148 A 
ATOM     91  C   UNL     1      13.818 -11.583   9.589  1.00  0.00     0.002 A 
ATOM     92  C   UNL     1      12.255 -12.183  11.345  1.00  0.00     0.091 A 
ATOM     93  F   UNL     1       9.942 -11.670  11.071  1.00  0.00    -0.205 F 
ATOM     94  C   UNL     1      13.559 -12.172  10.825  1.00  0.00     0.022 A 
BRANCH  92  95
ATOM     95  S   UNL     1      12.030 -12.876  12.987  1.00  0.00     0.127 S 
ATOM     96  O   UNL     1      12.103 -14.311  12.719  1.00  0.00    -0.237 OA
ATOM     97  O   UNL     1      13.177 -12.332  13.716  1.00  0.00    -0.237 OA
ATOM     98  O   UNL     1      10.738 -12.389  13.451  1.00  0.00    -0.744 OA
ENDBRANCH  92  95
ENDBRANCH  65  88
ENDBRANCH  39  40
ENDBRANCH  31  34
ENDBRANCH  29  30
ENDBRANCH  28  29
ENDBRANCH  27  28
ENDBRANCH   1  27
TORSDOF 20
