REMARK SMILES [NH3+]C1CC[NH+](CC(=O)Nc2cc(Cl)ccc2C(=O)NCCCCCCNC(=O)c2ccc(-c3c4nc(c(-c5cccc(S(=O)(=O)[O-])c5F)c5ccc([nH]5)c(-c5cccc(S(=O)(=O)[O-])c5F)c5nc(c(-c6cccc(S(=O)(=O)[O-])c6F)c6ccc3[nH]6)C=C5)C=C4)cc2)CC1
REMARK SMILES IDX 22 1 21 2 20 3 19 4 17 5 18 6 16 8 10 9 11 10 12 11 15 12
REMARK SMILES IDX 13 13 14 14 9 15 7 16 8 17 6 19 5 20 2 21 3 22 93 23 4 24
REMARK SMILES IDX 92 25 1 27 23 31 24 32 25 33 26 34 27 35 28 37 29 38 30 39
REMARK SMILES IDX 91 40 31 41 90 42 32 43 33 44 34 45 84 46 35 47 89 48 83 49
REMARK SMILES IDX 85 50 36 51 88 52 82 53 81 54 37 56 69 57 49 58 68 59 50 60
REMARK SMILES IDX 53 61 67 62 86 63 51 64 52 65 66 67 87 68 54 69 38 70 39 71
REMARK SMILES IDX 47 72 40 73 42 74 48 75 41 76 43 77 44 78 45 79 46 80 70 81
REMARK SMILES IDX 71 82 79 83 72 84 74 85 80 86 73 87 75 88 76 89 77 90 78 91
REMARK SMILES IDX 55 92 56 93 64 94 57 95 59 96 65 97 58 98 60 99 61 100
REMARK SMILES IDX 62 101 63 102
REMARK H PARENT 19 7 9 18 5 26 1 28 1 29 1 30 26 36 85 55 53 66
REMARK Flexibility Score: inf
ROOT
ATOM      1  C   UNL     1      -1.781  -0.879   7.933  1.00  0.00     0.002 C 
ENDROOT
BRANCH   1   2
ATOM      2  C   UNL     1      -2.740  -0.872   6.742  1.00  0.00     0.021 C 
BRANCH   2   3
ATOM      3  C   UNL     1      -2.208  -1.421   5.429  1.00  0.00     0.116 C 
BRANCH   3   4
ATOM      4  N   UNL     1      -1.895  -2.832   5.360  1.00  0.00    -0.352 N 
ATOM      5  C   UNL     1      -1.776  -3.709   4.300  1.00  0.00     0.253 C 
ATOM      6  O   UNL     1      -1.380  -4.844   4.586  1.00  0.00    -0.269 OA
ATOM      7  H   UNL     1      -1.737  -3.248   6.239  1.00  0.00     0.163 HD
BRANCH   5   8
ATOM      8  C   UNL     1      -2.144  -3.436   2.857  1.00  0.00     0.063 A 
ATOM      9  C   UNL     1      -2.162  -2.196   2.172  1.00  0.00     0.055 A 
ATOM     10  C   UNL     1      -2.661  -2.147   0.865  1.00  0.00     0.047 A 
ATOM     11  C   UNL     1      -2.978  -3.313   0.168  1.00  0.00     0.043 A 
ATOM     12  C   UNL     1      -2.493  -4.601   2.128  1.00  0.00     0.017 A 
ATOM     13  Cl  UNL     1      -3.420  -3.224  -1.493  1.00  0.00    -0.084 Cl
ATOM     14  C   UNL     1      -2.875  -4.546   0.787  1.00  0.00     0.021 A 
BRANCH   9  15
ATOM     15  N   UNL     1      -1.521  -1.089   2.744  1.00  0.00    -0.320 N 
ATOM     16  C   UNL     1      -1.591   0.270   2.666  1.00  0.00     0.279 C 
ATOM     17  O   UNL     1      -0.944   0.862   3.542  1.00  0.00    -0.268 OA
ATOM     18  H   UNL     1      -0.826  -1.371   3.381  1.00  0.00     0.170 HD
BRANCH  16  19
ATOM     19  C   UNL     1      -2.450   1.065   1.695  1.00  0.00     0.363 C 
BRANCH  19  20
ATOM     20  N   UNL     1      -1.718   1.732   0.600  1.00  0.00    -0.327 N 
ATOM     21  C   UNL     1       1.162   0.993   0.494  1.00  0.00     0.192 C 
ATOM     22  C   UNL     1       0.675   2.179   1.346  1.00  0.00     0.126 C 
ATOM     23  C   UNL     1       0.045   0.104  -0.056  1.00  0.00     0.126 C 
ATOM     24  C   UNL     1      -0.715   2.727   0.996  1.00  0.00     0.268 C 
ATOM     25  C   UNL     1      -1.194   0.888  -0.464  1.00  0.00     0.268 C 
ATOM     26  H   UNL     1      -2.506   2.239   0.196  1.00  0.00     0.348 HD
BRANCH  21  27
ATOM     27  N   UNL     1       1.995   1.441  -0.626  1.00  0.00    -0.355 N 
ATOM     28  H   UNL     1       2.746   2.035  -0.275  1.00  0.00     0.344 HD
ATOM     29  H   UNL     1       1.423   1.969  -1.285  1.00  0.00     0.344 HD
ATOM     30  H   UNL     1       2.395   0.629  -1.097  1.00  0.00     0.344 HD
ENDBRANCH  21  27
ENDBRANCH  19  20
ENDBRANCH  16  19
ENDBRANCH   9  15
ENDBRANCH   5   8
ENDBRANCH   3   4
ENDBRANCH   2   3
ENDBRANCH   1   2
BRANCH   1  31
ATOM     31  C   UNL     1      -0.372  -0.306   7.739  1.00  0.00     0.002 C 
BRANCH  31  32
ATOM     32  C   UNL     1      -0.232   1.114   7.183  1.00  0.00     0.021 C 
BRANCH  32  33
ATOM     33  C   UNL     1      -1.096   2.200   7.814  1.00  0.00     0.116 C 
BRANCH  33  34
ATOM     34  N   UNL     1      -0.960   2.275   9.260  1.00  0.00    -0.352 N 
ATOM     35  C   UNL     1      -0.748   3.362  10.070  1.00  0.00     0.251 C 
ATOM     36  H   UNL     1      -1.031   1.413   9.730  1.00  0.00     0.163 HD
ATOM     37  O   UNL     1      -0.553   3.191  11.274  1.00  0.00    -0.269 OA
BRANCH  35  38
ATOM     38  C   UNL     1      -0.726   4.732   9.510  1.00  0.00     0.039 A 
ATOM     39  C   UNL     1       0.274   5.613   9.933  1.00  0.00     0.014 A 
ATOM     40  C   UNL     1      -1.688   5.159   8.592  1.00  0.00     0.014 A 
ATOM     41  C   UNL     1       0.345   6.900   9.391  1.00  0.00     0.010 A 
ATOM     42  C   UNL     1      -1.574   6.416   8.001  1.00  0.00     0.010 A 
ATOM     43  C   UNL     1      -0.559   7.302   8.396  1.00  0.00    -0.014 A 
BRANCH  43  44
ATOM     44  C   UNL     1      -0.453   8.634   7.744  1.00  0.00     0.031 A 
ATOM     45  C   UNL     1      -1.574   9.632   7.868  1.00  0.00     0.074 A 
ATOM     46  C   UNL     1       0.610   8.912   6.963  1.00  0.00     0.049 A 
ATOM     47  N   UNL     1      -1.702  10.804   7.302  1.00  0.00    -0.248 NA
ATOM     48  C   UNL     1      -2.712   9.251   8.721  1.00  0.00     0.031 C 
ATOM     49  C   UNL     1       1.732   8.005   6.709  1.00  0.00     0.029 A 
ATOM     50  N   UNL     1       0.906  10.023   6.212  1.00  0.00    -0.354 N 
ATOM     51  C   UNL     1      -2.946  11.283   7.696  1.00  0.00     0.074 A 
ATOM     52  C   UNL     1      -3.547  10.261   8.525  1.00  0.00     0.031 C 
ATOM     53  C   UNL     1       2.591   8.594   5.862  1.00  0.00     0.029 A 
ATOM     54  C   UNL     1       2.065   9.901   5.481  1.00  0.00     0.049 A 
ATOM     55  H   UNL     1       0.342  10.830   6.198  1.00  0.00     0.167 HD
ATOM     56  C   UNL     1      -3.527  12.474   7.413  1.00  0.00     0.034 A 
ATOM     57  C   UNL     1       2.634  10.738   4.591  1.00  0.00     0.034 A 
ATOM     58  C   UNL     1      -2.913  13.500   6.614  1.00  0.00     0.049 A 
ATOM     59  C   UNL     1       1.978  12.064   4.310  1.00  0.00     0.074 A 
ATOM     60  C   UNL     1      -3.385  14.771   6.336  1.00  0.00     0.029 A 
ATOM     61  N   UNL     1      -1.701  13.371   5.954  1.00  0.00    -0.354 N 
ATOM     62  N   UNL     1       0.870  12.557   4.805  1.00  0.00    -0.248 NA
ATOM     63  C   UNL     1       2.669  12.962   3.374  1.00  0.00     0.031 C 
ATOM     64  C   UNL     1      -2.474  15.398   5.479  1.00  0.00     0.029 A 
ATOM     65  C   UNL     1      -1.414  14.533   5.258  1.00  0.00     0.049 A 
ATOM     66  H   UNL     1      -1.128  12.571   5.976  1.00  0.00     0.167 HD
ATOM     67  C   UNL     1       0.752  13.838   4.276  1.00  0.00     0.074 A 
ATOM     68  C   UNL     1       1.911  14.049   3.434  1.00  0.00     0.031 C 
ATOM     69  C   UNL     1      -0.232  14.752   4.465  1.00  0.00     0.034 A 
BRANCH  56  70
ATOM     70  C   UNL     1      -4.887  12.749   8.004  1.00  0.00     0.023 A 
ATOM     71  C   UNL     1      -5.018  12.955   9.393  1.00  0.00     0.012 A 
ATOM     72  C   UNL     1      -6.025  12.859   7.181  1.00  0.00     0.148 A 
ATOM     73  C   UNL     1      -6.263  13.226   9.959  1.00  0.00     0.002 A 
ATOM     74  C   UNL     1      -7.255  13.178   7.746  1.00  0.00     0.091 A 
ATOM     75  F   UNL     1      -5.887  12.643   5.866  1.00  0.00    -0.205 F 
ATOM     76  C   UNL     1      -7.378  13.347   9.135  1.00  0.00     0.022 A 
BRANCH  74  77
ATOM     77  S   UNL     1      -8.736  13.439   6.763  1.00  0.00     0.127 S 
ATOM     78  O   UNL     1      -9.539  12.271   7.124  1.00  0.00    -0.237 OA
ATOM     79  O   UNL     1      -9.235  14.709   7.292  1.00  0.00    -0.237 OA
ATOM     80  O   UNL     1      -8.295  13.489   5.376  1.00  0.00    -0.744 OA
ENDBRANCH  74  77
ENDBRANCH  56  70
BRANCH  57  81
ATOM     81  C   UNL     1       3.923  10.370   3.939  1.00  0.00     0.023 A 
ATOM     82  C   UNL     1       5.095  11.075   4.274  1.00  0.00     0.012 A 
ATOM     83  C   UNL     1       3.998   9.315   3.009  1.00  0.00     0.148 A 
ATOM     84  C   UNL     1       6.312  10.760   3.669  1.00  0.00     0.002 A 
ATOM     85  C   UNL     1       5.224   8.969   2.452  1.00  0.00     0.091 A 
ATOM     86  F   UNL     1       2.870   8.661   2.697  1.00  0.00    -0.205 F 
ATOM     87  C   UNL     1       6.379   9.702   2.766  1.00  0.00     0.022 A 
BRANCH  85  88
ATOM     88  S   UNL     1       5.429   7.543   1.379  1.00  0.00     0.127 S 
ATOM     89  O   UNL     1       5.735   8.173   0.098  1.00  0.00    -0.237 OA
ATOM     90  O   UNL     1       6.553   6.851   2.011  1.00  0.00    -0.237 OA
ATOM     91  O   UNL     1       4.167   6.816   1.438  1.00  0.00    -0.744 OA
ENDBRANCH  85  88
ENDBRANCH  57  81
BRANCH  69  92
ATOM     92  C   UNL     1      -0.082  16.093   3.793  1.00  0.00     0.023 A 
ATOM     93  C   UNL     1      -0.236  16.207   2.397  1.00  0.00     0.012 A 
ATOM     94  C   UNL     1       0.138  17.254   4.561  1.00  0.00     0.148 A 
ATOM     95  C   UNL     1      -0.141  17.451   1.774  1.00  0.00     0.002 A 
ATOM     96  C   UNL     1       0.177  18.495   3.940  1.00  0.00     0.091 A 
ATOM     97  F   UNL     1       0.299  17.122   5.886  1.00  0.00    -0.205 F 
ATOM     98  C   UNL     1       0.053  18.595   2.545  1.00  0.00     0.022 A 
BRANCH  96  99
ATOM     99  S   UNL     1       0.321  20.031   4.862  1.00  0.00     0.127 S 
ATOM    100  O   UNL     1       1.672  20.464   4.510  1.00  0.00    -0.237 OA
ATOM    101  O   UNL     1      -0.750  20.841   4.281  1.00  0.00    -0.237 OA
ATOM    102  O   UNL     1       0.124  19.681   6.262  1.00  0.00    -0.744 OA
ENDBRANCH  96  99
ENDBRANCH  69  92
ENDBRANCH  43  44
ENDBRANCH  35  38
ENDBRANCH  33  34
ENDBRANCH  32  33
ENDBRANCH  31  32
ENDBRANCH   1  31
TORSDOF 20
