REMARK SMILES Cc1c(Cl)ccc2c(OCC(=O)NCCCCCCNC(=O)c3ccc(-c4c5nc(c(-c6cccc(S(=O)(=O)[O-])c6F)c6ccc([nH]6)c(-c6cccc(S(=O)(=O)[O-])c6F)c6nc(c(-c7cccc(S(=O)(=O)[O-])c7F)c7ccc4[nH]7)C=C6)C=C5)cc3)ccnc12
REMARK SMILES IDX 17 1 16 2 15 3 14 4 13 5 11 6 12 7 10 9 9 10 8 11 1 12 2 13
REMARK SMILES IDX 3 14 89 15 4 16 5 17 7 18 88 19 6 20 87 21 86 22 18 23 19 24
REMARK SMILES IDX 20 25 21 26 22 28 23 29 24 30 85 31 25 32 84 33 26 34 27 35
REMARK SMILES IDX 28 36 78 37 29 38 83 39 77 40 79 41 30 42 82 43 76 44 75 45
REMARK SMILES IDX 31 47 63 48 43 49 62 50 44 51 47 52 61 53 80 54 45 55 46 56
REMARK SMILES IDX 60 58 81 59 48 60 32 61 33 62 41 63 34 64 36 65 42 66 35 67
REMARK SMILES IDX 37 68 38 69 39 70 40 71 64 72 65 73 73 74 66 75 68 76 74 77
REMARK SMILES IDX 67 78 69 79 70 80 71 81 72 82 49 83 50 84 58 85 51 86 53 87
REMARK SMILES IDX 59 88 52 89 54 90 55 91 56 92 57 93
REMARK H PARENT 13 8 20 27 79 46 47 57
REMARK Flexibility Score: inf
ROOT
ATOM      1  C   UNL     1       6.014   6.599   3.221  1.00  0.00     0.002 C 
ENDROOT
BRANCH   1   2
ATOM      2  C   UNL     1       5.123   5.623   2.444  1.00  0.00     0.002 C 
BRANCH   2   3
ATOM      3  C   UNL     1       3.720   5.391   3.025  1.00  0.00     0.021 C 
BRANCH   3   4
ATOM      4  C   UNL     1       2.894   6.660   3.240  1.00  0.00     0.116 C 
BRANCH   4   5
ATOM      5  N   UNL     1       2.685   7.380   1.998  1.00  0.00    -0.353 N 
ATOM      6  C   UNL     1       1.534   7.543   1.287  1.00  0.00     0.257 C 
ATOM      7  O   UNL     1       1.577   8.170   0.225  1.00  0.00    -0.271 OA
ATOM      8  H   UNL     1       3.484   7.811   1.617  1.00  0.00     0.163 HD
BRANCH   6   9
ATOM      9  C   UNL     1       0.210   6.991   1.829  1.00  0.00     0.329 C 
BRANCH   9  10
ATOM     10  O   UNL     1       0.145   5.616   2.162  1.00  0.00    -0.483 OA
BRANCH  10  11
ATOM     11  C   UNL     1       0.264   4.674   1.171  1.00  0.00     0.131 A 
ATOM     12  C   UNL     1       0.748  -0.103  -0.006  1.00  0.00     0.048 C 
ATOM     13  C   UNL     1       0.486   0.967   1.027  1.00  0.00    -0.006 A 
ATOM     14  C   UNL     1       0.348   0.637   2.387  1.00  0.00     0.046 A 
ATOM     15  C   UNL     1       0.456   2.313   0.624  1.00  0.00     0.078 A 
ATOM     16  Cl  UNL     1       0.419  -0.997   2.949  1.00  0.00    -0.084 Cl
ATOM     17  C   UNL     1       0.153   1.628   3.343  1.00  0.00     0.022 A 
ATOM     18  C   UNL     1       0.275   3.324   1.598  1.00  0.00     0.043 A 
ATOM     19  N   UNL     1       0.602   2.625  -0.679  1.00  0.00    -0.256 NA
ATOM     20  C   UNL     1       0.119   2.961   2.951  1.00  0.00     0.016 A 
ATOM     21  C   UNL     1       0.559   3.919  -1.054  1.00  0.00     0.115 A 
ATOM     22  C   UNL     1       0.387   4.969  -0.179  1.00  0.00     0.067 A 
ENDBRANCH  10  11
ENDBRANCH   9  10
ENDBRANCH   6   9
ENDBRANCH   4   5
ENDBRANCH   3   4
ENDBRANCH   2   3
ENDBRANCH   1   2
BRANCH   1  23
ATOM     23  C   UNL     1       6.189   6.287   4.708  1.00  0.00     0.021 C 
BRANCH  23  24
ATOM     24  C   UNL     1       6.771   4.910   5.008  1.00  0.00     0.116 C 
BRANCH  24  25
ATOM     25  N   UNL     1       8.156   4.794   4.579  1.00  0.00    -0.352 N 
ATOM     26  C   UNL     1       9.260   4.478   5.333  1.00  0.00     0.251 C 
ATOM     27  H   UNL     1       8.324   4.964   3.624  1.00  0.00     0.163 HD
ATOM     28  O   UNL     1      10.389   4.587   4.865  1.00  0.00    -0.269 OA
BRANCH  26  29
ATOM     29  C   UNL     1       9.072   4.025   6.727  1.00  0.00     0.039 A 
ATOM     30  C   UNL     1       9.752   4.684   7.753  1.00  0.00     0.014 A 
ATOM     31  C   UNL     1       8.199   2.970   7.013  1.00  0.00     0.014 A 
ATOM     32  C   UNL     1       9.514   4.318   9.079  1.00  0.00     0.010 A 
ATOM     33  C   UNL     1       7.926   2.641   8.338  1.00  0.00     0.010 A 
ATOM     34  C   UNL     1       8.585   3.309   9.381  1.00  0.00    -0.014 A 
BRANCH  34  35
ATOM     35  C   UNL     1       8.305   2.931  10.786  1.00  0.00     0.031 A 
ATOM     36  C   UNL     1       8.758   1.597  11.309  1.00  0.00     0.074 A 
ATOM     37  C   UNL     1       7.598   3.763  11.575  1.00  0.00     0.049 A 
ATOM     38  N   UNL     1       8.618   1.097  12.508  1.00  0.00    -0.248 NA
ATOM     39  C   UNL     1       9.441   0.702  10.359  1.00  0.00     0.031 C 
ATOM     40  C   UNL     1       7.042   5.052  11.160  1.00  0.00     0.029 A 
ATOM     41  N   UNL     1       7.215   3.642  12.887  1.00  0.00    -0.354 N 
ATOM     42  C   UNL     1       9.175  -0.174  12.453  1.00  0.00     0.074 A 
ATOM     43  C   UNL     1       9.628  -0.384  11.096  1.00  0.00     0.031 C 
ATOM     44  C   UNL     1       6.396   5.606  12.200  1.00  0.00     0.029 A 
ATOM     45  C   UNL     1       6.487   4.712  13.351  1.00  0.00     0.049 A 
ATOM     46  H   UNL     1       7.440   2.862  13.444  1.00  0.00     0.167 HD
ATOM     47  C   UNL     1       9.331  -1.070  13.454  1.00  0.00     0.034 A 
ATOM     48  C   UNL     1       5.964   4.952  14.571  1.00  0.00     0.034 A 
ATOM     49  C   UNL     1       8.936  -0.838  14.813  1.00  0.00     0.049 A 
ATOM     50  C   UNL     1       6.190   3.959  15.678  1.00  0.00     0.074 A 
ATOM     51  C   UNL     1       9.140  -1.649  15.915  1.00  0.00     0.029 A 
ATOM     52  N   UNL     1       8.260   0.285  15.258  1.00  0.00    -0.354 N 
ATOM     53  N   UNL     1       6.855   2.830  15.643  1.00  0.00    -0.248 NA
ATOM     54  C   UNL     1       5.625   4.283  16.997  1.00  0.00     0.031 C 
ATOM     55  C   UNL     1       8.586  -1.014  17.029  1.00  0.00     0.029 A 
ATOM     56  C   UNL     1       8.036   0.190  16.619  1.00  0.00     0.049 A 
ATOM     57  H   UNL     1       7.981   1.040  14.690  1.00  0.00     0.167 HD
ATOM     58  C   UNL     1       6.812   2.322  16.936  1.00  0.00     0.074 A 
ATOM     59  C   UNL     1       6.063   3.270  17.735  1.00  0.00     0.031 C 
ATOM     60  C   UNL     1       7.337   1.167  17.412  1.00  0.00     0.034 A 
BRANCH  47  61
ATOM     61  C   UNL     1      10.039  -2.356  13.136  1.00  0.00     0.023 A 
ATOM     62  C   UNL     1      11.444  -2.352  13.043  1.00  0.00     0.012 A 
ATOM     63  C   UNL     1       9.334  -3.567  13.010  1.00  0.00     0.148 A 
ATOM     64  C   UNL     1      12.142  -3.536  12.817  1.00  0.00     0.002 A 
ATOM     65  C   UNL     1      10.038  -4.748  12.811  1.00  0.00     0.091 A 
ATOM     66  F   UNL     1       7.996  -3.538  13.087  1.00  0.00    -0.205 F 
ATOM     67  C   UNL     1      11.440  -4.734  12.710  1.00  0.00     0.022 A 
BRANCH  65  68
ATOM     68  S   UNL     1       9.238  -6.353  12.706  1.00  0.00     0.127 S 
ATOM     69  O   UNL     1       9.512  -6.729  11.320  1.00  0.00    -0.237 OA
ATOM     70  O   UNL     1       9.974  -7.128  13.705  1.00  0.00    -0.237 OA
ATOM     71  O   UNL     1       7.834  -6.126  13.020  1.00  0.00    -0.744 OA
ENDBRANCH  65  68
ENDBRANCH  47  61
BRANCH  48  72
ATOM     72  C   UNL     1       5.265   6.240  14.824  1.00  0.00     0.023 A 
ATOM     73  C   UNL     1       5.939   7.255  15.529  1.00  0.00     0.012 A 
ATOM     74  C   UNL     1       3.976   6.490  14.316  1.00  0.00     0.148 A 
ATOM     75  C   UNL     1       5.338   8.497  15.734  1.00  0.00     0.002 A 
ATOM     76  C   UNL     1       3.396   7.742  14.493  1.00  0.00     0.091 A 
ATOM     77  F   UNL     1       3.356   5.507  13.649  1.00  0.00    -0.205 F 
ATOM     78  C   UNL     1       4.072   8.743  15.210  1.00  0.00     0.022 A 
BRANCH  76  79
ATOM     79  S   UNL     1       1.813   8.192  13.773  1.00  0.00     0.127 S 
ATOM     80  O   UNL     1       1.001   8.435  14.962  1.00  0.00    -0.237 OA
ATOM     81  O   UNL     1       2.163   9.390  13.009  1.00  0.00    -0.237 OA
ATOM     82  O   UNL     1       1.408   7.054  12.960  1.00  0.00    -0.744 OA
ENDBRANCH  76  79
ENDBRANCH  48  72
BRANCH  60  83
ATOM     83  C   UNL     1       7.142   0.838  18.864  1.00  0.00     0.023 A 
ATOM     84  C   UNL     1       5.929   0.255  19.276  1.00  0.00     0.012 A 
ATOM     85  C   UNL     1       8.210   0.946  19.776  1.00  0.00     0.148 A 
ATOM     86  C   UNL     1       5.781  -0.220  20.578  1.00  0.00     0.002 A 
ATOM     87  C   UNL     1       8.067   0.442  21.062  1.00  0.00     0.091 A 
ATOM     88  F   UNL     1       9.353   1.508  19.355  1.00  0.00    -0.205 F 
ATOM     89  C   UNL     1       6.852  -0.139  21.466  1.00  0.00     0.022 A 
BRANCH  87  90
ATOM     90  S   UNL     1       9.411   0.424  22.255  1.00  0.00     0.127 S 
ATOM     91  O   UNL     1       8.897   1.312  23.296  1.00  0.00    -0.237 OA
ATOM     92  O   UNL     1       9.470  -0.989  22.630  1.00  0.00    -0.237 OA
ATOM     93  O   UNL     1      10.586   0.917  21.549  1.00  0.00    -0.744 OA
ENDBRANCH  87  90
ENDBRANCH  60  83
ENDBRANCH  34  35
ENDBRANCH  26  29
ENDBRANCH  24  25
ENDBRANCH  23  24
ENDBRANCH   1  23
TORSDOF 18
