REMARK SMILES Cc1cccc2c1[C@H]1c3c(C)cccc3[C@H](CC(=O)NCCCCCCNC(=O)c3ccc(-c4c5nc(c(-c6cccc(S(=O)(=O)[O-])c6F)c6ccc([nH]6)c(-c6cccc(S(=O)(=O)[O-])c6F)c6nc(c(-c7cccc(S(=O)(=O)[O-])c7F)c7ccc4[nH]7)C=C6)C=C5)cc3)C[C@H]1CC2
REMARK SMILES IDX 24 1 23 2 22 3 21 4 20 5 18 6 19 7 17 9 16 10 1 11 2 12 3 13
REMARK SMILES IDX 7 14 4 15 6 16 8 17 5 18 96 19 9 20 94 21 95 22 10 23 15 24
REMARK SMILES IDX 93 25 12 26 11 27 14 28 13 29 25 30 26 31 27 32 28 33 29 35
REMARK SMILES IDX 30 36 31 37 92 38 32 39 91 40 33 41 34 42 35 43 85 44 36 45
REMARK SMILES IDX 90 46 84 47 86 48 37 49 89 50 83 51 82 52 38 54 70 55 50 56
REMARK SMILES IDX 69 57 51 58 54 59 68 60 87 61 52 62 53 63 67 65 88 66 55 67
REMARK SMILES IDX 39 68 40 69 48 70 41 71 43 72 49 73 42 74 44 75 45 76 46 77
REMARK SMILES IDX 47 78 71 79 72 80 80 81 73 82 75 83 81 84 74 85 76 86 77 87
REMARK SMILES IDX 78 88 79 89 56 90 57 91 65 92 58 93 60 94 66 95 59 96 61 97
REMARK SMILES IDX 62 98 63 99 64 100
REMARK H PARENT 20 8 27 34 86 53 54 64
REMARK Flexibility Score: inf
ROOT
ATOM      1  C   UNL     1      -0.084  -4.257   0.054  1.00  0.00     0.002 C 
ENDROOT
BRANCH   1   2
ATOM      2  C   UNL     1      -0.773  -2.895   0.133  1.00  0.00     0.002 C 
BRANCH   2   3
ATOM      3  C   UNL     1      -1.281  -2.329  -1.196  1.00  0.00     0.021 C 
BRANCH   3   4
ATOM      4  C   UNL     1      -2.387  -3.100  -1.896  1.00  0.00     0.116 C 
BRANCH   4   5
ATOM      5  N   UNL     1      -3.638  -3.063  -1.165  1.00  0.00    -0.356 N 
ATOM      6  C   UNL     1      -4.722  -2.254  -1.321  1.00  0.00     0.220 C 
ATOM      7  O   UNL     1      -5.754  -2.547  -0.709  1.00  0.00    -0.275 OA
ATOM      8  H   UNL     1      -3.716  -3.727  -0.442  1.00  0.00     0.163 HD
BRANCH   6   9
ATOM      9  C   UNL     1      -4.681  -1.035  -2.235  1.00  0.00     0.108 C 
BRANCH   9  10
ATOM     10  C   UNL     1      -4.235   0.335  -1.633  1.00  0.00     0.029 C 
ATOM     11  C   UNL     1       1.468   0.714  -0.345  1.00  0.00     0.044 C 
ATOM     12  C   UNL     1       0.804   1.980   0.135  1.00  0.00    -0.047 A 
ATOM     13  C   UNL     1       1.598   2.861   0.889  1.00  0.00     0.004 A 
ATOM     14  C   UNL     1      -0.551   2.316  -0.112  1.00  0.00    -0.034 A 
ATOM     15  C   UNL     1       1.102   4.092   1.303  1.00  0.00     0.001 A 
ATOM     16  C   UNL     1      -0.985   3.631   0.155  1.00  0.00    -0.044 A 
ATOM     17  C   UNL     1      -1.566   1.320  -0.660  1.00  0.00     0.053 C 
ATOM     18  C   UNL     1      -0.166   4.494   0.898  1.00  0.00     0.004 A 
ATOM     19  C   UNL     1      -2.247   4.196  -0.457  1.00  0.00     0.036 C 
ATOM     20  C   UNL     1      -2.581   0.697   0.338  1.00  0.00    -0.034 A 
ATOM     21  C   UNL     1      -2.306   2.023  -1.820  1.00  0.00     0.002 C 
ATOM     22  C   UNL     1      -3.090   3.244  -1.313  1.00  0.00     0.009 C 
ATOM     23  C   UNL     1      -2.309   0.404   1.702  1.00  0.00    -0.047 A 
ATOM     24  C   UNL     1      -3.868   0.330  -0.153  1.00  0.00    -0.040 A 
ATOM     25  C   UNL     1      -3.172   0.986  -2.538  1.00  0.00     0.013 C 
ATOM     26  C   UNL     1      -3.341  -0.046   2.552  1.00  0.00     0.004 A 
ATOM     27  C   UNL     1      -0.957   0.511   2.345  1.00  0.00     0.044 C 
ATOM     28  C   UNL     1      -4.890  -0.042   0.744  1.00  0.00     0.004 A 
ATOM     29  C   UNL     1      -4.630  -0.233   2.087  1.00  0.00     0.001 A 
ENDBRANCH   9  10
ENDBRANCH   6   9
ENDBRANCH   4   5
ENDBRANCH   3   4
ENDBRANCH   2   3
ENDBRANCH   1   2
BRANCH   1  30
ATOM     30  C   UNL     1       0.985  -4.392  -1.033  1.00  0.00     0.021 C 
BRANCH  30  31
ATOM     31  C   UNL     1       2.082  -3.332  -0.999  1.00  0.00     0.116 C 
BRANCH  31  32
ATOM     32  N   UNL     1       2.953  -3.475   0.156  1.00  0.00    -0.352 N 
ATOM     33  C   UNL     1       4.280  -3.829   0.180  1.00  0.00     0.251 C 
ATOM     34  H   UNL     1       2.539  -3.296   1.031  1.00  0.00     0.163 HD
ATOM     35  O   UNL     1       4.845  -4.079   1.240  1.00  0.00    -0.269 OA
BRANCH  33  36
ATOM     36  C   UNL     1       5.016  -3.922  -1.096  1.00  0.00     0.039 A 
ATOM     37  C   UNL     1       5.618  -5.132  -1.449  1.00  0.00     0.014 A 
ATOM     38  C   UNL     1       5.074  -2.817  -1.952  1.00  0.00     0.014 A 
ATOM     39  C   UNL     1       6.241  -5.251  -2.693  1.00  0.00     0.010 A 
ATOM     40  C   UNL     1       5.657  -2.953  -3.208  1.00  0.00     0.010 A 
ATOM     41  C   UNL     1       6.250  -4.168  -3.587  1.00  0.00    -0.014 A 
BRANCH  41  42
ATOM     42  C   UNL     1       6.897  -4.274  -4.916  1.00  0.00     0.031 A 
ATOM     43  C   UNL     1       8.160  -3.507  -5.189  1.00  0.00     0.074 A 
ATOM     44  C   UNL     1       6.315  -4.992  -5.895  1.00  0.00     0.049 A 
ATOM     45  N   UNL     1       8.835  -3.408  -6.304  1.00  0.00    -0.248 NA
ATOM     46  C   UNL     1       8.731  -2.740  -4.069  1.00  0.00     0.031 C 
ATOM     47  C   UNL     1       5.061  -5.737  -5.767  1.00  0.00     0.029 A 
ATOM     48  N   UNL     1       6.688  -5.189  -7.202  1.00  0.00    -0.354 N 
ATOM     49  C   UNL     1       9.890  -2.548  -6.030  1.00  0.00     0.074 A 
ATOM     50  C   UNL     1       9.760  -2.138  -4.649  1.00  0.00     0.031 C 
ATOM     51  C   UNL     1       4.764  -6.300  -6.951  1.00  0.00     0.029 A 
ATOM     52  C   UNL     1       5.793  -5.941  -7.924  1.00  0.00     0.049 A 
ATOM     53  H   UNL     1       7.519  -4.825  -7.585  1.00  0.00     0.167 HD
ATOM     54  C   UNL     1      10.893  -2.155  -6.848  1.00  0.00     0.034 A 
ATOM     55  C   UNL     1       5.795  -6.295  -9.225  1.00  0.00     0.034 A 
ATOM     56  C   UNL     1      11.051  -2.599  -8.205  1.00  0.00     0.049 A 
ATOM     57  C   UNL     1       6.939  -5.872 -10.104  1.00  0.00     0.074 A 
ATOM     58  C   UNL     1      12.078  -2.309  -9.085  1.00  0.00     0.029 A 
ATOM     59  N   UNL     1      10.163  -3.421  -8.877  1.00  0.00    -0.354 N 
ATOM     60  N   UNL     1       7.990  -5.154  -9.794  1.00  0.00    -0.248 NA
ATOM     61  C   UNL     1       6.914  -6.329 -11.502  1.00  0.00     0.031 C 
ATOM     62  C   UNL     1      11.808  -2.953 -10.295  1.00  0.00     0.029 A 
ATOM     63  C   UNL     1      10.619  -3.651 -10.163  1.00  0.00     0.049 A 
ATOM     64  H   UNL     1       9.332  -3.788  -8.497  1.00  0.00     0.167 HD
ATOM     65  C   UNL     1       8.766  -5.096 -10.946  1.00  0.00     0.074 A 
ATOM     66  C   UNL     1       8.069  -5.859 -11.960  1.00  0.00     0.031 C 
ATOM     67  C   UNL     1       9.943  -4.456 -11.146  1.00  0.00     0.034 A 
BRANCH  54  68
ATOM     68  C   UNL     1      11.946  -1.245  -6.285  1.00  0.00     0.023 A 
ATOM     69  C   UNL     1      12.959  -1.791  -5.474  1.00  0.00     0.012 A 
ATOM     70  C   UNL     1      11.994   0.115  -6.643  1.00  0.00     0.148 A 
ATOM     71  C   UNL     1      14.007  -0.993  -5.019  1.00  0.00     0.002 A 
ATOM     72  C   UNL     1      13.057   0.898  -6.211  1.00  0.00     0.091 A 
ATOM     73  F   UNL     1      11.008   0.609  -7.405  1.00  0.00    -0.205 F 
ATOM     74  C   UNL     1      14.062   0.347  -5.397  1.00  0.00     0.022 A 
BRANCH  72  75
ATOM     75  S   UNL     1      13.255   2.619  -6.683  1.00  0.00     0.127 S 
ATOM     76  O   UNL     1      13.174   3.291  -5.386  1.00  0.00    -0.237 OA
ATOM     77  O   UNL     1      14.586   2.618  -7.289  1.00  0.00    -0.237 OA
ATOM     78  O   UNL     1      12.162   2.916  -7.598  1.00  0.00    -0.744 OA
ENDBRANCH  72  75
ENDBRANCH  54  68
BRANCH  55  79
ATOM     79  C   UNL     1       4.699  -7.152  -9.751  1.00  0.00     0.023 A 
ATOM     80  C   UNL     1       4.947  -8.518  -9.987  1.00  0.00     0.012 A 
ATOM     81  C   UNL     1       3.405  -6.638  -9.958  1.00  0.00     0.148 A 
ATOM     82  C   UNL     1       3.925  -9.357 -10.433  1.00  0.00     0.002 A 
ATOM     83  C   UNL     1       2.382  -7.487 -10.365  1.00  0.00     0.091 A 
ATOM     84  F   UNL     1       3.198  -5.334  -9.728  1.00  0.00    -0.205 F 
ATOM     85  C   UNL     1       2.643  -8.845 -10.613  1.00  0.00     0.022 A 
BRANCH  83  86
ATOM     86  S   UNL     1       0.677  -6.946 -10.524  1.00  0.00     0.127 S 
ATOM     87  O   UNL     1       0.434  -7.137 -11.952  1.00  0.00    -0.237 OA
ATOM     88  O   UNL     1      -0.018  -7.891  -9.649  1.00  0.00    -0.237 OA
ATOM     89  O   UNL     1       0.653  -5.565 -10.064  1.00  0.00    -0.744 OA
ENDBRANCH  83  86
ENDBRANCH  55  79
BRANCH  67  90
ATOM     90  C   UNL     1      10.586  -4.556 -12.501  1.00  0.00     0.023 A 
ATOM     91  C   UNL     1      10.110  -3.751 -13.553  1.00  0.00     0.012 A 
ATOM     92  C   UNL     1      11.740  -5.341 -12.690  1.00  0.00     0.148 A 
ATOM     93  C   UNL     1      10.771  -3.732 -14.781  1.00  0.00     0.002 A 
ATOM     94  C   UNL     1      12.413  -5.291 -13.904  1.00  0.00     0.091 A 
ATOM     95  F   UNL     1      12.165  -6.105 -11.674  1.00  0.00    -0.205 F 
ATOM     96  C   UNL     1      11.927  -4.491 -14.952  1.00  0.00     0.022 A 
BRANCH  94  97
ATOM     97  S   UNL     1      13.954  -6.169 -14.193  1.00  0.00     0.127 S 
ATOM     98  O   UNL     1      13.538  -7.190 -15.153  1.00  0.00    -0.237 OA
ATOM     99  O   UNL     1      14.809  -5.120 -14.749  1.00  0.00    -0.237 OA
ATOM    100  O   UNL     1      14.380  -6.673 -12.894  1.00  0.00    -0.744 OA
ENDBRANCH  94  97
ENDBRANCH  67  90
ENDBRANCH  41  42
ENDBRANCH  33  36
ENDBRANCH  31  32
ENDBRANCH  30  31
ENDBRANCH   1  30
TORSDOF 17
