REMARK SMILES C[NH+]1CCN(C(=O)c2ccc3c(c2)N(CC(=O)NCCCCCCNC(=O)c2ccc(-c4c5nc(c(-c6cccc(S(=O)(=O)[O-])c6F)c6ccc([nH]6)c(-c6cccc(S(=O)(=O)[O-])c6F)c6nc(c(-c7cccc(S(=O)(=O)[O-])c7F)c7ccc4[nH]7)C=C6)C=C5)cc2)C(=O)CO3)CC1
REMARK SMILES IDX 22 1 21 2 20 3 19 4 18 5 16 6 17 7 15 9 14 10 8 11 9 12
REMARK SMILES IDX 13 13 10 14 12 15 11 16 94 17 91 18 93 19 92 20 6 21 1 22
REMARK SMILES IDX 2 23 3 24 96 25 4 27 95 28 5 29 7 30 23 31 24 32 25 33 26 34
REMARK SMILES IDX 27 36 28 37 29 38 90 39 30 40 89 41 31 42 32 43 33 44 83 45
REMARK SMILES IDX 34 46 88 47 82 48 84 49 35 50 87 51 81 52 80 53 36 55 68 56
REMARK SMILES IDX 48 57 67 58 49 59 52 60 66 61 85 62 50 63 51 64 65 66 86 67
REMARK SMILES IDX 53 68 37 69 38 70 46 71 39 72 41 73 47 74 40 75 42 76 43 77
REMARK SMILES IDX 44 78 45 79 69 80 70 81 78 82 71 83 73 84 79 85 72 86 74 87
REMARK SMILES IDX 75 88 76 89 77 90 54 91 55 92 63 93 56 94 58 95 64 96 57 97
REMARK SMILES IDX 59 98 60 99 61 100 62 101
REMARK H PARENT 18 8 2 26 25 35 84 54 52 65
REMARK Flexibility Score: inf
ROOT
ATOM      1  C   UNL     1      -0.694  -7.909  -1.078  1.00  0.00     0.002 C 
ENDROOT
BRANCH   1   2
ATOM      2  C   UNL     1      -1.629  -6.696  -1.000  1.00  0.00     0.002 C 
BRANCH   2   3
ATOM      3  C   UNL     1      -2.423  -6.569   0.307  1.00  0.00     0.021 C 
BRANCH   3   4
ATOM      4  C   UNL     1      -1.552  -6.543   1.562  1.00  0.00     0.116 C 
BRANCH   4   5
ATOM      5  N   UNL     1      -0.774  -5.323   1.642  1.00  0.00    -0.355 N 
ATOM      6  C   UNL     1      -0.884  -4.283   2.514  1.00  0.00     0.240 C 
ATOM      7  O   UNL     1      -0.041  -3.383   2.438  1.00  0.00    -0.273 OA
ATOM      8  H   UNL     1      -0.062  -5.233   0.967  1.00  0.00     0.163 HD
BRANCH   6   9
ATOM      9  C   UNL     1      -1.952  -4.263   3.615  1.00  0.00     0.225 C 
BRANCH   9  10
ATOM     10  N   UNL     1      -3.336  -4.357   3.147  1.00  0.00    -0.296 N 
ATOM     11  C   UNL     1      -3.783  -1.279   1.056  1.00  0.00     0.042 A 
ATOM     12  C   UNL     1      -5.007  -1.549   0.443  1.00  0.00     0.018 A 
ATOM     13  C   UNL     1      -3.240  -2.172   1.991  1.00  0.00     0.044 A 
ATOM     14  C   UNL     1      -5.669  -2.739   0.733  1.00  0.00     0.049 A 
ATOM     15  C   UNL     1      -3.891  -3.381   2.274  1.00  0.00     0.087 A 
ATOM     16  C   UNL     1      -5.118  -3.643   1.645  1.00  0.00     0.143 A 
ATOM     17  O   UNL     1      -5.820  -4.803   1.809  1.00  0.00    -0.482 OA
ATOM     18  C   UNL     1      -4.110  -5.431   3.566  1.00  0.00     0.265 C 
ATOM     19  C   UNL     1      -5.530  -5.474   3.018  1.00  0.00     0.330 C 
ATOM     20  O   UNL     1      -3.713  -6.278   4.367  1.00  0.00    -0.270 OA
BRANCH  11  21
ATOM     21  C   UNL     1      -3.103  -0.005   0.739  1.00  0.00     0.254 C 
ATOM     22  C   UNL     1       2.451   0.076   0.064  1.00  0.00     0.332 C 
ATOM     23  N   UNL     1       1.046   0.066  -0.340  1.00  0.00    -0.334 N 
ATOM     24  C   UNL     1       0.334   1.235   0.223  1.00  0.00     0.283 C 
ATOM     25  C   UNL     1       0.389  -1.173   0.133  1.00  0.00     0.283 C 
ATOM     26  H   UNL     1       1.007   0.108  -1.358  1.00  0.00     0.347 HD
ATOM     27  C   UNL     1      -1.168   1.236  -0.126  1.00  0.00     0.181 C 
ATOM     28  C   UNL     1      -1.097  -1.219  -0.268  1.00  0.00     0.181 C 
ATOM     29  N   UNL     1      -1.817  -0.032   0.215  1.00  0.00    -0.327 N 
ATOM     30  O   UNL     1      -3.731   1.030   0.947  1.00  0.00    -0.269 OA
ENDBRANCH  11  21
ENDBRANCH   9  10
ENDBRANCH   6   9
ENDBRANCH   4   5
ENDBRANCH   3   4
ENDBRANCH   2   3
ENDBRANCH   1   2
BRANCH   1  31
ATOM     31  C   UNL     1      -1.365  -9.261  -0.822  1.00  0.00     0.021 C 
BRANCH  31  32
ATOM     32  C   UNL     1      -2.476  -9.611  -1.805  1.00  0.00     0.116 C 
BRANCH  32  33
ATOM     33  N   UNL     1      -1.974  -9.754  -3.164  1.00  0.00    -0.352 N 
ATOM     34  C   UNL     1      -2.123 -10.804  -4.035  1.00  0.00     0.251 C 
ATOM     35  H   UNL     1      -1.454  -8.991  -3.506  1.00  0.00     0.163 HD
ATOM     36  O   UNL     1      -1.456 -10.842  -5.068  1.00  0.00    -0.269 OA
BRANCH  34  37
ATOM     37  C   UNL     1      -3.075 -11.891  -3.723  1.00  0.00     0.039 A 
ATOM     38  C   UNL     1      -2.688 -13.216  -3.936  1.00  0.00     0.014 A 
ATOM     39  C   UNL     1      -4.351 -11.602  -3.231  1.00  0.00     0.014 A 
ATOM     40  C   UNL     1      -3.564 -14.254  -3.610  1.00  0.00     0.010 A 
ATOM     41  C   UNL     1      -5.191 -12.638  -2.832  1.00  0.00     0.010 A 
ATOM     42  C   UNL     1      -4.814 -13.975  -3.032  1.00  0.00    -0.014 A 
BRANCH  42  43
ATOM     43  C   UNL     1      -5.747 -15.064  -2.644  1.00  0.00     0.031 A 
ATOM     44  C   UNL     1      -7.099 -15.167  -3.301  1.00  0.00     0.074 A 
ATOM     45  C   UNL     1      -5.412 -15.913  -1.653  1.00  0.00     0.049 A 
ATOM     46  N   UNL     1      -8.073 -16.005  -3.056  1.00  0.00    -0.248 NA
ATOM     47  C   UNL     1      -7.408 -14.184  -4.354  1.00  0.00     0.031 C 
ATOM     48  C   UNL     1      -4.161 -15.875  -0.892  1.00  0.00     0.029 A 
ATOM     49  N   UNL     1      -6.105 -16.960  -1.097  1.00  0.00    -0.354 N 
ATOM     50  C   UNL     1      -9.117 -15.631  -3.895  1.00  0.00     0.074 A 
ATOM     51  C   UNL     1      -8.673 -14.466  -4.628  1.00  0.00     0.031 C 
ATOM     52  C   UNL     1      -4.173 -16.856   0.026  1.00  0.00     0.029 A 
ATOM     53  C   UNL     1      -5.443 -17.570  -0.056  1.00  0.00     0.049 A 
ATOM     54  H   UNL     1      -6.992 -17.247  -1.414  1.00  0.00     0.167 HD
ATOM     55  C   UNL     1     -10.324 -16.221  -4.064  1.00  0.00     0.034 A 
ATOM     56  C   UNL     1      -5.822 -18.583   0.748  1.00  0.00     0.034 A 
ATOM     57  C   UNL     1     -10.748 -17.402  -3.362  1.00  0.00     0.049 A 
ATOM     58  C   UNL     1      -7.161 -19.233   0.522  1.00  0.00     0.074 A 
ATOM     59  C   UNL     1     -11.921 -18.118  -3.515  1.00  0.00     0.029 A 
ATOM     60  N   UNL     1     -10.017 -18.038  -2.371  1.00  0.00    -0.354 N 
ATOM     61  N   UNL     1      -8.075 -18.953  -0.375  1.00  0.00    -0.248 NA
ATOM     62  C   UNL     1      -7.505 -20.366   1.394  1.00  0.00     0.031 C 
ATOM     63  C   UNL     1     -11.913 -19.171  -2.596  1.00  0.00     0.029 A 
ATOM     64  C   UNL     1     -10.716 -19.134  -1.899  1.00  0.00     0.049 A 
ATOM     65  H   UNL     1      -9.131 -17.752  -2.051  1.00  0.00     0.167 HD
ATOM     66  C   UNL     1      -9.078 -19.901  -0.206  1.00  0.00     0.074 A 
ATOM     67  C   UNL     1      -8.652 -20.773   0.868  1.00  0.00     0.031 C 
ATOM     68  C   UNL     1     -10.252 -20.030  -0.872  1.00  0.00     0.034 A 
BRANCH  55  69
ATOM     69  C   UNL     1     -11.259 -15.627  -5.087  1.00  0.00     0.023 A 
ATOM     70  C   UNL     1     -10.959 -15.748  -6.459  1.00  0.00     0.012 A 
ATOM     71  C   UNL     1     -12.465 -15.012  -4.696  1.00  0.00     0.148 A 
ATOM     72  C   UNL     1     -11.824 -15.237  -7.425  1.00  0.00     0.002 A 
ATOM     73  C   UNL     1     -13.346 -14.548  -5.666  1.00  0.00     0.091 A 
ATOM     74  F   UNL     1     -12.725 -14.890  -3.387  1.00  0.00    -0.205 F 
ATOM     75  C   UNL     1     -13.021 -14.648  -7.029  1.00  0.00     0.022 A 
BRANCH  73  76
ATOM     76  S   UNL     1     -14.950 -13.847  -5.266  1.00  0.00     0.127 S 
ATOM     77  O   UNL     1     -14.770 -12.451  -5.662  1.00  0.00    -0.237 OA
ATOM     78  O   UNL     1     -15.844 -14.616  -6.132  1.00  0.00    -0.237 OA
ATOM     79  O   UNL     1     -15.143 -14.068  -3.840  1.00  0.00    -0.744 OA
ENDBRANCH  73  76
ENDBRANCH  55  69
BRANCH  56  80
ATOM     80  C   UNL     1      -4.903 -19.086   1.809  1.00  0.00     0.023 A 
ATOM     81  C   UNL     1      -4.342 -20.373   1.687  1.00  0.00     0.012 A 
ATOM     82  C   UNL     1      -4.585 -18.303   2.935  1.00  0.00     0.148 A 
ATOM     83  C   UNL     1      -3.517 -20.888   2.688  1.00  0.00     0.002 A 
ATOM     84  C   UNL     1      -3.716 -18.800   3.900  1.00  0.00     0.091 A 
ATOM     85  F   UNL     1      -5.135 -17.086   3.039  1.00  0.00    -0.205 F 
ATOM     86  C   UNL     1      -3.198 -20.100   3.790  1.00  0.00     0.022 A 
BRANCH  84  87
ATOM     87  S   UNL     1      -3.150 -17.809   5.286  1.00  0.00     0.127 S 
ATOM     88  O   UNL     1      -3.836 -18.444   6.409  1.00  0.00    -0.237 OA
ATOM     89  O   UNL     1      -1.703 -18.029   5.243  1.00  0.00    -0.237 OA
ATOM     90  O   UNL     1      -3.557 -16.443   4.985  1.00  0.00    -0.744 OA
ENDBRANCH  84  87
ENDBRANCH  56  80
BRANCH  68  91
ATOM     91  C   UNL     1     -11.140 -21.192  -0.508  1.00  0.00     0.023 A 
ATOM     92  C   UNL     1     -11.828 -21.202   0.721  1.00  0.00     0.012 A 
ATOM     93  C   UNL     1     -11.348 -22.242  -1.426  1.00  0.00     0.148 A 
ATOM     94  C   UNL     1     -12.680 -22.256   1.047  1.00  0.00     0.002 A 
ATOM     95  C   UNL     1     -12.240 -23.261  -1.117  1.00  0.00     0.091 A 
ATOM     96  F   UNL     1     -10.671 -22.223  -2.583  1.00  0.00    -0.205 F 
ATOM     97  C   UNL     1     -12.896 -23.278   0.125  1.00  0.00     0.022 A 
BRANCH  95  98
ATOM     98  S   UNL     1     -12.658 -24.562  -2.282  1.00  0.00     0.127 S 
ATOM     99  O   UNL     1     -12.010 -25.724  -1.676  1.00  0.00    -0.237 OA
ATOM    100  O   UNL     1     -14.120 -24.576  -2.219  1.00  0.00    -0.237 OA
ATOM    101  O   UNL     1     -12.112 -24.143  -3.566  1.00  0.00    -0.744 OA
ENDBRANCH  95  98
ENDBRANCH  68  91
ENDBRANCH  42  43
ENDBRANCH  34  37
ENDBRANCH  32  33
ENDBRANCH  31  32
ENDBRANCH   1  31
TORSDOF 18
