REMARK SMILES C/C=C(\C)[C@@H]1C=C[C@@H]2C[C@H](C)C[C@H](C)[C@@H]2[C@@H]1C(=O)C1=C(NCCCCCCNC(=O)c2ccc(-c3c4nc(c(-c5cccc(S(=O)(=O)[O-])c5F)c5ccc([nH]5)c(-c5cccc(S(=O)(=O)[O-])c5F)c5nc(c(-c6cccc(S(=O)(=O)[O-])c6F)c6ccc3[nH]6)C=C5)C=C4)cc2)[C@H](C[C@](C)(O)C(=O)[O-])NC1=O
REMARK SMILES IDX 24 1 23 2 22 3 21 4 20 6 19 7 103 8 94 9 102 10 104 11 17 13
REMARK SMILES IDX 18 14 16 15 5 16 6 17 7 18 15 19 8 20 13 21 9 22 12 23 14 24
REMARK SMILES IDX 10 25 11 26 3 27 1 28 2 29 4 30 95 31 96 32 97 33 98 34
REMARK SMILES IDX 99 36 100 37 101 38 25 39 26 40 27 41 28 42 29 43 30 45
REMARK SMILES IDX 31 46 32 47 93 48 33 49 92 50 34 51 35 52 36 53 86 54 37 55
REMARK SMILES IDX 91 56 85 57 87 58 38 59 90 60 84 61 83 62 39 64 71 65 51 66
REMARK SMILES IDX 70 67 52 68 55 69 69 70 88 71 53 72 54 73 68 75 89 76 56 77
REMARK SMILES IDX 40 78 41 79 49 80 42 81 44 82 50 83 43 84 45 85 46 86 47 87
REMARK SMILES IDX 48 88 72 89 73 90 81 91 74 92 76 93 82 94 75 95 77 96 78 97
REMARK SMILES IDX 79 98 80 99 57 100 58 101 66 102 59 103 61 104 67 105 60 106
REMARK SMILES IDX 62 107 63 108 64 109 65 110
REMARK H PARENT 21 5 102 12 98 35 28 44 87 63 55 74
REMARK Flexibility Score: inf
ROOT
ATOM      1  C   UNL     1       1.645   8.615  -8.515  1.00  0.00     0.002 C 
ENDROOT
BRANCH   1   2
ATOM      2  C   UNL     1       1.165   9.521  -7.371  1.00  0.00     0.021 C 
BRANCH   2   3
ATOM      3  C   UNL     1      -0.308   9.932  -7.421  1.00  0.00     0.112 C 
BRANCH   3   4
ATOM      4  N   UNL     1      -1.136   8.758  -7.583  1.00  0.00    -0.386 N 
ATOM      5  H   UNL     1      -1.123   8.379  -8.491  1.00  0.00     0.160 HD
BRANCH   4   6
ATOM      6  C   UNL     1      -1.943   8.070  -6.697  1.00  0.00     0.050 C 
ATOM      7  C   UNL     1      -2.389   8.342  -5.449  1.00  0.00     0.104 C 
ATOM      8  C   UNL     1      -3.279   7.211  -5.088  1.00  0.00     0.257 C 
ATOM      9  C   UNL     1      -2.392   6.682  -7.153  1.00  0.00     0.133 C 
ATOM     10  N   UNL     1      -3.232   6.282  -6.086  1.00  0.00    -0.343 N 
ATOM     11  O   UNL     1      -3.987   7.050  -4.108  1.00  0.00    -0.269 OA
ATOM     12  H   UNL     1      -3.725   5.430  -6.067  1.00  0.00     0.164 HD
BRANCH   7  13
ATOM     13  C   UNL     1      -2.198   9.619  -4.721  1.00  0.00     0.174 C 
ATOM     14  O   UNL     1      -2.707  10.623  -5.235  1.00  0.00    -0.294 OA
BRANCH  13  15
ATOM     15  C   UNL     1      -1.330   9.784  -3.441  1.00  0.00     0.076 C 
ATOM     16  C   UNL     1      -0.528   8.545  -2.923  1.00  0.00     0.048 C 
ATOM     17  C   UNL     1      -1.441   7.546  -2.252  1.00  0.00    -0.022 C 
ATOM     18  C   UNL     1      -2.618   7.906  -1.707  1.00  0.00    -0.027 C 
ATOM     19  C   UNL     1      -2.104  10.334  -2.172  1.00  0.00     0.010 C 
ATOM     20  C   UNL     1      -3.159   9.325  -1.680  1.00  0.00     0.016 C 
ATOM     21  C   UNL     1      -2.683  11.765  -2.099  1.00  0.00    -0.010 C 
ATOM     22  C   UNL     1      -4.478   9.470  -2.453  1.00  0.00     0.011 C 
ATOM     23  C   UNL     1      -3.999  11.972  -2.843  1.00  0.00     0.007 C 
ATOM     24  C   UNL     1      -1.663  12.848  -2.442  1.00  0.00     0.008 C 
ATOM     25  C   UNL     1      -5.047  10.890  -2.553  1.00  0.00    -0.013 C 
ATOM     26  C   UNL     1      -6.115  10.917  -3.657  1.00  0.00     0.007 C 
BRANCH  16  27
ATOM     27  C   UNL     1       0.599   7.959  -3.785  1.00  0.00    -0.070 C 
ATOM     28  C   UNL     1       3.097   7.993  -4.341  1.00  0.00     0.035 C 
ATOM     29  C   UNL     1       1.851   8.459  -3.649  1.00  0.00    -0.031 C 
ATOM     30  C   UNL     1       0.365   6.752  -4.653  1.00  0.00     0.040 C 
ENDBRANCH  16  27
ENDBRANCH  13  15
ENDBRANCH   7  13
BRANCH   9  31
ATOM     31  C   UNL     1      -3.113   6.656  -8.505  1.00  0.00     0.072 C 
BRANCH  31  32
ATOM     32  C   UNL     1      -3.113   5.278  -9.193  1.00  0.00     0.103 C 
ATOM     33  C   UNL     1      -1.743   4.596  -9.217  1.00  0.00     0.049 C 
BRANCH  32  34
ATOM     34  O   UNL     1      -3.464   5.497 -10.568  1.00  0.00    -0.384 OA
ATOM     35  H   UNL     1      -3.475   4.649 -11.038  1.00  0.00     0.211 HD
ENDBRANCH  32  34
BRANCH  32  36
ATOM     36  C   UNL     1      -4.135   4.369  -8.491  1.00  0.00     0.073 C 
ATOM     37  O   UNL     1      -3.967   3.747  -7.454  1.00  0.00    -0.547 OA
ATOM     38  O   UNL     1      -5.343   4.376  -9.096  1.00  0.00    -0.547 OA
ENDBRANCH  32  36
ENDBRANCH  31  32
ENDBRANCH   9  31
ENDBRANCH   4   6
ENDBRANCH   3   4
ENDBRANCH   2   3
ENDBRANCH   1   2
BRANCH   1  39
ATOM     39  C   UNL     1       1.546   9.226  -9.914  1.00  0.00     0.002 C 
BRANCH  39  40
ATOM     40  C   UNL     1       2.282  10.555 -10.090  1.00  0.00     0.021 C 
BRANCH  40  41
ATOM     41  C   UNL     1       3.748  10.543  -9.666  1.00  0.00     0.116 C 
BRANCH  41  42
ATOM     42  N   UNL     1       4.550   9.628 -10.464  1.00  0.00    -0.352 N 
ATOM     43  C   UNL     1       5.789   9.848 -11.014  1.00  0.00     0.251 C 
ATOM     44  H   UNL     1       4.155   8.741 -10.630  1.00  0.00     0.163 HD
ATOM     45  O   UNL     1       6.283   9.036 -11.789  1.00  0.00    -0.269 OA
BRANCH  43  46
ATOM     46  C   UNL     1       6.510  11.092 -10.675  1.00  0.00     0.039 A 
ATOM     47  C   UNL     1       6.970  11.913 -11.706  1.00  0.00     0.014 A 
ATOM     48  C   UNL     1       6.696  11.457  -9.338  1.00  0.00     0.014 A 
ATOM     49  C   UNL     1       7.577  13.132 -11.396  1.00  0.00     0.010 A 
ATOM     50  C   UNL     1       7.254  12.695  -9.033  1.00  0.00     0.010 A 
ATOM     51  C   UNL     1       7.703  13.542 -10.058  1.00  0.00    -0.014 A 
BRANCH  51  52
ATOM     52  C   UNL     1       8.294  14.858  -9.712  1.00  0.00     0.031 A 
ATOM     53  C   UNL     1       9.600  14.929  -8.971  1.00  0.00     0.074 A 
ATOM     54  C   UNL     1       7.611  15.987  -9.988  1.00  0.00     0.049 A 
ATOM     55  N   UNL     1      10.253  15.982  -8.553  1.00  0.00    -0.248 NA
ATOM     56  C   UNL     1      10.245  13.650  -8.632  1.00  0.00     0.031 C 
ATOM     57  C   UNL     1       6.292  16.043 -10.621  1.00  0.00     0.029 A 
ATOM     58  N   UNL     1       7.918  17.302  -9.744  1.00  0.00    -0.354 N 
ATOM     59  C   UNL     1      11.363  15.496  -7.875  1.00  0.00     0.074 A 
ATOM     60  C   UNL     1      11.282  14.052  -7.911  1.00  0.00     0.031 C 
ATOM     61  C   UNL     1       5.902  17.325 -10.714  1.00  0.00     0.029 A 
ATOM     62  C   UNL     1       6.935  18.180 -10.136  1.00  0.00     0.049 A 
ATOM     63  H   UNL     1       8.763  17.589  -9.328  1.00  0.00     0.167 HD
ATOM     64  C   UNL     1      12.377  16.188  -7.302  1.00  0.00     0.034 A 
ATOM     65  C   UNL     1       6.875  19.523 -10.042  1.00  0.00     0.034 A 
ATOM     66  C   UNL     1      12.484  17.621  -7.320  1.00  0.00     0.049 A 
ATOM     67  C   UNL     1       8.047  20.270  -9.466  1.00  0.00     0.074 A 
ATOM     68  C   UNL     1      13.522  18.412  -6.859  1.00  0.00     0.029 A 
ATOM     69  N   UNL     1      11.521  18.479  -7.825  1.00  0.00    -0.354 N 
ATOM     70  N   UNL     1       9.174  19.794  -8.992  1.00  0.00    -0.248 NA
ATOM     71  C   UNL     1       7.961  21.737  -9.449  1.00  0.00     0.031 C 
ATOM     72  C   UNL     1      13.182  19.750  -7.081  1.00  0.00     0.029 A 
ATOM     73  C   UNL     1      11.936  19.792  -7.686  1.00  0.00     0.049 A 
ATOM     74  H   UNL     1      10.666  18.197  -8.224  1.00  0.00     0.167 HD
ATOM     75  C   UNL     1       9.942  20.902  -8.652  1.00  0.00     0.074 A 
ATOM     76  C   UNL     1       9.161  22.073  -8.994  1.00  0.00     0.031 C 
ATOM     77  C   UNL     1      11.174  20.945  -8.089  1.00  0.00     0.034 A 
BRANCH  64  78
ATOM     78  C   UNL     1      13.493  15.398  -6.672  1.00  0.00     0.023 A 
ATOM     79  C   UNL     1      14.421  14.736  -7.502  1.00  0.00     0.012 A 
ATOM     80  C   UNL     1      13.663  15.360  -5.275  1.00  0.00     0.148 A 
ATOM     81  C   UNL     1      15.485  14.024  -6.952  1.00  0.00     0.002 A 
ATOM     82  C   UNL     1      14.749  14.679  -4.735  1.00  0.00     0.091 A 
ATOM     83  F   UNL     1      12.757  15.974  -4.502  1.00  0.00    -0.205 F 
ATOM     84  C   UNL     1      15.655  14.004  -5.570  1.00  0.00     0.022 A 
BRANCH  82  85
ATOM     85  S   UNL     1      15.092  14.654  -2.971  1.00  0.00     0.127 S 
ATOM     86  O   UNL     1      14.692  13.295  -2.611  1.00  0.00    -0.237 OA
ATOM     87  O   UNL     1      16.536  14.894  -2.932  1.00  0.00    -0.237 OA
ATOM     88  O   UNL     1      14.287  15.721  -2.394  1.00  0.00    -0.744 OA
ENDBRANCH  82  85
ENDBRANCH  64  78
BRANCH  65  89
ATOM     89  C   UNL     1       5.697  20.252 -10.592  1.00  0.00     0.023 A 
ATOM     90  C   UNL     1       5.843  20.999 -11.777  1.00  0.00     0.012 A 
ATOM     91  C   UNL     1       4.433  20.180  -9.978  1.00  0.00     0.148 A 
ATOM     92  C   UNL     1       4.758  21.683 -12.326  1.00  0.00     0.002 A 
ATOM     93  C   UNL     1       3.344  20.821 -10.558  1.00  0.00     0.091 A 
ATOM     94  F   UNL     1       4.316  19.479  -8.841  1.00  0.00    -0.205 F 
ATOM     95  C   UNL     1       3.507  21.585 -11.724  1.00  0.00     0.022 A 
BRANCH  93  96
ATOM     96  S   UNL     1       1.675  20.633  -9.919  1.00  0.00     0.127 S 
ATOM     97  O   UNL     1       1.482  21.893  -9.208  1.00  0.00    -0.237 OA
ATOM     98  O   UNL     1       0.889  20.489 -11.145  1.00  0.00    -0.237 OA
ATOM     99  O   UNL     1       1.714  19.431  -9.095  1.00  0.00    -0.744 OA
ENDBRANCH  93  96
ENDBRANCH  65  89
BRANCH  77 100
ATOM    100  C   UNL     1      11.775  22.300  -7.825  1.00  0.00     0.023 A 
ATOM    101  C   UNL     1      11.300  23.071  -6.747  1.00  0.00     0.012 A 
ATOM    102  C   UNL     1      12.861  22.770  -8.588  1.00  0.00     0.148 A 
ATOM    103  C   UNL     1      11.881  24.302  -6.446  1.00  0.00     0.002 A 
ATOM    104  C   UNL     1      13.463  23.979  -8.257  1.00  0.00     0.091 A 
ATOM    105  F   UNL     1      13.284  22.032  -9.625  1.00  0.00    -0.205 F 
ATOM    106  C   UNL     1      12.969  24.750  -7.192  1.00  0.00     0.022 A 
BRANCH 104 107
ATOM    107  S   UNL     1      14.925  24.584  -9.109  1.00  0.00     0.127 S 
ATOM    108  O   UNL     1      14.357  25.605  -9.987  1.00  0.00    -0.237 OA
ATOM    109  O   UNL     1      15.736  25.107  -8.009  1.00  0.00    -0.237 OA
ATOM    110  O   UNL     1      15.500  23.425  -9.780  1.00  0.00    -0.744 OA
ENDBRANCH 104 107
ENDBRANCH  77 100
ENDBRANCH  51  52
ENDBRANCH  43  46
ENDBRANCH  41  42
ENDBRANCH  40  41
ENDBRANCH  39  40
ENDBRANCH   1  39
TORSDOF 23
