REMARK SMILES O=C(NCCCCCCNC(=O)[C@@H]1CCC(=O)N(CCCOC2CCCCC2)[C@H]1c1ccco1)c1ccc(-c2c3nc(c(-c4cccc(S(=O)(=O)[O-])c4F)c4ccc([nH]4)c(-c4cccc(S(=O)(=O)[O-])c4F)c4nc(c(-c5cccc(S(=O)(=O)[O-])c5F)c5ccc2[nH]5)C=C4)C=C3)cc1
REMARK SMILES IDX 7 1 6 2 5 3 4 4 3 5 1 6 2 7 35 9 36 10 97 11 37 12 96 13
REMARK SMILES IDX 38 14 39 15 40 16 90 17 41 18 95 19 89 20 91 21 42 22 94 23
REMARK SMILES IDX 88 24 87 25 43 27 75 28 55 29 74 30 56 31 59 32 73 33 92 34
REMARK SMILES IDX 57 35 58 36 72 38 93 39 60 40 44 41 45 42 53 43 46 44 48 45
REMARK SMILES IDX 54 46 47 47 49 48 50 49 51 50 52 51 76 52 77 53 85 54 78 55
REMARK SMILES IDX 80 56 86 57 79 58 81 59 82 60 83 61 84 62 61 63 62 64 70 65
REMARK SMILES IDX 63 66 65 67 71 68 64 69 66 70 67 71 68 72 69 73 8 74 9 75
REMARK SMILES IDX 10 76 11 77 12 79 13 80 14 81 29 82 15 83 18 84 16 85 17 86
REMARK SMILES IDX 30 87 31 88 34 89 32 90 33 91 19 92 20 93 21 94 22 95 23 96
REMARK SMILES IDX 24 97 28 98 25 99 27 100 26 101
REMARK H PARENT 3 8 91 26 59 37 10 78
REMARK Flexibility Score: inf
ROOT
ATOM      1  C   UNL     1       5.038  -3.148   3.078  1.00  0.00     0.002 C 
ENDROOT
BRANCH   1   2
ATOM      2  C   UNL     1       4.399  -1.800   3.433  1.00  0.00     0.002 C 
BRANCH   2   3
ATOM      3  C   UNL     1       4.782  -0.633   2.521  1.00  0.00     0.021 C 
BRANCH   3   4
ATOM      4  C   UNL     1       4.472  -0.843   1.042  1.00  0.00     0.116 C 
BRANCH   4   5
ATOM      5  N   UNL     1       3.045  -0.933   0.783  1.00  0.00    -0.352 N 
ATOM      6  O   UNL     1       1.030  -0.251   0.043  1.00  0.00    -0.269 OA
ATOM      7  C   UNL     1       2.256  -0.145  -0.018  1.00  0.00     0.251 C 
ATOM      8  H   UNL     1       2.576  -1.662   1.250  1.00  0.00     0.163 HD
BRANCH   7   9
ATOM      9  C   UNL     1       2.874   0.841  -0.930  1.00  0.00     0.039 A 
ATOM     10  C   UNL     1       3.971   0.491  -1.725  1.00  0.00     0.014 A 
ATOM     11  C   UNL     1       2.338   2.128  -1.002  1.00  0.00     0.014 A 
ATOM     12  C   UNL     1       4.608   1.460  -2.497  1.00  0.00     0.010 A 
ATOM     13  C   UNL     1       2.934   3.079  -1.833  1.00  0.00     0.010 A 
ATOM     14  C   UNL     1       4.090   2.762  -2.566  1.00  0.00    -0.014 A 
BRANCH  14  15
ATOM     15  C   UNL     1       4.719   3.777  -3.447  1.00  0.00     0.031 A 
ATOM     16  C   UNL     1       5.317   5.029  -2.872  1.00  0.00     0.074 A 
ATOM     17  C   UNL     1       4.686   3.596  -4.781  1.00  0.00     0.049 A 
ATOM     18  N   UNL     1       5.813   6.067  -3.494  1.00  0.00    -0.248 NA
ATOM     19  C   UNL     1       5.353   5.134  -1.405  1.00  0.00     0.031 C 
ATOM     20  C   UNL     1       4.104   2.435  -5.457  1.00  0.00     0.029 A 
ATOM     21  N   UNL     1       5.112   4.402  -5.807  1.00  0.00    -0.354 N 
ATOM     22  C   UNL     1       6.173   6.971  -2.502  1.00  0.00     0.074 A 
ATOM     23  C   UNL     1       5.836   6.357  -1.234  1.00  0.00     0.031 C 
ATOM     24  C   UNL     1       4.190   2.611  -6.783  1.00  0.00     0.029 A 
ATOM     25  C   UNL     1       4.778   3.919  -7.051  1.00  0.00     0.049 A 
ATOM     26  H   UNL     1       5.609   5.240  -5.667  1.00  0.00     0.167 HD
ATOM     27  C   UNL     1       6.733   8.198  -2.635  1.00  0.00     0.034 A 
ATOM     28  C   UNL     1       4.884   4.481  -8.270  1.00  0.00     0.034 A 
ATOM     29  C   UNL     1       7.071   8.794  -3.901  1.00  0.00     0.049 A 
ATOM     30  C   UNL     1       5.500   5.844  -8.396  1.00  0.00     0.074 A 
ATOM     31  C   UNL     1       7.708   9.998  -4.141  1.00  0.00     0.029 A 
ATOM     32  N   UNL     1       6.775   8.245  -5.140  1.00  0.00    -0.354 N 
ATOM     33  N   UNL     1       5.947   6.633  -7.451  1.00  0.00    -0.248 NA
ATOM     34  C   UNL     1       5.655   6.383  -9.755  1.00  0.00     0.031 C 
ATOM     35  C   UNL     1       7.756  10.198  -5.524  1.00  0.00     0.029 A 
ATOM     36  C   UNL     1       7.198   9.094  -6.148  1.00  0.00     0.049 A 
ATOM     37  H   UNL     1       6.330   7.378  -5.281  1.00  0.00     0.167 HD
ATOM     38  C   UNL     1       6.474   7.744  -8.099  1.00  0.00     0.074 A 
ATOM     39  C   UNL     1       6.290   7.524  -9.519  1.00  0.00     0.031 C 
ATOM     40  C   UNL     1       7.056   8.843  -7.561  1.00  0.00     0.034 A 
BRANCH  27  41
ATOM     41  C   UNL     1       7.015   8.979  -1.376  1.00  0.00     0.023 A 
ATOM     42  C   UNL     1       8.027   8.553  -0.492  1.00  0.00     0.012 A 
ATOM     43  C   UNL     1       6.297  10.156  -1.084  1.00  0.00     0.148 A 
ATOM     44  C   UNL     1       8.284   9.254   0.687  1.00  0.00     0.002 A 
ATOM     45  C   UNL     1       6.592  10.876   0.068  1.00  0.00     0.091 A 
ATOM     46  F   UNL     1       5.325  10.540  -1.924  1.00  0.00    -0.205 F 
ATOM     47  C   UNL     1       7.573  10.418   0.962  1.00  0.00     0.022 A 
BRANCH  45  48
ATOM     48  S   UNL     1       5.788  12.433   0.464  1.00  0.00     0.127 S 
ATOM     49  O   UNL     1       4.881  12.030   1.538  1.00  0.00    -0.237 OA
ATOM     50  O   UNL     1       6.914  13.262   0.896  1.00  0.00    -0.237 OA
ATOM     51  O   UNL     1       5.149  12.876  -0.768  1.00  0.00    -0.744 OA
ENDBRANCH  45  48
ENDBRANCH  27  41
BRANCH  28  52
ATOM     52  C   UNL     1       4.402   3.726  -9.459  1.00  0.00     0.023 A 
ATOM     53  C   UNL     1       5.334   3.174 -10.357  1.00  0.00     0.012 A 
ATOM     54  C   UNL     1       3.028   3.481  -9.650  1.00  0.00     0.148 A 
ATOM     55  C   UNL     1       4.903   2.400 -11.435  1.00  0.00     0.002 A 
ATOM     56  C   UNL     1       2.611   2.662 -10.691  1.00  0.00     0.091 A 
ATOM     57  F   UNL     1       2.162   4.019  -8.780  1.00  0.00    -0.205 F 
ATOM     58  C   UNL     1       3.545   2.133 -11.594  1.00  0.00     0.022 A 
BRANCH  56  59
ATOM     59  S   UNL     1       0.902   2.148 -10.893  1.00  0.00     0.127 S 
ATOM     60  O   UNL     1       0.557   2.756 -12.176  1.00  0.00    -0.237 OA
ATOM     61  O   UNL     1       1.031   0.691 -10.915  1.00  0.00    -0.237 OA
ATOM     62  O   UNL     1       0.188   2.676  -9.738  1.00  0.00    -0.744 OA
ENDBRANCH  56  59
ENDBRANCH  28  52
BRANCH  40  63
ATOM     63  C   UNL     1       7.607   9.883  -8.500  1.00  0.00     0.023 A 
ATOM     64  C   UNL     1       6.740  10.748  -9.194  1.00  0.00     0.012 A 
ATOM     65  C   UNL     1       9.001  10.073  -8.597  1.00  0.00     0.148 A 
ATOM     66  C   UNL     1       7.254  11.779  -9.982  1.00  0.00     0.002 A 
ATOM     67  C   UNL     1       9.503  11.133  -9.340  1.00  0.00     0.091 A 
ATOM     68  F   UNL     1       9.807   9.223  -7.943  1.00  0.00    -0.205 F 
ATOM     69  C   UNL     1       8.632  11.981 -10.042  1.00  0.00     0.022 A 
BRANCH  67  70
ATOM     70  S   UNL     1      11.253  11.533  -9.389  1.00  0.00     0.127 S 
ATOM     71  O   UNL     1      11.585  11.251 -10.785  1.00  0.00    -0.237 OA
ATOM     72  O   UNL     1      11.254  12.953  -9.035  1.00  0.00    -0.237 OA
ATOM     73  O   UNL     1      11.896  10.663  -8.412  1.00  0.00    -0.744 OA
ENDBRANCH  67  70
ENDBRANCH  40  63
ENDBRANCH  14  15
ENDBRANCH   7   9
ENDBRANCH   4   5
ENDBRANCH   3   4
ENDBRANCH   2   3
ENDBRANCH   1   2
BRANCH   1  74
ATOM     74  C   UNL     1       6.575  -3.165   3.012  1.00  0.00     0.021 C 
BRANCH  74  75
ATOM     75  C   UNL     1       7.282  -2.803   4.322  1.00  0.00     0.116 C 
BRANCH  75  76
ATOM     76  N   UNL     1       6.970  -3.760   5.366  1.00  0.00    -0.356 N 
ATOM     77  C   UNL     1       7.697  -4.764   5.923  1.00  0.00     0.225 C 
ATOM     78  H   UNL     1       6.064  -3.665   5.740  1.00  0.00     0.163 HD
ATOM     79  O   UNL     1       7.086  -5.529   6.671  1.00  0.00    -0.275 OA
BRANCH  77  80
ATOM     80  C   UNL     1       9.204  -4.887   5.674  1.00  0.00     0.109 C 
ATOM     81  C   UNL     1       9.678  -6.333   5.713  1.00  0.00     0.026 C 
ATOM     82  C   UNL     1       9.976  -4.057   6.717  1.00  0.00     0.164 C 
ATOM     83  C   UNL     1       9.569  -6.948   7.093  1.00  0.00     0.101 C 
ATOM     84  N   UNL     1      10.143  -4.691   8.042  1.00  0.00    -0.332 N 
ATOM     85  C   UNL     1       9.899  -6.045   8.262  1.00  0.00     0.223 C 
ATOM     86  O   UNL     1       9.929  -6.541   9.394  1.00  0.00    -0.275 OA
BRANCH  82  87
ATOM     87  C   UNL     1      11.307  -3.584   6.196  1.00  0.00     0.127 A 
ATOM     88  C   UNL     1      11.653  -2.664   5.223  1.00  0.00     0.048 A 
ATOM     89  O   UNL     1      12.436  -4.010   6.838  1.00  0.00    -0.467 OA
ATOM     90  C   UNL     1      13.050  -2.466   5.334  1.00  0.00     0.042 A 
ATOM     91  C   UNL     1      13.478  -3.300   6.338  1.00  0.00     0.195 A 
ENDBRANCH  82  87
BRANCH  84  92
ATOM     92  C   UNL     1      10.516  -3.927   9.257  1.00  0.00     0.122 C 
BRANCH  92  93
ATOM     93  C   UNL     1      11.059  -2.484   9.268  1.00  0.00     0.050 C 
BRANCH  93  94
ATOM     94  C   UNL     1      10.345  -1.300   8.605  1.00  0.00     0.162 C 
BRANCH  94  95
ATOM     95  O   UNL     1       9.237  -0.781   9.341  1.00  0.00    -0.378 OA
BRANCH  95  96
ATOM     96  C   UNL     1       7.936  -1.137   8.850  1.00  0.00     0.118 C 
ATOM     97  C   UNL     1       7.649  -2.583   9.219  1.00  0.00     0.032 C 
ATOM     98  C   UNL     1       6.910  -0.198   9.498  1.00  0.00     0.032 C 
ATOM     99  C   UNL     1       6.222  -3.027   9.015  1.00  0.00     0.003 C 
ATOM    100  C   UNL     1       5.465  -0.685   9.357  1.00  0.00     0.003 C 
ATOM    101  C   UNL     1       5.297  -2.132   9.809  1.00  0.00     0.000 C 
ENDBRANCH  95  96
ENDBRANCH  94  95
ENDBRANCH  93  94
ENDBRANCH  92  93
ENDBRANCH  84  92
ENDBRANCH  77  80
ENDBRANCH  75  76
ENDBRANCH  74  75
ENDBRANCH   1  74
TORSDOF 22
