REMARK SMILES CC(C)(C)N(CC(=O)NCCCCCCNC(=O)c1ccc(-c2c3nc(c(-c4cccc(S(=O)(=O)[O-])c4F)c4ccc([nH]4)c(-c4cccc(S(=O)(=O)[O-])c4F)c4nc(c(-c5cccc(S(=O)(=O)[O-])c5F)c5ccc2[nH]5)C=C4)C=C3)cc1)C(=O)c1cc2ccccc2o1
REMARK SMILES IDX 12 1 11 2 10 3 9 4 7 5 8 6 6 8 5 9 2 10 1 11 3 12 4 13 82 14
REMARK SMILES IDX 83 15 84 16 85 17 92 18 86 19 91 20 87 21 90 22 88 23 89 24
REMARK SMILES IDX 13 25 14 26 15 27 16 28 17 29 18 31 19 32 20 33 81 34 21 35
REMARK SMILES IDX 80 36 22 37 23 38 24 39 74 40 25 41 79 42 73 43 75 44 26 45
REMARK SMILES IDX 78 46 72 47 71 48 27 50 59 51 39 52 58 53 40 54 43 55 57 56
REMARK SMILES IDX 76 57 41 58 42 59 56 61 77 62 44 63 28 64 29 65 37 66 30 67
REMARK SMILES IDX 32 68 38 69 31 70 33 71 34 72 35 73 36 74 60 75 61 76 69 77
REMARK SMILES IDX 62 78 64 79 70 80 63 81 65 82 66 83 67 84 68 85 45 86 46 87
REMARK SMILES IDX 54 88 47 89 49 90 55 91 48 92 50 93 51 94 52 95 53 96
REMARK H PARENT 9 7 16 30 75 49 43 60
REMARK Flexibility Score: inf
ROOT
ATOM      1  C   UNL     1       5.499   2.350  -2.742  1.00  0.00     0.002 C 
ENDROOT
BRANCH   1   2
ATOM      2  C   UNL     1       4.091   2.010  -2.248  1.00  0.00     0.021 C 
BRANCH   2   3
ATOM      3  C   UNL     1       4.010   1.523  -0.801  1.00  0.00     0.116 C 
BRANCH   3   4
ATOM      4  N   UNL     1       3.974   2.629   0.141  1.00  0.00    -0.355 N 
ATOM      5  C   UNL     1       2.949   3.107   0.904  1.00  0.00     0.239 C 
ATOM      6  O   UNL     1       3.223   3.993   1.722  1.00  0.00    -0.273 OA
ATOM      7  H   UNL     1       4.827   3.111   0.245  1.00  0.00     0.163 HD
BRANCH   5   8
ATOM      8  C   UNL     1       1.541   2.465   0.900  1.00  0.00     0.220 C 
BRANCH   8   9
ATOM      9  N   UNL     1       1.025   2.095  -0.421  1.00  0.00    -0.322 N 
BRANCH   9  10
ATOM     10  C   UNL     1       0.233   0.833  -0.637  1.00  0.00     0.035 C 
ATOM     11  C   UNL     1       0.571  -0.287   0.370  1.00  0.00     0.034 C 
ATOM     12  C   UNL     1       0.456   0.227  -2.045  1.00  0.00     0.034 C 
ATOM     13  C   UNL     1      -1.268   1.161  -0.489  1.00  0.00     0.034 C 
ENDBRANCH   9  10
BRANCH   9  14
ATOM     14  C   UNL     1       0.919   3.094  -1.396  1.00  0.00     0.290 C 
ATOM     15  O   UNL     1       1.076   2.840  -2.589  1.00  0.00    -0.265 OA
BRANCH  14  16
ATOM     16  C   UNL     1       0.517   4.431  -1.014  1.00  0.00     0.192 A 
ATOM     17  C   UNL     1       1.184   5.626  -1.236  1.00  0.00     0.065 A 
ATOM     18  O   UNL     1      -0.837   4.654  -1.044  1.00  0.00    -0.451 OA
ATOM     19  C   UNL     1       0.221   6.463  -1.870  1.00  0.00     0.021 A 
ATOM     20  C   UNL     1      -1.001   5.818  -1.727  1.00  0.00     0.135 A 
ATOM     21  C   UNL     1       0.281   7.615  -2.672  1.00  0.00     0.012 A 
ATOM     22  C   UNL     1      -2.187   6.231  -2.324  1.00  0.00     0.048 A 
ATOM     23  C   UNL     1      -0.878   8.006  -3.359  1.00  0.00     0.001 A 
ATOM     24  C   UNL     1      -2.087   7.324  -3.190  1.00  0.00     0.004 A 
ENDBRANCH  14  16
ENDBRANCH   9  14
ENDBRANCH   8   9
ENDBRANCH   5   8
ENDBRANCH   3   4
ENDBRANCH   2   3
ENDBRANCH   1   2
BRANCH   1  25
ATOM     25  C   UNL     1       6.499   1.191  -2.745  1.00  0.00     0.002 C 
BRANCH  25  26
ATOM     26  C   UNL     1       6.035  -0.088  -3.449  1.00  0.00     0.021 C 
BRANCH  26  27
ATOM     27  C   UNL     1       5.646   0.078  -4.917  1.00  0.00     0.116 C 
BRANCH  27  28
ATOM     28  N   UNL     1       6.767   0.505  -5.739  1.00  0.00    -0.352 N 
ATOM     29  C   UNL     1       7.283  -0.065  -6.880  1.00  0.00     0.251 C 
ATOM     30  H   UNL     1       7.224   1.322  -5.434  1.00  0.00     0.163 HD
ATOM     31  O   UNL     1       8.342   0.334  -7.339  1.00  0.00    -0.269 OA
BRANCH  29  32
ATOM     32  C   UNL     1       6.557  -1.173  -7.543  1.00  0.00     0.039 A 
ATOM     33  C   UNL     1       7.272  -2.303  -7.951  1.00  0.00     0.014 A 
ATOM     34  C   UNL     1       5.183  -1.088  -7.784  1.00  0.00     0.014 A 
ATOM     35  C   UNL     1       6.601  -3.373  -8.551  1.00  0.00     0.010 A 
ATOM     36  C   UNL     1       4.507  -2.176  -8.331  1.00  0.00     0.010 A 
ATOM     37  C   UNL     1       5.209  -3.327  -8.723  1.00  0.00    -0.014 A 
BRANCH  37  38
ATOM     38  C   UNL     1       4.455  -4.458  -9.322  1.00  0.00     0.031 A 
ATOM     39  C   UNL     1       3.748  -4.270 -10.638  1.00  0.00     0.074 A 
ATOM     40  C   UNL     1       4.316  -5.611  -8.638  1.00  0.00     0.049 A 
ATOM     41  N   UNL     1       2.917  -5.071 -11.251  1.00  0.00    -0.248 NA
ATOM     42  C   UNL     1       3.989  -2.999 -11.344  1.00  0.00     0.031 C 
ATOM     43  C   UNL     1       4.903  -5.894  -7.326  1.00  0.00     0.029 A 
ATOM     44  N   UNL     1       3.601  -6.746  -8.932  1.00  0.00    -0.354 N 
ATOM     45  C   UNL     1       2.503  -4.389 -12.390  1.00  0.00     0.074 A 
ATOM     46  C   UNL     1       3.159  -3.100 -12.373  1.00  0.00     0.031 C 
ATOM     47  C   UNL     1       4.509  -7.112  -6.921  1.00  0.00     0.029 A 
ATOM     48  C   UNL     1       3.623  -7.688  -7.929  1.00  0.00     0.049 A 
ATOM     49  H   UNL     1       3.118  -6.874  -9.780  1.00  0.00     0.167 HD
ATOM     50  C   UNL     1       1.675  -4.809 -13.375  1.00  0.00     0.034 A 
ATOM     51  C   UNL     1       2.989  -8.873  -7.827  1.00  0.00     0.034 A 
ATOM     52  C   UNL     1       1.069  -6.112 -13.418  1.00  0.00     0.049 A 
ATOM     53  C   UNL     1       2.121  -9.339  -8.966  1.00  0.00     0.074 A 
ATOM     54  C   UNL     1       0.251  -6.649 -14.396  1.00  0.00     0.029 A 
ATOM     55  N   UNL     1       1.228  -7.088 -12.447  1.00  0.00    -0.354 N 
ATOM     56  N   UNL     1       1.840  -8.727 -10.091  1.00  0.00    -0.248 NA
ATOM     57  C   UNL     1       1.515 -10.673  -8.843  1.00  0.00     0.031 C 
ATOM     58  C   UNL     1      -0.078  -7.955 -14.021  1.00  0.00     0.029 A 
ATOM     59  C   UNL     1       0.540  -8.232 -12.812  1.00  0.00     0.049 A 
ATOM     60  H   UNL     1       1.754  -6.984 -11.621  1.00  0.00     0.167 HD
ATOM     61  C   UNL     1       1.063  -9.616 -10.825  1.00  0.00     0.074 A 
ATOM     62  C   UNL     1       0.929 -10.815 -10.024  1.00  0.00     0.031 C 
ATOM     63  C   UNL     1       0.493  -9.447 -12.043  1.00  0.00     0.034 A 
BRANCH  50  64
ATOM     64  C   UNL     1       1.435  -3.878 -14.533  1.00  0.00     0.023 A 
ATOM     65  C   UNL     1       2.455  -3.698 -15.489  1.00  0.00     0.012 A 
ATOM     66  C   UNL     1       0.191  -3.245 -14.720  1.00  0.00     0.148 A 
ATOM     67  C   UNL     1       2.252  -2.882 -16.600  1.00  0.00     0.002 A 
ATOM     68  C   UNL     1      -0.018  -2.463 -15.851  1.00  0.00     0.091 A 
ATOM     69  F   UNL     1      -0.760  -3.416 -13.791  1.00  0.00    -0.205 F 
ATOM     70  C   UNL     1       1.013  -2.274 -16.787  1.00  0.00     0.022 A 
BRANCH  68  71
ATOM     71  S   UNL     1      -1.599  -1.695 -16.223  1.00  0.00     0.127 S 
ATOM     72  O   UNL     1      -1.298  -0.281 -16.006  1.00  0.00    -0.237 OA
ATOM     73  O   UNL     1      -1.801  -2.067 -17.624  1.00  0.00    -0.237 OA
ATOM     74  O   UNL     1      -2.558  -2.279 -15.296  1.00  0.00    -0.744 OA
ENDBRANCH  68  71
ENDBRANCH  50  64
BRANCH  51  75
ATOM     75  C   UNL     1       3.205  -9.737  -6.632  1.00  0.00     0.023 A 
ATOM     76  C   UNL     1       3.950 -10.925  -6.768  1.00  0.00     0.012 A 
ATOM     77  C   UNL     1       2.699  -9.389  -5.365  1.00  0.00     0.148 A 
ATOM     78  C   UNL     1       4.154 -11.768  -5.675  1.00  0.00     0.002 A 
ATOM     79  C   UNL     1       2.952 -10.207  -4.268  1.00  0.00     0.091 A 
ATOM     80  F   UNL     1       1.976  -8.265  -5.252  1.00  0.00    -0.205 F 
ATOM     81  C   UNL     1       3.665 -11.405  -4.423  1.00  0.00     0.022 A 
BRANCH  79  82
ATOM     82  S   UNL     1       2.464  -9.729  -2.606  1.00  0.00     0.127 S 
ATOM     83  O   UNL     1       1.196 -10.435  -2.448  1.00  0.00    -0.237 OA
ATOM     84  O   UNL     1       3.564 -10.249  -1.793  1.00  0.00    -0.237 OA
ATOM     85  O   UNL     1       2.391  -8.273  -2.639  1.00  0.00    -0.744 OA
ENDBRANCH  79  82
ENDBRANCH  51  75
BRANCH  63  86
ATOM     86  C   UNL     1      -0.281 -10.598 -12.624  1.00  0.00     0.023 A 
ATOM     87  C   UNL     1      -1.573 -10.883 -12.141  1.00  0.00     0.012 A 
ATOM     88  C   UNL     1       0.230 -11.329 -13.714  1.00  0.00     0.148 A 
ATOM     89  C   UNL     1      -2.338 -11.893 -12.723  1.00  0.00     0.002 A 
ATOM     90  C   UNL     1      -0.553 -12.307 -14.315  1.00  0.00     0.091 A 
ATOM     91  F   UNL     1       1.471 -11.054 -14.143  1.00  0.00    -0.205 F 
ATOM     92  C   UNL     1      -1.835 -12.595 -13.816  1.00  0.00     0.022 A 
BRANCH  90  93
ATOM     93  S   UNL     1      -0.020 -13.197 -15.781  1.00  0.00     0.127 S 
ATOM     94  O   UNL     1       0.321 -14.507 -15.227  1.00  0.00    -0.237 OA
ATOM     95  O   UNL     1      -1.224 -13.182 -16.612  1.00  0.00    -0.237 OA
ATOM     96  O   UNL     1       1.097 -12.437 -16.326  1.00  0.00    -0.744 OA
ENDBRANCH  90  93
ENDBRANCH  63  86
ENDBRANCH  37  38
ENDBRANCH  29  32
ENDBRANCH  27  28
ENDBRANCH  26  27
ENDBRANCH  25  26
ENDBRANCH   1  25
TORSDOF 20
