REMARK SMILES C=C(C(=O)NCCCCCCNC(=O)c1ccc(-c2c3nc(c(-c4cccc(S(=O)(=O)[O-])c4F)c4ccc([nH]4)c(-c4cccc(S(=O)(=O)[O-])c4F)c4nc(c(-c5cccc(S(=O)(=O)[O-])c5F)c5ccc2[nH]5)C=C4)C=C3)cc1)[C@@H]1CC[C@]2(C)CCCC(=C)[C@H]2[C@H]1O
REMARK SMILES IDX 9 1 8 2 7 3 6 4 5 5 3 6 4 7 2 9 1 10 78 11 79 12 89 13 80 14
REMARK SMILES IDX 88 15 81 16 86 17 82 18 83 19 85 20 87 21 84 22 90 23 10 25
REMARK SMILES IDX 11 26 12 27 13 28 14 30 15 31 16 32 77 33 17 34 76 35 18 36
REMARK SMILES IDX 19 37 20 38 70 39 21 40 75 41 69 42 71 43 22 44 74 45 68 46
REMARK SMILES IDX 67 47 23 49 55 50 35 51 54 52 36 53 39 54 53 55 72 56 37 57
REMARK SMILES IDX 38 58 52 60 73 61 40 62 24 63 25 64 33 65 26 66 28 67 34 68
REMARK SMILES IDX 27 69 29 70 30 71 31 72 32 73 56 74 57 75 65 76 58 77 60 78
REMARK SMILES IDX 66 79 59 80 61 81 62 82 63 83 64 84 41 85 42 86 50 87 43 88
REMARK SMILES IDX 45 89 51 90 44 91 46 92 47 93 48 94 49 95
REMARK H PARENT 5 8 90 24 12 29 71 48 39 59
REMARK Flexibility Score: inf
ROOT
ATOM      1  C   UNL     1      -3.875  -1.528  -2.795  1.00  0.00     0.002 C 
ENDROOT
BRANCH   1   2
ATOM      2  C   UNL     1      -3.228  -2.123  -1.540  1.00  0.00     0.002 C 
BRANCH   2   3
ATOM      3  C   UNL     1      -1.701  -1.953  -1.459  1.00  0.00     0.021 C 
BRANCH   3   4
ATOM      4  C   UNL     1      -1.246  -0.487  -1.470  1.00  0.00     0.116 C 
BRANCH   4   5
ATOM      5  N   UNL     1      -1.617   0.133  -0.213  1.00  0.00    -0.352 N 
ATOM      6  C   UNL     1      -1.009   0.011   0.998  1.00  0.00     0.246 C 
ATOM      7  O   UNL     1      -1.732  -0.114   1.984  1.00  0.00    -0.270 OA
ATOM      8  H   UNL     1      -2.409   0.718  -0.239  1.00  0.00     0.163 HD
BRANCH   6   9
ATOM      9  C   UNL     1       0.472   0.142   1.135  1.00  0.00     0.015 C 
ATOM     10  C   UNL     1       1.310  -0.650   0.440  1.00  0.00     0.019 C 
BRANCH   9  11
ATOM     11  C   UNL     1       1.052   1.072   2.207  1.00  0.00     0.053 C 
ATOM     12  C   UNL     1       0.249   1.245   3.517  1.00  0.00     0.012 C 
ATOM     13  C   UNL     1       1.532   2.440   1.644  1.00  0.00     0.129 C 
ATOM     14  C   UNL     1      -0.815   2.346   3.488  1.00  0.00     0.008 C 
ATOM     15  C   UNL     1       0.409   3.516   1.612  1.00  0.00     0.050 C 
ATOM     16  C   UNL     1      -0.296   3.715   2.994  1.00  0.00    -0.024 C 
ATOM     17  C   UNL     1       0.752   4.879   1.000  1.00  0.00    -0.071 C 
ATOM     18  C   UNL     1       0.623   4.328   4.077  1.00  0.00     0.012 C 
ATOM     19  C   UNL     1      -1.526   4.656   2.809  1.00  0.00     0.008 C 
ATOM     20  C   UNL     1      -0.449   5.778   0.815  1.00  0.00     0.031 C 
ATOM     21  C   UNL     1       1.976   5.304   0.647  1.00  0.00     0.008 C 
ATOM     22  C   UNL     1      -1.183   5.986   2.136  1.00  0.00     0.005 C 
BRANCH  13  23
ATOM     23  O   UNL     1       2.675   2.890   2.392  1.00  0.00    -0.392 OA
ATOM     24  H   UNL     1       2.422   3.025   3.319  1.00  0.00     0.211 HD
ENDBRANCH  13  23
ENDBRANCH   9  11
ENDBRANCH   6   9
ENDBRANCH   4   5
ENDBRANCH   3   4
ENDBRANCH   2   3
ENDBRANCH   1   2
BRANCH   1  25
ATOM     25  C   UNL     1      -3.230  -1.965  -4.112  1.00  0.00     0.021 C 
BRANCH  25  26
ATOM     26  C   UNL     1      -3.243  -3.473  -4.340  1.00  0.00     0.116 C 
BRANCH  26  27
ATOM     27  N   UNL     1      -4.598  -3.977  -4.514  1.00  0.00    -0.352 N 
ATOM     28  C   UNL     1      -5.125  -4.665  -5.577  1.00  0.00     0.251 C 
ATOM     29  H   UNL     1      -5.218  -3.801  -3.769  1.00  0.00     0.163 HD
ATOM     30  O   UNL     1      -6.343  -4.818  -5.673  1.00  0.00    -0.269 OA
BRANCH  28  31
ATOM     31  C   UNL     1      -4.222  -5.207  -6.611  1.00  0.00     0.039 A 
ATOM     32  C   UNL     1      -4.526  -5.000  -7.958  1.00  0.00     0.014 A 
ATOM     33  C   UNL     1      -3.066  -5.903  -6.246  1.00  0.00     0.014 A 
ATOM     34  C   UNL     1      -3.639  -5.442  -8.941  1.00  0.00     0.010 A 
ATOM     35  C   UNL     1      -2.148  -6.276  -7.223  1.00  0.00     0.010 A 
ATOM     36  C   UNL     1      -2.426  -6.055  -8.580  1.00  0.00    -0.014 A 
BRANCH  36  37
ATOM     37  C   UNL     1      -1.427  -6.450  -9.605  1.00  0.00     0.031 A 
ATOM     38  C   UNL     1      -1.041  -7.894  -9.771  1.00  0.00     0.074 A 
ATOM     39  C   UNL     1      -0.797  -5.497 -10.318  1.00  0.00     0.049 A 
ATOM     40  N   UNL     1      -0.143  -8.420 -10.564  1.00  0.00    -0.248 NA
ATOM     41  C   UNL     1      -1.732  -8.872  -8.915  1.00  0.00     0.031 C 
ATOM     42  C   UNL     1      -1.021  -4.056 -10.185  1.00  0.00     0.029 A 
ATOM     43  N   UNL     1       0.186  -5.593 -11.272  1.00  0.00    -0.354 N 
ATOM     44  C   UNL     1      -0.137  -9.780 -10.280  1.00  0.00     0.074 A 
ATOM     45  C   UNL     1      -1.094  -9.994  -9.216  1.00  0.00     0.031 C 
ATOM     46  C   UNL     1      -0.197  -3.404 -11.019  1.00  0.00     0.029 A 
ATOM     47  C   UNL     1       0.637  -4.374 -11.722  1.00  0.00     0.049 A 
ATOM     48  H   UNL     1       0.534  -6.453 -11.602  1.00  0.00     0.167 HD
ATOM     49  C   UNL     1       0.580 -10.767 -10.869  1.00  0.00     0.034 A 
ATOM     50  C   UNL     1       1.623  -4.069 -12.587  1.00  0.00     0.034 A 
ATOM     51  C   UNL     1       1.508 -10.554 -11.947  1.00  0.00     0.049 A 
ATOM     52  C   UNL     1       2.383  -5.184 -13.254  1.00  0.00     0.074 A 
ATOM     53  C   UNL     1       2.211 -11.497 -12.675  1.00  0.00     0.029 A 
ATOM     54  N   UNL     1       1.875  -9.312 -12.441  1.00  0.00    -0.354 N 
ATOM     55  N   UNL     1       2.253  -6.478 -13.095  1.00  0.00    -0.248 NA
ATOM     56  C   UNL     1       3.398  -4.798 -14.244  1.00  0.00     0.031 C 
ATOM     57  C   UNL     1       3.030 -10.822 -13.588  1.00  0.00     0.029 A 
ATOM     58  C   UNL     1       2.809  -9.461 -13.452  1.00  0.00     0.049 A 
ATOM     59  H   UNL     1       1.523  -8.450 -12.120  1.00  0.00     0.167 HD
ATOM     60  C   UNL     1       3.148  -7.063 -13.983  1.00  0.00     0.074 A 
ATOM     61  C   UNL     1       3.796  -5.981 -14.695  1.00  0.00     0.031 C 
ATOM     62  C   UNL     1       3.418  -8.377 -14.182  1.00  0.00     0.034 A 
BRANCH  49  63
ATOM     63  C   UNL     1       0.355 -12.177 -10.385  1.00  0.00     0.023 A 
ATOM     64  C   UNL     1      -0.870 -12.822 -10.658  1.00  0.00     0.012 A 
ATOM     65  C   UNL     1       1.366 -12.880  -9.701  1.00  0.00     0.148 A 
ATOM     66  C   UNL     1      -1.101 -14.125 -10.221  1.00  0.00     0.002 A 
ATOM     67  C   UNL     1       1.146 -14.196  -9.311  1.00  0.00     0.091 A 
ATOM     68  F   UNL     1       2.516 -12.247  -9.431  1.00  0.00    -0.205 F 
ATOM     69  C   UNL     1      -0.091 -14.815  -9.557  1.00  0.00     0.022 A 
BRANCH  67  70
ATOM     70  S   UNL     1       2.412 -15.197  -8.523  1.00  0.00     0.127 S 
ATOM     71  O   UNL     1       1.909 -15.283  -7.153  1.00  0.00    -0.237 OA
ATOM     72  O   UNL     1       2.334 -16.446  -9.281  1.00  0.00    -0.237 OA
ATOM     73  O   UNL     1       3.661 -14.466  -8.687  1.00  0.00    -0.744 OA
ENDBRANCH  67  70
ENDBRANCH  49  63
BRANCH  50  74
ATOM     74  C   UNL     1       1.915  -2.642 -12.901  1.00  0.00     0.023 A 
ATOM     75  C   UNL     1       1.588  -2.127 -14.170  1.00  0.00     0.012 A 
ATOM     76  C   UNL     1       2.472  -1.784 -11.933  1.00  0.00     0.148 A 
ATOM     77  C   UNL     1       1.838  -0.789 -14.479  1.00  0.00     0.002 A 
ATOM     78  C   UNL     1       2.663  -0.440 -12.227  1.00  0.00     0.091 A 
ATOM     79  F   UNL     1       2.784  -2.298 -10.735  1.00  0.00    -0.205 F 
ATOM     80  C   UNL     1       2.364   0.056 -13.505  1.00  0.00     0.022 A 
BRANCH  78  81
ATOM     81  S   UNL     1       3.204   0.748 -10.993  1.00  0.00     0.127 S 
ATOM     82  O   UNL     1       4.542   1.088 -11.470  1.00  0.00    -0.237 OA
ATOM     83  O   UNL     1       2.208   1.810 -11.142  1.00  0.00    -0.237 OA
ATOM     84  O   UNL     1       3.147   0.046  -9.718  1.00  0.00    -0.744 OA
ENDBRANCH  78  81
ENDBRANCH  50  74
BRANCH  62  85
ATOM     85  C   UNL     1       4.440  -8.731 -15.231  1.00  0.00     0.023 A 
ATOM     86  C   UNL     1       5.807  -8.484 -14.991  1.00  0.00     0.012 A 
ATOM     87  C   UNL     1       4.053  -9.380 -16.420  1.00  0.00     0.148 A 
ATOM     88  C   UNL     1       6.769  -8.849 -15.932  1.00  0.00     0.002 A 
ATOM     89  C   UNL     1       5.022  -9.787 -17.330  1.00  0.00     0.091 A 
ATOM     90  F   UNL     1       2.747  -9.590 -16.638  1.00  0.00    -0.205 F 
ATOM     91  C   UNL     1       6.378  -9.511 -17.093  1.00  0.00     0.022 A 
BRANCH  89  92
ATOM     92  S   UNL     1       4.624 -10.730 -18.806  1.00  0.00     0.127 S 
ATOM     93  O   UNL     1       4.887  -9.755 -19.863  1.00  0.00    -0.237 OA
ATOM     94  O   UNL     1       5.586 -11.831 -18.738  1.00  0.00    -0.237 OA
ATOM     95  O   UNL     1       3.232 -11.134 -18.664  1.00  0.00    -0.744 OA
ENDBRANCH  89  92
ENDBRANCH  62  85
ENDBRANCH  36  37
ENDBRANCH  28  31
ENDBRANCH  26  27
ENDBRANCH  25  26
ENDBRANCH   1  25
TORSDOF 18
