REMARK SMILES O=C(NCCCCCCNC(=O)c1sccc1S(=O)(=O)Nc1ccc(Cn2cncn2)cc1)c1ccc(-c2c3nc(c(-c4cccc(S(=O)(=O)[O-])c4F)c4ccc([nH]4)c(-c4cccc(S(=O)(=O)[O-])c4F)c4nc(c(-c5cccc(S(=O)(=O)[O-])c5F)c5ccc2[nH]5)C=C4)C=C3)cc1
REMARK SMILES IDX 7 1 6 2 5 3 4 4 3 5 1 6 2 7 34 9 35 10 96 11 36 12 95 13
REMARK SMILES IDX 37 14 38 15 39 16 89 17 40 18 94 19 88 20 90 21 41 22 93 23
REMARK SMILES IDX 87 24 86 25 42 27 74 28 54 29 73 30 55 31 58 32 72 33 91 34
REMARK SMILES IDX 56 35 57 36 71 38 92 39 59 40 43 41 44 42 52 43 45 44 47 45
REMARK SMILES IDX 53 46 46 47 48 48 49 49 50 50 51 51 75 52 76 53 84 54 77 55
REMARK SMILES IDX 79 56 85 57 78 58 80 59 81 60 82 61 83 62 60 63 61 64 69 65
REMARK SMILES IDX 62 66 64 67 70 68 63 69 65 70 66 71 67 72 68 73 8 74 9 75
REMARK SMILES IDX 10 76 11 77 12 79 13 80 14 81 17 82 15 83 16 84 18 85 19 86
REMARK SMILES IDX 20 87 21 88 22 90 23 91 33 92 24 93 32 94 25 95 26 96 27 97
REMARK SMILES IDX 28 98 31 99 29 100 30 101
REMARK H PARENT 3 8 90 26 58 37 10 78 21 89
REMARK Flexibility Score: inf
ROOT
ATOM      1  C   UNL     1       4.959   0.758   3.772  1.00  0.00     0.002 C 
ENDROOT
BRANCH   1   2
ATOM      2  C   UNL     1       4.529   1.849   2.784  1.00  0.00     0.002 C 
BRANCH   2   3
ATOM      3  C   UNL     1       4.965   1.653   1.328  1.00  0.00     0.021 C 
BRANCH   3   4
ATOM      4  C   UNL     1       4.664   0.274   0.743  1.00  0.00     0.116 C 
BRANCH   4   5
ATOM      5  N   UNL     1       3.259  -0.065   0.741  1.00  0.00    -0.352 N 
ATOM      6  O   UNL     1       1.157  -0.400   0.189  1.00  0.00    -0.269 OA
ATOM      7  C   UNL     1       2.210   0.174  -0.103  1.00  0.00     0.251 C 
ATOM      8  H   UNL     1       2.996  -0.590   1.531  1.00  0.00     0.163 HD
BRANCH   7   9
ATOM      9  C   UNL     1       2.237   1.085  -1.282  1.00  0.00     0.039 A 
ATOM     10  C   UNL     1       3.372   1.683  -1.831  1.00  0.00     0.014 A 
ATOM     11  C   UNL     1       0.988   1.355  -1.877  1.00  0.00     0.014 A 
ATOM     12  C   UNL     1       3.260   2.551  -2.916  1.00  0.00     0.010 A 
ATOM     13  C   UNL     1       0.869   2.219  -2.964  1.00  0.00     0.010 A 
ATOM     14  C   UNL     1       2.009   2.828  -3.477  1.00  0.00    -0.014 A 
BRANCH  14  15
ATOM     15  C   UNL     1       1.976   3.582  -4.729  1.00  0.00     0.031 A 
ATOM     16  C   UNL     1       2.613   2.874  -5.875  1.00  0.00     0.074 A 
ATOM     17  C   UNL     1       1.330   4.749  -4.923  1.00  0.00     0.049 A 
ATOM     18  N   UNL     1       3.696   3.198  -6.504  1.00  0.00    -0.248 NA
ATOM     19  C   UNL     1       2.050   1.579  -6.279  1.00  0.00     0.031 C 
ATOM     20  C   UNL     1       0.398   5.415  -4.013  1.00  0.00     0.029 A 
ATOM     21  N   UNL     1       1.281   5.528  -6.046  1.00  0.00    -0.354 N 
ATOM     22  C   UNL     1       3.822   2.269  -7.538  1.00  0.00     0.074 A 
ATOM     23  C   UNL     1       2.902   1.206  -7.234  1.00  0.00     0.031 C 
ATOM     24  C   UNL     1      -0.294   6.355  -4.699  1.00  0.00     0.029 A 
ATOM     25  C   UNL     1       0.235   6.447  -6.049  1.00  0.00     0.049 A 
ATOM     26  H   UNL     1       1.926   5.446  -6.785  1.00  0.00     0.167 HD
ATOM     27  C   UNL     1       4.497   2.571  -8.683  1.00  0.00     0.034 A 
ATOM     28  C   UNL     1      -0.204   7.178  -7.104  1.00  0.00     0.034 A 
ATOM     29  C   UNL     1       5.337   3.730  -8.504  1.00  0.00     0.049 A 
ATOM     30  C   UNL     1       0.881   7.220  -8.108  1.00  0.00     0.074 A 
ATOM     31  C   UNL     1       6.368   4.085  -7.658  1.00  0.00     0.029 A 
ATOM     32  N   UNL     1       4.909   4.896  -9.087  1.00  0.00    -0.354 N 
ATOM     33  N   UNL     1       1.991   7.881  -7.951  1.00  0.00    -0.248 NA
ATOM     34  C   UNL     1       0.883   6.227  -9.168  1.00  0.00     0.031 C 
ATOM     35  C   UNL     1       6.195   5.481  -7.430  1.00  0.00     0.029 A 
ATOM     36  C   UNL     1       5.104   5.907  -8.191  1.00  0.00     0.049 A 
ATOM     37  H   UNL     1       4.529   4.988  -9.990  1.00  0.00     0.167 HD
ATOM     38  C   UNL     1       2.949   7.081  -8.555  1.00  0.00     0.074 A 
ATOM     39  C   UNL     1       2.195   6.157  -9.398  1.00  0.00     0.031 C 
ATOM     40  C   UNL     1       4.230   7.052  -8.085  1.00  0.00     0.034 A 
BRANCH  27  41
ATOM     41  C   UNL     1       4.118   2.100 -10.079  1.00  0.00     0.023 A 
ATOM     42  C   UNL     1       4.954   2.523 -11.143  1.00  0.00     0.012 A 
ATOM     43  C   UNL     1       2.865   1.555 -10.441  1.00  0.00     0.148 A 
ATOM     44  C   UNL     1       4.522   2.515 -12.473  1.00  0.00     0.002 A 
ATOM     45  C   UNL     1       2.470   1.479 -11.773  1.00  0.00     0.091 A 
ATOM     46  F   UNL     1       1.982   1.212  -9.503  1.00  0.00    -0.205 F 
ATOM     47  C   UNL     1       3.276   1.997 -12.789  1.00  0.00     0.022 A 
BRANCH  45  48
ATOM     48  S   UNL     1       0.889   0.767 -12.250  1.00  0.00     0.127 S 
ATOM     49  O   UNL     1       0.140   1.957 -12.641  1.00  0.00    -0.237 OA
ATOM     50  O   UNL     1       1.281  -0.112 -13.353  1.00  0.00    -0.237 OA
ATOM     51  O   UNL     1       0.403   0.062 -11.071  1.00  0.00    -0.744 OA
ENDBRANCH  45  48
ENDBRANCH  27  41
BRANCH  28  52
ATOM     52  C   UNL     1      -1.553   7.697  -7.430  1.00  0.00     0.023 A 
ATOM     53  C   UNL     1      -1.688   8.748  -8.363  1.00  0.00     0.012 A 
ATOM     54  C   UNL     1      -2.711   6.977  -7.068  1.00  0.00     0.148 A 
ATOM     55  C   UNL     1      -2.925   9.040  -8.949  1.00  0.00     0.002 A 
ATOM     56  C   UNL     1      -3.940   7.275  -7.649  1.00  0.00     0.091 A 
ATOM     57  F   UNL     1      -2.588   5.939  -6.230  1.00  0.00    -0.205 F 
ATOM     58  C   UNL     1      -4.049   8.297  -8.601  1.00  0.00     0.022 A 
BRANCH  56  59
ATOM     59  S   UNL     1      -5.428   6.338  -7.272  1.00  0.00     0.127 S 
ATOM     60  O   UNL     1      -6.403   7.403  -7.032  1.00  0.00    -0.237 OA
ATOM     61  O   UNL     1      -5.633   5.587  -8.507  1.00  0.00    -0.237 OA
ATOM     62  O   UNL     1      -5.108   5.544  -6.093  1.00  0.00    -0.744 OA
ENDBRANCH  56  59
ENDBRANCH  28  52
BRANCH  40  63
ATOM     63  C   UNL     1       4.686   8.157  -7.171  1.00  0.00     0.023 A 
ATOM     64  C   UNL     1       4.080   8.419  -5.926  1.00  0.00     0.012 A 
ATOM     65  C   UNL     1       5.861   8.845  -7.516  1.00  0.00     0.148 A 
ATOM     66  C   UNL     1       4.623   9.368  -5.056  1.00  0.00     0.002 A 
ATOM     67  C   UNL     1       6.428   9.746  -6.626  1.00  0.00     0.091 A 
ATOM     68  F   UNL     1       6.422   8.590  -8.709  1.00  0.00    -0.205 F 
ATOM     69  C   UNL     1       5.806  10.021  -5.399  1.00  0.00     0.022 A 
BRANCH  67  70
ATOM     70  S   UNL     1       8.020  10.501  -6.963  1.00  0.00     0.127 S 
ATOM     71  O   UNL     1       7.636  11.828  -7.437  1.00  0.00    -0.237 OA
ATOM     72  O   UNL     1       8.664  10.483  -5.648  1.00  0.00    -0.237 OA
ATOM     73  O   UNL     1       8.665   9.639  -7.947  1.00  0.00    -0.744 OA
ENDBRANCH  67  70
ENDBRANCH  40  63
ENDBRANCH  14  15
ENDBRANCH   7   9
ENDBRANCH   4   5
ENDBRANCH   3   4
ENDBRANCH   2   3
ENDBRANCH   1   2
BRANCH   1  74
ATOM     74  C   UNL     1       6.457   0.416   3.778  1.00  0.00     0.021 C 
BRANCH  74  75
ATOM     75  C   UNL     1       7.353   1.525   4.321  1.00  0.00     0.116 C 
BRANCH  75  76
ATOM     76  N   UNL     1       7.184   1.658   5.752  1.00  0.00    -0.351 N 
ATOM     77  C   UNL     1       8.073   2.066   6.705  1.00  0.00     0.262 C 
ATOM     78  H   UNL     1       6.291   1.417   6.090  1.00  0.00     0.163 HD
ATOM     79  O   UNL     1       7.747   1.867   7.879  1.00  0.00    -0.268 OA
BRANCH  77  80
ATOM     80  C   UNL     1       9.352   2.615   6.319  1.00  0.00     0.112 A 
ATOM     81  S   UNL     1      10.711   1.852   7.077  1.00  0.00    -0.137 S 
ATOM     82  C   UNL     1       9.761   3.662   5.510  1.00  0.00     0.111 A 
ATOM     83  C   UNL     1      11.829   2.820   6.242  1.00  0.00     0.067 A 
ATOM     84  C   UNL     1      11.200   3.733   5.434  1.00  0.00     0.035 A 
BRANCH  82  85
ATOM     85  S   UNL     1       8.847   4.847   4.626  1.00  0.00     0.263 S 
ATOM     86  O   UNL     1       9.409   6.096   5.098  1.00  0.00    -0.201 OA
ATOM     87  O   UNL     1       9.040   4.415   3.258  1.00  0.00    -0.201 OA
BRANCH  85  88
ATOM     88  N   UNL     1       7.209   4.917   4.830  1.00  0.00    -0.280 N 
ATOM     89  H   UNL     1       6.670   5.052   4.017  1.00  0.00     0.180 HD
BRANCH  88  90
ATOM     90  C   UNL     1       6.502   4.805   6.042  1.00  0.00     0.049 A 
ATOM     91  C   UNL     1       5.232   4.234   5.938  1.00  0.00     0.027 A 
ATOM     92  C   UNL     1       7.044   5.072   7.293  1.00  0.00     0.027 A 
ATOM     93  C   UNL     1       4.608   3.713   7.063  1.00  0.00     0.008 A 
ATOM     94  C   UNL     1       6.399   4.580   8.432  1.00  0.00     0.008 A 
ATOM     95  C   UNL     1       5.221   3.823   8.316  1.00  0.00    -0.026 A 
BRANCH  95  96
ATOM     96  C   UNL     1       4.690   3.046   9.495  1.00  0.00     0.181 C 
BRANCH  96  97
ATOM     97  N   UNL     1       3.416   3.554   9.955  1.00  0.00    -0.249 N 
ATOM     98  C   UNL     1       2.178   3.256   9.471  1.00  0.00     0.220 A 
ATOM     99  N   UNL     1       3.332   4.364  11.028  1.00  0.00    -0.160 NA
ATOM    100  N   UNL     1       1.268   3.888  10.174  1.00  0.00    -0.224 NA
ATOM    101  C   UNL     1       2.013   4.558  11.102  1.00  0.00     0.246 A 
ENDBRANCH  96  97
ENDBRANCH  95  96
ENDBRANCH  88  90
ENDBRANCH  85  88
ENDBRANCH  82  85
ENDBRANCH  77  80
ENDBRANCH  75  76
ENDBRANCH  74  75
ENDBRANCH   1  74
TORSDOF 21
