REMARK SMILES CCCCOc1ccc(NC(=O)[C@]2(C)CC[C@](C)(C(=O)NCCCCCCNC(=O)c3ccc(-c4c5nc(c(-c6cccc(S(=O)(=O)[O-])c6F)c6ccc([nH]6)c(-c6cccc(S(=O)(=O)[O-])c6F)c6nc(c(-c7cccc(S(=O)(=O)[O-])c7F)c7ccc4[nH]7)C=C6)C=C5)cc3)C2(C)C)cc1
REMARK SMILES IDX 23 1 22 2 21 3 19 4 20 5 17 7 13 8 15 9 94 10 14 11 16 12
REMARK SMILES IDX 95 13 96 14 18 15 11 16 10 17 12 19 9 20 6 21 7 22 98 23
REMARK SMILES IDX 8 24 97 25 5 26 4 27 3 28 2 29 1 30 24 31 25 32 26 33 27 34
REMARK SMILES IDX 28 35 29 36 30 38 31 39 32 40 93 41 33 42 92 43 34 44 35 45
REMARK SMILES IDX 36 46 86 47 37 48 91 49 85 50 87 51 38 52 90 53 84 54 83 55
REMARK SMILES IDX 39 57 71 58 51 59 70 60 52 61 55 62 69 63 88 64 53 65 54 66
REMARK SMILES IDX 68 68 89 69 56 70 40 71 41 72 49 73 42 74 44 75 50 76 43 77
REMARK SMILES IDX 45 78 46 79 47 80 48 81 72 82 73 83 81 84 74 85 76 86 82 87
REMARK SMILES IDX 75 88 77 89 78 90 79 91 80 92 57 93 58 94 66 95 59 96 61 97
REMARK SMILES IDX 67 98 60 99 62 100 63 101 64 102 65 103
REMARK H PARENT 21 6 10 18 28 37 87 56 55 67
REMARK Flexibility Score: inf
ROOT
ATOM      1  C   UNL     1      -4.035   6.436   3.819  1.00  0.00     0.021 C 
ENDROOT
BRANCH   1   2
ATOM      2  C   UNL     1      -3.353   5.169   4.363  1.00  0.00     0.116 C 
BRANCH   2   3
ATOM      3  N   UNL     1      -4.269   4.174   4.896  1.00  0.00    -0.356 N 
ATOM      4  C   UNL     1      -4.724   2.964   4.463  1.00  0.00     0.226 C 
ATOM      5  O   UNL     1      -5.479   2.386   5.257  1.00  0.00    -0.274 OA
ATOM      6  H   UNL     1      -4.646   4.433   5.768  1.00  0.00     0.163 HD
BRANCH   4   7
ATOM      7  C   UNL     1      -4.316   2.280   3.108  1.00  0.00     0.052 C 
ATOM      8  C   UNL     1      -5.268   1.960   0.669  1.00  0.00     0.053 C 
ATOM      9  C   UNL     1      -5.122   0.641   1.486  1.00  0.00     0.018 C 
ATOM     10  C   UNL     1      -4.638   3.044   1.718  1.00  0.00    -0.007 C 
ATOM     11  C   UNL     1      -4.561   1.631  -0.673  1.00  0.00     0.022 C 
ATOM     12  C   UNL     1      -5.188   1.011   2.953  1.00  0.00     0.018 C 
ATOM     13  C   UNL     1      -3.329   3.653   1.165  1.00  0.00     0.013 C 
ATOM     14  C   UNL     1      -5.718   4.108   2.027  1.00  0.00     0.013 C 
ATOM     15  C   UNL     1      -2.847   1.831   3.307  1.00  0.00     0.022 C 
BRANCH   8  16
ATOM     16  C   UNL     1      -6.769   2.206   0.264  1.00  0.00     0.230 C 
ATOM     17  N   UNL     1      -7.261   3.268  -0.458  1.00  0.00    -0.326 N 
ATOM     18  H   UNL     1      -8.224   3.161  -0.634  1.00  0.00     0.169 HD
ATOM     19  O   UNL     1      -7.640   1.402   0.634  1.00  0.00    -0.274 OA
BRANCH  17  20
ATOM     20  C   UNL     1      -6.771   4.470  -1.018  1.00  0.00     0.041 A 
ATOM     21  C   UNL     1      -5.946   7.086  -1.681  1.00  0.00     0.119 A 
ATOM     22  C   UNL     1      -5.005   6.099  -1.464  1.00  0.00     0.048 A 
ATOM     23  C   UNL     1      -7.290   6.740  -1.742  1.00  0.00     0.048 A 
ATOM     24  C   UNL     1      -5.434   4.793  -1.197  1.00  0.00     0.030 A 
ATOM     25  C   UNL     1      -7.705   5.453  -1.370  1.00  0.00     0.030 A 
BRANCH  21  26
ATOM     26  O   UNL     1      -5.571   8.371  -1.932  1.00  0.00    -0.494 OA
BRANCH  26  27
ATOM     27  C   UNL     1      -5.284   9.111  -0.730  1.00  0.00     0.229 C 
BRANCH  27  28
ATOM     28  C   UNL     1      -6.408  10.119  -0.455  1.00  0.00     0.041 C 
BRANCH  28  29
ATOM     29  C   UNL     1      -7.602   9.551   0.320  1.00  0.00     0.000 C 
ATOM     30  C   UNL     1      -7.322   9.330   1.798  1.00  0.00     0.004 C 
ENDBRANCH  28  29
ENDBRANCH  27  28
ENDBRANCH  26  27
ENDBRANCH  21  26
ENDBRANCH  17  20
ENDBRANCH   8  16
ENDBRANCH   4   7
ENDBRANCH   2   3
ENDBRANCH   1   2
BRANCH   1  31
ATOM     31  C   UNL     1      -4.687   7.302   4.900  1.00  0.00     0.002 C 
BRANCH  31  32
ATOM     32  C   UNL     1      -3.676   7.965   5.836  1.00  0.00     0.002 C 
BRANCH  32  33
ATOM     33  C   UNL     1      -2.582   8.759   5.115  1.00  0.00     0.021 C 
BRANCH  33  34
ATOM     34  C   UNL     1      -3.113   9.842   4.182  1.00  0.00     0.116 C 
BRANCH  34  35
ATOM     35  N   UNL     1      -3.814  10.879   4.926  1.00  0.00    -0.352 N 
ATOM     36  C   UNL     1      -3.486  12.204   5.042  1.00  0.00     0.251 C 
ATOM     37  H   UNL     1      -4.625  10.592   5.405  1.00  0.00     0.163 HD
ATOM     38  O   UNL     1      -3.997  12.899   5.921  1.00  0.00    -0.269 OA
BRANCH  36  39
ATOM     39  C   UNL     1      -2.510  12.784   4.101  1.00  0.00     0.039 A 
ATOM     40  C   UNL     1      -1.455  13.554   4.593  1.00  0.00     0.014 A 
ATOM     41  C   UNL     1      -2.634  12.539   2.730  1.00  0.00     0.014 A 
ATOM     42  C   UNL     1      -0.490  14.040   3.708  1.00  0.00     0.010 A 
ATOM     43  C   UNL     1      -1.633  12.960   1.863  1.00  0.00     0.010 A 
ATOM     44  C   UNL     1      -0.556  13.723   2.340  1.00  0.00    -0.014 A 
BRANCH  44  45
ATOM     45  C   UNL     1       0.485  14.181   1.386  1.00  0.00     0.031 A 
ATOM     46  C   UNL     1       0.112  15.099   0.253  1.00  0.00     0.074 A 
ATOM     47  C   UNL     1       1.742  13.705   1.487  1.00  0.00     0.049 A 
ATOM     48  N   UNL     1       0.851  15.535  -0.733  1.00  0.00    -0.248 NA
ATOM     49  C   UNL     1      -1.285  15.567   0.207  1.00  0.00     0.031 C 
ATOM     50  C   UNL     1       2.213  12.764   2.506  1.00  0.00     0.029 A 
ATOM     51  N   UNL     1       2.849  13.927   0.706  1.00  0.00    -0.354 N 
ATOM     52  C   UNL     1       0.008  16.300  -1.530  1.00  0.00     0.074 A 
ATOM     53  C   UNL     1      -1.309  16.236  -0.937  1.00  0.00     0.031 C 
ATOM     54  C   UNL     1       3.510  12.492   2.289  1.00  0.00     0.029 A 
ATOM     55  C   UNL     1       3.954  13.206   1.097  1.00  0.00     0.049 A 
ATOM     56  H   UNL     1       2.851  14.543  -0.062  1.00  0.00     0.167 HD
ATOM     57  C   UNL     1       0.308  17.018  -2.638  1.00  0.00     0.034 A 
ATOM     58  C   UNL     1       5.181  13.120   0.546  1.00  0.00     0.034 A 
ATOM     59  C   UNL     1       1.626  17.106  -3.205  1.00  0.00     0.049 A 
ATOM     60  C   UNL     1       5.487  13.930  -0.686  1.00  0.00     0.074 A 
ATOM     61  C   UNL     1       2.047  17.857  -4.288  1.00  0.00     0.029 A 
ATOM     62  N   UNL     1       2.735  16.417  -2.740  1.00  0.00    -0.354 N 
ATOM     63  N   UNL     1       4.710  14.752  -1.347  1.00  0.00    -0.248 NA
ATOM     64  C   UNL     1       6.850  13.826  -1.228  1.00  0.00     0.031 C 
ATOM     65  C   UNL     1       3.405  17.599  -4.496  1.00  0.00     0.029 A 
ATOM     66  C   UNL     1       3.839  16.719  -3.518  1.00  0.00     0.049 A 
ATOM     67  H   UNL     1       2.737  15.804  -1.970  1.00  0.00     0.167 HD
ATOM     68  C   UNL     1       5.501  15.298  -2.353  1.00  0.00     0.074 A 
ATOM     69  C   UNL     1       6.822  14.724  -2.204  1.00  0.00     0.031 C 
ATOM     70  C   UNL     1       5.162  16.187  -3.318  1.00  0.00     0.034 A 
BRANCH  57  71
ATOM     71  C   UNL     1      -0.800  17.808  -3.285  1.00  0.00     0.023 A 
ATOM     72  C   UNL     1      -1.317  18.945  -2.630  1.00  0.00     0.012 A 
ATOM     73  C   UNL     1      -1.286  17.466  -4.562  1.00  0.00     0.148 A 
ATOM     74  C   UNL     1      -2.322  19.710  -3.220  1.00  0.00     0.002 A 
ATOM     75  C   UNL     1      -2.254  18.261  -5.165  1.00  0.00     0.091 A 
ATOM     76  F   UNL     1      -0.795  16.372  -5.161  1.00  0.00    -0.205 F 
ATOM     77  C   UNL     1      -2.782  19.375  -4.490  1.00  0.00     0.022 A 
BRANCH  75  78
ATOM     78  S   UNL     1      -2.856  17.965  -6.831  1.00  0.00     0.127 S 
ATOM     79  O   UNL     1      -4.240  17.566  -6.577  1.00  0.00    -0.237 OA
ATOM     80  O   UNL     1      -2.704  19.281  -7.449  1.00  0.00    -0.237 OA
ATOM     81  O   UNL     1      -2.002  16.926  -7.389  1.00  0.00    -0.744 OA
ENDBRANCH  75  78
ENDBRANCH  57  71
BRANCH  58  82
ATOM     82  C   UNL     1       6.233  12.273   1.178  1.00  0.00     0.023 A 
ATOM     83  C   UNL     1       7.356  12.887   1.767  1.00  0.00     0.012 A 
ATOM     84  C   UNL     1       6.132  10.868   1.198  1.00  0.00     0.148 A 
ATOM     85  C   UNL     1       8.380  12.119   2.322  1.00  0.00     0.002 A 
ATOM     86  C   UNL     1       7.127  10.111   1.805  1.00  0.00     0.091 A 
ATOM     87  F   UNL     1       5.061  10.300   0.626  1.00  0.00    -0.205 F 
ATOM     88  C   UNL     1       8.262  10.732   2.349  1.00  0.00     0.022 A 
BRANCH  86  89
ATOM     89  S   UNL     1       6.997   8.330   1.998  1.00  0.00     0.127 S 
ATOM     90  O   UNL     1       8.014   7.853   1.065  1.00  0.00    -0.237 OA
ATOM     91  O   UNL     1       7.326   8.155   3.413  1.00  0.00    -0.237 OA
ATOM     92  O   UNL     1       5.620   7.997   1.659  1.00  0.00    -0.744 OA
ENDBRANCH  86  89
ENDBRANCH  58  82
BRANCH  70  93
ATOM     93  C   UNL     1       6.244  16.649  -4.259  1.00  0.00     0.023 A 
ATOM     94  C   UNL     1       6.744  15.778  -5.246  1.00  0.00     0.012 A 
ATOM     95  C   UNL     1       6.700  17.982  -4.216  1.00  0.00     0.148 A 
ATOM     96  C   UNL     1       7.705  16.217  -6.156  1.00  0.00     0.002 A 
ATOM     97  C   UNL     1       7.617  18.428  -5.159  1.00  0.00     0.091 A 
ATOM     98  F   UNL     1       6.222  18.790  -3.258  1.00  0.00    -0.205 F 
ATOM     99  C   UNL     1       8.131  17.543  -6.121  1.00  0.00     0.022 A 
BRANCH  97 100
ATOM    100  S   UNL     1       8.146  20.141  -5.256  1.00  0.00     0.127 S 
ATOM    101  O   UNL     1       9.546  20.044  -4.845  1.00  0.00    -0.237 OA
ATOM    102  O   UNL     1       7.946  20.445  -6.673  1.00  0.00    -0.237 OA
ATOM    103  O   UNL     1       7.282  20.884  -4.349  1.00  0.00    -0.744 OA
ENDBRANCH  97 100
ENDBRANCH  70  93
ENDBRANCH  44  45
ENDBRANCH  36  39
ENDBRANCH  34  35
ENDBRANCH  33  34
ENDBRANCH  32  33
ENDBRANCH  31  32
ENDBRANCH   1  31
TORSDOF 22
