REMARK SMILES CC(=O)Nc1cccc(C(=O)N2CCCC[C@@H]2C(=O)NCCCCCCNC(=O)c2ccc(-c3c4nc(c(-c5cccc(S(=O)(=O)[O-])c5F)c5ccc([nH]5)c(-c5cccc(S(=O)(=O)[O-])c5F)c5nc(c(-c6cccc(S(=O)(=O)[O-])c6F)c6ccc3[nH]6)C=C5)C=C4)cc2)c1
REMARK SMILES IDX 23 1 22 2 21 3 20 4 18 5 19 6 17 8 12 9 13 10 14 11 16 12
REMARK SMILES IDX 15 13 10 14 11 15 9 16 5 17 6 18 93 19 7 20 8 21 4 22 1 23
REMARK SMILES IDX 2 24 3 25 24 27 25 28 26 29 27 30 28 31 29 33 30 34 31 35
REMARK SMILES IDX 92 36 32 37 91 38 33 39 34 40 35 41 85 42 36 43 90 44 84 45
REMARK SMILES IDX 86 46 37 47 89 48 83 49 82 50 38 52 70 53 50 54 69 55 51 56
REMARK SMILES IDX 54 57 68 58 87 59 52 60 53 61 67 63 88 64 55 65 39 66 40 67
REMARK SMILES IDX 48 68 41 69 43 70 49 71 42 72 44 73 45 74 46 75 47 76 71 77
REMARK SMILES IDX 72 78 80 79 73 80 75 81 81 82 74 83 76 84 77 85 78 86 79 87
REMARK SMILES IDX 56 88 57 89 65 90 58 91 60 92 66 93 59 94 61 95 62 96 63 97
REMARK SMILES IDX 64 98
REMARK H PARENT 20 7 4 26 27 32 86 51 54 62
REMARK Flexibility Score: inf
ROOT
ATOM      1  C   UNL     1       8.306   4.898   0.371  1.00  0.00     0.002 C 
ENDROOT
BRANCH   1   2
ATOM      2  C   UNL     1       8.329   3.365   0.400  1.00  0.00     0.021 C 
BRANCH   2   3
ATOM      3  C   UNL     1       7.066   2.744   0.993  1.00  0.00     0.116 C 
BRANCH   3   4
ATOM      4  N   UNL     1       5.938   2.975   0.109  1.00  0.00    -0.354 N 
ATOM      5  C   UNL     1       5.139   2.076  -0.524  1.00  0.00     0.242 C 
ATOM      6  O   UNL     1       4.405   2.491  -1.427  1.00  0.00    -0.273 OA
ATOM      7  H   UNL     1       5.721   3.921  -0.056  1.00  0.00     0.163 HD
BRANCH   5   8
ATOM      8  C   UNL     1       5.221   0.566  -0.218  1.00  0.00     0.174 C 
ATOM      9  N   UNL     1       5.240   0.183   1.220  1.00  0.00    -0.327 N 
ATOM     10  C   UNL     1       5.598  -1.206   1.499  1.00  0.00     0.120 C 
ATOM     11  C   UNL     1       6.901  -1.618   0.846  1.00  0.00     0.022 C 
ATOM     12  C   UNL     1       6.466   0.040  -0.980  1.00  0.00     0.035 C 
ATOM     13  C   UNL     1       6.824  -1.405  -0.657  1.00  0.00     0.004 C 
BRANCH   9  14
ATOM     14  C   UNL     1       4.626   0.848   2.295  1.00  0.00     0.254 C 
ATOM     15  O   UNL     1       4.931   0.602   3.462  1.00  0.00    -0.269 OA
BRANCH  14  16
ATOM     16  C   UNL     1       3.546   1.846   2.106  1.00  0.00     0.042 A 
ATOM     17  C   UNL     1       1.474   2.530   1.041  1.00  0.00     0.041 A 
ATOM     18  C   UNL     1       1.415   3.633   1.901  1.00  0.00     0.026 A 
ATOM     19  C   UNL     1       2.541   1.642   1.157  1.00  0.00     0.040 A 
ATOM     20  C   UNL     1       2.382   3.816   2.892  1.00  0.00     0.003 A 
ATOM     21  C   UNL     1       3.445   2.920   2.998  1.00  0.00     0.014 A 
BRANCH  17  22
ATOM     22  N   UNL     1       0.467   2.408   0.069  1.00  0.00    -0.326 N 
ATOM     23  C   UNL     1       0.485  -0.052  -0.368  1.00  0.00     0.114 C 
ATOM     24  C   UNL     1       0.060   1.354  -0.699  1.00  0.00     0.221 C 
ATOM     25  O   UNL     1      -0.718   1.564  -1.633  1.00  0.00    -0.275 OA
ATOM     26  H   UNL     1      -0.041   3.237  -0.087  1.00  0.00     0.169 HD
ENDBRANCH  17  22
ENDBRANCH  14  16
ENDBRANCH   9  14
ENDBRANCH   5   8
ENDBRANCH   3   4
ENDBRANCH   2   3
ENDBRANCH   1   2
BRANCH   1  27
ATOM     27  C   UNL     1       8.094   5.558   1.737  1.00  0.00     0.002 C 
BRANCH  27  28
ATOM     28  C   UNL     1       9.085   5.122   2.820  1.00  0.00     0.021 C 
BRANCH  28  29
ATOM     29  C   UNL     1      10.551   5.335   2.456  1.00  0.00     0.116 C 
BRANCH  29  30
ATOM     30  N   UNL     1      10.846   6.734   2.190  1.00  0.00    -0.352 N 
ATOM     31  C   UNL     1      11.832   7.525   2.715  1.00  0.00     0.251 C 
ATOM     32  H   UNL     1      10.252   7.175   1.540  1.00  0.00     0.163 HD
ATOM     33  O   UNL     1      11.802   8.744   2.531  1.00  0.00    -0.269 OA
BRANCH  31  34
ATOM     34  C   UNL     1      12.921   6.921   3.509  1.00  0.00     0.039 A 
ATOM     35  C   UNL     1      13.321   7.549   4.691  1.00  0.00     0.014 A 
ATOM     36  C   UNL     1      13.554   5.748   3.085  1.00  0.00     0.014 A 
ATOM     37  C   UNL     1      14.326   6.975   5.471  1.00  0.00     0.010 A 
ATOM     38  C   UNL     1      14.505   5.140   3.901  1.00  0.00     0.010 A 
ATOM     39  C   UNL     1      14.908   5.752   5.096  1.00  0.00    -0.014 A 
BRANCH  39  40
ATOM     40  C   UNL     1      15.925   5.099   5.959  1.00  0.00     0.031 A 
ATOM     41  C   UNL     1      17.331   4.891   5.465  1.00  0.00     0.074 A 
ATOM     42  C   UNL     1      15.561   4.635   7.171  1.00  0.00     0.049 A 
ATOM     43  N   UNL     1      18.346   4.343   6.080  1.00  0.00    -0.248 NA
ATOM     44  C   UNL     1      17.631   5.332   4.093  1.00  0.00     0.031 C 
ATOM     45  C   UNL     1      14.207   4.696   7.727  1.00  0.00     0.029 A 
ATOM     46  N   UNL     1      16.292   4.004   8.146  1.00  0.00    -0.354 N 
ATOM     47  C   UNL     1      19.394   4.346   5.167  1.00  0.00     0.074 A 
ATOM     48  C   UNL     1      18.881   4.917   3.941  1.00  0.00     0.031 C 
ATOM     49  C   UNL     1      14.207   4.136   8.947  1.00  0.00     0.029 A 
ATOM     50  C   UNL     1      15.551   3.654   9.251  1.00  0.00     0.049 A 
ATOM     51  H   UNL     1      17.255   3.818   8.062  1.00  0.00     0.167 HD
ATOM     52  C   UNL     1      20.674   3.938   5.341  1.00  0.00     0.034 A 
ATOM     53  C   UNL     1      15.912   3.017  10.381  1.00  0.00     0.034 A 
ATOM     54  C   UNL     1      21.189   3.406   6.574  1.00  0.00     0.049 A 
ATOM     55  C   UNL     1      17.351   2.619  10.566  1.00  0.00     0.074 A 
ATOM     56  C   UNL     1      22.491   3.050   6.880  1.00  0.00     0.029 A 
ATOM     57  N   UNL     1      20.428   3.141   7.702  1.00  0.00    -0.354 N 
ATOM     58  N   UNL     1      18.366   2.788   9.754  1.00  0.00    -0.248 NA
ATOM     59  C   UNL     1      17.703   1.978  11.842  1.00  0.00     0.031 C 
ATOM     60  C   UNL     1      22.512   2.546   8.185  1.00  0.00     0.029 A 
ATOM     61  C   UNL     1      21.229   2.616   8.702  1.00  0.00     0.049 A 
ATOM     62  H   UNL     1      19.460   3.304   7.780  1.00  0.00     0.167 HD
ATOM     63  C   UNL     1      19.480   2.306  10.430  1.00  0.00     0.074 A 
ATOM     64  C   UNL     1      19.019   1.864  11.731  1.00  0.00     0.031 C 
ATOM     65  C   UNL     1      20.766   2.221  10.008  1.00  0.00     0.034 A 
BRANCH  52  66
ATOM     66  C   UNL     1      21.626   4.103   4.184  1.00  0.00     0.023 A 
ATOM     67  C   UNL     1      22.048   5.396   3.809  1.00  0.00     0.012 A 
ATOM     68  C   UNL     1      22.152   2.983   3.510  1.00  0.00     0.148 A 
ATOM     69  C   UNL     1      22.951   5.574   2.761  1.00  0.00     0.002 A 
ATOM     70  C   UNL     1      23.087   3.167   2.497  1.00  0.00     0.091 A 
ATOM     71  F   UNL     1      21.724   1.764   3.865  1.00  0.00    -0.205 F 
ATOM     72  C   UNL     1      23.478   4.460   2.114  1.00  0.00     0.022 A 
BRANCH  70  73
ATOM     73  S   UNL     1      23.885   1.796   1.654  1.00  0.00     0.127 S 
ATOM     74  O   UNL     1      23.288   1.881   0.321  1.00  0.00    -0.237 OA
ATOM     75  O   UNL     1      25.296   2.178   1.715  1.00  0.00    -0.237 OA
ATOM     76  O   UNL     1      23.545   0.602   2.415  1.00  0.00    -0.744 OA
ENDBRANCH  70  73
ENDBRANCH  52  66
BRANCH  53  77
ATOM     77  C   UNL     1      14.907   2.778  11.455  1.00  0.00     0.023 A 
ATOM     78  C   UNL     1      15.002   3.493  12.665  1.00  0.00     0.012 A 
ATOM     79  C   UNL     1      13.847   1.869  11.275  1.00  0.00     0.148 A 
ATOM     80  C   UNL     1      14.079   3.281  13.690  1.00  0.00     0.002 A 
ATOM     81  C   UNL     1      12.898   1.705  12.278  1.00  0.00     0.091 A 
ATOM     82  F   UNL     1      13.780   1.191  10.120  1.00  0.00    -0.205 F 
ATOM     83  C   UNL     1      13.023   2.396  13.493  1.00  0.00     0.022 A 
BRANCH  81  84
ATOM     84  S   UNL     1      11.434   0.689  12.059  1.00  0.00     0.127 S 
ATOM     85  O   UNL     1      11.721  -0.442  12.938  1.00  0.00    -0.237 OA
ATOM     86  O   UNL     1      10.374   1.582  12.528  1.00  0.00    -0.237 OA
ATOM     87  O   UNL     1      11.376   0.386  10.636  1.00  0.00    -0.744 OA
ENDBRANCH  81  84
ENDBRANCH  53  77
BRANCH  65  88
ATOM     88  C   UNL     1      21.777   1.654  10.970  1.00  0.00     0.023 A 
ATOM     89  C   UNL     1      21.761   0.278  11.276  1.00  0.00     0.012 A 
ATOM     90  C   UNL     1      22.779   2.473  11.528  1.00  0.00     0.148 A 
ATOM     91  C   UNL     1      22.699  -0.265  12.153  1.00  0.00     0.002 A 
ATOM     92  C   UNL     1      23.741   1.915  12.361  1.00  0.00     0.091 A 
ATOM     93  F   UNL     1      22.768   3.783  11.242  1.00  0.00    -0.205 F 
ATOM     94  C   UNL     1      23.694   0.550  12.686  1.00  0.00     0.022 A 
BRANCH  92  95
ATOM     95  S   UNL     1      25.116   2.869  13.015  1.00  0.00     0.127 S 
ATOM     96  O   UNL     1      24.731   3.025  14.416  1.00  0.00    -0.237 OA
ATOM     97  O   UNL     1      26.251   1.972  12.790  1.00  0.00    -0.237 OA
ATOM     98  O   UNL     1      25.157   4.098  12.235  1.00  0.00    -0.744 OA
ENDBRANCH  92  95
ENDBRANCH  65  88
ENDBRANCH  39  40
ENDBRANCH  31  34
ENDBRANCH  29  30
ENDBRANCH  28  29
ENDBRANCH  27  28
ENDBRANCH   1  27
TORSDOF 19
