REMARK SMILES O=C(CNc1cc(N2CCCC2)c2noc3c2c1C(=O)c1ccccc1-3)NCCCCCCNC(=O)c1ccc(-c2c3nc(c(-c4cccc(S(=O)(=O)[O-])c4F)c4ccc([nH]4)c(-c4cccc(S(=O)(=O)[O-])c4F)c4nc(c(-c5cccc(S(=O)(=O)[O-])c5F)c5ccc2[nH]5)C=C4)C=C3)cc1
REMARK SMILES IDX 30 1 29 2 28 3 27 4 1 5 2 6 3 8 4 9 5 11 6 12 18 13 7 14
REMARK SMILES IDX 17 15 19 16 13 17 16 18 20 19 21 20 14 21 15 22 26 23 22 24
REMARK SMILES IDX 25 25 23 26 24 27 8 28 9 29 12 30 10 31 11 32 31 33 32 34
REMARK SMILES IDX 33 35 34 36 35 37 36 39 37 40 38 41 99 42 39 43 98 44 40 45
REMARK SMILES IDX 41 46 42 47 92 48 43 49 97 50 91 51 93 52 44 53 96 54 90 55
REMARK SMILES IDX 89 56 45 58 77 59 57 60 76 61 58 62 61 63 75 64 94 65 59 66
REMARK SMILES IDX 60 67 74 69 95 70 62 71 46 72 47 73 55 74 48 75 50 76 56 77
REMARK SMILES IDX 49 78 51 79 52 80 53 81 54 82 78 83 79 84 87 85 80 86 82 87
REMARK SMILES IDX 88 88 81 89 83 90 84 91 85 92 86 93 63 94 64 95 72 96 65 97
REMARK SMILES IDX 67 98 73 99 66 100 68 101 69 102 70 103 71 104
REMARK H PARENT 27 7 4 10 34 38 93 57 61 68
REMARK Flexibility Score: inf
ROOT
ATOM      1  C   UNL     1       4.262   2.187   2.736  1.00  0.00     0.002 C 
ENDROOT
BRANCH   1   2
ATOM      2  C   UNL     1       2.739   1.993   2.653  1.00  0.00     0.021 C 
BRANCH   2   3
ATOM      3  C   UNL     1       2.158   2.198   1.254  1.00  0.00     0.116 C 
BRANCH   3   4
ATOM      4  N   UNL     1       2.683   1.213   0.338  1.00  0.00    -0.355 N 
ATOM      5  O   UNL     1       0.857  -0.191   0.318  1.00  0.00    -0.273 OA
ATOM      6  C   UNL     1       2.005   0.068  -0.029  1.00  0.00     0.239 C 
ATOM      7  H   UNL     1       3.575   1.367  -0.046  1.00  0.00     0.163 HD
BRANCH   6   8
ATOM      8  C   UNL     1       2.877  -0.914  -0.825  1.00  0.00     0.213 C 
BRANCH   8   9
ATOM      9  N   UNL     1       3.927  -0.198  -1.554  1.00  0.00    -0.375 N 
ATOM     10  H   UNL     1       3.662   0.629  -2.019  1.00  0.00     0.161 HD
BRANCH   9  11
ATOM     11  C   UNL     1       5.259  -0.574  -1.653  1.00  0.00     0.049 A 
ATOM     12  C   UNL     1       6.178   0.550  -1.825  1.00  0.00     0.054 A 
ATOM     13  C   UNL     1       5.770  -1.883  -1.502  1.00  0.00     0.059 A 
ATOM     14  C   UNL     1       7.609   0.516  -1.882  1.00  0.00     0.069 A 
ATOM     15  C   UNL     1       7.154  -1.873  -1.556  1.00  0.00     0.065 A 
ATOM     16  C   UNL     1       5.100  -3.217  -1.372  1.00  0.00     0.196 C 
ATOM     17  C   UNL     1       8.081  -0.812  -1.740  1.00  0.00     0.138 A 
ATOM     18  C   UNL     1       7.869  -3.007  -1.369  1.00  0.00     0.176 A 
ATOM     19  O   UNL     1       3.899  -3.377  -1.545  1.00  0.00    -0.288 OA
ATOM     20  C   UNL     1       5.950  -4.425  -1.063  1.00  0.00     0.034 A 
ATOM     21  N   UNL     1       9.328  -1.345  -1.713  1.00  0.00    -0.077 NA
ATOM     22  O   UNL     1       9.185  -2.716  -1.464  1.00  0.00    -0.355 OA
ATOM     23  C   UNL     1       7.358  -4.318  -1.075  1.00  0.00     0.032 A 
ATOM     24  C   UNL     1       5.344  -5.650  -0.769  1.00  0.00     0.013 A 
ATOM     25  C   UNL     1       8.147  -5.430  -0.784  1.00  0.00     0.013 A 
ATOM     26  C   UNL     1       6.138  -6.759  -0.476  1.00  0.00     0.001 A 
ATOM     27  C   UNL     1       7.532  -6.649  -0.483  1.00  0.00     0.001 A 
BRANCH  14  28
ATOM     28  N   UNL     1       8.371   1.640  -2.056  1.00  0.00    -0.370 N 
ATOM     29  C   UNL     1       8.100   2.935  -1.441  1.00  0.00     0.116 C 
ATOM     30  C   UNL     1       9.289   1.750  -3.184  1.00  0.00     0.116 C 
ATOM     31  C   UNL     1       8.520   3.926  -2.518  1.00  0.00     0.023 C 
ATOM     32  C   UNL     1       9.695   3.226  -3.187  1.00  0.00     0.023 C 
ENDBRANCH  14  28
ENDBRANCH   9  11
ENDBRANCH   8   9
ENDBRANCH   6   8
ENDBRANCH   3   4
ENDBRANCH   2   3
ENDBRANCH   1   2
BRANCH   1  33
ATOM     33  C   UNL     1       4.772   3.600   2.419  1.00  0.00     0.002 C 
BRANCH  33  34
ATOM     34  C   UNL     1       4.066   4.734   3.168  1.00  0.00     0.021 C 
BRANCH  34  35
ATOM     35  C   UNL     1       4.071   4.571   4.686  1.00  0.00     0.116 C 
BRANCH  35  36
ATOM     36  N   UNL     1       5.275   5.086   5.316  1.00  0.00    -0.352 N 
ATOM     37  C   UNL     1       5.562   6.379   5.701  1.00  0.00     0.251 C 
ATOM     38  H   UNL     1       5.981   4.423   5.490  1.00  0.00     0.163 HD
ATOM     39  O   UNL     1       6.657   6.661   6.162  1.00  0.00    -0.269 OA
BRANCH  37  40
ATOM     40  C   UNL     1       4.526   7.414   5.516  1.00  0.00     0.039 A 
ATOM     41  C   UNL     1       3.275   7.263   6.120  1.00  0.00     0.014 A 
ATOM     42  C   UNL     1       4.791   8.500   4.678  1.00  0.00     0.014 A 
ATOM     43  C   UNL     1       2.241   8.119   5.772  1.00  0.00     0.010 A 
ATOM     44  C   UNL     1       3.764   9.390   4.367  1.00  0.00     0.010 A 
ATOM     45  C   UNL     1       2.480   9.173   4.881  1.00  0.00    -0.014 A 
BRANCH  45  46
ATOM     46  C   UNL     1       1.341  10.046   4.578  1.00  0.00     0.031 A 
ATOM     47  C   UNL     1       1.455  11.427   5.125  1.00  0.00     0.074 A 
ATOM     48  C   UNL     1       0.566   9.848   3.492  1.00  0.00     0.049 A 
ATOM     49  N   UNL     1       2.099  12.373   4.510  1.00  0.00    -0.248 NA
ATOM     50  C   UNL     1       1.089  11.750   6.503  1.00  0.00     0.031 C 
ATOM     51  C   UNL     1       1.054   9.301   2.219  1.00  0.00     0.029 A 
ATOM     52  N   UNL     1      -0.699  10.300   3.208  1.00  0.00    -0.354 N 
ATOM     53  C   UNL     1       2.302  13.385   5.428  1.00  0.00     0.074 A 
ATOM     54  C   UNL     1       1.638  12.966   6.644  1.00  0.00     0.031 C 
ATOM     55  C   UNL     1       0.176   9.628   1.248  1.00  0.00     0.029 A 
ATOM     56  C   UNL     1      -1.001  10.240   1.852  1.00  0.00     0.049 A 
ATOM     57  H   UNL     1      -1.325  10.631   3.892  1.00  0.00     0.167 HD
ATOM     58  C   UNL     1       3.022  14.505   5.154  1.00  0.00     0.034 A 
ATOM     59  C   UNL     1      -1.894  11.049   1.220  1.00  0.00     0.034 A 
ATOM     60  C   UNL     1       3.535  14.604   3.820  1.00  0.00     0.049 A 
ATOM     61  C   UNL     1      -1.119  12.346   1.194  1.00  0.00     0.074 A 
ATOM     62  C   UNL     1       4.724  14.333   3.178  1.00  0.00     0.029 A 
ATOM     63  N   UNL     1       2.665  14.957   2.815  1.00  0.00    -0.354 N 
ATOM     64  N   UNL     1      -0.141  12.639   0.374  1.00  0.00    -0.248 NA
ATOM     65  C   UNL     1      -1.184  13.194   2.387  1.00  0.00     0.031 C 
ATOM     66  C   UNL     1       4.382  14.114   1.806  1.00  0.00     0.029 A 
ATOM     67  C   UNL     1       2.997  14.229   1.700  1.00  0.00     0.049 A 
ATOM     68  H   UNL     1       1.935  15.615   2.884  1.00  0.00     0.167 HD
ATOM     69  C   UNL     1       0.712  13.473   1.104  1.00  0.00     0.074 A 
ATOM     70  C   UNL     1      -0.004  13.796   2.321  1.00  0.00     0.031 C 
ATOM     71  C   UNL     1       2.014  13.712   0.770  1.00  0.00     0.034 A 
BRANCH  58  72
ATOM     72  C   UNL     1       3.141  15.638   6.095  1.00  0.00     0.023 A 
ATOM     73  C   UNL     1       2.163  16.646   6.007  1.00  0.00     0.012 A 
ATOM     74  C   UNL     1       4.241  15.805   6.953  1.00  0.00     0.148 A 
ATOM     75  C   UNL     1       2.289  17.824   6.737  1.00  0.00     0.002 A 
ATOM     76  C   UNL     1       4.360  16.985   7.683  1.00  0.00     0.091 A 
ATOM     77  F   UNL     1       5.160  14.831   7.018  1.00  0.00    -0.205 F 
ATOM     78  C   UNL     1       3.390  17.996   7.568  1.00  0.00     0.022 A 
BRANCH  76  79
ATOM     79  S   UNL     1       5.735  17.324   8.790  1.00  0.00     0.127 S 
ATOM     80  O   UNL     1       6.410  18.425   8.105  1.00  0.00    -0.237 OA
ATOM     81  O   UNL     1       5.043  17.705  10.022  1.00  0.00    -0.237 OA
ATOM     82  O   UNL     1       6.493  16.084   8.881  1.00  0.00    -0.744 OA
ENDBRANCH  76  79
ENDBRANCH  58  72
BRANCH  59  83
ATOM     83  C   UNL     1      -3.302  10.907   1.733  1.00  0.00     0.023 A 
ATOM     84  C   UNL     1      -3.798   9.584   1.870  1.00  0.00     0.012 A 
ATOM     85  C   UNL     1      -4.159  11.956   2.108  1.00  0.00     0.148 A 
ATOM     86  C   UNL     1      -5.031   9.310   2.463  1.00  0.00     0.002 A 
ATOM     87  C   UNL     1      -5.368  11.680   2.748  1.00  0.00     0.091 A 
ATOM     88  F   UNL     1      -3.790  13.218   1.858  1.00  0.00    -0.205 F 
ATOM     89  C   UNL     1      -5.804  10.360   2.931  1.00  0.00     0.022 A 
BRANCH  87  90
ATOM     90  S   UNL     1      -6.398  12.971   3.459  1.00  0.00     0.127 S 
ATOM     91  O   UNL     1      -7.736  12.579   3.017  1.00  0.00    -0.237 OA
ATOM     92  O   UNL     1      -6.142  12.788   4.886  1.00  0.00    -0.237 OA
ATOM     93  O   UNL     1      -5.909  14.220   2.891  1.00  0.00    -0.744 OA
ENDBRANCH  87  90
ENDBRANCH  59  83
BRANCH  71  94
ATOM     94  C   UNL     1       2.459  13.235  -0.579  1.00  0.00     0.023 A 
ATOM     95  C   UNL     1       2.015  13.947  -1.709  1.00  0.00     0.012 A 
ATOM     96  C   UNL     1       3.370  12.173  -0.748  1.00  0.00     0.148 A 
ATOM     97  C   UNL     1       2.486  13.631  -2.982  1.00  0.00     0.002 A 
ATOM     98  C   UNL     1       3.859  11.880  -2.018  1.00  0.00     0.091 A 
ATOM     99  F   UNL     1       3.773  11.487   0.332  1.00  0.00    -0.205 F 
ATOM    100  C   UNL     1       3.417  12.608  -3.135  1.00  0.00     0.022 A 
BRANCH  98 101
ATOM    101  S   UNL     1       5.099  10.614  -2.322  1.00  0.00     0.127 S 
ATOM    102  O   UNL     1       4.476   9.816  -3.379  1.00  0.00    -0.237 OA
ATOM    103  O   UNL     1       6.244  11.412  -2.762  1.00  0.00    -0.237 OA
ATOM    104  O   UNL     1       5.285   9.906  -1.062  1.00  0.00    -0.744 OA
ENDBRANCH  98 101
ENDBRANCH  71  94
ENDBRANCH  45  46
ENDBRANCH  37  40
ENDBRANCH  35  36
ENDBRANCH  34  35
ENDBRANCH  33  34
ENDBRANCH   1  33
TORSDOF 19
