REMARK SMILES Cc1cc(C)c2c(CCCC(=O)NCCCCCCNC(=O)c3ccc(-c4c5nc(c(-c6cccc(S(=O)(=O)[O-])c6F)c6ccc([nH]6)c(-c6cccc(S(=O)(=O)[O-])c6F)c6nc(c(-c7cccc(S(=O)(=O)[O-])c7F)c7ccc4[nH]7)C=C6)C=C5)cc3)c(-c3ccccn3)[nH]c2c1
REMARK SMILES IDX 16 1 15 2 14 3 13 4 11 5 12 6 10 8 9 9 8 10 7 11 1 12 2 13
REMARK SMILES IDX 3 14 95 15 4 16 94 17 5 18 6 19 93 20 86 21 87 23 88 24
REMARK SMILES IDX 92 25 89 26 91 27 90 28 17 29 18 30 19 31 20 32 21 33 22 35
REMARK SMILES IDX 23 36 24 37 85 38 25 39 84 40 26 41 27 42 28 43 78 44 29 45
REMARK SMILES IDX 83 46 77 47 79 48 30 49 82 50 76 51 75 52 31 54 63 55 43 56
REMARK SMILES IDX 62 57 44 58 47 59 61 60 80 61 45 62 46 63 60 65 81 66 48 67
REMARK SMILES IDX 32 68 33 69 41 70 34 71 36 72 42 73 35 74 37 75 38 76 39 77
REMARK SMILES IDX 40 78 64 79 65 80 73 81 66 82 68 83 74 84 67 85 69 86 70 87
REMARK SMILES IDX 71 88 72 89 49 90 50 91 58 92 51 93 53 94 59 95 52 96 54 97
REMARK SMILES IDX 55 98 56 99 57 100
REMARK H PARENT 13 7 93 22 20 34 79 53 47 64
REMARK Flexibility Score: inf
ROOT
ATOM      1  C   UNL     1      -2.506   7.361  -3.792  1.00  0.00     0.002 C 
ENDROOT
BRANCH   1   2
ATOM      2  C   UNL     1      -2.476   6.985  -2.309  1.00  0.00     0.021 C 
BRANCH   2   3
ATOM      3  C   UNL     1      -1.416   7.758  -1.536  1.00  0.00     0.116 C 
BRANCH   3   4
ATOM      4  N   UNL     1      -1.907   8.973  -0.941  1.00  0.00    -0.356 N 
ATOM      5  C   UNL     1      -1.931   9.397   0.344  1.00  0.00     0.220 C 
ATOM      6  O   UNL     1      -2.186  10.600   0.501  1.00  0.00    -0.275 OA
ATOM      7  H   UNL     1      -2.296   9.609  -1.584  1.00  0.00     0.163 HD
BRANCH   5   8
ATOM      8  C   UNL     1      -1.536   8.565   1.553  1.00  0.00     0.100 C 
BRANCH   8   9
ATOM      9  C   UNL     1      -2.118   7.218   1.915  1.00  0.00     0.015 C 
BRANCH   9  10
ATOM     10  C   UNL     1      -1.817   5.949   1.137  1.00  0.00     0.039 C 
BRANCH  10  11
ATOM     11  C   UNL     1      -0.442   5.340   0.877  1.00  0.00    -0.013 A 
ATOM     12  C   UNL     1       1.013  -0.162  -0.057  1.00  0.00     0.044 C 
ATOM     13  C   UNL     1       0.567   1.257   0.133  1.00  0.00    -0.049 A 
ATOM     14  C   UNL     1      -0.793   1.520   0.298  1.00  0.00     0.007 A 
ATOM     15  C   UNL     1       1.482   2.312   0.143  1.00  0.00     0.030 A 
ATOM     16  C   UNL     1      -1.289   2.826   0.508  1.00  0.00    -0.041 A 
ATOM     17  C   UNL     1       0.997   3.601   0.394  1.00  0.00     0.047 A 
ATOM     18  C   UNL     1      -2.791   2.965   0.606  1.00  0.00     0.045 C 
ATOM     19  C   UNL     1      -0.346   3.896   0.612  1.00  0.00     0.006 A 
ATOM     20  N   UNL     1       1.683   4.781   0.463  1.00  0.00    -0.353 N 
ATOM     21  C   UNL     1       0.848   5.860   0.644  1.00  0.00     0.068 A 
ATOM     22  H   UNL     1       2.663   4.851   0.392  1.00  0.00     0.167 HD
BRANCH  21  23
ATOM     23  C   UNL     1       1.427   7.189   0.418  1.00  0.00     0.087 A 
ATOM     24  C   UNL     1       1.726   7.621  -0.875  1.00  0.00     0.030 A 
ATOM     25  N   UNL     1       1.635   7.963   1.500  1.00  0.00    -0.255 NA
ATOM     26  C   UNL     1       2.059   8.958  -1.083  1.00  0.00     0.004 A 
ATOM     27  C   UNL     1       1.941   9.266   1.268  1.00  0.00     0.112 A 
ATOM     28  C   UNL     1       2.124   9.812   0.007  1.00  0.00     0.020 A 
ENDBRANCH  21  23
ENDBRANCH  10  11
ENDBRANCH   9  10
ENDBRANCH   8   9
ENDBRANCH   5   8
ENDBRANCH   3   4
ENDBRANCH   2   3
ENDBRANCH   1   2
BRANCH   1  29
ATOM     29  C   UNL     1      -1.223   7.040  -4.581  1.00  0.00     0.002 C 
BRANCH  29  30
ATOM     30  C   UNL     1      -0.761   5.575  -4.576  1.00  0.00     0.021 C 
BRANCH  30  31
ATOM     31  C   UNL     1      -1.762   4.622  -5.211  1.00  0.00     0.116 C 
BRANCH  31  32
ATOM     32  N   UNL     1      -2.012   4.954  -6.615  1.00  0.00    -0.352 N 
ATOM     33  C   UNL     1      -2.874   4.346  -7.505  1.00  0.00     0.251 C 
ATOM     34  H   UNL     1      -1.495   5.712  -6.972  1.00  0.00     0.163 HD
ATOM     35  O   UNL     1      -2.748   4.504  -8.709  1.00  0.00    -0.269 OA
BRANCH  33  36
ATOM     36  C   UNL     1      -3.961   3.514  -6.965  1.00  0.00     0.039 A 
ATOM     37  C   UNL     1      -4.293   2.290  -7.550  1.00  0.00     0.014 A 
ATOM     38  C   UNL     1      -4.628   3.977  -5.833  1.00  0.00     0.014 A 
ATOM     39  C   UNL     1      -5.262   1.502  -6.938  1.00  0.00     0.010 A 
ATOM     40  C   UNL     1      -5.459   3.135  -5.146  1.00  0.00     0.010 A 
ATOM     41  C   UNL     1      -5.826   1.927  -5.725  1.00  0.00    -0.014 A 
BRANCH  41  42
ATOM     42  C   UNL     1      -6.697   1.046  -4.957  1.00  0.00     0.031 A 
ATOM     43  C   UNL     1      -6.047  -0.246  -4.608  1.00  0.00     0.074 A 
ATOM     44  C   UNL     1      -7.867   1.471  -4.428  1.00  0.00     0.049 A 
ATOM     45  N   UNL     1      -6.337  -1.418  -5.067  1.00  0.00    -0.248 NA
ATOM     46  C   UNL     1      -4.811  -0.218  -3.804  1.00  0.00     0.031 C 
ATOM     47  C   UNL     1      -8.402   2.843  -4.449  1.00  0.00     0.029 A 
ATOM     48  N   UNL     1      -8.760   0.823  -3.628  1.00  0.00    -0.354 N 
ATOM     49  C   UNL     1      -5.511  -2.297  -4.367  1.00  0.00     0.074 A 
ATOM     50  C   UNL     1      -4.447  -1.504  -3.819  1.00  0.00     0.031 C 
ATOM     51  C   UNL     1      -9.338   2.981  -3.485  1.00  0.00     0.029 A 
ATOM     52  C   UNL     1      -9.610   1.675  -2.920  1.00  0.00     0.049 A 
ATOM     53  H   UNL     1      -8.802  -0.158  -3.556  1.00  0.00     0.167 HD
ATOM     54  C   UNL     1      -5.967  -3.530  -4.008  1.00  0.00     0.034 A 
ATOM     55  C   UNL     1     -10.451   1.327  -1.916  1.00  0.00     0.034 A 
ATOM     56  C   UNL     1      -7.204  -3.827  -4.679  1.00  0.00     0.049 A 
ATOM     57  C   UNL     1     -10.710  -0.119  -2.060  1.00  0.00     0.074 A 
ATOM     58  C   UNL     1      -7.602  -4.200  -5.942  1.00  0.00     0.029 A 
ATOM     59  N   UNL     1      -8.296  -3.309  -4.034  1.00  0.00    -0.354 N 
ATOM     60  N   UNL     1     -11.339  -0.632  -3.079  1.00  0.00    -0.248 NA
ATOM     61  C   UNL     1      -9.973  -1.061  -1.228  1.00  0.00     0.031 C 
ATOM     62  C   UNL     1      -8.948  -3.747  -6.081  1.00  0.00     0.029 A 
ATOM     63  C   UNL     1      -9.354  -3.159  -4.885  1.00  0.00     0.049 A 
ATOM     64  H   UNL     1      -8.316  -3.075  -3.078  1.00  0.00     0.167 HD
ATOM     65  C   UNL     1     -10.700  -1.840  -3.276  1.00  0.00     0.074 A 
ATOM     66  C   UNL     1     -10.029  -2.138  -2.016  1.00  0.00     0.031 C 
ATOM     67  C   UNL     1     -10.473  -2.313  -4.532  1.00  0.00     0.034 A 
BRANCH  54  68
ATOM     68  C   UNL     1      -5.606  -4.266  -2.734  1.00  0.00     0.023 A 
ATOM     69  C   UNL     1      -6.050  -5.602  -2.608  1.00  0.00     0.012 A 
ATOM     70  C   UNL     1      -5.106  -3.652  -1.563  1.00  0.00     0.148 A 
ATOM     71  C   UNL     1      -6.011  -6.282  -1.383  1.00  0.00     0.002 A 
ATOM     72  C   UNL     1      -4.987  -4.357  -0.370  1.00  0.00     0.091 A 
ATOM     73  F   UNL     1      -4.872  -2.337  -1.547  1.00  0.00    -0.205 F 
ATOM     74  C   UNL     1      -5.464  -5.664  -0.266  1.00  0.00     0.022 A 
BRANCH  72  75
ATOM     75  S   UNL     1      -4.232  -3.623   1.089  1.00  0.00     0.127 S 
ATOM     76  O   UNL     1      -5.380  -3.488   1.979  1.00  0.00    -0.237 OA
ATOM     77  O   UNL     1      -3.267  -4.656   1.471  1.00  0.00    -0.237 OA
ATOM     78  O   UNL     1      -3.623  -2.380   0.631  1.00  0.00    -0.744 OA
ENDBRANCH  72  75
ENDBRANCH  54  68
BRANCH  55  79
ATOM     79  C   UNL     1     -10.890   2.053  -0.700  1.00  0.00     0.023 A 
ATOM     80  C   UNL     1     -12.038   1.603  -0.013  1.00  0.00     0.012 A 
ATOM     81  C   UNL     1     -10.004   2.918  -0.026  1.00  0.00     0.148 A 
ATOM     82  C   UNL     1     -12.253   1.934   1.330  1.00  0.00     0.002 A 
ATOM     83  C   UNL     1     -10.215   3.233   1.314  1.00  0.00     0.091 A 
ATOM     84  F   UNL     1      -8.907   3.343  -0.668  1.00  0.00    -0.205 F 
ATOM     85  C   UNL     1     -11.329   2.729   2.000  1.00  0.00     0.022 A 
BRANCH  83  86
ATOM     86  S   UNL     1      -9.033   4.191   2.274  1.00  0.00     0.127 S 
ATOM     87  O   UNL     1      -9.896   5.192   2.903  1.00  0.00    -0.237 OA
ATOM     88  O   UNL     1      -8.501   3.181   3.184  1.00  0.00    -0.237 OA
ATOM     89  O   UNL     1      -8.085   4.734   1.309  1.00  0.00    -0.744 OA
ENDBRANCH  83  86
ENDBRANCH  55  79
BRANCH  67  90
ATOM     90  C   UNL     1     -11.338  -1.803  -5.645  1.00  0.00     0.023 A 
ATOM     91  C   UNL     1     -11.276  -0.486  -6.141  1.00  0.00     0.012 A 
ATOM     92  C   UNL     1     -12.156  -2.741  -6.293  1.00  0.00     0.148 A 
ATOM     93  C   UNL     1     -12.022  -0.117  -7.266  1.00  0.00     0.002 A 
ATOM     94  C   UNL     1     -12.851  -2.387  -7.439  1.00  0.00     0.091 A 
ATOM     95  F   UNL     1     -12.213  -3.983  -5.788  1.00  0.00    -0.205 F 
ATOM     96  C   UNL     1     -12.795  -1.072  -7.925  1.00  0.00     0.022 A 
BRANCH  94  97
ATOM     97  S   UNL     1     -13.746  -3.609  -8.397  1.00  0.00     0.127 S 
ATOM     98  O   UNL     1     -15.137  -3.260  -8.114  1.00  0.00    -0.237 OA
ATOM     99  O   UNL     1     -13.305  -3.319  -9.762  1.00  0.00    -0.237 OA
ATOM    100  O   UNL     1     -13.313  -4.909  -7.896  1.00  0.00    -0.744 OA
ENDBRANCH  94  97
ENDBRANCH  67  90
ENDBRANCH  41  42
ENDBRANCH  33  36
ENDBRANCH  31  32
ENDBRANCH  30  31
ENDBRANCH  29  30
ENDBRANCH   1  29
TORSDOF 20
