REMARK SMILES Cc1ccc(NC(=O)C[NH+]2CCC(C(=O)NCCCCCCNC(=O)c3ccc(-c4c5nc(c(-c6cccc(S(=O)(=O)[O-])c6F)c6ccc([nH]6)c(-c6cccc(S(=O)(=O)[O-])c6F)c6nc(c(-c7cccc(S(=O)(=O)[O-])c7F)c7ccc4[nH]7)C=C6)C=C5)cc3)CC2)cc1Cl
REMARK SMILES IDX 19 1 18 2 17 3 16 4 14 5 15 6 13 8 10 9 11 10 90 11 12 13
REMARK SMILES IDX 89 14 9 15 7 16 6 17 8 19 5 20 1 21 2 22 3 23 92 24 4 25
REMARK SMILES IDX 91 26 93 27 20 28 21 29 22 30 23 31 24 32 25 34 26 35 27 36
REMARK SMILES IDX 88 37 28 38 87 39 29 40 30 41 31 42 81 43 32 44 86 45 80 46
REMARK SMILES IDX 82 47 33 48 85 49 79 50 78 51 34 53 66 54 46 55 65 56 47 57
REMARK SMILES IDX 50 58 64 59 83 60 48 61 49 62 63 64 84 65 51 66 35 67 36 68
REMARK SMILES IDX 44 69 37 70 39 71 45 72 38 73 40 74 41 75 42 76 43 77 67 78
REMARK SMILES IDX 68 79 76 80 69 81 71 82 77 83 70 84 72 85 73 86 74 87 75 88
REMARK SMILES IDX 52 89 53 90 61 91 54 92 56 93 62 94 55 95 57 96 58 97 59 98
REMARK SMILES IDX 60 99
REMARK H PARENT 16 7 10 12 6 18 23 33 82 52 50 63
REMARK Flexibility Score: inf
ROOT
ATOM      1  C   UNL     1       4.427  -2.368  -5.988  1.00  0.00     0.002 C 
ENDROOT
BRANCH   1   2
ATOM      2  C   UNL     1       3.486  -3.050  -4.992  1.00  0.00     0.021 C 
BRANCH   2   3
ATOM      3  C   UNL     1       2.465  -2.107  -4.371  1.00  0.00     0.116 C 
BRANCH   3   4
ATOM      4  N   UNL     1       1.511  -1.645  -5.370  1.00  0.00    -0.356 N 
ATOM      5  C   UNL     1       0.152  -1.694  -5.393  1.00  0.00     0.223 C 
ATOM      6  O   UNL     1      -0.428  -1.264  -6.393  1.00  0.00    -0.275 OA
ATOM      7  H   UNL     1       1.919  -1.226  -6.162  1.00  0.00     0.163 HD
BRANCH   5   8
ATOM      8  C   UNL     1      -0.641  -2.203  -4.202  1.00  0.00     0.089 C 
ATOM      9  N   UNL     1      -0.425  -3.336  -1.533  1.00  0.00    -0.327 N 
ATOM     10  C   UNL     1      -1.032  -4.144  -2.588  1.00  0.00     0.263 C 
ATOM     11  C   UNL     1      -0.777  -1.931  -1.691  1.00  0.00     0.263 C 
ATOM     12  H   UNL     1       0.586  -3.419  -1.644  1.00  0.00     0.348 HD
ATOM     13  C   UNL     1      -0.484  -3.709  -3.954  1.00  0.00     0.075 C 
ATOM     14  C   UNL     1      -0.341  -1.317  -2.999  1.00  0.00     0.075 C 
BRANCH   9  15
ATOM     15  C   UNL     1      -0.695  -3.844  -0.160  1.00  0.00     0.363 C 
BRANCH  15  16
ATOM     16  C   UNL     1      -2.132  -3.641   0.356  1.00  0.00     0.279 C 
ATOM     17  N   UNL     1      -2.567  -2.469   0.934  1.00  0.00    -0.321 N 
ATOM     18  H   UNL     1      -3.491  -2.494   1.273  1.00  0.00     0.170 HD
ATOM     19  O   UNL     1      -2.984  -4.523   0.183  1.00  0.00    -0.268 OA
BRANCH  17  20
ATOM     20  C   UNL     1      -1.905  -1.243   1.117  1.00  0.00     0.042 A 
ATOM     21  C   UNL     1       0.254   2.417   0.404  1.00  0.00     0.046 C 
ATOM     22  C   UNL     1      -0.516   1.188   0.807  1.00  0.00    -0.032 A 
ATOM     23  C   UNL     1      -1.879   1.101   0.493  1.00  0.00     0.007 A 
ATOM     24  C   UNL     1       0.106   0.074   1.392  1.00  0.00     0.046 A 
ATOM     25  C   UNL     1      -2.577  -0.097   0.676  1.00  0.00     0.026 A 
ATOM     26  C   UNL     1      -0.591  -1.129   1.566  1.00  0.00     0.047 A 
ATOM     27  Cl  UNL     1       1.782   0.095   1.810  1.00  0.00    -0.084 Cl
ENDBRANCH  17  20
ENDBRANCH  15  16
ENDBRANCH   9  15
ENDBRANCH   5   8
ENDBRANCH   3   4
ENDBRANCH   2   3
ENDBRANCH   1   2
BRANCH   1  28
ATOM     28  C   UNL     1       5.250  -1.212  -5.410  1.00  0.00     0.002 C 
BRANCH  28  29
ATOM     29  C   UNL     1       6.100  -1.566  -4.185  1.00  0.00     0.021 C 
BRANCH  29  30
ATOM     30  C   UNL     1       7.024  -2.767  -4.367  1.00  0.00     0.116 C 
BRANCH  30  31
ATOM     31  N   UNL     1       7.912  -2.612  -5.507  1.00  0.00    -0.352 N 
ATOM     32  C   UNL     1       9.252  -2.874  -5.611  1.00  0.00     0.251 C 
ATOM     33  H   UNL     1       7.488  -2.267  -6.325  1.00  0.00     0.163 HD
ATOM     34  O   UNL     1       9.862  -2.526  -6.621  1.00  0.00    -0.269 OA
BRANCH  32  35
ATOM     35  C   UNL     1       9.969  -3.553  -4.510  1.00  0.00     0.039 A 
ATOM     36  C   UNL     1      11.230  -3.076  -4.145  1.00  0.00     0.014 A 
ATOM     37  C   UNL     1       9.424  -4.665  -3.861  1.00  0.00     0.014 A 
ATOM     38  C   UNL     1      11.928  -3.691  -3.104  1.00  0.00     0.010 A 
ATOM     39  C   UNL     1      10.093  -5.236  -2.779  1.00  0.00     0.010 A 
ATOM     40  C   UNL     1      11.356  -4.762  -2.398  1.00  0.00    -0.014 A 
BRANCH  40  41
ATOM     41  C   UNL     1      12.076  -5.379  -1.256  1.00  0.00     0.031 A 
ATOM     42  C   UNL     1      12.550  -6.805  -1.325  1.00  0.00     0.074 A 
ATOM     43  C   UNL     1      12.264  -4.661  -0.131  1.00  0.00     0.049 A 
ATOM     44  N   UNL     1      13.223  -7.492  -0.437  1.00  0.00    -0.248 NA
ATOM     45  C   UNL     1      12.207  -7.568  -2.537  1.00  0.00     0.031 C 
ATOM     46  C   UNL     1      11.763  -3.303   0.097  1.00  0.00     0.029 A 
ATOM     47  N   UNL     1      12.909  -4.976   1.037  1.00  0.00    -0.354 N 
ATOM     48  C   UNL     1      13.369  -8.767  -0.972  1.00  0.00     0.074 A 
ATOM     49  C   UNL     1      12.676  -8.773  -2.242  1.00  0.00     0.031 C 
ATOM     50  C   UNL     1      12.125  -2.901   1.325  1.00  0.00     0.029 A 
ATOM     51  C   UNL     1      12.872  -3.973   1.976  1.00  0.00     0.049 A 
ATOM     52  H   UNL     1      13.357  -5.840   1.189  1.00  0.00     0.167 HD
ATOM     53  C   UNL     1      14.052  -9.824  -0.472  1.00  0.00     0.034 A 
ATOM     54  C   UNL     1      13.389  -3.918   3.219  1.00  0.00     0.034 A 
ATOM     55  C   UNL     1      14.771  -9.804   0.774  1.00  0.00     0.049 A 
ATOM     56  C   UNL     1      14.202  -5.080   3.721  1.00  0.00     0.074 A 
ATOM     57  C   UNL     1      15.549 -10.800   1.337  1.00  0.00     0.029 A 
ATOM     58  N   UNL     1      14.800  -8.731   1.652  1.00  0.00    -0.354 N 
ATOM     59  N   UNL     1      14.472  -6.216   3.126  1.00  0.00    -0.248 NA
ATOM     60  C   UNL     1      14.823  -4.933   5.045  1.00  0.00     0.031 C 
ATOM     61  C   UNL     1      16.044 -10.332   2.560  1.00  0.00     0.029 A 
ATOM     62  C   UNL     1      15.585  -9.038   2.751  1.00  0.00     0.049 A 
ATOM     63  H   UNL     1      14.332  -7.876   1.515  1.00  0.00     0.167 HD
ATOM     64  C   UNL     1      15.314  -6.908   3.988  1.00  0.00     0.074 A 
ATOM     65  C   UNL     1      15.537  -6.047   5.132  1.00  0.00     0.031 C 
ATOM     66  C   UNL     1      15.838  -8.152   3.858  1.00  0.00     0.034 A 
BRANCH  53  67
ATOM     67  C   UNL     1      14.121 -11.071  -1.316  1.00  0.00     0.023 A 
ATOM     68  C   UNL     1      14.918 -11.067  -2.480  1.00  0.00     0.012 A 
ATOM     69  C   UNL     1      13.460 -12.255  -0.936  1.00  0.00     0.148 A 
ATOM     70  C   UNL     1      15.030 -12.210  -3.271  1.00  0.00     0.002 A 
ATOM     71  C   UNL     1      13.610 -13.403  -1.708  1.00  0.00     0.091 A 
ATOM     72  F   UNL     1      12.691 -12.236   0.162  1.00  0.00    -0.205 F 
ATOM     73  C   UNL     1      14.385 -13.379  -2.879  1.00  0.00     0.022 A 
BRANCH  71  74
ATOM     74  S   UNL     1      12.881 -14.981  -1.252  1.00  0.00     0.127 S 
ATOM     75  O   UNL     1      11.830 -15.123  -2.259  1.00  0.00    -0.237 OA
ATOM     76  O   UNL     1      14.009 -15.900  -1.416  1.00  0.00    -0.237 OA
ATOM     77  O   UNL     1      12.417 -14.828   0.119  1.00  0.00    -0.744 OA
ENDBRANCH  71  74
ENDBRANCH  53  67
BRANCH  54  78
ATOM     78  C   UNL     1      13.220  -2.686   4.038  1.00  0.00     0.023 A 
ATOM     79  C   UNL     1      14.330  -1.854   4.279  1.00  0.00     0.012 A 
ATOM     80  C   UNL     1      11.961  -2.315   4.549  1.00  0.00     0.148 A 
ATOM     81  C   UNL     1      14.197  -0.693   5.042  1.00  0.00     0.002 A 
ATOM     82  C   UNL     1      11.825  -1.128   5.261  1.00  0.00     0.091 A 
ATOM     83  F   UNL     1      10.918  -3.126   4.323  1.00  0.00    -0.205 F 
ATOM     84  C   UNL     1      12.944  -0.324   5.523  1.00  0.00     0.022 A 
BRANCH  82  85
ATOM     85  S   UNL     1      10.220  -0.516   5.789  1.00  0.00     0.127 S 
ATOM     86  O   UNL     1      10.234  -0.834   7.216  1.00  0.00    -0.237 OA
ATOM     87  O   UNL     1      10.319   0.912   5.477  1.00  0.00    -0.237 OA
ATOM     88  O   UNL     1       9.247  -1.234   4.983  1.00  0.00    -0.744 OA
ENDBRANCH  82  85
ENDBRANCH  54  78
BRANCH  66  89
ATOM     89  C   UNL     1      16.716  -8.654   4.974  1.00  0.00     0.023 A 
ATOM     90  C   UNL     1      16.137  -9.015   6.207  1.00  0.00     0.012 A 
ATOM     91  C   UNL     1      18.103  -8.818   4.787  1.00  0.00     0.148 A 
ATOM     92  C   UNL     1      16.928  -9.494   7.249  1.00  0.00     0.002 A 
ATOM     93  C   UNL     1      18.879  -9.339   5.816  1.00  0.00     0.091 A 
ATOM     94  F   UNL     1      18.641  -8.449   3.616  1.00  0.00    -0.205 F 
ATOM     95  C   UNL     1      18.296  -9.667   7.051  1.00  0.00     0.022 A 
BRANCH  93  96
ATOM     96  S   UNL     1      20.632  -9.677   5.614  1.00  0.00     0.127 S 
ATOM     97  O   UNL     1      21.236  -8.539   6.304  1.00  0.00    -0.237 OA
ATOM     98  O   UNL     1      20.787 -10.960   6.301  1.00  0.00    -0.237 OA
ATOM     99  O   UNL     1      20.859  -9.736   4.176  1.00  0.00    -0.744 OA
ENDBRANCH  93  96
ENDBRANCH  66  89
ENDBRANCH  40  41
ENDBRANCH  32  35
ENDBRANCH  30  31
ENDBRANCH  29  30
ENDBRANCH  28  29
ENDBRANCH   1  28
TORSDOF 19
