REMARK SMILES CC(C)[C@@H]1CN(C(=O)Cc2ccsc2)C[C@H]1C(=O)NCCCCCCNC(=O)c1ccc(-c2c3nc(c(-c4cccc(S(=O)(=O)[O-])c4F)c4ccc([nH]4)c(-c4cccc(S(=O)(=O)[O-])c4F)c4nc(c(-c5cccc(S(=O)(=O)[O-])c5F)c5ccc2[nH]5)C=C4)C=C3)cc1
REMARK SMILES IDX 22 1 21 2 20 3 19 4 17 5 18 6 16 8 4 9 5 10 6 11 15 12 2 13
REMARK SMILES IDX 1 14 3 15 7 16 8 17 9 18 10 19 11 20 14 21 12 22 13 23 23 24
REMARK SMILES IDX 24 25 25 26 26 27 27 28 28 30 29 31 30 32 91 33 31 34 90 35
REMARK SMILES IDX 32 36 33 37 34 38 84 39 35 40 89 41 83 42 85 43 36 44 88 45
REMARK SMILES IDX 82 46 81 47 37 49 69 50 49 51 68 52 50 53 53 54 67 55 86 56
REMARK SMILES IDX 51 57 52 58 66 60 87 61 54 62 38 63 39 64 47 65 40 66 42 67
REMARK SMILES IDX 48 68 41 69 43 70 44 71 45 72 46 73 70 74 71 75 79 76 72 77
REMARK SMILES IDX 74 78 80 79 73 80 75 81 76 82 77 83 78 84 55 85 56 86 64 87
REMARK SMILES IDX 57 88 59 89 65 90 58 91 60 92 61 93 62 94 63 95
REMARK H PARENT 19 7 26 29 85 48 53 59
REMARK Flexibility Score: inf
ROOT
ATOM      1  C   UNL     1      -2.932   3.225   4.631  1.00  0.00     0.002 C 
ENDROOT
BRANCH   1   2
ATOM      2  C   UNL     1      -2.644   2.220   3.512  1.00  0.00     0.021 C 
BRANCH   2   3
ATOM      3  C   UNL     1      -3.205   2.637   2.156  1.00  0.00     0.116 C 
BRANCH   3   4
ATOM      4  N   UNL     1      -2.483   3.783   1.629  1.00  0.00    -0.356 N 
ATOM      5  C   UNL     1      -1.717   3.916   0.516  1.00  0.00     0.225 C 
ATOM      6  O   UNL     1      -1.157   5.000   0.329  1.00  0.00    -0.275 OA
ATOM      7  H   UNL     1      -2.562   4.601   2.171  1.00  0.00     0.163 HD
BRANCH   5   8
ATOM      8  C   UNL     1      -1.541   2.788  -0.480  1.00  0.00     0.103 C 
ATOM      9  C   UNL     1      -0.832   1.532   0.077  1.00  0.00     0.025 C 
ATOM     10  C   UNL     1      -1.482   0.395  -0.715  1.00  0.00     0.124 C 
ATOM     11  N   UNL     1      -2.832   0.864  -0.974  1.00  0.00    -0.341 N 
ATOM     12  C   UNL     1      -2.877   2.311  -1.046  1.00  0.00     0.133 C 
BRANCH   9  13
ATOM     13  C   UNL     1       0.718   1.552   0.091  1.00  0.00    -0.012 C 
ATOM     14  C   UNL     1       1.307   0.139   0.177  1.00  0.00     0.008 C 
ATOM     15  C   UNL     1       1.370   2.307  -1.067  1.00  0.00     0.008 C 
ENDBRANCH   9  13
BRANCH  11  16
ATOM     16  C   UNL     1      -3.970   0.119  -1.211  1.00  0.00     0.227 C 
ATOM     17  O   UNL     1      -5.043   0.671  -1.465  1.00  0.00    -0.275 OA
BRANCH  16  18
ATOM     18  C   UNL     1      -3.875  -1.395  -1.125  1.00  0.00     0.136 C 
BRANCH  18  19
ATOM     19  C   UNL     1      -3.122  -2.045  -2.257  1.00  0.00    -0.028 A 
ATOM     20  C   UNL     1      -2.892  -3.462  -2.327  1.00  0.00     0.016 A 
ATOM     21  C   UNL     1      -2.573  -1.418  -3.362  1.00  0.00     0.069 A 
ATOM     22  C   UNL     1      -2.157  -3.831  -3.430  1.00  0.00     0.065 A 
ATOM     23  S   UNL     1      -1.737  -2.490  -4.398  1.00  0.00    -0.152 S 
ENDBRANCH  18  19
ENDBRANCH  16  18
ENDBRANCH  11  16
ENDBRANCH   5   8
ENDBRANCH   3   4
ENDBRANCH   2   3
ENDBRANCH   1   2
BRANCH   1  24
ATOM     24  C   UNL     1      -4.415   3.554   4.828  1.00  0.00     0.002 C 
BRANCH  24  25
ATOM     25  C   UNL     1      -5.323   2.337   5.024  1.00  0.00     0.021 C 
BRANCH  25  26
ATOM     26  C   UNL     1      -4.933   1.445   6.197  1.00  0.00     0.116 C 
BRANCH  26  27
ATOM     27  N   UNL     1      -4.988   2.160   7.462  1.00  0.00    -0.352 N 
ATOM     28  C   UNL     1      -5.680   1.844   8.602  1.00  0.00     0.251 C 
ATOM     29  H   UNL     1      -4.454   2.986   7.505  1.00  0.00     0.163 HD
ATOM     30  O   UNL     1      -5.788   2.672   9.506  1.00  0.00    -0.269 OA
BRANCH  28  31
ATOM     31  C   UNL     1      -6.304   0.512   8.733  1.00  0.00     0.039 A 
ATOM     32  C   UNL     1      -7.609   0.419   9.221  1.00  0.00     0.014 A 
ATOM     33  C   UNL     1      -5.601  -0.641   8.371  1.00  0.00     0.014 A 
ATOM     34  C   UNL     1      -8.227  -0.830   9.298  1.00  0.00     0.010 A 
ATOM     35  C   UNL     1      -6.247  -1.873   8.374  1.00  0.00     0.010 A 
ATOM     36  C   UNL     1      -7.562  -1.982   8.847  1.00  0.00    -0.014 A 
BRANCH  36  37
ATOM     37  C   UNL     1      -8.231  -3.308   8.856  1.00  0.00     0.031 A 
ATOM     38  C   UNL     1      -7.680  -4.431   9.692  1.00  0.00     0.074 A 
ATOM     39  C   UNL     1      -9.290  -3.523   8.051  1.00  0.00     0.049 A 
ATOM     40  N   UNL     1      -8.103  -5.665   9.796  1.00  0.00    -0.248 NA
ATOM     41  C   UNL     1      -6.482  -4.139  10.496  1.00  0.00     0.031 C 
ATOM     42  C   UNL     1      -9.872  -2.537   7.138  1.00  0.00     0.029 A 
ATOM     43  N   UNL     1     -10.051  -4.647   7.854  1.00  0.00    -0.354 N 
ATOM     44  C   UNL     1      -7.208  -6.302  10.647  1.00  0.00     0.074 A 
ATOM     45  C   UNL     1      -6.196  -5.331  10.999  1.00  0.00     0.031 C 
ATOM     46  C   UNL     1     -10.905  -3.095   6.488  1.00  0.00     0.029 A 
ATOM     47  C   UNL     1     -11.038  -4.486   6.910  1.00  0.00     0.049 A 
ATOM     48  H   UNL     1      -9.905  -5.490   8.343  1.00  0.00     0.167 HD
ATOM     49  C   UNL     1      -7.240  -7.572  11.118  1.00  0.00     0.034 A 
ATOM     50  C   UNL     1     -11.943  -5.362   6.431  1.00  0.00     0.034 A 
ATOM     51  C   UNL     1      -8.266  -8.526  10.788  1.00  0.00     0.049 A 
ATOM     52  C   UNL     1     -11.969  -6.761   6.982  1.00  0.00     0.074 A 
ATOM     53  C   UNL     1      -8.435  -9.809  11.276  1.00  0.00     0.029 A 
ATOM     54  N   UNL     1      -9.287  -8.307   9.877  1.00  0.00    -0.354 N 
ATOM     55  N   UNL     1     -11.208  -7.300   7.903  1.00  0.00    -0.248 NA
ATOM     56  C   UNL     1     -13.002  -7.663   6.452  1.00  0.00     0.031 C 
ATOM     57  C   UNL     1      -9.539 -10.379  10.632  1.00  0.00     0.029 A 
ATOM     58  C   UNL     1     -10.081  -9.437   9.773  1.00  0.00     0.049 A 
ATOM     59  H   UNL     1      -9.428  -7.471   9.376  1.00  0.00     0.167 HD
ATOM     60  C   UNL     1     -11.691  -8.590   8.090  1.00  0.00     0.074 A 
ATOM     61  C   UNL     1     -12.824  -8.744   7.200  1.00  0.00     0.031 C 
ATOM     62  C   UNL     1     -11.232  -9.563   8.915  1.00  0.00     0.034 A 
BRANCH  49  63
ATOM     63  C   UNL     1      -6.151  -7.990  12.072  1.00  0.00     0.023 A 
ATOM     64  C   UNL     1      -6.109  -7.440  13.371  1.00  0.00     0.012 A 
ATOM     65  C   UNL     1      -5.194  -8.956  11.703  1.00  0.00     0.148 A 
ATOM     66  C   UNL     1      -5.109  -7.809  14.269  1.00  0.00     0.002 A 
ATOM     67  C   UNL     1      -4.230  -9.356  12.621  1.00  0.00     0.091 A 
ATOM     68  F   UNL     1      -5.235  -9.455  10.459  1.00  0.00    -0.205 F 
ATOM     69  C   UNL     1      -4.176  -8.773  13.898  1.00  0.00     0.022 A 
BRANCH  67  70
ATOM     70  S   UNL     1      -3.034 -10.649  12.268  1.00  0.00     0.127 S 
ATOM     71  O   UNL     1      -1.794  -9.881  12.158  1.00  0.00    -0.237 OA
ATOM     72  O   UNL     1      -3.127 -11.488  13.463  1.00  0.00    -0.237 OA
ATOM     73  O   UNL     1      -3.484 -11.288  11.040  1.00  0.00    -0.744 OA
ENDBRANCH  67  70
ENDBRANCH  49  63
BRANCH  50  74
ATOM     74  C   UNL     1     -12.937  -4.921   5.412  1.00  0.00     0.023 A 
ATOM     75  C   UNL     1     -14.292  -4.799   5.776  1.00  0.00     0.012 A 
ATOM     76  C   UNL     1     -12.545  -4.594   4.100  1.00  0.00     0.148 A 
ATOM     77  C   UNL     1     -15.245  -4.390   4.841  1.00  0.00     0.002 A 
ATOM     78  C   UNL     1     -13.489  -4.134   3.191  1.00  0.00     0.091 A 
ATOM     79  F   UNL     1     -11.251  -4.724   3.775  1.00  0.00    -0.205 F 
ATOM     80  C   UNL     1     -14.842  -4.048   3.553  1.00  0.00     0.022 A 
BRANCH  78  81
ATOM     81  S   UNL     1     -13.045  -3.551   1.551  1.00  0.00     0.127 S 
ATOM     82  O   UNL     1     -13.668  -4.559   0.697  1.00  0.00    -0.237 OA
ATOM     83  O   UNL     1     -13.684  -2.235   1.520  1.00  0.00    -0.237 OA
ATOM     84  O   UNL     1     -11.589  -3.515   1.525  1.00  0.00    -0.744 OA
ENDBRANCH  78  81
ENDBRANCH  50  74
BRANCH  62  85
ATOM     85  C   UNL     1     -11.974 -10.875   8.930  1.00  0.00     0.023 A 
ATOM     86  C   UNL     1     -11.888 -11.747   7.826  1.00  0.00     0.012 A 
ATOM     87  C   UNL     1     -12.701 -11.273  10.069  1.00  0.00     0.148 A 
ATOM     88  C   UNL     1     -12.543 -12.978   7.842  1.00  0.00     0.002 A 
ATOM     89  C   UNL     1     -13.307 -12.523  10.099  1.00  0.00     0.091 A 
ATOM     90  F   UNL     1     -12.786 -10.423  11.103  1.00  0.00    -0.205 F 
ATOM     91  C   UNL     1     -13.241 -13.371   8.982  1.00  0.00     0.022 A 
BRANCH  89  92
ATOM     92  S   UNL     1     -14.142 -13.156  11.558  1.00  0.00     0.127 S 
ATOM     93  O   UNL     1     -15.541 -13.137  11.132  1.00  0.00    -0.237 OA
ATOM     94  O   UNL     1     -13.562 -14.493  11.690  1.00  0.00    -0.237 OA
ATOM     95  O   UNL     1     -13.809 -12.242  12.642  1.00  0.00    -0.744 OA
ENDBRANCH  89  92
ENDBRANCH  62  85
ENDBRANCH  36  37
ENDBRANCH  28  31
ENDBRANCH  26  27
ENDBRANCH  25  26
ENDBRANCH  24  25
ENDBRANCH   1  24
TORSDOF 20
