REMARK SMILES O=C(CC1CCN(C(=O)c2ccc3[nH]ccc3c2)CC1)NCCCCCCNC(=O)c1ccc(-c2c3nc(c(-c4cccc(S(=O)(=O)[O-])c4F)c4ccc([nH]4)c(-c4cccc(S(=O)(=O)[O-])c4F)c4nc(c(-c5cccc(S(=O)(=O)[O-])c5F)c5ccc2[nH]5)C=C4)C=C3)cc1
REMARK SMILES IDX 25 1 24 2 23 3 22 4 21 5 1 6 2 7 3 9 4 10 5 11 20 12 6 13
REMARK SMILES IDX 19 14 7 15 8 16 9 17 10 18 11 19 18 20 12 21 17 22 13 23
REMARK SMILES IDX 16 24 14 25 15 26 26 28 27 29 28 30 29 31 30 33 31 34 32 35
REMARK SMILES IDX 93 36 33 37 92 38 34 39 35 40 36 41 86 42 37 43 91 44 85 45
REMARK SMILES IDX 87 46 38 47 90 48 84 49 83 50 39 52 71 53 51 54 70 55 52 56
REMARK SMILES IDX 55 57 69 58 88 59 53 60 54 61 68 63 89 64 56 65 40 66 41 67
REMARK SMILES IDX 49 68 42 69 44 70 50 71 43 72 45 73 46 74 47 75 48 76 72 77
REMARK SMILES IDX 73 78 81 79 74 80 76 81 82 82 75 83 77 84 78 85 79 86 80 87
REMARK SMILES IDX 57 88 58 89 66 90 59 91 61 92 67 93 60 94 62 95 63 96 64 97
REMARK SMILES IDX 65 98
REMARK H PARENT 21 8 14 27 28 32 87 51 55 62
REMARK Flexibility Score: inf
ROOT
ATOM      1  C   UNL     1       4.390  -4.061  -1.059  1.00  0.00     0.002 C 
ENDROOT
BRANCH   1   2
ATOM      2  C   UNL     1       3.898  -3.076  -2.122  1.00  0.00     0.002 C 
BRANCH   2   3
ATOM      3  C   UNL     1       2.381  -2.813  -2.133  1.00  0.00     0.021 C 
BRANCH   3   4
ATOM      4  C   UNL     1       1.820  -2.181  -0.856  1.00  0.00     0.116 C 
BRANCH   4   5
ATOM      5  N   UNL     1       2.463  -0.910  -0.602  1.00  0.00    -0.356 N 
ATOM      6  O   UNL     1       0.863   0.061   0.741  1.00  0.00    -0.275 OA
ATOM      7  C   UNL     1       1.960   0.085   0.200  1.00  0.00     0.220 C 
ATOM      8  H   UNL     1       3.330  -0.745  -1.038  1.00  0.00     0.163 HD
BRANCH   7   9
ATOM      9  C   UNL     1       2.952   1.223   0.378  1.00  0.00     0.103 C 
BRANCH   9  10
ATOM     10  C   UNL     1       3.858   1.059   1.614  1.00  0.00     0.002 C 
ATOM     11  C   UNL     1       4.966   2.131   1.634  1.00  0.00     0.026 C 
ATOM     12  C   UNL     1       4.518  -0.321   1.773  1.00  0.00     0.026 C 
ATOM     13  C   UNL     1       6.099   1.851   0.639  1.00  0.00     0.120 C 
ATOM     14  C   UNL     1       5.617  -0.578   0.751  1.00  0.00     0.120 C 
ATOM     15  N   UNL     1       6.614   0.487   0.752  1.00  0.00    -0.339 N 
ATOM     16  C   UNL     1       7.994   0.275   0.742  1.00  0.00     0.253 C 
ATOM     17  O   UNL     1       8.828   1.176   0.767  1.00  0.00    -0.269 OA
BRANCH  16  18
ATOM     18  C   UNL     1       8.489  -1.120   0.719  1.00  0.00     0.040 A 
ATOM     19  C   UNL     1       8.280  -1.926  -0.406  1.00  0.00     0.016 A 
ATOM     20  C   UNL     1       9.141  -1.610   1.857  1.00  0.00     0.024 A 
ATOM     21  C   UNL     1       8.669  -3.269  -0.400  1.00  0.00     0.027 A 
ATOM     22  C   UNL     1       9.542  -2.959   1.877  1.00  0.00     0.000 A 
ATOM     23  C   UNL     1       9.287  -3.757   0.759  1.00  0.00     0.045 A 
ATOM     24  C   UNL     1      10.191  -3.781   2.839  1.00  0.00     0.028 A 
ATOM     25  N   UNL     1       9.751  -5.022   1.051  1.00  0.00    -0.361 N 
ATOM     26  C   UNL     1      10.305  -5.044   2.304  1.00  0.00     0.083 A 
ATOM     27  H   UNL     1       9.692  -5.797   0.447  1.00  0.00     0.166 HD
ENDBRANCH  16  18
ENDBRANCH   9  10
ENDBRANCH   7   9
ENDBRANCH   4   5
ENDBRANCH   3   4
ENDBRANCH   2   3
ENDBRANCH   1   2
BRANCH   1  28
ATOM     28  C   UNL     1       3.791  -5.464  -1.160  1.00  0.00     0.021 C 
BRANCH  28  29
ATOM     29  C   UNL     1       3.966  -6.142  -2.516  1.00  0.00     0.116 C 
BRANCH  29  30
ATOM     30  N   UNL     1       5.362  -6.398  -2.838  1.00  0.00    -0.352 N 
ATOM     31  C   UNL     1       5.935  -7.553  -3.314  1.00  0.00     0.251 C 
ATOM     32  H   UNL     1       5.978  -5.643  -2.696  1.00  0.00     0.163 HD
ATOM     33  O   UNL     1       7.159  -7.653  -3.369  1.00  0.00    -0.269 OA
BRANCH  31  34
ATOM     34  C   UNL     1       5.070  -8.681  -3.731  1.00  0.00     0.039 A 
ATOM     35  C   UNL     1       5.381  -9.973  -3.299  1.00  0.00     0.014 A 
ATOM     36  C   UNL     1       3.941  -8.460  -4.524  1.00  0.00     0.014 A 
ATOM     37  C   UNL     1       4.523 -11.032  -3.608  1.00  0.00     0.010 A 
ATOM     38  C   UNL     1       3.049  -9.502  -4.766  1.00  0.00     0.010 A 
ATOM     39  C   UNL     1       3.330 -10.801  -4.314  1.00  0.00    -0.014 A 
BRANCH  39  40
ATOM     40  C   UNL     1       2.361 -11.897  -4.582  1.00  0.00     0.031 A 
ATOM     41  C   UNL     1       2.032 -12.288  -5.999  1.00  0.00     0.074 A 
ATOM     42  C   UNL     1       1.707 -12.478  -3.556  1.00  0.00     0.049 A 
ATOM     43  N   UNL     1       1.163 -13.164  -6.432  1.00  0.00    -0.248 NA
ATOM     44  C   UNL     1       2.755 -11.584  -7.071  1.00  0.00     0.031 C 
ATOM     45  C   UNL     1       1.877 -12.139  -2.142  1.00  0.00     0.029 A 
ATOM     46  N   UNL     1       0.744 -13.458  -3.547  1.00  0.00    -0.354 N 
ATOM     47  C   UNL     1       1.205 -13.091  -7.819  1.00  0.00     0.074 A 
ATOM     48  C   UNL     1       2.163 -12.061  -8.157  1.00  0.00     0.031 C 
ATOM     49  C   UNL     1       1.049 -12.896  -1.404  1.00  0.00     0.029 A 
ATOM     50  C   UNL     1       0.265 -13.750  -2.290  1.00  0.00     0.049 A 
ATOM     51  H   UNL     1       0.426 -13.908  -4.362  1.00  0.00     0.167 HD
ATOM     52  C   UNL     1       0.531 -13.831  -8.731  1.00  0.00     0.034 A 
ATOM     53  C   UNL     1      -0.704 -14.600  -1.895  1.00  0.00     0.034 A 
ATOM     54  C   UNL     1      -0.390 -14.883  -8.394  1.00  0.00     0.049 A 
ATOM     55  C   UNL     1      -1.415 -15.433  -2.929  1.00  0.00     0.074 A 
ATOM     56  C   UNL     1      -1.055 -15.747  -9.246  1.00  0.00     0.029 A 
ATOM     57  N   UNL     1      -0.783 -15.210  -7.106  1.00  0.00    -0.354 N 
ATOM     58  N   UNL     1      -1.245 -15.458  -4.228  1.00  0.00    -0.248 NA
ATOM     59  C   UNL     1      -2.425 -16.382  -2.438  1.00  0.00     0.031 C 
ATOM     60  C   UNL     1      -1.873 -16.578  -8.474  1.00  0.00     0.029 A 
ATOM     61  C   UNL     1      -1.689 -16.255  -7.140  1.00  0.00     0.049 A 
ATOM     62  H   UNL     1      -0.465 -14.764  -6.288  1.00  0.00     0.167 HD
ATOM     63  C   UNL     1      -2.093 -16.451  -4.705  1.00  0.00     0.074 A 
ATOM     64  C   UNL     1      -2.763 -17.017  -3.553  1.00  0.00     0.031 C 
ATOM     65  C   UNL     1      -2.305 -16.851  -5.982  1.00  0.00     0.034 A 
BRANCH  52  66
ATOM     66  C   UNL     1       0.798 -13.563 -10.190  1.00  0.00     0.023 A 
ATOM     67  C   UNL     1       2.036 -13.937 -10.752  1.00  0.00     0.012 A 
ATOM     68  C   UNL     1      -0.197 -13.009 -11.019  1.00  0.00     0.148 A 
ATOM     69  C   UNL     1       2.293 -13.732 -12.107  1.00  0.00     0.002 A 
ATOM     70  C   UNL     1       0.050 -12.851 -12.378  1.00  0.00     0.091 A 
ATOM     71  F   UNL     1      -1.361 -12.642 -10.464  1.00  0.00    -0.205 F 
ATOM     72  C   UNL     1       1.297 -13.200 -12.920  1.00  0.00     0.022 A 
BRANCH  70  73
ATOM     73  S   UNL     1      -1.194 -12.251 -13.527  1.00  0.00     0.127 S 
ATOM     74  O   UNL     1      -0.653 -10.942 -13.890  1.00  0.00    -0.237 OA
ATOM     75  O   UNL     1      -1.136 -13.252 -14.592  1.00  0.00    -0.237 OA
ATOM     76  O   UNL     1      -2.447 -12.223 -12.785  1.00  0.00    -0.744 OA
ENDBRANCH  70  73
ENDBRANCH  52  66
BRANCH  53  77
ATOM     77  C   UNL     1      -1.026 -14.749  -0.447  1.00  0.00     0.023 A 
ATOM     78  C   UNL     1      -0.705 -15.951   0.215  1.00  0.00     0.012 A 
ATOM     79  C   UNL     1      -1.637 -13.708   0.279  1.00  0.00     0.148 A 
ATOM     80  C   UNL     1      -1.022 -16.129   1.562  1.00  0.00     0.002 A 
ATOM     81  C   UNL     1      -1.897 -13.870   1.635  1.00  0.00     0.091 A 
ATOM     82  F   UNL     1      -1.944 -12.576  -0.370  1.00  0.00    -0.205 F 
ATOM     83  C   UNL     1      -1.609 -15.087   2.274  1.00  0.00     0.022 A 
BRANCH  81  84
ATOM     84  S   UNL     1      -2.528 -12.537   2.660  1.00  0.00     0.127 S 
ATOM     85  O   UNL     1      -3.889 -12.991   2.936  1.00  0.00    -0.237 OA
ATOM     86  O   UNL     1      -1.618 -12.580   3.805  1.00  0.00    -0.237 OA
ATOM     87  O   UNL     1      -2.414 -11.332   1.849  1.00  0.00    -0.744 OA
ENDBRANCH  81  84
ENDBRANCH  53  77
BRANCH  65  88
ATOM     88  C   UNL     1      -3.263 -17.992  -6.213  1.00  0.00     0.023 A 
ATOM     89  C   UNL     1      -4.648 -17.797  -6.046  1.00  0.00     0.012 A 
ATOM     90  C   UNL     1      -2.789 -19.237  -6.674  1.00  0.00     0.148 A 
ATOM     91  C   UNL     1      -5.545 -18.833  -6.304  1.00  0.00     0.002 A 
ATOM     92  C   UNL     1      -3.692 -20.248  -6.979  1.00  0.00     0.091 A 
ATOM     93  F   UNL     1      -1.466 -19.408  -6.809  1.00  0.00    -0.205 F 
ATOM     94  C   UNL     1      -5.069 -20.052  -6.782  1.00  0.00     0.022 A 
BRANCH  92  95
ATOM     95  S   UNL     1      -3.180 -21.814  -7.693  1.00  0.00     0.127 S 
ATOM     96  O   UNL     1      -3.399 -22.735  -6.579  1.00  0.00    -0.237 OA
ATOM     97  O   UNL     1      -4.118 -21.968  -8.806  1.00  0.00    -0.237 OA
ATOM     98  O   UNL     1      -1.791 -21.638  -8.094  1.00  0.00    -0.744 OA
ENDBRANCH  92  95
ENDBRANCH  65  88
ENDBRANCH  39  40
ENDBRANCH  31  34
ENDBRANCH  29  30
ENDBRANCH  28  29
ENDBRANCH   1  28
TORSDOF 18
