REMARK SMILES CS(=O)(=O)c1ccc(/C=C(/C(=O)NCCCCCCNC(=O)c2ccc(-c3c4nc(c(-c5cccc(S(=O)(=O)[O-])c5F)c5ccc([nH]5)c(-c5cccc(S(=O)(=O)[O-])c5F)c5nc(c(-c6cccc(S(=O)(=O)[O-])c6F)c6ccc3[nH]6)C=C5)C=C4)cc2)c2ccc(O)cc2)cc1
REMARK SMILES IDX 17 1 16 2 15 3 14 4 13 5 11 6 12 7 10 9 9 10 8 11 5 12 6 13
REMARK SMILES IDX 94 14 7 15 93 16 2 17 1 18 3 19 4 20 86 21 87 22 92 23 88 24
REMARK SMILES IDX 91 25 89 26 90 27 18 29 19 30 20 31 21 32 22 34 23 35 24 36
REMARK SMILES IDX 85 37 25 38 84 39 26 40 27 41 28 42 78 43 29 44 83 45 77 46
REMARK SMILES IDX 79 47 30 48 82 49 76 50 75 51 31 53 63 54 43 55 62 56 44 57
REMARK SMILES IDX 47 58 61 59 80 60 45 61 46 62 60 64 81 65 48 66 32 67 33 68
REMARK SMILES IDX 41 69 34 70 36 71 42 72 35 73 37 74 38 75 39 76 40 77 64 78
REMARK SMILES IDX 65 79 73 80 66 81 68 82 74 83 67 84 69 85 70 86 71 87 72 88
REMARK SMILES IDX 49 89 50 90 58 91 51 92 53 93 59 94 52 95 54 96 55 97 56 98
REMARK SMILES IDX 57 99
REMARK H PARENT 13 8 90 28 20 33 79 52 47 63
REMARK Flexibility Score: inf
ROOT
ATOM      1  C   UNL     1       4.551  -1.274 -10.927  1.00  0.00     0.002 C 
ENDROOT
BRANCH   1   2
ATOM      2  C   UNL     1       5.211  -2.093  -9.811  1.00  0.00     0.002 C 
BRANCH   2   3
ATOM      3  C   UNL     1       4.577  -1.925  -8.419  1.00  0.00     0.021 C 
BRANCH   3   4
ATOM      4  C   UNL     1       3.114  -2.374  -8.355  1.00  0.00     0.116 C 
BRANCH   4   5
ATOM      5  N   UNL     1       3.047  -3.820  -8.450  1.00  0.00    -0.352 N 
ATOM      6  C   UNL     1       2.825  -4.821  -7.559  1.00  0.00     0.251 C 
ATOM      7  O   UNL     1       2.945  -5.968  -7.997  1.00  0.00    -0.269 OA
ATOM      8  H   UNL     1       3.195  -4.151  -9.366  1.00  0.00     0.163 HD
BRANCH   6   9
ATOM      9  C   UNL     1       2.353  -4.586  -6.142  1.00  0.00     0.047 C 
ATOM     10  C   UNL     1       2.788  -3.538  -5.404  1.00  0.00     0.022 C 
BRANCH  10  11
ATOM     11  C   UNL     1       2.315  -3.078  -4.080  1.00  0.00    -0.025 A 
ATOM     12  C   UNL     1       1.200  -2.089  -1.697  1.00  0.00     0.067 A 
ATOM     13  C   UNL     1       1.579  -3.431  -1.789  1.00  0.00     0.021 A 
ATOM     14  C   UNL     1       1.419  -1.221  -2.766  1.00  0.00     0.021 A 
ATOM     15  C   UNL     1       2.153  -3.914  -2.970  1.00  0.00     0.009 A 
ATOM     16  C   UNL     1       1.978  -1.719  -3.949  1.00  0.00     0.009 A 
BRANCH  12  17
ATOM     17  S   UNL     1       0.409  -1.518  -0.211  1.00  0.00     0.175 S 
ATOM     18  C   UNL     1       1.078   0.089   0.119  1.00  0.00     0.163 C 
ATOM     19  O   UNL     1       0.851  -2.390   0.867  1.00  0.00    -0.224 OA
ATOM     20  O   UNL     1      -0.999  -1.380  -0.518  1.00  0.00    -0.224 OA
ENDBRANCH  12  17
ENDBRANCH  10  11
BRANCH   9  21
ATOM     21  C   UNL     1       1.520  -5.656  -5.533  1.00  0.00    -0.013 A 
ATOM     22  C   UNL     1       2.107  -6.914  -5.304  1.00  0.00     0.013 A 
ATOM     23  C   UNL     1       0.203  -5.438  -5.109  1.00  0.00     0.013 A 
ATOM     24  C   UNL     1       1.410  -7.919  -4.638  1.00  0.00     0.047 A 
ATOM     25  C   UNL     1      -0.491  -6.440  -4.421  1.00  0.00     0.047 A 
ATOM     26  C   UNL     1       0.125  -7.667  -4.181  1.00  0.00     0.115 A 
BRANCH  26  27
ATOM     27  O   UNL     1      -0.501  -8.654  -3.480  1.00  0.00    -0.508 OA
ATOM     28  H   UNL     1      -0.066  -9.471  -3.331  1.00  0.00     0.293 HD
ENDBRANCH  26  27
ENDBRANCH   9  21
ENDBRANCH   6   9
ENDBRANCH   4   5
ENDBRANCH   3   4
ENDBRANCH   2   3
ENDBRANCH   1   2
BRANCH   1  29
ATOM     29  C   UNL     1       4.444   0.228 -10.650  1.00  0.00     0.021 C 
BRANCH  29  30
ATOM     30  C   UNL     1       5.782   0.926 -10.426  1.00  0.00     0.116 C 
BRANCH  30  31
ATOM     31  N   UNL     1       6.606   0.916 -11.624  1.00  0.00    -0.352 N 
ATOM     32  C   UNL     1       7.213   1.968 -12.264  1.00  0.00     0.251 C 
ATOM     33  H   UNL     1       6.750   0.032 -12.032  1.00  0.00     0.163 HD
ATOM     34  O   UNL     1       7.702   1.810 -13.379  1.00  0.00    -0.269 OA
BRANCH  32  35
ATOM     35  C   UNL     1       7.262   3.295 -11.613  1.00  0.00     0.039 A 
ATOM     36  C   UNL     1       6.945   4.431 -12.362  1.00  0.00     0.014 A 
ATOM     37  C   UNL     1       7.631   3.417 -10.270  1.00  0.00     0.014 A 
ATOM     38  C   UNL     1       6.949   5.687 -11.749  1.00  0.00     0.010 A 
ATOM     39  C   UNL     1       7.571   4.660  -9.646  1.00  0.00     0.010 A 
ATOM     40  C   UNL     1       7.238   5.808 -10.380  1.00  0.00    -0.014 A 
BRANCH  40  41
ATOM     41  C   UNL     1       7.192   7.126  -9.696  1.00  0.00     0.031 A 
ATOM     42  C   UNL     1       8.443   7.716  -9.104  1.00  0.00     0.074 A 
ATOM     43  C   UNL     1       6.008   7.747  -9.527  1.00  0.00     0.049 A 
ATOM     44  N   UNL     1       8.589   8.819  -8.417  1.00  0.00    -0.248 NA
ATOM     45  C   UNL     1       9.690   6.952  -9.281  1.00  0.00     0.031 C 
ATOM     46  C   UNL     1       4.714   7.237  -9.983  1.00  0.00     0.029 A 
ATOM     47  N   UNL     1       5.698   8.928  -8.901  1.00  0.00    -0.354 N 
ATOM     48  C   UNL     1       9.928   8.865  -8.050  1.00  0.00     0.074 A 
ATOM     49  C   UNL     1      10.548   7.662  -8.563  1.00  0.00     0.031 C 
ATOM     50  C   UNL     1       3.749   8.098  -9.621  1.00  0.00     0.029 A 
ATOM     51  C   UNL     1       4.351   9.208  -8.887  1.00  0.00     0.049 A 
ATOM     52  H   UNL     1       6.375   9.519  -8.499  1.00  0.00     0.167 HD
ATOM     53  C   UNL     1      10.591   9.835  -7.375  1.00  0.00     0.034 A 
ATOM     54  C   UNL     1       3.676  10.239  -8.342  1.00  0.00     0.034 A 
ATOM     55  C   UNL     1       9.984  11.054  -6.914  1.00  0.00     0.049 A 
ATOM     56  C   UNL     1       4.444  11.330  -7.646  1.00  0.00     0.074 A 
ATOM     57  C   UNL     1      10.589  12.139  -6.305  1.00  0.00     0.029 A 
ATOM     58  N   UNL     1       8.633  11.350  -7.008  1.00  0.00    -0.354 N 
ATOM     59  N   UNL     1       5.737  11.434  -7.454  1.00  0.00    -0.248 NA
ATOM     60  C   UNL     1       3.666  12.464  -7.127  1.00  0.00     0.031 C 
ATOM     61  C   UNL     1       9.600  13.086  -6.017  1.00  0.00     0.029 A 
ATOM     62  C   UNL     1       8.382  12.597  -6.463  1.00  0.00     0.049 A 
ATOM     63  H   UNL     1       7.952  10.759  -7.404  1.00  0.00     0.167 HD
ATOM     64  C   UNL     1       5.931  12.657  -6.823  1.00  0.00     0.074 A 
ATOM     65  C   UNL     1       4.625  13.268  -6.685  1.00  0.00     0.031 C 
ATOM     66  C   UNL     1       7.085  13.217  -6.382  1.00  0.00     0.034 A 
BRANCH  53  67
ATOM     67  C   UNL     1      12.068   9.645  -7.149  1.00  0.00     0.023 A 
ATOM     68  C   UNL     1      12.957   9.768  -8.236  1.00  0.00     0.012 A 
ATOM     69  C   UNL     1      12.582   9.404  -5.860  1.00  0.00     0.148 A 
ATOM     70  C   UNL     1      14.331   9.622  -8.052  1.00  0.00     0.002 A 
ATOM     71  C   UNL     1      13.957   9.302  -5.677  1.00  0.00     0.091 A 
ATOM     72  F   UNL     1      11.721   9.267  -4.842  1.00  0.00    -0.205 F 
ATOM     73  C   UNL     1      14.831   9.400  -6.772  1.00  0.00     0.022 A 
BRANCH  71  74
ATOM     74  S   UNL     1      14.703   9.091  -4.056  1.00  0.00     0.127 S 
ATOM     75  O   UNL     1      15.136   7.696  -4.110  1.00  0.00    -0.237 OA
ATOM     76  O   UNL     1      15.792  10.069  -4.087  1.00  0.00    -0.237 OA
ATOM     77  O   UNL     1      13.653   9.384  -3.091  1.00  0.00    -0.744 OA
ENDBRANCH  71  74
ENDBRANCH  53  67
BRANCH  54  78
ATOM     78  C   UNL     1       2.197  10.323  -8.501  1.00  0.00     0.023 A 
ATOM     79  C   UNL     1       1.650  11.300  -9.356  1.00  0.00     0.012 A 
ATOM     80  C   UNL     1       1.335   9.424  -7.845  1.00  0.00     0.148 A 
ATOM     81  C   UNL     1       0.270  11.399  -9.531  1.00  0.00     0.002 A 
ATOM     82  C   UNL     1      -0.036   9.493  -8.066  1.00  0.00     0.091 A 
ATOM     83  F   UNL     1       1.874   8.511  -7.025  1.00  0.00    -0.205 F 
ATOM     84  C   UNL     1      -0.572  10.490  -8.896  1.00  0.00     0.022 A 
BRANCH  82  85
ATOM     85  S   UNL     1      -1.177   8.279  -7.394  1.00  0.00     0.127 S 
ATOM     86  O   UNL     1      -1.841   9.042  -6.341  1.00  0.00    -0.237 OA
ATOM     87  O   UNL     1      -2.013   7.972  -8.556  1.00  0.00    -0.237 OA
ATOM     88  O   UNL     1      -0.346   7.168  -6.947  1.00  0.00    -0.744 OA
ENDBRANCH  82  85
ENDBRANCH  54  78
BRANCH  66  89
ATOM     89  C   UNL     1       7.000  14.573  -5.733  1.00  0.00     0.023 A 
ATOM     90  C   UNL     1       6.468  14.693  -4.434  1.00  0.00     0.012 A 
ATOM     91  C   UNL     1       7.519  15.713  -6.377  1.00  0.00     0.148 A 
ATOM     92  C   UNL     1       6.428  15.932  -3.797  1.00  0.00     0.002 A 
ATOM     93  C   UNL     1       7.518  16.937  -5.717  1.00  0.00     0.091 A 
ATOM     94  F   UNL     1       8.003  15.582  -7.620  1.00  0.00    -0.205 F 
ATOM     95  C   UNL     1       6.963  17.050  -4.432  1.00  0.00     0.022 A 
BRANCH  93  96
ATOM     96  S   UNL     1       8.271  18.408  -6.421  1.00  0.00     0.127 S 
ATOM     97  O   UNL     1       7.097  19.183  -6.818  1.00  0.00    -0.237 OA
ATOM     98  O   UNL     1       9.008  18.957  -5.282  1.00  0.00    -0.237 OA
ATOM     99  O   UNL     1       9.113  17.941  -7.514  1.00  0.00    -0.744 OA
ENDBRANCH  93  96
ENDBRANCH  66  89
ENDBRANCH  40  41
ENDBRANCH  32  35
ENDBRANCH  30  31
ENDBRANCH  29  30
ENDBRANCH   1  29
TORSDOF 20
