REMARK SMILES CC[NH+]1CCN(c2ccc(NC(=O)C3CCCC3)c(C(=O)NCCCCCCNC(=O)c3ccc(-c4c5nc(c(-c6cccc(S(=O)(=O)[O-])c6F)c6ccc([nH]6)c(-c6cccc(S(=O)(=O)[O-])c6F)c6nc(c(-c7cccc(S(=O)(=O)[O-])c7F)c7ccc4[nH]7)C=C6)C=C5)cc3)c2)CC1
REMARK SMILES IDX 26 1 25 2 24 3 23 4 22 5 20 6 21 7 19 9 7 10 8 11 95 12 9 13
REMARK SMILES IDX 10 14 6 15 3 16 4 17 97 18 5 20 96 21 2 22 1 23 11 24 12 25
REMARK SMILES IDX 13 27 14 28 15 29 18 30 16 31 17 32 27 33 28 34 29 35 30 36
REMARK SMILES IDX 31 38 32 39 33 40 94 41 34 42 93 43 35 44 36 45 37 46 87 47
REMARK SMILES IDX 38 48 92 49 86 50 88 51 39 52 91 53 85 54 84 55 40 57 72 58
REMARK SMILES IDX 52 59 71 60 53 61 56 62 70 63 89 64 54 65 55 66 69 68 90 69
REMARK SMILES IDX 57 70 41 71 42 72 50 73 43 74 45 75 51 76 44 77 46 78 47 79
REMARK SMILES IDX 48 80 49 81 73 82 74 83 82 84 75 85 77 86 83 87 76 88 78 89
REMARK SMILES IDX 79 90 80 91 81 92 58 93 59 94 67 95 60 96 62 97 68 98 61 99
REMARK SMILES IDX 63 100 64 101 65 102 66 103
REMARK H PARENT 22 8 3 19 11 26 29 37 88 56 56 67
REMARK Flexibility Score: inf
ROOT
ATOM      1  C   UNL     1       7.430   4.532  -1.823  1.00  0.00     0.002 C 
ENDROOT
BRANCH   1   2
ATOM      2  C   UNL     1       6.629   5.833  -1.746  1.00  0.00     0.002 C 
BRANCH   2   3
ATOM      3  C   UNL     1       5.324   5.776  -0.960  1.00  0.00     0.021 C 
BRANCH   3   4
ATOM      4  C   UNL     1       5.399   5.187   0.441  1.00  0.00     0.116 C 
BRANCH   4   5
ATOM      5  N   UNL     1       6.188   5.947   1.404  1.00  0.00    -0.352 N 
ATOM      6  C   UNL     1       5.923   6.274   2.724  1.00  0.00     0.253 C 
ATOM      7  O   UNL     1       6.745   6.938   3.353  1.00  0.00    -0.269 OA
ATOM      8  H   UNL     1       7.048   6.281   1.061  1.00  0.00     0.163 HD
BRANCH   6   9
ATOM      9  C   UNL     1       4.611   5.935   3.352  1.00  0.00     0.065 A 
ATOM     10  C   UNL     1       2.594   4.553   3.169  1.00  0.00     0.038 A 
ATOM     11  C   UNL     1       1.925   5.587   3.821  1.00  0.00     0.028 A 
ATOM     12  C   UNL     1       3.970   4.731   3.015  1.00  0.00     0.042 A 
ATOM     13  C   UNL     1       2.593   6.704   4.324  1.00  0.00     0.029 A 
ATOM     14  C   UNL     1       3.962   6.839   4.202  1.00  0.00     0.054 A 
BRANCH  10  15
ATOM     15  N   UNL     1       1.914   3.463   2.666  1.00  0.00    -0.360 N 
ATOM     16  N   UNL     1       1.087   2.230   0.104  1.00  0.00    -0.332 N 
ATOM     17  C   UNL     1       0.478   3.473   0.632  1.00  0.00     0.283 C 
ATOM     18  C   UNL     1       2.470   2.140   0.635  1.00  0.00     0.283 C 
ATOM     19  H   UNL     1       1.133   2.240  -0.915  1.00  0.00     0.348 HD
ATOM     20  C   UNL     1       0.526   3.614   2.173  1.00  0.00     0.178 C 
ATOM     21  C   UNL     1       2.579   2.237   2.178  1.00  0.00     0.178 C 
BRANCH  16  22
ATOM     22  C   UNL     1       0.256   1.067   0.469  1.00  0.00     0.258 C 
ATOM     23  C   UNL     1       0.696  -0.232  -0.191  1.00  0.00     0.071 C 
ENDBRANCH  16  22
ENDBRANCH  10  15
BRANCH  14  24
ATOM     24  N   UNL     1       4.687   7.814   4.912  1.00  0.00    -0.325 N 
ATOM     25  C   UNL     1       4.501   8.438   6.111  1.00  0.00     0.227 C 
ATOM     26  H   UNL     1       5.503   8.107   4.445  1.00  0.00     0.169 HD
ATOM     27  O   UNL     1       5.347   9.290   6.426  1.00  0.00    -0.274 OA
BRANCH  25  28
ATOM     28  C   UNL     1       3.361   8.180   7.108  1.00  0.00     0.079 C 
ATOM     29  C   UNL     1       2.097   8.980   6.812  1.00  0.00     0.013 C 
ATOM     30  C   UNL     1       2.946   6.742   7.426  1.00  0.00     0.013 C 
ATOM     31  C   UNL     1       0.928   8.130   7.289  1.00  0.00     0.001 C 
ATOM     32  C   UNL     1       1.421   6.693   7.383  1.00  0.00     0.001 C 
ENDBRANCH  25  28
ENDBRANCH  14  24
ENDBRANCH   6   9
ENDBRANCH   4   5
ENDBRANCH   3   4
ENDBRANCH   2   3
ENDBRANCH   1   2
BRANCH   1  33
ATOM     33  C   UNL     1       6.670   3.291  -2.298  1.00  0.00     0.021 C 
BRANCH  33  34
ATOM     34  C   UNL     1       5.945   3.427  -3.632  1.00  0.00     0.116 C 
BRANCH  34  35
ATOM     35  N   UNL     1       6.846   3.749  -4.727  1.00  0.00    -0.352 N 
ATOM     36  C   UNL     1       7.012   3.114  -5.931  1.00  0.00     0.251 C 
ATOM     37  H   UNL     1       7.420   4.537  -4.583  1.00  0.00     0.163 HD
ATOM     38  O   UNL     1       7.948   3.431  -6.667  1.00  0.00    -0.269 OA
BRANCH  36  39
ATOM     39  C   UNL     1       6.084   2.037  -6.338  1.00  0.00     0.039 A 
ATOM     40  C   UNL     1       6.607   0.864  -6.890  1.00  0.00     0.014 A 
ATOM     41  C   UNL     1       4.703   2.182  -6.181  1.00  0.00     0.014 A 
ATOM     42  C   UNL     1       5.748  -0.183  -7.233  1.00  0.00     0.010 A 
ATOM     43  C   UNL     1       3.857   1.109  -6.453  1.00  0.00     0.010 A 
ATOM     44  C   UNL     1       4.369  -0.082  -6.989  1.00  0.00    -0.014 A 
BRANCH  44  45
ATOM     45  C   UNL     1       3.443  -1.205  -7.295  1.00  0.00     0.031 A 
ATOM     46  C   UNL     1       2.349  -1.023  -8.314  1.00  0.00     0.074 A 
ATOM     47  C   UNL     1       3.540  -2.360  -6.606  1.00  0.00     0.049 A 
ATOM     48  N   UNL     1       1.397  -1.851  -8.659  1.00  0.00    -0.248 NA
ATOM     49  C   UNL     1       2.304   0.267  -9.025  1.00  0.00     0.031 C 
ATOM     50  C   UNL     1       4.519  -2.640  -5.553  1.00  0.00     0.029 A 
ATOM     51  N   UNL     1       2.789  -3.508  -6.670  1.00  0.00    -0.354 N 
ATOM     52  C   UNL     1       0.629  -1.178  -9.603  1.00  0.00     0.074 A 
ATOM     53  C   UNL     1       1.200   0.143  -9.747  1.00  0.00     0.031 C 
ATOM     54  C   UNL     1       4.310  -3.877  -5.073  1.00  0.00     0.029 A 
ATOM     55  C   UNL     1       3.162  -4.465  -5.755  1.00  0.00     0.049 A 
ATOM     56  H   UNL     1       2.053  -3.634  -7.311  1.00  0.00     0.167 HD
ATOM     57  C   UNL     1      -0.433  -1.628 -10.312  1.00  0.00     0.034 A 
ATOM     58  C   UNL     1       2.630  -5.674  -5.485  1.00  0.00     0.034 A 
ATOM     59  C   UNL     1      -0.978  -2.953 -10.192  1.00  0.00     0.049 A 
ATOM     60  C   UNL     1       1.448  -6.146  -6.292  1.00  0.00     0.074 A 
ATOM     61  C   UNL     1      -2.022  -3.520 -10.902  1.00  0.00     0.029 A 
ATOM     62  N   UNL     1      -0.524  -3.918  -9.308  1.00  0.00    -0.354 N 
ATOM     63  N   UNL     1       0.818  -5.540  -7.269  1.00  0.00    -0.248 NA
ATOM     64  C   UNL     1       0.926  -7.487  -5.984  1.00  0.00     0.031 C 
ATOM     65  C   UNL     1      -2.213  -4.822 -10.431  1.00  0.00     0.029 A 
ATOM     66  C   UNL     1      -1.265  -5.077  -9.453  1.00  0.00     0.049 A 
ATOM     67  H   UNL     1       0.216  -3.796  -8.670  1.00  0.00     0.167 HD
ATOM     68  C   UNL     1      -0.136  -6.443  -7.724  1.00  0.00     0.074 A 
ATOM     69  C   UNL     1       0.009  -7.643  -6.928  1.00  0.00     0.031 C 
ATOM     70  C   UNL     1      -1.060  -6.288  -8.704  1.00  0.00     0.034 A 
BRANCH  57  71
ATOM     71  C   UNL     1      -1.042  -0.702 -11.334  1.00  0.00     0.023 A 
ATOM     72  C   UNL     1      -0.332  -0.419 -12.519  1.00  0.00     0.012 A 
ATOM     73  C   UNL     1      -2.340  -0.183 -11.166  1.00  0.00     0.148 A 
ATOM     74  C   UNL     1      -0.891   0.388 -13.508  1.00  0.00     0.002 A 
ATOM     75  C   UNL     1      -2.910   0.583 -12.176  1.00  0.00     0.091 A 
ATOM     76  F   UNL     1      -2.993  -0.452 -10.027  1.00  0.00    -0.205 F 
ATOM     77  C   UNL     1      -2.183   0.879 -13.342  1.00  0.00     0.022 A 
BRANCH  75  78
ATOM     78  S   UNL     1      -4.596   1.197 -12.100  1.00  0.00     0.127 S 
ATOM     79  O   UNL     1      -4.381   2.643 -12.045  1.00  0.00    -0.237 OA
ATOM     80  O   UNL     1      -5.156   0.711 -13.361  1.00  0.00    -0.237 OA
ATOM     81  O   UNL     1      -5.186   0.614 -10.903  1.00  0.00    -0.744 OA
ENDBRANCH  75  78
ENDBRANCH  57  71
BRANCH  58  82
ATOM     82  C   UNL     1       3.227  -6.552  -4.437  1.00  0.00     0.023 A 
ATOM     83  C   UNL     1       3.841  -7.763  -4.814  1.00  0.00     0.012 A 
ATOM     84  C   UNL     1       3.166  -6.212  -3.072  1.00  0.00     0.148 A 
ATOM     85  C   UNL     1       4.334  -8.643  -3.849  1.00  0.00     0.002 A 
ATOM     86  C   UNL     1       3.712  -7.065  -2.120  1.00  0.00     0.091 A 
ATOM     87  F   UNL     1       2.568  -5.062  -2.728  1.00  0.00    -0.205 F 
ATOM     88  C   UNL     1       4.275  -8.292  -2.503  1.00  0.00     0.022 A 
BRANCH  86  89
ATOM     89  S   UNL     1       3.792  -6.631  -0.379  1.00  0.00     0.127 S 
ATOM     90  O   UNL     1       2.760  -7.492   0.193  1.00  0.00    -0.237 OA
ATOM     91  O   UNL     1       5.165  -7.002  -0.035  1.00  0.00    -0.237 OA
ATOM     92  O   UNL     1       3.528  -5.199  -0.320  1.00  0.00    -0.744 OA
ENDBRANCH  86  89
ENDBRANCH  58  82
BRANCH  70  93
ATOM     93  C   UNL     1      -1.944  -7.464  -9.026  1.00  0.00     0.023 A 
ATOM     94  C   UNL     1      -2.957  -7.856  -8.130  1.00  0.00     0.012 A 
ATOM     95  C   UNL     1      -1.815  -8.133 -10.260  1.00  0.00     0.148 A 
ATOM     96  C   UNL     1      -3.805  -8.919  -8.440  1.00  0.00     0.002 A 
ATOM     97  C   UNL     1      -2.697  -9.155 -10.586  1.00  0.00     0.091 A 
ATOM     98  F   UNL     1      -0.833  -7.755 -11.092  1.00  0.00    -0.205 F 
ATOM     99  C   UNL     1      -3.683  -9.559  -9.672  1.00  0.00     0.022 A 
BRANCH  97 100
ATOM    100  S   UNL     1      -2.682  -9.968 -12.187  1.00  0.00     0.127 S 
ATOM    101  O   UNL     1      -2.194 -11.302 -11.839  1.00  0.00    -0.237 OA
ATOM    102  O   UNL     1      -4.093  -9.916 -12.572  1.00  0.00    -0.237 OA
ATOM    103  O   UNL     1      -1.794  -9.181 -13.032  1.00  0.00    -0.744 OA
ENDBRANCH  97 100
ENDBRANCH  70  93
ENDBRANCH  44  45
ENDBRANCH  36  39
ENDBRANCH  34  35
ENDBRANCH  33  34
ENDBRANCH   1  33
TORSDOF 20
