REMARK SMILES C[C@@H]1C[C@H]([NH3+])CN(S(=O)(=O)CCCC(=O)NCCCCCCNC(=O)c2ccc(-c3c4nc(c(-c5cccc(S(=O)(=O)[O-])c5F)c5ccc([nH]5)c(-c5cccc(S(=O)(=O)[O-])c5F)c5nc(c(-c6cccc(S(=O)(=O)[O-])c6F)c6ccc3[nH]6)C=C5)C=C4)cc2)C1
REMARK SMILES IDX 18 1 17 2 16 3 14 4 15 5 13 7 12 8 11 9 8 10 9 11 10 12 7 13
REMARK SMILES IDX 1 14 2 15 3 16 89 17 4 18 6 19 5 20 19 24 20 25 21 26 22 27
REMARK SMILES IDX 23 28 24 29 25 31 26 32 27 33 88 34 28 35 87 36 29 37 30 38
REMARK SMILES IDX 31 39 81 40 32 41 86 42 80 43 82 44 33 45 85 46 79 47 78 48
REMARK SMILES IDX 34 50 66 51 46 52 65 53 47 54 50 55 64 56 83 57 48 58 49 59
REMARK SMILES IDX 63 61 84 62 51 63 35 64 36 65 44 66 37 67 39 68 45 69 38 70
REMARK SMILES IDX 40 71 41 72 42 73 43 74 67 75 68 76 76 77 69 78 71 79 77 80
REMARK SMILES IDX 70 81 72 82 73 83 74 84 75 85 52 86 53 87 61 88 54 89 56 90
REMARK SMILES IDX 62 91 55 92 57 93 58 94 59 95 60 96
REMARK H PARENT 16 6 5 21 5 22 5 23 23 30 82 49 50 60
REMARK Flexibility Score: inf
ROOT
ATOM      1  C   UNL     1      -1.391   3.393  -6.183  1.00  0.00     0.021 C 
ENDROOT
BRANCH   1   2
ATOM      2  C   UNL     1      -0.391   2.598  -5.362  1.00  0.00     0.116 C 
BRANCH   2   3
ATOM      3  N   UNL     1       0.790   2.163  -6.065  1.00  0.00    -0.356 N 
ATOM      4  C   UNL     1       2.026   1.852  -5.594  1.00  0.00     0.220 C 
ATOM      5  O   UNL     1       2.652   1.002  -6.239  1.00  0.00    -0.275 OA
ATOM      6  H   UNL     1       0.684   2.077  -7.040  1.00  0.00     0.163 HD
BRANCH   4   7
ATOM      7  C   UNL     1       2.648   2.418  -4.317  1.00  0.00     0.101 C 
BRANCH   7   8
ATOM      8  C   UNL     1       2.734   3.920  -4.103  1.00  0.00     0.027 C 
BRANCH   8   9
ATOM      9  C   UNL     1       1.577   4.682  -3.488  1.00  0.00     0.155 C 
BRANCH   9  10
ATOM     10  S   UNL     1       0.995   4.360  -1.818  1.00  0.00     0.214 S 
ATOM     11  O   UNL     1      -0.388   4.810  -1.796  1.00  0.00    -0.212 OA
ATOM     12  O   UNL     1       1.970   4.947  -0.927  1.00  0.00    -0.212 OA
BRANCH  10  13
ATOM     13  N   UNL     1       0.936   2.677  -1.428  1.00  0.00    -0.196 NA
ATOM     14  C   UNL     1       1.747   0.429   0.875  1.00  0.00     0.009 C 
ATOM     15  C   UNL     1       0.412   1.111   0.554  1.00  0.00     0.007 C 
ATOM     16  C   UNL     1      -0.482   0.275  -0.366  1.00  0.00     0.071 C 
ATOM     17  C   UNL     1       0.585   2.555   0.052  1.00  0.00     0.106 C 
ATOM     18  C   UNL     1      -0.093   0.390  -1.832  1.00  0.00     0.196 C 
ATOM     19  C   UNL     1      -0.051   1.878  -2.217  1.00  0.00     0.167 C 
BRANCH  18  20
ATOM     20  N   UNL     1       1.176  -0.299  -2.116  1.00  0.00    -0.354 N 
ATOM     21  H   UNL     1       1.924   0.125  -1.567  1.00  0.00     0.344 HD
ATOM     22  H   UNL     1       1.393  -0.215  -3.109  1.00  0.00     0.344 HD
ATOM     23  H   UNL     1       1.090  -1.285  -1.869  1.00  0.00     0.344 HD
ENDBRANCH  18  20
ENDBRANCH  10  13
ENDBRANCH   9  10
ENDBRANCH   8   9
ENDBRANCH   7   8
ENDBRANCH   4   7
ENDBRANCH   2   3
ENDBRANCH   1   2
BRANCH   1  24
ATOM     24  C   UNL     1      -2.687   2.612  -6.412  1.00  0.00     0.002 C 
BRANCH  24  25
ATOM     25  C   UNL     1      -3.433   2.174  -5.138  1.00  0.00     0.002 C 
BRANCH  25  26
ATOM     26  C   UNL     1      -3.867   3.297  -4.191  1.00  0.00     0.021 C 
BRANCH  26  27
ATOM     27  C   UNL     1      -4.669   4.417  -4.846  1.00  0.00     0.116 C 
BRANCH  27  28
ATOM     28  N   UNL     1      -5.748   3.902  -5.676  1.00  0.00    -0.352 N 
ATOM     29  C   UNL     1      -7.057   4.286  -5.767  1.00  0.00     0.251 C 
ATOM     30  H   UNL     1      -5.494   3.156  -6.267  1.00  0.00     0.163 HD
ATOM     31  O   UNL     1      -7.844   3.591  -6.404  1.00  0.00    -0.269 OA
BRANCH  29  32
ATOM     32  C   UNL     1      -7.523   5.518  -5.101  1.00  0.00     0.039 A 
ATOM     33  C   UNL     1      -8.781   5.507  -4.496  1.00  0.00     0.014 A 
ATOM     34  C   UNL     1      -6.751   6.683  -5.099  1.00  0.00     0.014 A 
ATOM     35  C   UNL     1      -9.250   6.655  -3.863  1.00  0.00     0.010 A 
ATOM     36  C   UNL     1      -7.184   7.802  -4.394  1.00  0.00     0.010 A 
ATOM     37  C   UNL     1      -8.445   7.805  -3.783  1.00  0.00    -0.014 A 
BRANCH  37  38
ATOM     38  C   UNL     1      -8.920   8.997  -3.041  1.00  0.00     0.031 A 
ATOM     39  C   UNL     1      -9.153  10.304  -3.747  1.00  0.00     0.074 A 
ATOM     40  C   UNL     1      -9.110   8.900  -1.711  1.00  0.00     0.049 A 
ATOM     41  N   UNL     1      -9.631  11.422  -3.266  1.00  0.00    -0.248 NA
ATOM     42  C   UNL     1      -8.782  10.377  -5.170  1.00  0.00     0.031 C 
ATOM     43  C   UNL     1      -8.826   7.711  -0.903  1.00  0.00     0.029 A 
ATOM     44  N   UNL     1      -9.583   9.812  -0.804  1.00  0.00    -0.354 N 
ATOM     45  C   UNL     1      -9.596  12.335  -4.313  1.00  0.00     0.074 A 
ATOM     46  C   UNL     1      -9.011  11.653  -5.446  1.00  0.00     0.031 C 
ATOM     47  C   UNL     1      -9.159   7.957   0.373  1.00  0.00     0.029 A 
ATOM     48  C   UNL     1      -9.650   9.326   0.480  1.00  0.00     0.049 A 
ATOM     49  H   UNL     1      -9.848  10.728  -1.048  1.00  0.00     0.167 HD
ATOM     50  C   UNL     1     -10.038  13.615  -4.338  1.00  0.00     0.034 A 
ATOM     51  C   UNL     1     -10.067   9.916   1.616  1.00  0.00     0.034 A 
ATOM     52  C   UNL     1     -10.641  14.277  -3.211  1.00  0.00     0.049 A 
ATOM     53  C   UNL     1     -10.595  11.322   1.550  1.00  0.00     0.074 A 
ATOM     54  C   UNL     1     -11.199  15.542  -3.153  1.00  0.00     0.029 A 
ATOM     55  N   UNL     1     -10.749  13.736  -1.939  1.00  0.00    -0.354 N 
ATOM     56  N   UNL     1     -10.714  12.112   0.510  1.00  0.00    -0.248 NA
ATOM     57  C   UNL     1     -11.085  11.902   2.806  1.00  0.00     0.031 C 
ATOM     58  C   UNL     1     -11.610  15.779  -1.836  1.00  0.00     0.029 A 
ATOM     59  C   UNL     1     -11.348  14.646  -1.084  1.00  0.00     0.049 A 
ATOM     60  H   UNL     1     -10.444  12.836  -1.681  1.00  0.00     0.167 HD
ATOM     61  C   UNL     1     -11.319  13.271   0.980  1.00  0.00     0.074 A 
ATOM     62  C   UNL     1     -11.574  13.062   2.391  1.00  0.00     0.031 C 
ATOM     63  C   UNL     1     -11.622  14.412   0.312  1.00  0.00     0.034 A 
BRANCH  50  64
ATOM     64  C   UNL     1      -9.924  14.373  -5.637  1.00  0.00     0.023 A 
ATOM     65  C   UNL     1     -10.735  14.009  -6.733  1.00  0.00     0.012 A 
ATOM     66  C   UNL     1      -9.058  15.478  -5.758  1.00  0.00     0.148 A 
ATOM     67  C   UNL     1     -10.660  14.709  -7.937  1.00  0.00     0.002 A 
ATOM     68  C   UNL     1      -9.025  16.200  -6.945  1.00  0.00     0.091 A 
ATOM     69  F   UNL     1      -8.280  15.797  -4.714  1.00  0.00    -0.205 F 
ATOM     70  C   UNL     1      -9.815  15.810  -8.039  1.00  0.00     0.022 A 
BRANCH  68  71
ATOM     71  S   UNL     1      -8.032  17.683  -7.152  1.00  0.00     0.127 S 
ATOM     72  O   UNL     1      -7.028  17.232  -8.116  1.00  0.00    -0.237 OA
ATOM     73  O   UNL     1      -9.008  18.632  -7.688  1.00  0.00    -0.237 OA
ATOM     74  O   UNL     1      -7.521  18.014  -5.830  1.00  0.00    -0.744 OA
ENDBRANCH  68  71
ENDBRANCH  50  64
BRANCH  51  75
ATOM     75  C   UNL     1     -10.062   9.155   2.897  1.00  0.00     0.023 A 
ATOM     76  C   UNL     1     -11.284   8.793   3.497  1.00  0.00     0.012 A 
ATOM     77  C   UNL     1      -8.855   8.770   3.511  1.00  0.00     0.148 A 
ATOM     78  C   UNL     1     -11.304   8.095   4.705  1.00  0.00     0.002 A 
ATOM     79  C   UNL     1      -8.882   8.022   4.681  1.00  0.00     0.091 A 
ATOM     80  F   UNL     1      -7.703   9.130   2.927  1.00  0.00    -0.205 F 
ATOM     81  C   UNL     1     -10.105   7.702   5.292  1.00  0.00     0.022 A 
BRANCH  79  82
ATOM     82  S   UNL     1      -7.393   7.356   5.432  1.00  0.00     0.127 S 
ATOM     83  O   UNL     1      -7.298   8.144   6.658  1.00  0.00    -0.237 OA
ATOM     84  O   UNL     1      -7.758   5.952   5.627  1.00  0.00    -0.237 OA
ATOM     85  O   UNL     1      -6.331   7.569   4.458  1.00  0.00    -0.744 OA
ENDBRANCH  79  82
ENDBRANCH  51  75
BRANCH  63  86
ATOM     86  C   UNL     1     -12.286  15.513   1.099  1.00  0.00     0.023 A 
ATOM     87  C   UNL     1     -11.563  16.203   2.093  1.00  0.00     0.012 A 
ATOM     88  C   UNL     1     -13.620  15.882   0.835  1.00  0.00     0.148 A 
ATOM     89  C   UNL     1     -12.174  17.201   2.852  1.00  0.00     0.002 A 
ATOM     90  C   UNL     1     -14.204  16.916   1.556  1.00  0.00     0.091 A 
ATOM     91  F   UNL     1     -14.299  15.205  -0.103  1.00  0.00    -0.205 F 
ATOM     92  C   UNL     1     -13.490  17.563   2.577  1.00  0.00     0.022 A 
BRANCH  90  93
ATOM     93  S   UNL     1     -15.859  17.517   1.202  1.00  0.00     0.127 S 
ATOM     94  O   UNL     1     -16.618  16.985   2.333  1.00  0.00    -0.237 OA
ATOM     95  O   UNL     1     -15.673  18.969   1.221  1.00  0.00    -0.237 OA
ATOM     96  O   UNL     1     -16.212  16.973  -0.102  1.00  0.00    -0.744 OA
ENDBRANCH  90  93
ENDBRANCH  63  86
ENDBRANCH  37  38
ENDBRANCH  29  32
ENDBRANCH  27  28
ENDBRANCH  26  27
ENDBRANCH  25  26
ENDBRANCH  24  25
ENDBRANCH   1  24
TORSDOF 21
