REMARK SMILES Cc1cc2c(c(C)c1Cl)C=C(C(=O)NCCCCCCNC(=O)c1ccc(-c3c4nc(c(-c5cccc(S(=O)(=O)[O-])c5F)c5ccc([nH]5)c(-c5cccc(S(=O)(=O)[O-])c5F)c5nc(c(-c6cccc(S(=O)(=O)[O-])c6F)c6ccc3[nH]6)C=C5)C=C4)cc1)[C@H](C(F)(F)F)O2
REMARK SMILES IDX 18 1 17 2 16 3 15 4 14 5 12 6 13 7 11 9 1 10 2 11 3 12 8 13
REMARK SMILES IDX 4 14 6 15 9 16 5 17 92 18 7 19 10 20 87 21 88 22 89 23 90 24
REMARK SMILES IDX 91 25 19 26 20 27 21 28 22 29 23 31 24 32 25 33 86 34 26 35
REMARK SMILES IDX 85 36 27 37 28 38 29 39 79 40 30 41 84 42 78 43 80 44 31 45
REMARK SMILES IDX 83 46 77 47 76 48 32 50 64 51 44 52 63 53 45 54 48 55 62 56
REMARK SMILES IDX 81 57 46 58 47 59 61 61 82 62 49 63 33 64 34 65 42 66 35 67
REMARK SMILES IDX 37 68 43 69 36 70 38 71 39 72 40 73 41 74 65 75 66 76 74 77
REMARK SMILES IDX 67 78 69 79 75 80 68 81 70 82 71 83 72 84 73 85 50 86 51 87
REMARK SMILES IDX 59 88 52 89 54 90 60 91 53 92 55 93 56 94 57 95 58 96
REMARK H PARENT 14 8 21 30 80 49 48 60
REMARK Flexibility Score: inf
ROOT
ATOM      1  C   UNL     1      -3.393  -1.113  11.348  1.00  0.00     0.002 C 
ENDROOT
BRANCH   1   2
ATOM      2  C   UNL     1      -1.982  -0.603  11.030  1.00  0.00     0.002 C 
BRANCH   2   3
ATOM      3  C   UNL     1      -1.498  -0.880   9.604  1.00  0.00     0.021 C 
BRANCH   3   4
ATOM      4  C   UNL     1      -2.375  -0.254   8.521  1.00  0.00     0.116 C 
BRANCH   4   5
ATOM      5  N   UNL     1      -1.973   1.113   8.243  1.00  0.00    -0.352 N 
ATOM      6  C   UNL     1      -1.412   1.794   7.220  1.00  0.00     0.251 C 
ATOM      7  O   UNL     1      -1.234   2.999   7.434  1.00  0.00    -0.270 OA
ATOM      8  H   UNL     1      -2.159   1.704   9.008  1.00  0.00     0.163 HD
BRANCH   6   9
ATOM      9  C   UNL     1      -1.014   1.214   5.900  1.00  0.00     0.067 C 
ATOM     10  C   UNL     1       1.031   0.035  -0.169  1.00  0.00     0.046 C 
ATOM     11  C   UNL     1       0.603   0.640   1.140  1.00  0.00    -0.028 A 
ATOM     12  C   UNL     1       0.025  -0.194   2.101  1.00  0.00     0.052 A 
ATOM     13  C   UNL     1       0.781   2.005   1.442  1.00  0.00     0.047 A 
ATOM     14  C   UNL     1      -0.355   0.311   3.339  1.00  0.00     0.128 A 
ATOM     15  C   UNL     1       0.377   2.538   2.691  1.00  0.00    -0.021 A 
ATOM     16  Cl  UNL     1       1.514   3.026   0.240  1.00  0.00    -0.084 Cl
ATOM     17  C   UNL     1      -0.191   1.663   3.650  1.00  0.00     0.022 A 
ATOM     18  O   UNL     1      -0.930  -0.593   4.182  1.00  0.00    -0.475 OA
ATOM     19  C   UNL     1       0.538   4.002   3.024  1.00  0.00     0.047 C 
ATOM     20  C   UNL     1      -0.647   2.113   4.968  1.00  0.00     0.026 C 
ATOM     21  C   UNL     1      -0.970  -0.255   5.591  1.00  0.00     0.314 C 
BRANCH  21  22
ATOM     22  C   UNL     1       0.154  -1.004   6.331  1.00  0.00     0.429 C 
ATOM     23  F   UNL     1       0.620  -0.321   7.403  1.00  0.00    -0.167 F 
ATOM     24  F   UNL     1      -0.294  -2.196   6.796  1.00  0.00    -0.167 F 
ATOM     25  F   UNL     1       1.223  -1.254   5.540  1.00  0.00    -0.167 F 
ENDBRANCH  21  22
ENDBRANCH   6   9
ENDBRANCH   4   5
ENDBRANCH   3   4
ENDBRANCH   2   3
ENDBRANCH   1   2
BRANCH   1  26
ATOM     26  C   UNL     1      -3.660  -2.574  10.976  1.00  0.00     0.021 C 
BRANCH  26  27
ATOM     27  C   UNL     1      -2.704  -3.575  11.617  1.00  0.00     0.116 C 
BRANCH  27  28
ATOM     28  N   UNL     1      -2.787  -3.537  13.068  1.00  0.00    -0.352 N 
ATOM     29  C   UNL     1      -3.192  -4.516  13.939  1.00  0.00     0.251 C 
ATOM     30  H   UNL     1      -2.514  -2.688  13.485  1.00  0.00     0.163 HD
ATOM     31  O   UNL     1      -3.444  -4.235  15.106  1.00  0.00    -0.269 OA
BRANCH  29  32
ATOM     32  C   UNL     1      -3.323  -5.910  13.465  1.00  0.00     0.039 A 
ATOM     33  C   UNL     1      -4.446  -6.652  13.837  1.00  0.00     0.014 A 
ATOM     34  C   UNL     1      -2.321  -6.490  12.681  1.00  0.00     0.014 A 
ATOM     35  C   UNL     1      -4.583  -7.968  13.390  1.00  0.00     0.010 A 
ATOM     36  C   UNL     1      -2.490  -7.777  12.183  1.00  0.00     0.010 A 
ATOM     37  C   UNL     1      -3.613  -8.535  12.547  1.00  0.00    -0.014 A 
BRANCH  37  38
ATOM     38  C   UNL     1      -3.736  -9.930  12.058  1.00  0.00     0.031 A 
ATOM     39  C   UNL     1      -2.734 -10.965  12.492  1.00  0.00     0.074 A 
ATOM     40  C   UNL     1      -4.700 -10.246  11.172  1.00  0.00     0.049 A 
ATOM     41  N   UNL     1      -2.626 -12.213  12.121  1.00  0.00    -0.248 NA
ATOM     42  C   UNL     1      -1.703 -10.534  13.453  1.00  0.00     0.031 C 
ATOM     43  C   UNL     1      -5.695  -9.314  10.640  1.00  0.00     0.029 A 
ATOM     44  N   UNL     1      -4.987 -11.434  10.547  1.00  0.00    -0.354 N 
ATOM     45  C   UNL     1      -1.507 -12.709  12.779  1.00  0.00     0.074 A 
ATOM     46  C   UNL     1      -0.945 -11.617  13.542  1.00  0.00     0.031 C 
ATOM     47  C   UNL     1      -6.487  -9.966   9.774  1.00  0.00     0.029 A 
ATOM     48  C   UNL     1      -6.039 -11.352   9.664  1.00  0.00     0.049 A 
ATOM     49  H   UNL     1      -4.488 -12.265  10.714  1.00  0.00     0.167 HD
ATOM     50  C   UNL     1      -1.012 -13.969  12.775  1.00  0.00     0.034 A 
ATOM     51  C   UNL     1      -6.576 -12.286   8.855  1.00  0.00     0.034 A 
ATOM     52  C   UNL     1      -1.602 -15.060  12.049  1.00  0.00     0.049 A 
ATOM     53  C   UNL     1      -6.014 -13.683   8.880  1.00  0.00     0.074 A 
ATOM     54  C   UNL     1      -1.214 -16.388  12.032  1.00  0.00     0.029 A 
ATOM     55  N   UNL     1      -2.703 -14.954  11.213  1.00  0.00    -0.354 N 
ATOM     56  N   UNL     1      -5.036 -14.165   9.608  1.00  0.00    -0.248 NA
ATOM     57  C   UNL     1      -6.648 -14.673   7.997  1.00  0.00     0.031 C 
ATOM     58  C   UNL     1      -2.068 -17.081  11.170  1.00  0.00     0.029 A 
ATOM     59  C   UNL     1      -3.004 -16.190  10.669  1.00  0.00     0.049 A 
ATOM     60  H   UNL     1      -3.197 -14.122  11.034  1.00  0.00     0.167 HD
ATOM     61  C   UNL     1      -4.955 -15.517   9.293  1.00  0.00     0.074 A 
ATOM     62  C   UNL     1      -6.001 -15.783   8.328  1.00  0.00     0.031 C 
ATOM     63  C   UNL     1      -4.081 -16.450   9.747  1.00  0.00     0.034 A 
BRANCH  50  64
ATOM     64  C   UNL     1       0.190 -14.258  13.636  1.00  0.00     0.023 A 
ATOM     65  C   UNL     1       0.041 -14.296  15.038  1.00  0.00     0.012 A 
ATOM     66  C   UNL     1       1.437 -14.577  13.065  1.00  0.00     0.148 A 
ATOM     67  C   UNL     1       1.119 -14.624  15.859  1.00  0.00     0.002 A 
ATOM     68  C   UNL     1       2.495 -14.948  13.888  1.00  0.00     0.091 A 
ATOM     69  F   UNL     1       1.564 -14.516  11.732  1.00  0.00    -0.205 F 
ATOM     70  C   UNL     1       2.340 -14.962  15.284  1.00  0.00     0.022 A 
BRANCH  68  71
ATOM     71  S   UNL     1       4.085 -15.484  13.247  1.00  0.00     0.127 S 
ATOM     72  O   UNL     1       4.962 -14.399  13.688  1.00  0.00    -0.237 OA
ATOM     73  O   UNL     1       4.286 -16.752  13.948  1.00  0.00    -0.237 OA
ATOM     74  O   UNL     1       3.921 -15.602  11.805  1.00  0.00    -0.744 OA
ENDBRANCH  68  71
ENDBRANCH  50  64
BRANCH  51  75
ATOM     75  C   UNL     1      -7.761 -11.946   8.015  1.00  0.00     0.023 A 
ATOM     76  C   UNL     1      -9.013 -12.506   8.336  1.00  0.00     0.012 A 
ATOM     77  C   UNL     1      -7.671 -11.039   6.942  1.00  0.00     0.148 A 
ATOM     78  C   UNL     1     -10.148 -12.187   7.590  1.00  0.00     0.002 A 
ATOM     79  C   UNL     1      -8.816 -10.680   6.239  1.00  0.00     0.091 A 
ATOM     80  F   UNL     1      -6.469 -10.526   6.643  1.00  0.00    -0.205 F 
ATOM     81  C   UNL     1     -10.053 -11.266   6.551  1.00  0.00     0.022 A 
BRANCH  79  82
ATOM     82  S   UNL     1      -8.816  -9.396   4.982  1.00  0.00     0.127 S 
ATOM     83  O   UNL     1      -9.062 -10.168   3.766  1.00  0.00    -0.237 OA
ATOM     84  O   UNL     1      -9.931  -8.552   5.413  1.00  0.00    -0.237 OA
ATOM     85  O   UNL     1      -7.511  -8.757   5.071  1.00  0.00    -0.744 OA
ENDBRANCH  79  82
ENDBRANCH  51  75
BRANCH  63  86
ATOM     86  C   UNL     1      -4.213 -17.856   9.222  1.00  0.00     0.023 A 
ATOM     87  C   UNL     1      -3.823 -18.143   7.899  1.00  0.00     0.012 A 
ATOM     88  C   UNL     1      -4.612 -18.910  10.069  1.00  0.00     0.148 A 
ATOM     89  C   UNL     1      -3.852 -19.451   7.419  1.00  0.00     0.002 A 
ATOM     90  C   UNL     1      -4.589 -20.218   9.600  1.00  0.00     0.091 A 
ATOM     91  F   UNL     1      -4.994 -18.615  11.321  1.00  0.00    -0.205 F 
ATOM     92  C   UNL     1      -4.220 -20.489   8.272  1.00  0.00     0.022 A 
BRANCH  90  93
ATOM     93  S   UNL     1      -4.942 -21.628  10.655  1.00  0.00     0.127 S 
ATOM     94  O   UNL     1      -6.241 -22.064  10.145  1.00  0.00    -0.237 OA
ATOM     95  O   UNL     1      -3.833 -22.531  10.348  1.00  0.00    -0.237 OA
ATOM     96  O   UNL     1      -4.947 -21.119  12.019  1.00  0.00    -0.744 OA
ENDBRANCH  90  93
ENDBRANCH  63  86
ENDBRANCH  37  38
ENDBRANCH  29  32
ENDBRANCH  27  28
ENDBRANCH  26  27
ENDBRANCH   1  26
TORSDOF 17
