REMARK SMILES CC(C)c1ccc(-c2cnc([C@@H]3[NH2+][C@H](C(=O)NCCCCCCNC(=O)c4ccc(-c5c6nc(c(-c7cccc(S(=O)(=O)[O-])c7F)c7ccc([nH]7)c(-c7cccc(S(=O)(=O)[O-])c7F)c7nc(c(-c8cccc(S(=O)(=O)[O-])c8F)c8ccc5[nH]8)C=C7)C=C6)cc4)C(C)(C)S3)s2)cc1
REMARK SMILES IDX 20 1 19 2 18 3 17 4 15 5 16 6 14 8 12 9 13 10 93 11 90 14
REMARK SMILES IDX 91 15 92 16 11 17 8 18 9 19 94 20 10 21 7 22 4 23 5 24 96 25
REMARK SMILES IDX 6 26 95 27 2 28 1 29 3 30 21 31 22 32 23 33 24 34 25 35
REMARK SMILES IDX 26 37 27 38 28 39 89 40 29 41 88 42 30 43 31 44 32 45 82 46
REMARK SMILES IDX 33 47 87 48 81 49 83 50 34 51 86 52 80 53 79 54 35 56 67 57
REMARK SMILES IDX 47 58 66 59 48 60 51 61 65 62 84 63 49 64 50 65 64 67 85 68
REMARK SMILES IDX 52 69 36 70 37 71 45 72 38 73 40 74 46 75 39 76 41 77 42 78
REMARK SMILES IDX 43 79 44 80 68 81 69 82 77 83 70 84 72 85 78 86 71 87 73 88
REMARK SMILES IDX 74 89 75 90 76 91 53 92 54 93 62 94 55 95 57 96 63 97 56 98
REMARK SMILES IDX 58 99 59 100 60 101 61 102
REMARK H PARENT 17 7 13 12 13 13 24 36 83 55 51 66
REMARK Flexibility Score: inf
ROOT
ATOM      1  C   UNL     1     -15.999   1.308  -1.535  1.00  0.00     0.002 C 
ENDROOT
BRANCH   1   2
ATOM      2  C   UNL     1     -15.354   0.609  -0.328  1.00  0.00     0.021 C 
BRANCH   2   3
ATOM      3  C   UNL     1     -14.144  -0.278  -0.655  1.00  0.00     0.116 C 
BRANCH   3   4
ATOM      4  N   UNL     1     -13.145   0.469  -1.389  1.00  0.00    -0.351 N 
ATOM      5  C   UNL     1     -12.263   1.342  -0.809  1.00  0.00     0.279 C 
ATOM      6  O   UNL     1     -12.255   2.482  -1.259  1.00  0.00    -0.268 OA
ATOM      7  H   UNL     1     -13.096   0.342  -2.365  1.00  0.00     0.163 HD
BRANCH   5   8
ATOM      8  C   UNL     1     -11.339   0.801   0.308  1.00  0.00     0.289 C 
ATOM      9  C   UNL     1      -9.169   1.850   0.045  1.00  0.00     0.304 C 
ATOM     10  N   UNL     1      -9.942   0.615  -0.204  1.00  0.00    -0.318 N 
ATOM     11  S   UNL     1      -9.844   2.666   1.525  1.00  0.00    -0.079 SA
ATOM     12  H   UNL     1      -9.501  -0.168   0.280  1.00  0.00     0.348 HD
ATOM     13  H   UNL     1      -9.965   0.418  -1.205  1.00  0.00     0.348 HD
ATOM     14  C   UNL     1     -11.306   1.582   1.638  1.00  0.00     0.078 C 
ATOM     15  C   UNL     1     -11.047   0.620   2.814  1.00  0.00     0.030 C 
ATOM     16  C   UNL     1     -12.559   2.404   1.940  1.00  0.00     0.030 C 
BRANCH   9  17
ATOM     17  C   UNL     1      -9.082   2.788  -1.143  1.00  0.00     0.162 A 
ATOM     18  C   UNL     1      -8.410   4.017  -3.148  1.00  0.00     0.055 A 
ATOM     19  C   UNL     1      -9.644   4.333  -2.613  1.00  0.00     0.132 A 
ATOM     20  S   UNL     1      -7.722   2.746  -2.214  1.00  0.00    -0.112 S 
ATOM     21  N   UNL     1      -9.964   3.719  -1.435  1.00  0.00    -0.242 NA
BRANCH  18  22
ATOM     22  C   UNL     1      -7.733   4.661  -4.278  1.00  0.00    -0.007 A 
ATOM     23  C   UNL     1      -6.490   6.045  -6.446  1.00  0.00    -0.045 A 
ATOM     24  C   UNL     1      -6.252   4.679  -6.209  1.00  0.00     0.004 A 
ATOM     25  C   UNL     1      -7.393   6.690  -5.592  1.00  0.00     0.004 A 
ATOM     26  C   UNL     1      -6.856   3.998  -5.138  1.00  0.00     0.010 A 
ATOM     27  C   UNL     1      -7.991   6.015  -4.527  1.00  0.00     0.010 A 
BRANCH  23  28
ATOM     28  C   UNL     1      -5.856   6.785  -7.623  1.00  0.00     0.013 C 
ATOM     29  C   UNL     1      -5.766   8.309  -7.423  1.00  0.00     0.012 C 
ATOM     30  C   UNL     1      -4.453   6.277  -7.984  1.00  0.00     0.012 C 
ENDBRANCH  23  28
ENDBRANCH  18  22
ENDBRANCH   9  17
ENDBRANCH   5   8
ENDBRANCH   3   4
ENDBRANCH   2   3
ENDBRANCH   1   2
BRANCH   1  31
ATOM     31  C   UNL     1     -16.405   0.390  -2.692  1.00  0.00     0.002 C 
BRANCH  31  32
ATOM     32  C   UNL     1     -17.305  -0.782  -2.305  1.00  0.00     0.021 C 
BRANCH  32  33
ATOM     33  C   UNL     1     -18.606  -0.392  -1.614  1.00  0.00     0.116 C 
BRANCH  33  34
ATOM     34  N   UNL     1     -19.497   0.355  -2.486  1.00  0.00    -0.352 N 
ATOM     35  C   UNL     1     -20.832   0.150  -2.728  1.00  0.00     0.251 C 
ATOM     36  H   UNL     1     -19.087   1.109  -2.969  1.00  0.00     0.163 HD
ATOM     37  O   UNL     1     -21.399   0.778  -3.622  1.00  0.00    -0.269 OA
BRANCH  35  38
ATOM     38  C   UNL     1     -21.584  -0.842  -1.928  1.00  0.00     0.039 A 
ATOM     39  C   UNL     1     -22.442  -1.730  -2.583  1.00  0.00     0.014 A 
ATOM     40  C   UNL     1     -21.446  -0.897  -0.538  1.00  0.00     0.014 A 
ATOM     41  C   UNL     1     -23.124  -2.704  -1.849  1.00  0.00     0.010 A 
ATOM     42  C   UNL     1     -22.070  -1.913   0.182  1.00  0.00     0.010 A 
ATOM     43  C   UNL     1     -22.926  -2.818  -0.463  1.00  0.00    -0.014 A 
BRANCH  43  44
ATOM     44  C   UNL     1     -23.616  -3.868   0.331  1.00  0.00     0.031 A 
ATOM     45  C   UNL     1     -24.605  -3.480   1.397  1.00  0.00     0.074 A 
ATOM     46  C   UNL     1     -23.293  -5.164   0.151  1.00  0.00     0.049 A 
ATOM     47  N   UNL     1     -25.268  -4.246   2.224  1.00  0.00    -0.248 NA
ATOM     48  C   UNL     1     -24.860  -2.041   1.579  1.00  0.00     0.031 C 
ATOM     49  C   UNL     1     -22.291  -5.664  -0.792  1.00  0.00     0.029 A 
ATOM     50  N   UNL     1     -23.757  -6.296   0.773  1.00  0.00    -0.354 N 
ATOM     51  C   UNL     1     -25.986  -3.385   3.046  1.00  0.00     0.074 A 
ATOM     52  C   UNL     1     -25.650  -2.038   2.642  1.00  0.00     0.031 C 
ATOM     53  C   UNL     1     -22.219  -7.001  -0.689  1.00  0.00     0.029 A 
ATOM     54  C   UNL     1     -23.153  -7.452   0.338  1.00  0.00     0.049 A 
ATOM     55  H   UNL     1     -24.457  -6.282   1.466  1.00  0.00     0.167 HD
ATOM     56  C   UNL     1     -26.872  -3.687   4.026  1.00  0.00     0.034 A 
ATOM     57  C   UNL     1     -23.334  -8.732   0.721  1.00  0.00     0.034 A 
ATOM     58  C   UNL     1     -27.249  -5.026   4.386  1.00  0.00     0.049 A 
ATOM     59  C   UNL     1     -24.373  -9.044   1.764  1.00  0.00     0.074 A 
ATOM     60  C   UNL     1     -28.202  -5.435   5.302  1.00  0.00     0.029 A 
ATOM     61  N   UNL     1     -26.694  -6.176   3.846  1.00  0.00    -0.354 N 
ATOM     62  N   UNL     1     -25.160  -8.224   2.416  1.00  0.00    -0.248 NA
ATOM     63  C   UNL     1     -24.581 -10.463   2.092  1.00  0.00     0.031 C 
ATOM     64  C   UNL     1     -28.217  -6.835   5.322  1.00  0.00     0.029 A 
ATOM     65  C   UNL     1     -27.284  -7.295   4.407  1.00  0.00     0.049 A 
ATOM     66  H   UNL     1     -25.985  -6.193   3.164  1.00  0.00     0.167 HD
ATOM     67  C   UNL     1     -25.982  -9.025   3.201  1.00  0.00     0.074 A 
ATOM     68  C   UNL     1     -25.608 -10.398   2.929  1.00  0.00     0.031 C 
ATOM     69  C   UNL     1     -26.946  -8.657   4.080  1.00  0.00     0.034 A 
BRANCH  56  70
ATOM     70  C   UNL     1     -27.546  -2.539   4.732  1.00  0.00     0.023 A 
ATOM     71  C   UNL     1     -28.519  -1.782   4.048  1.00  0.00     0.012 A 
ATOM     72  C   UNL     1     -27.257  -2.237   6.077  1.00  0.00     0.148 A 
ATOM     73  C   UNL     1     -29.166  -0.719   4.677  1.00  0.00     0.002 A 
ATOM     74  C   UNL     1     -27.938  -1.204   6.711  1.00  0.00     0.091 A 
ATOM     75  F   UNL     1     -26.312  -2.951   6.705  1.00  0.00    -0.205 F 
ATOM     76  C   UNL     1     -28.883  -0.437   6.010  1.00  0.00     0.022 A 
BRANCH  74  77
ATOM     77  S   UNL     1     -27.697  -0.814   8.449  1.00  0.00     0.127 S 
ATOM     78  O   UNL     1     -26.898   0.407   8.370  1.00  0.00    -0.237 OA
ATOM     79  O   UNL     1     -29.070  -0.616   8.916  1.00  0.00    -0.237 OA
ATOM     80  O   UNL     1     -27.025  -1.970   9.026  1.00  0.00    -0.744 OA
ENDBRANCH  74  77
ENDBRANCH  56  70
BRANCH  57  81
ATOM     81  C   UNL     1     -22.575  -9.822   0.045  1.00  0.00     0.023 A 
ATOM     82  C   UNL     1     -23.254 -10.685  -0.837  1.00  0.00     0.012 A 
ATOM     83  C   UNL     1     -21.190  -9.986   0.237  1.00  0.00     0.148 A 
ATOM     84  C   UNL     1     -22.573 -11.710  -1.494  1.00  0.00     0.002 A 
ATOM     85  C   UNL     1     -20.508 -10.976  -0.461  1.00  0.00     0.091 A 
ATOM     86  F   UNL     1     -20.564  -9.162   1.089  1.00  0.00    -0.205 F 
ATOM     87  C   UNL     1     -21.200 -11.850  -1.315  1.00  0.00     0.022 A 
BRANCH  85  88
ATOM     88  S   UNL     1     -18.720 -11.144  -0.391  1.00  0.00     0.127 S 
ATOM     89  O   UNL     1     -18.564 -12.355   0.410  1.00  0.00    -0.237 OA
ATOM     90  O   UNL     1     -18.372 -11.291  -1.805  1.00  0.00    -0.237 OA
ATOM     91  O   UNL     1     -18.236  -9.912   0.218  1.00  0.00    -0.744 OA
ENDBRANCH  85  88
ENDBRANCH  57  81
BRANCH  69  92
ATOM     92  C   UNL     1     -27.700  -9.750   4.790  1.00  0.00     0.023 A 
ATOM     93  C   UNL     1     -27.072 -10.477   5.820  1.00  0.00     0.012 A 
ATOM     94  C   UNL     1     -29.053 -10.004   4.490  1.00  0.00     0.148 A 
ATOM     95  C   UNL     1     -27.769 -11.461   6.520  1.00  0.00     0.002 A 
ATOM     96  C   UNL     1     -29.755 -10.954   5.223  1.00  0.00     0.091 A 
ATOM     97  F   UNL     1     -29.628  -9.317   3.491  1.00  0.00    -0.205 F 
ATOM     98  C   UNL     1     -29.112 -11.690   6.231  1.00  0.00     0.022 A 
BRANCH  96  99
ATOM     99  S   UNL     1     -31.511 -11.244   4.977  1.00  0.00     0.127 S 
ATOM    100  O   UNL     1     -31.503 -12.485   4.205  1.00  0.00    -0.237 OA
ATOM    101  O   UNL     1     -32.002 -11.383   6.349  1.00  0.00    -0.237 OA
ATOM    102  O   UNL     1     -32.012 -10.069   4.277  1.00  0.00    -0.744 OA
ENDBRANCH  96  99
ENDBRANCH  69  92
ENDBRANCH  43  44
ENDBRANCH  35  38
ENDBRANCH  33  34
ENDBRANCH  32  33
ENDBRANCH  31  32
ENDBRANCH   1  31
TORSDOF 19
