REMARK SMILES O=C(NCCCCCCNC(=O)c1cncc(OCCCc2ccccc2)n1)c1ccc(-c2c3nc(c(-c4cccc(S(=O)(=O)[O-])c4F)c4ccc([nH]4)c(-c4cccc(S(=O)(=O)[O-])c4F)c4nc(c(-c5cccc(S(=O)(=O)[O-])c5F)c5ccc2[nH]5)C=C4)C=C3)cc1
REMARK SMILES IDX 7 1 6 2 5 3 4 4 3 5 1 6 2 7 29 9 30 10 91 11 31 12 90 13
REMARK SMILES IDX 32 14 33 15 34 16 84 17 35 18 89 19 83 20 85 21 36 22 88 23
REMARK SMILES IDX 82 24 81 25 37 27 69 28 49 29 68 30 50 31 53 32 67 33 86 34
REMARK SMILES IDX 51 35 52 36 66 38 87 39 54 40 38 41 39 42 47 43 40 44 42 45
REMARK SMILES IDX 48 46 41 47 43 48 44 49 45 50 46 51 70 52 71 53 79 54 72 55
REMARK SMILES IDX 74 56 80 57 73 58 75 59 76 60 77 61 78 62 55 63 56 64 64 65
REMARK SMILES IDX 57 66 59 67 65 68 58 69 60 70 61 71 62 72 63 73 8 74 9 75
REMARK SMILES IDX 10 76 11 77 12 79 13 80 14 81 28 82 15 83 17 84 16 85 18 86
REMARK SMILES IDX 19 87 20 88 21 89 22 90 23 91 27 92 24 93 26 94 25 95
REMARK H PARENT 3 8 85 26 53 37 10 78
REMARK Flexibility Score: inf
ROOT
ATOM      1  C   UNL     1       5.056  -2.995   3.190  1.00  0.00     0.002 C 
ENDROOT
BRANCH   1   2
ATOM      2  C   UNL     1       4.415  -1.635   3.483  1.00  0.00     0.002 C 
BRANCH   2   3
ATOM      3  C   UNL     1       4.813  -0.499   2.538  1.00  0.00     0.021 C 
BRANCH   3   4
ATOM      4  C   UNL     1       4.534  -0.760   1.062  1.00  0.00     0.116 C 
BRANCH   4   5
ATOM      5  N   UNL     1       3.113  -0.841   0.781  1.00  0.00    -0.352 N 
ATOM      6  O   UNL     1       1.112  -0.131   0.039  1.00  0.00    -0.269 OA
ATOM      7  C   UNL     1       2.333  -0.033  -0.012  1.00  0.00     0.251 C 
ATOM      8  H   UNL     1       2.638  -1.583   1.222  1.00  0.00     0.163 HD
BRANCH   7   9
ATOM      9  C   UNL     1       2.968   0.963  -0.905  1.00  0.00     0.039 A 
ATOM     10  C   UNL     1       4.070   0.622  -1.697  1.00  0.00     0.014 A 
ATOM     11  C   UNL     1       2.433   2.251  -0.968  1.00  0.00     0.014 A 
ATOM     12  C   UNL     1       4.710   1.598  -2.457  1.00  0.00     0.010 A 
ATOM     13  C   UNL     1       3.032   3.210  -1.787  1.00  0.00     0.010 A 
ATOM     14  C   UNL     1       4.191   2.899  -2.518  1.00  0.00    -0.014 A 
BRANCH  14  15
ATOM     15  C   UNL     1       4.820   3.923  -3.391  1.00  0.00     0.031 A 
ATOM     16  C   UNL     1       5.417   5.170  -2.804  1.00  0.00     0.074 A 
ATOM     17  C   UNL     1       4.787   3.754  -4.726  1.00  0.00     0.049 A 
ATOM     18  N   UNL     1       5.911   6.215  -3.417  1.00  0.00    -0.248 NA
ATOM     19  C   UNL     1       5.452   5.262  -1.336  1.00  0.00     0.031 C 
ATOM     20  C   UNL     1       4.205   2.599  -5.413  1.00  0.00     0.029 A 
ATOM     21  N   UNL     1       5.213   4.569  -5.745  1.00  0.00    -0.354 N 
ATOM     22  C   UNL     1       6.269   7.110  -2.417  1.00  0.00     0.074 A 
ATOM     23  C   UNL     1       5.934   6.484  -1.155  1.00  0.00     0.031 C 
ATOM     24  C   UNL     1       4.291   2.787  -6.737  1.00  0.00     0.029 A 
ATOM     25  C   UNL     1       4.879   4.097  -6.993  1.00  0.00     0.049 A 
ATOM     26  H   UNL     1       5.707   5.407  -5.598  1.00  0.00     0.167 HD
ATOM     27  C   UNL     1       6.829   8.338  -2.539  1.00  0.00     0.034 A 
ATOM     28  C   UNL     1       4.988   4.670  -8.207  1.00  0.00     0.034 A 
ATOM     29  C   UNL     1       7.170   8.945  -3.799  1.00  0.00     0.049 A 
ATOM     30  C   UNL     1       5.607   6.032  -8.322  1.00  0.00     0.074 A 
ATOM     31  C   UNL     1       7.808  10.151  -4.027  1.00  0.00     0.029 A 
ATOM     32  N   UNL     1       6.879   8.405  -5.043  1.00  0.00    -0.354 N 
ATOM     33  N   UNL     1       6.055   6.813  -7.369  1.00  0.00    -0.248 NA
ATOM     34  C   UNL     1       5.766   6.582  -9.675  1.00  0.00     0.031 C 
ATOM     35  C   UNL     1       7.863  10.361  -5.409  1.00  0.00     0.029 A 
ATOM     36  C   UNL     1       7.306   9.262  -6.043  1.00  0.00     0.049 A 
ATOM     37  H   UNL     1       6.433   7.540  -5.193  1.00  0.00     0.167 HD
ATOM     38  C   UNL     1       6.585   7.928  -8.007  1.00  0.00     0.074 A 
ATOM     39  C   UNL     1       6.404   7.720  -9.429  1.00  0.00     0.031 C 
ATOM     40  C   UNL     1       7.167   9.022  -7.459  1.00  0.00     0.034 A 
BRANCH  27  41
ATOM     41  C   UNL     1       7.112   9.107  -1.273  1.00  0.00     0.023 A 
ATOM     42  C   UNL     1       8.129   8.676  -0.397  1.00  0.00     0.012 A 
ATOM     43  C   UNL     1       6.391  10.279  -0.967  1.00  0.00     0.148 A 
ATOM     44  C   UNL     1       8.390   9.367   0.786  1.00  0.00     0.002 A 
ATOM     45  C   UNL     1       6.689  10.990   0.191  1.00  0.00     0.091 A 
ATOM     46  F   UNL     1       5.415  10.668  -1.799  1.00  0.00    -0.205 F 
ATOM     47  C   UNL     1       7.676  10.527   1.075  1.00  0.00     0.022 A 
BRANCH  45  48
ATOM     48  S   UNL     1       5.881  12.540   0.604  1.00  0.00     0.127 S 
ATOM     49  O   UNL     1       4.972  12.123   1.670  1.00  0.00    -0.237 OA
ATOM     50  O   UNL     1       7.004  13.366   1.050  1.00  0.00    -0.237 OA
ATOM     51  O   UNL     1       5.246  12.998  -0.624  1.00  0.00    -0.744 OA
ENDBRANCH  45  48
ENDBRANCH  27  41
BRANCH  28  52
ATOM     52  C   UNL     1       4.511   3.924  -9.404  1.00  0.00     0.023 A 
ATOM     53  C   UNL     1       5.445   3.378 -10.302  1.00  0.00     0.012 A 
ATOM     54  C   UNL     1       3.137   3.681  -9.603  1.00  0.00     0.148 A 
ATOM     55  C   UNL     1       5.019   2.612 -11.388  1.00  0.00     0.002 A 
ATOM     56  C   UNL     1       2.724   2.870 -10.652  1.00  0.00     0.091 A 
ATOM     57  F   UNL     1       2.267   4.214  -8.733  1.00  0.00    -0.205 F 
ATOM     58  C   UNL     1       3.662   2.347 -11.555  1.00  0.00     0.022 A 
BRANCH  56  59
ATOM     59  S   UNL     1       1.015   2.359 -10.866  1.00  0.00     0.127 S 
ATOM     60  O   UNL     1       0.675   2.981 -12.143  1.00  0.00    -0.237 OA
ATOM     61  O   UNL     1       1.144   0.902 -10.905  1.00  0.00    -0.237 OA
ATOM     62  O   UNL     1       0.298   2.872  -9.707  1.00  0.00    -0.744 OA
ENDBRANCH  56  59
ENDBRANCH  28  52
BRANCH  40  63
ATOM     63  C   UNL     1       7.719  10.070  -8.389  1.00  0.00     0.023 A 
ATOM     64  C   UNL     1       6.850  10.942  -9.073  1.00  0.00     0.012 A 
ATOM     65  C   UNL     1       9.112  10.261  -8.487  1.00  0.00     0.148 A 
ATOM     66  C   UNL     1       7.362  11.980  -9.852  1.00  0.00     0.002 A 
ATOM     67  C   UNL     1       9.613  11.327  -9.222  1.00  0.00     0.091 A 
ATOM     68  F   UNL     1       9.919   9.405  -7.842  1.00  0.00    -0.205 F 
ATOM     69  C   UNL     1       8.739  12.182  -9.914  1.00  0.00     0.022 A 
BRANCH  67  70
ATOM     70  S   UNL     1      11.363  11.726  -9.273  1.00  0.00     0.127 S 
ATOM     71  O   UNL     1      11.691  11.450 -10.671  1.00  0.00    -0.237 OA
ATOM     72  O   UNL     1      11.365  13.145  -8.915  1.00  0.00    -0.237 OA
ATOM     73  O   UNL     1      12.007  10.853  -8.302  1.00  0.00    -0.744 OA
ENDBRANCH  67  70
ENDBRANCH  40  63
ENDBRANCH  14  15
ENDBRANCH   7   9
ENDBRANCH   4   5
ENDBRANCH   3   4
ENDBRANCH   2   3
ENDBRANCH   1   2
BRANCH   1  74
ATOM     74  C   UNL     1       6.582  -3.000   3.059  1.00  0.00     0.021 C 
BRANCH  74  75
ATOM     75  C   UNL     1       7.357  -2.375   4.217  1.00  0.00     0.116 C 
BRANCH  75  76
ATOM     76  N   UNL     1       7.080  -2.993   5.500  1.00  0.00    -0.351 N 
ATOM     77  C   UNL     1       7.969  -3.419   6.460  1.00  0.00     0.271 C 
ATOM     78  H   UNL     1       6.128  -3.126   5.712  1.00  0.00     0.163 HD
ATOM     79  O   UNL     1       7.556  -3.868   7.525  1.00  0.00    -0.267 OA
BRANCH  77  80
ATOM     80  C   UNL     1       9.423  -3.388   6.184  1.00  0.00     0.150 A 
ATOM     81  C   UNL     1      10.111  -2.191   6.107  1.00  0.00     0.145 A 
ATOM     82  N   UNL     1      10.027  -4.594   6.032  1.00  0.00    -0.205 NA
ATOM     83  N   UNL     1      11.443  -2.147   5.854  1.00  0.00    -0.257 NA
ATOM     84  C   UNL     1      11.350  -4.560   5.809  1.00  0.00     0.233 A 
ATOM     85  C   UNL     1      12.045  -3.360   5.721  1.00  0.00     0.179 A 
BRANCH  84  86
ATOM     86  O   UNL     1      12.057  -5.738   5.758  1.00  0.00    -0.477 OA
BRANCH  86  87
ATOM     87  C   UNL     1      11.286  -6.884   5.365  1.00  0.00     0.232 C 
BRANCH  87  88
ATOM     88  C   UNL     1      10.713  -7.669   6.553  1.00  0.00     0.046 C 
BRANCH  88  89
ATOM     89  C   UNL     1       9.219  -7.463   6.847  1.00  0.00     0.039 C 
BRANCH  89  90
ATOM     90  C   UNL     1       8.276  -7.795   5.712  1.00  0.00    -0.048 A 
ATOM     91  C   UNL     1       7.698  -6.775   4.946  1.00  0.00     0.004 A 
ATOM     92  C   UNL     1       7.929  -9.118   5.423  1.00  0.00     0.004 A 
ATOM     93  C   UNL     1       6.785  -7.058   3.930  1.00  0.00     0.000 A 
ATOM     94  C   UNL     1       7.012  -9.405   4.406  1.00  0.00     0.000 A 
ATOM     95  C   UNL     1       6.438  -8.375   3.663  1.00  0.00     0.000 A 
ENDBRANCH  89  90
ENDBRANCH  88  89
ENDBRANCH  87  88
ENDBRANCH  86  87
ENDBRANCH  84  86
ENDBRANCH  77  80
ENDBRANCH  75  76
ENDBRANCH  74  75
ENDBRANCH   1  74
TORSDOF 21
