REMARK SMILES CSc1ccccc1Sc1cc(C(=O)NCCCCCCNC(=O)c2ccc(-c3c4nc(c(-c5cccc(S(=O)(=O)[O-])c5F)c5ccc([nH]5)c(-c5cccc(S(=O)(=O)[O-])c5F)c5nc(c(-c6cccc(S(=O)(=O)[O-])c6F)c6ccc3[nH]6)C=C5)C=C4)cc2)c2ccccc2n1
REMARK SMILES IDX 18 1 17 2 16 3 15 4 13 5 14 6 12 8 10 9 11 10 94 11 93 12
REMARK SMILES IDX 88 13 92 14 89 15 91 16 90 17 9 18 8 19 3 20 4 21 5 22 7 23
REMARK SMILES IDX 6 24 2 25 1 26 19 27 20 28 21 29 22 30 23 31 24 33 25 34
REMARK SMILES IDX 26 35 87 36 27 37 86 38 28 39 29 40 30 41 80 42 31 43 85 44
REMARK SMILES IDX 79 45 81 46 32 47 84 48 78 49 77 50 33 52 65 53 45 54 64 55
REMARK SMILES IDX 46 56 49 57 63 58 82 59 47 60 48 61 62 63 83 64 50 65 34 66
REMARK SMILES IDX 35 67 43 68 36 69 38 70 44 71 37 72 39 73 40 74 41 75 42 76
REMARK SMILES IDX 66 77 67 78 75 79 68 80 70 81 76 82 69 83 71 84 72 85 73 86
REMARK SMILES IDX 74 87 51 88 52 89 60 90 53 91 55 92 61 93 54 94 56 95 57 96
REMARK SMILES IDX 58 97 59 98
REMARK H PARENT 15 7 22 32 81 51 49 62
REMARK Flexibility Score: inf
ROOT
ATOM      1  C   UNL     1      -3.004  -0.302   5.181  1.00  0.00     0.002 C 
ENDROOT
BRANCH   1   2
ATOM      2  C   UNL     1      -2.181  -0.260   3.883  1.00  0.00     0.021 C 
BRANCH   2   3
ATOM      3  C   UNL     1      -2.999   0.143   2.651  1.00  0.00     0.116 C 
BRANCH   3   4
ATOM      4  N   UNL     1      -3.285   1.569   2.708  1.00  0.00    -0.352 N 
ATOM      5  C   UNL     1      -3.001   2.676   1.955  1.00  0.00     0.252 C 
ATOM      6  O   UNL     1      -3.409   3.736   2.431  1.00  0.00    -0.269 OA
ATOM      7  H   UNL     1      -3.827   1.798   3.498  1.00  0.00     0.163 HD
BRANCH   5   8
ATOM      8  C   UNL     1      -2.337   2.651   0.614  1.00  0.00     0.051 A 
ATOM      9  C   UNL     1      -0.980   1.684  -1.059  1.00  0.00     0.102 A 
ATOM     10  C   UNL     1      -1.515   1.608   0.215  1.00  0.00     0.050 A 
ATOM     11  N   UNL     1      -1.550   2.415  -2.025  1.00  0.00    -0.241 NA
ATOM     12  C   UNL     1      -2.073   3.554  -1.609  1.00  0.00     0.072 A 
ATOM     13  C   UNL     1      -2.377   3.785  -0.253  1.00  0.00     0.013 A 
ATOM     14  C   UNL     1      -2.107   4.574  -2.540  1.00  0.00     0.029 A 
ATOM     15  C   UNL     1      -2.528   5.139   0.135  1.00  0.00     0.011 A 
ATOM     16  C   UNL     1      -2.225   5.896  -2.132  1.00  0.00     0.002 A 
ATOM     17  C   UNL     1      -2.392   6.180  -0.785  1.00  0.00     0.001 A 
BRANCH   9  18
ATOM     18  S   UNL     1       0.833   1.897  -1.015  1.00  0.00    -0.069 SA
BRANCH  18  19
ATOM     19  C   UNL     1       1.297   1.271  -2.607  1.00  0.00     0.027 A 
ATOM     20  C   UNL     1       1.521  -0.095  -2.848  1.00  0.00     0.021 A 
ATOM     21  C   UNL     1       2.000  -0.473  -4.113  1.00  0.00     0.016 A 
ATOM     22  C   UNL     1       2.240   0.473  -5.115  1.00  0.00     0.001 A 
ATOM     23  C   UNL     1       1.512   2.215  -3.631  1.00  0.00     0.016 A 
ATOM     24  C   UNL     1       1.977   1.817  -4.882  1.00  0.00     0.001 A 
BRANCH  20  25
ATOM     25  S   UNL     1       1.100  -1.444  -1.731  1.00  0.00    -0.128 SA
ATOM     26  C   UNL     1       1.974  -1.027  -0.194  1.00  0.00     0.091 C 
ENDBRANCH  20  25
ENDBRANCH  18  19
ENDBRANCH   9  18
ENDBRANCH   5   8
ENDBRANCH   3   4
ENDBRANCH   2   3
ENDBRANCH   1   2
BRANCH   1  27
ATOM     27  C   UNL     1      -4.138  -1.335   5.193  1.00  0.00     0.002 C 
BRANCH  27  28
ATOM     28  C   UNL     1      -3.704  -2.772   4.894  1.00  0.00     0.021 C 
BRANCH  28  29
ATOM     29  C   UNL     1      -2.661  -3.330   5.859  1.00  0.00     0.116 C 
BRANCH  29  30
ATOM     30  N   UNL     1      -3.170  -3.410   7.221  1.00  0.00    -0.352 N 
ATOM     31  C   UNL     1      -3.253  -4.497   8.052  1.00  0.00     0.251 C 
ATOM     32  H   UNL     1      -3.501  -2.563   7.598  1.00  0.00     0.163 HD
ATOM     33  O   UNL     1      -3.912  -4.428   9.091  1.00  0.00    -0.269 OA
BRANCH  31  34
ATOM     34  C   UNL     1      -2.567  -5.755   7.693  1.00  0.00     0.039 A 
ATOM     35  C   UNL     1      -3.256  -6.963   7.819  1.00  0.00     0.014 A 
ATOM     36  C   UNL     1      -1.249  -5.740   7.227  1.00  0.00     0.014 A 
ATOM     37  C   UNL     1      -2.645  -8.151   7.410  1.00  0.00     0.010 A 
ATOM     38  C   UNL     1      -0.669  -6.914   6.755  1.00  0.00     0.010 A 
ATOM     39  C   UNL     1      -1.362  -8.131   6.837  1.00  0.00    -0.014 A 
BRANCH  39  40
ATOM     40  C   UNL     1      -0.756  -9.364   6.271  1.00  0.00     0.031 A 
ATOM     41  C   UNL     1       0.517  -9.926   6.840  1.00  0.00     0.074 A 
ATOM     42  C   UNL     1      -1.313  -9.927   5.180  1.00  0.00     0.049 A 
ATOM     43  N   UNL     1       1.208 -10.963   6.442  1.00  0.00    -0.248 NA
ATOM     44  C   UNL     1       1.105  -9.220   7.990  1.00  0.00     0.031 C 
ATOM     45  C   UNL     1      -2.503  -9.428   4.487  1.00  0.00     0.029 A 
ATOM     46  N   UNL     1      -0.937 -11.024   4.444  1.00  0.00    -0.354 N 
ATOM     47  C   UNL     1       2.324 -11.018   7.268  1.00  0.00     0.074 A 
ATOM     48  C   UNL     1       2.233  -9.891   8.172  1.00  0.00     0.031 C 
ATOM     49  C   UNL     1      -2.762 -10.217   3.433  1.00  0.00     0.029 A 
ATOM     50  C   UNL     1      -1.738 -11.253   3.350  1.00  0.00     0.049 A 
ATOM     51  H   UNL     1      -0.168 -11.592   4.678  1.00  0.00     0.167 HD
ATOM     52  C   UNL     1       3.319 -11.937   7.290  1.00  0.00     0.034 A 
ATOM     53  C   UNL     1      -1.651 -12.183   2.378  1.00  0.00     0.034 A 
ATOM     54  C   UNL     1       3.389 -13.071   6.408  1.00  0.00     0.049 A 
ATOM     55  C   UNL     1      -0.543 -13.198   2.435  1.00  0.00     0.074 A 
ATOM     56  C   UNL     1       4.305 -14.109   6.414  1.00  0.00     0.029 A 
ATOM     57  N   UNL     1       2.526 -13.308   5.350  1.00  0.00    -0.354 N 
ATOM     58  N   UNL     1       0.405 -13.335   3.329  1.00  0.00    -0.248 NA
ATOM     59  C   UNL     1      -0.509 -14.204   1.364  1.00  0.00     0.031 C 
ATOM     60  C   UNL     1       4.018 -14.952   5.336  1.00  0.00     0.029 A 
ATOM     61  C   UNL     1       2.902 -14.460   4.679  1.00  0.00     0.049 A 
ATOM     62  H   UNL     1       1.757 -12.741   5.110  1.00  0.00     0.167 HD
ATOM     63  C   UNL     1       1.133 -14.455   2.944  1.00  0.00     0.074 A 
ATOM     64  C   UNL     1       0.496 -14.977   1.752  1.00  0.00     0.031 C 
ATOM     65  C   UNL     1       2.240 -14.991   3.514  1.00  0.00     0.034 A 
BRANCH  52  66
ATOM     66  C   UNL     1       4.398 -11.779   8.331  1.00  0.00     0.023 A 
ATOM     67  C   UNL     1       4.098 -12.017   9.688  1.00  0.00     0.012 A 
ATOM     68  C   UNL     1       5.720 -11.462   7.962  1.00  0.00     0.148 A 
ATOM     69  C   UNL     1       5.087 -11.908  10.665  1.00  0.00     0.002 A 
ATOM     70  C   UNL     1       6.711 -11.401   8.935  1.00  0.00     0.091 A 
ATOM     71  F   UNL     1       5.983 -11.221   6.669  1.00  0.00    -0.205 F 
ATOM     72  C   UNL     1       6.394 -11.611  10.287  1.00  0.00     0.022 A 
BRANCH  70  73
ATOM     73  S   UNL     1       8.439 -11.104   8.545  1.00  0.00     0.127 S 
ATOM     74  O   UNL     1       8.643  -9.770   9.107  1.00  0.00    -0.237 OA
ATOM     75  O   UNL     1       9.107 -12.181   9.276  1.00  0.00    -0.237 OA
ATOM     76  O   UNL     1       8.546 -11.194   7.096  1.00  0.00    -0.744 OA
ENDBRANCH  70  73
ENDBRANCH  52  66
BRANCH  53  77
ATOM     77  C   UNL     1      -2.668 -12.219   1.290  1.00  0.00     0.023 A 
ATOM     78  C   UNL     1      -3.584 -13.287   1.231  1.00  0.00     0.012 A 
ATOM     79  C   UNL     1      -2.750 -11.190   0.331  1.00  0.00     0.148 A 
ATOM     80  C   UNL     1      -4.542 -13.348   0.218  1.00  0.00     0.002 A 
ATOM     81  C   UNL     1      -3.744 -11.226  -0.639  1.00  0.00     0.091 A 
ATOM     82  F   UNL     1      -1.862 -10.188   0.398  1.00  0.00    -0.205 F 
ATOM     83  C   UNL     1      -4.629 -12.313  -0.710  1.00  0.00     0.022 A 
BRANCH  81  84
ATOM     84  S   UNL     1      -4.016  -9.873  -1.789  1.00  0.00     0.127 S 
ATOM     85  O   UNL     1      -3.604 -10.470  -3.056  1.00  0.00    -0.237 OA
ATOM     86  O   UNL     1      -5.455  -9.647  -1.651  1.00  0.00    -0.237 OA
ATOM     87  O   UNL     1      -3.188  -8.776  -1.308  1.00  0.00    -0.744 OA
ENDBRANCH  81  84
ENDBRANCH  53  77
BRANCH  65  88
ATOM     88  C   UNL     1       2.833 -16.217   2.867  1.00  0.00     0.023 A 
ATOM     89  C   UNL     1       3.499 -16.101   1.631  1.00  0.00     0.012 A 
ATOM     90  C   UNL     1       2.789 -17.468   3.514  1.00  0.00     0.148 A 
ATOM     91  C   UNL     1       4.082 -17.217   1.032  1.00  0.00     0.002 A 
ATOM     92  C   UNL     1       3.417 -18.565   2.936  1.00  0.00     0.091 A 
ATOM     93  F   UNL     1       2.137 -17.561   4.682  1.00  0.00    -0.205 F 
ATOM     94  C   UNL     1       4.051 -18.445   1.689  1.00  0.00     0.022 A 
BRANCH  92  95
ATOM     95  S   UNL     1       3.512 -20.164   3.749  1.00  0.00     0.127 S 
ATOM     96  O   UNL     1       2.650 -20.982   2.897  1.00  0.00    -0.237 OA
ATOM     97  O   UNL     1       4.938 -20.475   3.651  1.00  0.00    -0.237 OA
ATOM     98  O   UNL     1       3.028 -19.957   5.107  1.00  0.00    -0.744 OA
ENDBRANCH  92  95
ENDBRANCH  65  88
ENDBRANCH  39  40
ENDBRANCH  31  34
ENDBRANCH  29  30
ENDBRANCH  28  29
ENDBRANCH  27  28
ENDBRANCH   1  27
TORSDOF 19
