REMARK SMILES CCCC1(CCC)CN(c2cncc(C(=O)NCCCCCCNC(=O)c3ccc(-c4c5nc(c(-c6cccc(S(=O)(=O)[O-])c6F)c6ccc([nH]6)c(-c6cccc(S(=O)(=O)[O-])c6F)c6nc(c(-c7cccc(S(=O)(=O)[O-])c7F)c7ccc4[nH]7)C=C6)C=C5)cc3)c2)C1
REMARK SMILES IDX 20 1 19 2 18 3 17 4 15 5 16 6 14 8 10 9 11 10 90 11 12 12
REMARK SMILES IDX 13 13 9 14 4 15 8 16 91 17 3 18 2 19 1 20 5 21 6 22 7 23
REMARK SMILES IDX 21 24 22 25 23 26 24 27 25 28 26 30 27 31 28 32 89 33 29 34
REMARK SMILES IDX 88 35 30 36 31 37 32 38 82 39 33 40 87 41 81 42 83 43 34 44
REMARK SMILES IDX 86 45 80 46 79 47 35 49 67 50 47 51 66 52 48 53 51 54 65 55
REMARK SMILES IDX 84 56 49 57 50 58 64 60 85 61 52 62 36 63 37 64 45 65 38 66
REMARK SMILES IDX 40 67 46 68 39 69 41 70 42 71 43 72 44 73 68 74 69 75 77 76
REMARK SMILES IDX 70 77 72 78 78 79 71 80 73 81 74 82 75 83 76 84 53 85 54 86
REMARK SMILES IDX 62 87 55 88 57 89 63 90 56 91 58 92 59 93 60 94 61 95
REMARK H PARENT 17 7 24 29 83 48 51 59
REMARK Flexibility Score: inf
ROOT
ATOM      1  C   UNL     1      -3.596  -2.504  -8.317  1.00  0.00     0.002 C 
ENDROOT
BRANCH   1   2
ATOM      2  C   UNL     1      -2.795  -2.455  -7.007  1.00  0.00     0.021 C 
BRANCH   2   3
ATOM      3  C   UNL     1      -3.643  -2.811  -5.783  1.00  0.00     0.116 C 
BRANCH   3   4
ATOM      4  N   UNL     1      -3.716  -4.251  -5.635  1.00  0.00    -0.352 N 
ATOM      5  C   UNL     1      -3.063  -5.153  -4.837  1.00  0.00     0.252 C 
ATOM      6  O   UNL     1      -3.346  -6.342  -4.999  1.00  0.00    -0.269 OA
ATOM      7  H   UNL     1      -4.374  -4.670  -6.235  1.00  0.00     0.163 HD
BRANCH   5   8
ATOM      8  C   UNL     1      -2.098  -4.789  -3.769  1.00  0.00     0.060 A 
ATOM      9  C   UNL     1      -0.659  -3.307  -2.496  1.00  0.00     0.056 A 
ATOM     10  C   UNL     1      -0.478  -4.350  -1.592  1.00  0.00     0.136 A 
ATOM     11  C   UNL     1      -1.429  -3.574  -3.632  1.00  0.00     0.043 A 
ATOM     12  N   UNL     1      -1.035  -5.577  -1.721  1.00  0.00    -0.262 NA
ATOM     13  C   UNL     1      -1.845  -5.754  -2.795  1.00  0.00     0.125 A 
BRANCH   9  14
ATOM     14  N   UNL     1      -0.139  -2.029  -2.235  1.00  0.00    -0.369 N 
ATOM     15  C   UNL     1       0.544  -0.107  -2.769  1.00  0.00     0.005 C 
ATOM     16  C   UNL     1       1.136  -1.543  -2.661  1.00  0.00     0.125 C 
ATOM     17  C   UNL     1      -0.808  -0.771  -2.395  1.00  0.00     0.125 C 
BRANCH  15  18
ATOM     18  C   UNL     1       1.309   0.845  -1.819  1.00  0.00     0.010 C 
BRANCH  18  19
ATOM     19  C   UNL     1       0.666   1.098  -0.456  1.00  0.00    -0.003 C 
ATOM     20  C   UNL     1       0.898  -0.019   0.549  1.00  0.00     0.004 C 
ENDBRANCH  18  19
ENDBRANCH  15  18
BRANCH  15  21
ATOM     21  C   UNL     1       0.567   0.395  -4.238  1.00  0.00     0.010 C 
BRANCH  21  22
ATOM     22  C   UNL     1      -0.483   1.464  -4.580  1.00  0.00    -0.003 C 
ATOM     23  C   UNL     1      -0.257   2.833  -3.960  1.00  0.00     0.004 C 
ENDBRANCH  21  22
ENDBRANCH  15  21
ENDBRANCH   9  14
ENDBRANCH   5   8
ENDBRANCH   3   4
ENDBRANCH   2   3
ENDBRANCH   1   2
BRANCH   1  24
ATOM     24  C   UNL     1      -4.769  -1.518  -8.385  1.00  0.00     0.002 C 
BRANCH  24  25
ATOM     25  C   UNL     1      -4.397  -0.059  -8.106  1.00  0.00     0.021 C 
BRANCH  25  26
ATOM     26  C   UNL     1      -3.406   0.527  -9.104  1.00  0.00     0.116 C 
BRANCH  26  27
ATOM     27  N   UNL     1      -3.972   0.578 -10.444  1.00  0.00    -0.352 N 
ATOM     28  C   UNL     1      -4.131   1.658 -11.274  1.00  0.00     0.251 C 
ATOM     29  H   UNL     1      -4.284  -0.284 -10.805  1.00  0.00     0.163 HD
ATOM     30  O   UNL     1      -4.855   1.574 -12.260  1.00  0.00    -0.269 OA
BRANCH  28  31
ATOM     31  C   UNL     1      -3.424   2.920 -10.972  1.00  0.00     0.039 A 
ATOM     32  C   UNL     1      -4.104   4.132 -11.115  1.00  0.00     0.014 A 
ATOM     33  C   UNL     1      -2.086   2.904 -10.569  1.00  0.00     0.014 A 
ATOM     34  C   UNL     1      -3.448   5.328 -10.819  1.00  0.00     0.010 A 
ATOM     35  C   UNL     1      -1.460   4.090 -10.200  1.00  0.00     0.010 A 
ATOM     36  C   UNL     1      -2.127   5.316 -10.342  1.00  0.00    -0.014 A 
BRANCH  36  37
ATOM     37  C   UNL     1      -1.414   6.574 -10.011  1.00  0.00     0.031 A 
ATOM     38  C   UNL     1      -0.178   6.962 -10.779  1.00  0.00     0.074 A 
ATOM     39  C   UNL     1      -1.830   7.325  -8.972  1.00  0.00     0.049 A 
ATOM     40  N   UNL     1       0.617   7.984 -10.600  1.00  0.00    -0.248 NA
ATOM     41  C   UNL     1       0.235   6.068 -11.875  1.00  0.00     0.031 C 
ATOM     42  C   UNL     1      -2.970   7.015  -8.106  1.00  0.00     0.029 A 
ATOM     43  N   UNL     1      -1.326   8.490  -8.452  1.00  0.00    -0.354 N 
ATOM     44  C   UNL     1       1.640   7.837 -11.529  1.00  0.00     0.074 A 
ATOM     45  C   UNL     1       1.387   6.607 -12.245  1.00  0.00     0.031 C 
ATOM     46  C   UNL     1      -3.080   7.967  -7.166  1.00  0.00     0.029 A 
ATOM     47  C   UNL     1      -2.003   8.937  -7.341  1.00  0.00     0.049 A 
ATOM     48  H   UNL     1      -0.552   8.962  -8.837  1.00  0.00     0.167 HD
ATOM     49  C   UNL     1       2.680   8.666 -11.785  1.00  0.00     0.034 A 
ATOM     50  C   UNL     1      -1.776  10.003  -6.549  1.00  0.00     0.034 A 
ATOM     51  C   UNL     1       2.901   9.910 -11.101  1.00  0.00     0.049 A 
ATOM     52  C   UNL     1      -0.636  10.928  -6.881  1.00  0.00     0.074 A 
ATOM     53  C   UNL     1       3.875  10.863 -11.341  1.00  0.00     0.029 A 
ATOM     54  N   UNL     1       2.141  10.374 -10.038  1.00  0.00    -0.354 N 
ATOM     55  N   UNL     1       0.233  10.850  -7.859  1.00  0.00    -0.248 NA
ATOM     56  C   UNL     1      -0.469  12.110  -6.023  1.00  0.00     0.031 C 
ATOM     57  C   UNL     1       3.721  11.890 -10.405  1.00  0.00     0.029 A 
ATOM     58  C   UNL     1       2.628  11.595  -9.606  1.00  0.00     0.049 A 
ATOM     59  H   UNL     1       1.368   9.904  -9.649  1.00  0.00     0.167 HD
ATOM     60  C   UNL     1       1.021  11.991  -7.761  1.00  0.00     0.074 A 
ATOM     61  C   UNL     1       0.515  12.752  -6.638  1.00  0.00     0.031 C 
ATOM     62  C   UNL     1       2.077  12.368  -8.523  1.00  0.00     0.034 A 
BRANCH  49  63
ATOM     63  C   UNL     1       3.632   8.277 -12.886  1.00  0.00     0.023 A 
ATOM     64  C   UNL     1       3.205   8.327 -14.229  1.00  0.00     0.012 A 
ATOM     65  C   UNL     1       4.965   7.922 -12.599  1.00  0.00     0.148 A 
ATOM     66  C   UNL     1       4.075   7.993 -15.266  1.00  0.00     0.002 A 
ATOM     67  C   UNL     1       5.840   7.638 -13.641  1.00  0.00     0.091 A 
ATOM     68  F   UNL     1       5.348   7.860 -11.316  1.00  0.00    -0.205 F 
ATOM     69  C   UNL     1       5.394   7.660 -14.973  1.00  0.00     0.022 A 
BRANCH  67  70
ATOM     70  S   UNL     1       7.580   7.277 -13.375  1.00  0.00     0.127 S 
ATOM     71  O   UNL     1       7.646   5.861 -13.735  1.00  0.00    -0.237 OA
ATOM     72  O   UNL     1       8.229   8.179 -14.327  1.00  0.00    -0.237 OA
ATOM     73  O   UNL     1       7.844   7.577 -11.975  1.00  0.00    -0.744 OA
ENDBRANCH  67  70
ENDBRANCH  49  63
BRANCH  50  74
ATOM     74  C   UNL     1      -2.683  10.287  -5.401  1.00  0.00     0.023 A 
ATOM     75  C   UNL     1      -3.534  11.409  -5.451  1.00  0.00     0.012 A 
ATOM     76  C   UNL     1      -2.719   9.448  -4.271  1.00  0.00     0.148 A 
ATOM     77  C   UNL     1      -4.375  11.712  -4.380  1.00  0.00     0.002 A 
ATOM     78  C   UNL     1      -3.600   9.723  -3.232  1.00  0.00     0.091 A 
ATOM     79  F   UNL     1      -1.895   8.391  -4.239  1.00  0.00    -0.205 F 
ATOM     80  C   UNL     1      -4.415  10.865  -3.275  1.00  0.00     0.022 A 
BRANCH  78  81
ATOM     81  S   UNL     1      -3.812   8.617  -1.833  1.00  0.00     0.127 S 
ATOM     82  O   UNL     1      -3.208   9.386  -0.749  1.00  0.00    -0.237 OA
ATOM     83  O   UNL     1      -5.269   8.492  -1.765  1.00  0.00    -0.237 OA
ATOM     84  O   UNL     1      -3.123   7.386  -2.197  1.00  0.00    -0.744 OA
ENDBRANCH  78  81
ENDBRANCH  50  74
BRANCH  62  85
ATOM     85  C   UNL     1       2.730  13.689  -8.210  1.00  0.00     0.023 A 
ATOM     86  C   UNL     1       3.516  13.830  -7.049  1.00  0.00     0.012 A 
ATOM     87  C   UNL     1       2.626  14.767  -9.111  1.00  0.00     0.148 A 
ATOM     88  C   UNL     1       4.159  15.036  -6.772  1.00  0.00     0.002 A 
ATOM     89  C   UNL     1       3.313  15.947  -8.856  1.00  0.00     0.091 A 
ATOM     90  F   UNL     1       1.860  14.618 -10.201  1.00  0.00    -0.205 F 
ATOM     91  C   UNL     1       4.068  16.089  -7.681  1.00  0.00     0.022 A 
BRANCH  89  92
ATOM     92  S   UNL     1       3.337  17.317 -10.017  1.00  0.00     0.127 S 
ATOM     93  O   UNL     1       2.507  18.305  -9.329  1.00  0.00    -0.237 OA
ATOM     94  O   UNL     1       4.761  17.650 -10.075  1.00  0.00    -0.237 OA
ATOM     95  O   UNL     1       2.787  16.798 -11.262  1.00  0.00    -0.744 OA
ENDBRANCH  89  92
ENDBRANCH  62  85
ENDBRANCH  36  37
ENDBRANCH  28  31
ENDBRANCH  26  27
ENDBRANCH  25  26
ENDBRANCH  24  25
ENDBRANCH   1  24
TORSDOF 21
