REMARK SMILES O=C(NCCCCCCNC(=O)[C@@H]1CN(C(=O)[C@H]2CC=CCC2)c2ccccc2O1)c1ccc(-c2c3nc(c(-c4cccc(S(=O)(=O)[O-])c4F)c4ccc([nH]4)c(-c4cccc(S(=O)(=O)[O-])c4F)c4nc(c(-c5cccc(S(=O)(=O)[O-])c5F)c5ccc2[nH]5)C=C4)C=C3)cc1
REMARK SMILES IDX 6 1 5 2 4 3 3 4 1 5 2 6 31 8 32 9 93 10 33 11 92 12 34 13
REMARK SMILES IDX 35 14 36 15 86 16 37 17 91 18 85 19 87 20 38 21 90 22 84 23
REMARK SMILES IDX 83 24 39 26 71 27 51 28 70 29 52 30 55 31 69 32 88 33 53 34
REMARK SMILES IDX 54 35 68 37 89 38 56 39 40 40 41 41 49 42 42 43 44 44 50 45
REMARK SMILES IDX 43 46 45 47 46 48 47 49 48 50 72 51 73 52 81 53 74 54 76 55
REMARK SMILES IDX 82 56 75 57 77 58 78 59 79 60 80 61 57 62 58 63 66 64 59 65
REMARK SMILES IDX 61 66 67 67 60 68 62 69 63 70 64 71 65 72 7 73 8 74 9 75
REMARK SMILES IDX 10 76 11 77 12 79 13 80 14 81 30 82 15 83 29 84 24 85 28 86
REMARK SMILES IDX 25 87 27 88 26 89 16 90 17 91 18 92 19 93 23 94 20 95 22 96
REMARK SMILES IDX 21 97
REMARK H PARENT 3 7 87 25 55 36 10 78
REMARK Flexibility Score: inf
ROOT
ATOM      1  C   UNL     1       4.239   2.477   2.729  1.00  0.00     0.002 C 
ENDROOT
BRANCH   1   2
ATOM      2  C   UNL     1       4.664   2.160   1.298  1.00  0.00     0.021 C 
BRANCH   2   3
ATOM      3  C   UNL     1       4.419   0.720   0.884  1.00  0.00     0.116 C 
BRANCH   3   4
ATOM      4  N   UNL     1       3.006   0.394   0.869  1.00  0.00    -0.352 N 
ATOM      5  O   UNL     1       1.064  -0.199  -0.110  1.00  0.00    -0.269 OA
ATOM      6  C   UNL     1       2.282  -0.166  -0.156  1.00  0.00     0.251 C 
ATOM      7  H   UNL     1       2.506   0.599   1.692  1.00  0.00     0.163 HD
BRANCH   6   8
ATOM      8  C   UNL     1       3.021  -0.705  -1.319  1.00  0.00     0.039 A 
ATOM      9  C   UNL     1       4.136  -1.525  -1.120  1.00  0.00     0.014 A 
ATOM     10  C   UNL     1       2.609  -0.363  -2.606  1.00  0.00     0.014 A 
ATOM     11  C   UNL     1       4.906  -1.916  -2.207  1.00  0.00     0.010 A 
ATOM     12  C   UNL     1       3.331  -0.835  -3.703  1.00  0.00     0.010 A 
ATOM     13  C   UNL     1       4.488  -1.608  -3.511  1.00  0.00    -0.014 A 
BRANCH  13  14
ATOM     14  C   UNL     1       5.189  -2.225  -4.661  1.00  0.00     0.031 A 
ATOM     15  C   UNL     1       5.895  -1.394  -5.691  1.00  0.00     0.074 A 
ATOM     16  C   UNL     1       5.128  -3.567  -4.785  1.00  0.00     0.049 A 
ATOM     17  N   UNL     1       6.510  -1.787  -6.776  1.00  0.00    -0.248 NA
ATOM     18  C   UNL     1       5.909   0.064  -5.489  1.00  0.00     0.031 C 
ATOM     19  C   UNL     1       4.422  -4.464  -3.864  1.00  0.00     0.029 A 
ATOM     20  N   UNL     1       5.638  -4.408  -5.739  1.00  0.00    -0.354 N 
ATOM     21  C   UNL     1       6.940  -0.630  -7.413  1.00  0.00     0.074 A 
ATOM     22  C   UNL     1       6.527   0.484  -6.587  1.00  0.00     0.031 C 
ATOM     23  C   UNL     1       4.543  -5.726  -4.296  1.00  0.00     0.029 A 
ATOM     24  C   UNL     1       5.275  -5.722  -5.555  1.00  0.00     0.049 A 
ATOM     25  H   UNL     1       6.208  -4.103  -6.481  1.00  0.00     0.167 HD
ATOM     26  C   UNL     1       7.620  -0.517  -8.579  1.00  0.00     0.034 A 
ATOM     27  C   UNL     1       5.468  -6.802  -6.335  1.00  0.00     0.034 A 
ATOM     28  C   UNL     1       8.051  -1.638  -9.372  1.00  0.00     0.049 A 
ATOM     29  C   UNL     1       6.229  -6.638  -7.616  1.00  0.00     0.074 A 
ATOM     30  C   UNL     1       8.836  -1.631 -10.512  1.00  0.00     0.029 A 
ATOM     31  N   UNL     1       7.712  -2.960  -9.129  1.00  0.00    -0.354 N 
ATOM     32  N   UNL     1       6.776  -5.556  -8.115  1.00  0.00    -0.248 NA
ATOM     33  C   UNL     1       6.421  -7.843  -8.433  1.00  0.00     0.031 C 
ATOM     34  C   UNL     1       8.937  -2.944 -10.982  1.00  0.00     0.029 A 
ATOM     35  C   UNL     1       8.244  -3.774 -10.116  1.00  0.00     0.049 A 
ATOM     36  H   UNL     1       7.173  -3.274  -8.367  1.00  0.00     0.167 HD
ATOM     37  C   UNL     1       7.393  -5.953  -9.293  1.00  0.00     0.074 A 
ATOM     38  C   UNL     1       7.180  -7.381  -9.417  1.00  0.00     0.031 C 
ATOM     39  C   UNL     1       8.058  -5.199 -10.202  1.00  0.00     0.034 A 
BRANCH  26  40
ATOM     40  C   UNL     1       7.965   0.863  -9.075  1.00  0.00     0.023 A 
ATOM     41  C   UNL     1       8.996   1.595  -8.454  1.00  0.00     0.012 A 
ATOM     42  C   UNL     1       7.341   1.386 -10.226  1.00  0.00     0.148 A 
ATOM     43  C   UNL     1       9.388   2.835  -8.958  1.00  0.00     0.002 A 
ATOM     44  C   UNL     1       7.765   2.603 -10.746  1.00  0.00     0.091 A 
ATOM     45  F   UNL     1       6.351   0.681 -10.791  1.00  0.00    -0.205 F 
ATOM     46  C   UNL     1       8.782   3.332 -10.110  1.00  0.00     0.022 A 
BRANCH  44  47
ATOM     47  S   UNL     1       7.104   3.291 -12.268  1.00  0.00     0.127 S 
ATOM     48  O   UNL     1       6.373   4.456 -11.771  1.00  0.00    -0.237 OA
ATOM     49  O   UNL     1       8.321   3.609 -13.015  1.00  0.00    -0.237 OA
ATOM     50  O   UNL     1       6.281   2.246 -12.860  1.00  0.00    -0.744 OA
ENDBRANCH  44  47
ENDBRANCH  26  40
BRANCH  27  51
ATOM     51  C   UNL     1       4.928  -8.124  -5.915  1.00  0.00     0.023 A 
ATOM     52  C   UNL     1       5.814  -9.154  -5.549  1.00  0.00     0.012 A 
ATOM     53  C   UNL     1       3.539  -8.353  -5.844  1.00  0.00     0.148 A 
ATOM     54  C   UNL     1       5.327 -10.399  -5.149  1.00  0.00     0.002 A 
ATOM     55  C   UNL     1       3.061  -9.573  -5.385  1.00  0.00     0.091 A 
ATOM     56  F   UNL     1       2.711  -7.364  -6.210  1.00  0.00    -0.205 F 
ATOM     57  C   UNL     1       3.952 -10.605  -5.056  1.00  0.00     0.022 A 
BRANCH  55  58
ATOM     58  S   UNL     1       1.312  -9.867  -5.098  1.00  0.00     0.127 S 
ATOM     59  O   UNL     1       0.964 -10.726  -6.226  1.00  0.00    -0.237 OA
ATOM     60  O   UNL     1       1.327 -10.536  -3.795  1.00  0.00    -0.237 OA
ATOM     61  O   UNL     1       0.693  -8.549  -5.084  1.00  0.00    -0.744 OA
ENDBRANCH  55  58
ENDBRANCH  27  51
BRANCH  39  62
ATOM     62  C   UNL     1       8.624  -5.905 -11.405  1.00  0.00     0.023 A 
ATOM     63  C   UNL     1       7.758  -6.357 -12.420  1.00  0.00     0.012 A 
ATOM     64  C   UNL     1      10.016  -6.051 -11.564  1.00  0.00     0.148 A 
ATOM     65  C   UNL     1       8.268  -6.969 -13.564  1.00  0.00     0.002 A 
ATOM     66  C   UNL     1      10.519  -6.615 -12.729  1.00  0.00     0.091 A 
ATOM     67  F   UNL     1      10.819  -5.629 -10.576  1.00  0.00    -0.205 F 
ATOM     68  C   UNL     1       9.646  -7.086 -13.724  1.00  0.00     0.022 A 
BRANCH  66  69
ATOM     69  S   UNL     1      12.279  -6.723 -13.067  1.00  0.00     0.127 S 
ATOM     70  O   UNL     1      12.505  -8.167 -13.015  1.00  0.00    -0.237 OA
ATOM     71  O   UNL     1      12.372  -6.138 -14.405  1.00  0.00    -0.237 OA
ATOM     72  O   UNL     1      12.940  -5.954 -12.021  1.00  0.00    -0.744 OA
ENDBRANCH  66  69
ENDBRANCH  39  62
ENDBRANCH  13  14
ENDBRANCH   6   8
ENDBRANCH   3   4
ENDBRANCH   2   3
ENDBRANCH   1   2
BRANCH   1  73
ATOM     73  C   UNL     1       4.798   1.526   3.792  1.00  0.00     0.002 C 
BRANCH  73  74
ATOM     74  C   UNL     1       6.319   1.319   3.757  1.00  0.00     0.021 C 
BRANCH  74  75
ATOM     75  C   UNL     1       7.136   2.606   3.715  1.00  0.00     0.116 C 
BRANCH  75  76
ATOM     76  N   UNL     1       6.760   3.460   4.811  1.00  0.00    -0.353 N 
ATOM     77  C   UNL     1       7.554   4.076   5.717  1.00  0.00     0.262 C 
ATOM     78  H   UNL     1       5.794   3.618   4.916  1.00  0.00     0.163 HD
ATOM     79  O   UNL     1       6.990   4.571   6.693  1.00  0.00    -0.271 OA
BRANCH  77  80
ATOM     80  C   UNL     1       9.081   4.066   5.533  1.00  0.00     0.281 C 
ATOM     81  C   UNL     1       9.722   5.055   6.492  1.00  0.00     0.181 C 
ATOM     82  O   UNL     1       9.555   4.316   4.218  1.00  0.00    -0.477 OA
ATOM     83  N   UNL     1       9.314   6.429   6.200  1.00  0.00    -0.304 N 
ATOM     84  C   UNL     1       9.475   5.640   3.858  1.00  0.00     0.144 A 
ATOM     85  C   UNL     1       9.320   6.708   4.775  1.00  0.00     0.086 A 
ATOM     86  C   UNL     1       9.546   5.854   2.478  1.00  0.00     0.049 A 
ATOM     87  C   UNL     1       9.207   7.993   4.232  1.00  0.00     0.030 A 
ATOM     88  C   UNL     1       9.432   7.140   1.969  1.00  0.00     0.004 A 
ATOM     89  C   UNL     1       9.256   8.206   2.845  1.00  0.00     0.002 A 
BRANCH  83  90
ATOM     90  C   UNL     1       8.856   7.325   7.168  1.00  0.00     0.230 C 
ATOM     91  O   UNL     1       8.335   8.410   6.870  1.00  0.00    -0.274 OA
BRANCH  90  92
ATOM     92  C   UNL     1       8.986   7.049   8.696  1.00  0.00     0.083 C 
ATOM     93  C   UNL     1       8.071   5.988   9.325  1.00  0.00     0.040 C 
ATOM     94  C   UNL     1      10.415   7.048   9.252  1.00  0.00     0.018 C 
ATOM     95  C   UNL     1       8.757   4.743   9.819  1.00  0.00    -0.030 C 
ATOM     96  C   UNL     1      11.051   5.675   9.465  1.00  0.00     0.028 C 
ATOM     97  C   UNL     1      10.089   4.602   9.876  1.00  0.00    -0.031 C 
ENDBRANCH  90  92
ENDBRANCH  83  90
ENDBRANCH  77  80
ENDBRANCH  75  76
ENDBRANCH  74  75
ENDBRANCH  73  74
ENDBRANCH   1  73
TORSDOF 18
