REMARK SMILES CC(=O)OCC1=C(C(=O)NCCCCCCNC(=O)c2ccc(-c3c4nc(c(-c5cccc(S(=O)(=O)[O-])c5F)c5ccc([nH]5)c(-c5cccc(S(=O)(=O)[O-])c5F)c5nc(c(-c6cccc(S(=O)(=O)[O-])c6F)c6ccc3[nH]6)C=C5)C=C4)cc2)N2C(=O)[C@H](NC(=O)C3CCCCC3)[C@@H]2SC1
REMARK SMILES IDX 13 1 12 2 11 3 10 4 8 5 9 6 7 8 6 9 98 10 83 11 97 12 84 13
REMARK SMILES IDX 96 14 85 15 86 16 5 17 4 18 2 19 1 20 3 21 87 22 88 23 89 25
REMARK SMILES IDX 90 26 91 27 95 28 92 29 94 30 93 31 14 32 15 33 16 34 17 35
REMARK SMILES IDX 18 36 19 38 20 39 21 40 82 41 22 42 81 43 23 44 24 45 25 46
REMARK SMILES IDX 75 47 26 48 80 49 74 50 76 51 27 52 79 53 73 54 72 55 28 57
REMARK SMILES IDX 60 58 40 59 59 60 41 61 44 62 58 63 77 64 42 65 43 66 57 68
REMARK SMILES IDX 78 69 45 70 29 71 30 72 38 73 31 74 33 75 39 76 32 77 34 78
REMARK SMILES IDX 35 79 36 80 37 81 61 82 62 83 70 84 63 85 65 86 71 87 64 88
REMARK SMILES IDX 66 89 67 90 68 91 69 92 46 93 47 94 55 95 48 96 50 97 56 98
REMARK SMILES IDX 49 99 51 100 52 101 53 102 54 103
REMARK H PARENT 10 7 87 24 17 37 76 56 44 67
REMARK Flexibility Score: inf
ROOT
ATOM      1  C   UNL     1      -0.102  -0.361  -2.258  1.00  0.00     0.002 C 
ENDROOT
BRANCH   1   2
ATOM      2  C   UNL     1      -0.168  -1.827  -1.823  1.00  0.00     0.021 C 
BRANCH   2   3
ATOM      3  C   UNL     1       1.163  -2.518  -1.449  1.00  0.00     0.116 C 
BRANCH   3   4
ATOM      4  N   UNL     1       1.867  -1.949  -0.302  1.00  0.00    -0.351 N 
ATOM      5  C   UNL     1       2.135  -2.344   0.982  1.00  0.00     0.268 C 
ATOM      6  O   UNL     1       2.849  -1.567   1.620  1.00  0.00    -0.268 OA
ATOM      7  H   UNL     1       2.241  -1.060  -0.502  1.00  0.00     0.163 HD
BRANCH   5   8
ATOM      8  C   UNL     1       1.644  -3.646   1.621  1.00  0.00     0.114 C 
ATOM      9  C   UNL     1       0.500  -4.301   1.291  1.00  0.00     0.007 C 
ATOM     10  C   UNL     1       0.250  -5.785   1.560  1.00  0.00     0.108 C 
ATOM     11  N   UNL     1       2.226  -4.063   2.800  1.00  0.00    -0.290 N 
ATOM     12  S   UNL     1       1.427  -6.555   2.718  1.00  0.00    -0.129 SA
ATOM     13  C   UNL     1       3.097  -3.638   3.742  1.00  0.00     0.253 C 
ATOM     14  C   UNL     1       1.559  -5.031   3.662  1.00  0.00     0.181 C 
ATOM     15  O   UNL     1       3.852  -2.698   3.876  1.00  0.00    -0.272 OA
ATOM     16  C   UNL     1       2.708  -4.845   4.664  1.00  0.00     0.205 C 
BRANCH   9  17
ATOM     17  C   UNL     1      -0.779  -3.559   0.970  1.00  0.00     0.267 C 
BRANCH  17  18
ATOM     18  O   UNL     1      -0.558  -2.144   0.997  1.00  0.00    -0.461 OA
BRANCH  18  19
ATOM     19  C   UNL     1      -0.820  -1.367   2.065  1.00  0.00     0.302 C 
ATOM     20  C   UNL     1      -0.183  -0.018   1.844  1.00  0.00     0.139 C 
ATOM     21  O   UNL     1      -1.406  -1.723   3.074  1.00  0.00    -0.253 OA
ENDBRANCH  18  19
ENDBRANCH  17  18
ENDBRANCH   9  17
BRANCH  16  22
ATOM     22  N   UNL     1       3.744  -5.896   4.781  1.00  0.00    -0.342 N 
ATOM     23  C   UNL     1       4.146  -6.598   5.881  1.00  0.00     0.223 C 
ATOM     24  H   UNL     1       4.210  -6.123   3.944  1.00  0.00     0.164 HD
ATOM     25  O   UNL     1       5.062  -7.409   5.753  1.00  0.00    -0.275 OA
BRANCH  23  26
ATOM     26  C   UNL     1       3.450  -6.355   7.221  1.00  0.00     0.078 C 
ATOM     27  C   UNL     1       3.730  -7.520   8.189  1.00  0.00     0.013 C 
ATOM     28  C   UNL     1       3.911  -5.035   7.856  1.00  0.00     0.013 C 
ATOM     29  C   UNL     1       3.093  -7.298   9.559  1.00  0.00     0.001 C 
ATOM     30  C   UNL     1       3.239  -4.806   9.208  1.00  0.00     0.001 C 
ATOM     31  C   UNL     1       3.509  -5.961  10.166  1.00  0.00     0.000 C 
ENDBRANCH  23  26
ENDBRANCH  16  22
ENDBRANCH   5   8
ENDBRANCH   3   4
ENDBRANCH   2   3
ENDBRANCH   1   2
BRANCH   1  32
ATOM     32  C   UNL     1       0.506  -0.139  -3.638  1.00  0.00     0.002 C 
BRANCH  32  33
ATOM     33  C   UNL     1      -0.069  -1.043  -4.730  1.00  0.00     0.021 C 
BRANCH  33  34
ATOM     34  C   UNL     1      -1.583  -0.948  -4.884  1.00  0.00     0.116 C 
BRANCH  34  35
ATOM     35  N   UNL     1      -1.976   0.353  -5.406  1.00  0.00    -0.352 N 
ATOM     36  C   UNL     1      -2.597   0.614  -6.603  1.00  0.00     0.251 C 
ATOM     37  H   UNL     1      -1.774   1.132  -4.838  1.00  0.00     0.163 HD
ATOM     38  O   UNL     1      -2.624   1.744  -7.075  1.00  0.00    -0.269 OA
BRANCH  36  39
ATOM     39  C   UNL     1      -3.236  -0.517  -7.301  1.00  0.00     0.039 A 
ATOM     40  C   UNL     1      -2.893  -0.804  -8.623  1.00  0.00     0.014 A 
ATOM     41  C   UNL     1      -4.121  -1.333  -6.591  1.00  0.00     0.014 A 
ATOM     42  C   UNL     1      -3.418  -1.948  -9.228  1.00  0.00     0.010 A 
ATOM     43  C   UNL     1      -4.574  -2.510  -7.168  1.00  0.00     0.010 A 
ATOM     44  C   UNL     1      -4.245  -2.818  -8.498  1.00  0.00    -0.014 A 
BRANCH  44  45
ATOM     45  C   UNL     1      -4.830  -4.039  -9.103  1.00  0.00     0.031 A 
ATOM     46  C   UNL     1      -6.327  -4.160  -9.197  1.00  0.00     0.074 A 
ATOM     47  C   UNL     1      -4.037  -5.069  -9.458  1.00  0.00     0.049 A 
ATOM     48  N   UNL     1      -7.052  -5.188  -9.549  1.00  0.00    -0.248 NA
ATOM     49  C   UNL     1      -7.114  -2.977  -8.806  1.00  0.00     0.031 C 
ATOM     50  C   UNL     1      -2.577  -5.090  -9.358  1.00  0.00     0.029 A 
ATOM     51  N   UNL     1      -4.355  -6.314  -9.941  1.00  0.00    -0.354 N 
ATOM     52  C   UNL     1      -8.373  -4.794  -9.374  1.00  0.00     0.074 A 
ATOM     53  C   UNL     1      -8.350  -3.448  -8.849  1.00  0.00     0.031 C 
ATOM     54  C   UNL     1      -2.126  -6.288  -9.764  1.00  0.00     0.029 A 
ATOM     55  C   UNL     1      -3.264  -7.134 -10.110  1.00  0.00     0.049 A 
ATOM     56  H   UNL     1      -5.277  -6.593 -10.147  1.00  0.00     0.167 HD
ATOM     57  C   UNL     1      -9.505  -5.481  -9.650  1.00  0.00     0.034 A 
ATOM     58  C   UNL     1      -3.193  -8.428 -10.481  1.00  0.00     0.034 A 
ATOM     59  C   UNL     1      -9.518  -6.803 -10.211  1.00  0.00     0.049 A 
ATOM     60  C   UNL     1      -4.467  -9.164 -10.804  1.00  0.00     0.074 A 
ATOM     61  C   UNL     1     -10.608  -7.559 -10.604  1.00  0.00     0.029 A 
ATOM     62  N   UNL     1      -8.389  -7.570 -10.451  1.00  0.00    -0.354 N 
ATOM     63  N   UNL     1      -5.704  -8.734 -10.752  1.00  0.00    -0.248 NA
ATOM     64  C   UNL     1      -4.334 -10.553 -11.269  1.00  0.00     0.031 C 
ATOM     65  C   UNL     1     -10.139  -8.799 -11.046  1.00  0.00     0.029 A 
ATOM     66  C   UNL     1      -8.754  -8.794 -10.978  1.00  0.00     0.049 A 
ATOM     67  H   UNL     1      -7.464  -7.284 -10.272  1.00  0.00     0.167 HD
ATOM     68  C   UNL     1      -6.491  -9.777 -11.226  1.00  0.00     0.074 A 
ATOM     69  C   UNL     1      -5.590 -10.860 -11.564  1.00  0.00     0.031 C 
ATOM     70  C   UNL     1      -7.838  -9.836 -11.366  1.00  0.00     0.034 A 
BRANCH  57  71
ATOM     71  C   UNL     1     -10.822  -4.802  -9.377  1.00  0.00     0.023 A 
ATOM     72  C   UNL     1     -11.222  -3.701 -10.162  1.00  0.00     0.012 A 
ATOM     73  C   UNL     1     -11.684  -5.285  -8.374  1.00  0.00     0.148 A 
ATOM     74  C   UNL     1     -12.439  -3.063  -9.924  1.00  0.00     0.002 A 
ATOM     75  C   UNL     1     -12.919  -4.678  -8.178  1.00  0.00     0.091 A 
ATOM     76  F   UNL     1     -11.278  -6.319  -7.624  1.00  0.00    -0.205 F 
ATOM     77  C   UNL     1     -13.291  -3.559  -8.941  1.00  0.00     0.022 A 
BRANCH  75  78
ATOM     78  S   UNL     1     -14.123  -5.292  -6.997  1.00  0.00     0.127 S 
ATOM     79  O   UNL     1     -14.133  -4.220  -6.002  1.00  0.00    -0.237 OA
ATOM     80  O   UNL     1     -15.335  -5.378  -7.812  1.00  0.00    -0.237 OA
ATOM     81  O   UNL     1     -13.612  -6.572  -6.527  1.00  0.00    -0.744 OA
ENDBRANCH  75  78
ENDBRANCH  57  71
BRANCH  58  82
ATOM     82  C   UNL     1      -1.869  -9.099 -10.611  1.00  0.00     0.023 A 
ATOM     83  C   UNL     1      -1.395  -9.459 -11.887  1.00  0.00     0.012 A 
ATOM     84  C   UNL     1      -1.073  -9.370  -9.482  1.00  0.00     0.148 A 
ATOM     85  C   UNL     1      -0.171 -10.113 -12.034  1.00  0.00     0.002 A 
ATOM     86  C   UNL     1       0.171  -9.969  -9.639  1.00  0.00     0.091 A 
ATOM     87  F   UNL     1      -1.544  -9.024  -8.275  1.00  0.00    -0.205 F 
ATOM     88  C   UNL     1       0.616 -10.360 -10.912  1.00  0.00     0.022 A 
BRANCH  86  89
ATOM     89  S   UNL     1       1.306 -10.209  -8.268  1.00  0.00     0.127 S 
ATOM     90  O   UNL     1       1.329 -11.665  -8.150  1.00  0.00    -0.237 OA
ATOM     91  O   UNL     1       2.535  -9.611  -8.788  1.00  0.00    -0.237 OA
ATOM     92  O   UNL     1       0.721  -9.495  -7.141  1.00  0.00    -0.744 OA
ENDBRANCH  86  89
ENDBRANCH  58  82
BRANCH  70  93
ATOM     93  C   UNL     1      -8.432 -11.075 -11.981  1.00  0.00     0.023 A 
ATOM     94  C   UNL     1      -8.480 -12.280 -11.254  1.00  0.00     0.012 A 
ATOM     95  C   UNL     1      -9.037 -11.006 -13.252  1.00  0.00     0.148 A 
ATOM     96  C   UNL     1      -9.101 -13.405 -11.796  1.00  0.00     0.002 A 
ATOM     97  C   UNL     1      -9.701 -12.114 -13.761  1.00  0.00     0.091 A 
ATOM     98  F   UNL     1      -8.963  -9.852 -13.933  1.00  0.00    -0.205 F 
ATOM     99  C   UNL     1      -9.723 -13.318 -13.040  1.00  0.00     0.022 A 
BRANCH  97 100
ATOM    100  S   UNL     1     -10.621 -12.061 -15.302  1.00  0.00     0.127 S 
ATOM    101  O   UNL     1      -9.813 -12.928 -16.159  1.00  0.00    -0.237 OA
ATOM    102  O   UNL     1     -11.912 -12.624 -14.909  1.00  0.00    -0.237 OA
ATOM    103  O   UNL     1     -10.665 -10.661 -15.700  1.00  0.00    -0.744 OA
ENDBRANCH  97 100
ENDBRANCH  70  93
ENDBRANCH  44  45
ENDBRANCH  36  39
ENDBRANCH  34  35
ENDBRANCH  33  34
ENDBRANCH  32  33
ENDBRANCH   1  32
TORSDOF 21
