REMARK SMILES CC[C@@H](C)[C@H](NC(=O)[C@H](C)N1C(=O)N2CCC3=c4cc(OC)ccc4=N[C@@H]3[C@@]2(C)C1=O)C(=O)NCCCCCCNC(=O)c1ccc(-c2c3nc(c(-c4cccc(S(=O)(=O)[O-])c4F)c4ccc([nH]4)c(-c4cccc(S(=O)(=O)[O-])c4F)c4nc(c(-c5cccc(S(=O)(=O)[O-])c5F)c5ccc2[nH]5)C=C4)C=C3)cc1
REMARK SMILES IDX 37 1 36 2 35 3 34 4 32 5 33 6 5 8 3 9 4 10 2 11 1 12 6 13
REMARK SMILES IDX 7 14 8 16 9 17 10 18 11 19 12 20 30 21 14 22 13 23 28 24
REMARK SMILES IDX 31 25 15 26 27 27 29 28 16 29 17 30 26 31 18 32 25 33 19 34
REMARK SMILES IDX 24 35 20 36 23 37 21 38 22 39 38 40 39 41 40 42 41 43 42 44
REMARK SMILES IDX 43 46 44 47 45 48 106 49 46 50 105 51 47 52 48 53 49 54
REMARK SMILES IDX 99 55 50 56 104 57 98 58 100 59 51 60 103 61 97 62 96 63
REMARK SMILES IDX 52 65 84 66 64 67 83 68 65 69 68 70 82 71 101 72 66 73 67 74
REMARK SMILES IDX 81 76 102 77 69 78 53 79 54 80 62 81 55 82 57 83 63 84 56 85
REMARK SMILES IDX 58 86 59 87 60 88 61 89 85 90 86 91 94 92 87 93 89 94 95 95
REMARK SMILES IDX 88 96 90 97 91 98 92 99 93 100 70 101 71 102 79 103 72 104
REMARK SMILES IDX 74 105 80 106 73 107 75 108 76 109 77 110 78 111
REMARK H PARENT 34 7 6 15 41 45 100 64 68 75
REMARK Flexibility Score: inf
ROOT
ATOM      1  C   UNL     1      -3.743  -1.209  -6.878  1.00  0.00     0.002 C 
ENDROOT
BRANCH   1   2
ATOM      2  C   UNL     1      -2.965  -1.720  -5.662  1.00  0.00     0.021 C 
BRANCH   2   3
ATOM      3  C   UNL     1      -1.796  -0.848  -5.247  1.00  0.00     0.116 C 
BRANCH   3   4
ATOM      4  N   UNL     1      -2.262   0.300  -4.528  1.00  0.00    -0.354 N 
ATOM      5  C   UNL     1      -1.768   0.849  -3.389  1.00  0.00     0.242 C 
ATOM      6  O   UNL     1      -2.288   1.923  -3.062  1.00  0.00    -0.273 OA
ATOM      7  H   UNL     1      -3.048   0.752  -4.912  1.00  0.00     0.163 HD
BRANCH   5   8
ATOM      8  C   UNL     1      -0.455   0.320  -2.700  1.00  0.00     0.174 C 
BRANCH   8   9
ATOM      9  C   UNL     1       0.743   0.745  -3.683  1.00  0.00     0.018 C 
ATOM     10  C   UNL     1       1.605  -0.427  -4.144  1.00  0.00     0.010 C 
BRANCH   9  11
ATOM     11  C   UNL     1       1.546   1.985  -3.190  1.00  0.00     0.002 C 
ATOM     12  C   UNL     1       3.037   2.050  -3.494  1.00  0.00     0.004 C 
ENDBRANCH   9  11
ENDBRANCH   8   9
BRANCH   8  13
ATOM     13  N   UNL     1      -0.363  -1.088  -2.131  1.00  0.00    -0.342 N 
ATOM     14  C   UNL     1      -0.374  -1.814  -0.954  1.00  0.00     0.243 C 
ATOM     15  H   UNL     1      -0.257  -1.718  -2.881  1.00  0.00     0.164 HD
ATOM     16  O   UNL     1      -0.392  -3.043  -1.164  1.00  0.00    -0.273 OA
BRANCH  14  17
ATOM     17  C   UNL     1      -0.435  -1.351   0.601  1.00  0.00     0.181 C 
ATOM     18  C   UNL     1       0.690  -2.054   1.360  1.00  0.00     0.042 C 
BRANCH  17  19
ATOM     19  N   UNL     1      -1.760  -1.617   1.267  1.00  0.00    -0.250 N 
ATOM     20  C   UNL     1      -2.199  -1.583   2.663  1.00  0.00     0.328 C 
ATOM     21  C   UNL     1      -2.759  -1.158   0.485  1.00  0.00     0.259 C 
ATOM     22  N   UNL     1      -3.662  -1.195   2.655  1.00  0.00    -0.307 N 
ATOM     23  O   UNL     1      -1.514  -1.632   3.673  1.00  0.00    -0.248 OA
ATOM     24  C   UNL     1      -3.724  -0.588   1.401  1.00  0.00     0.147 C 
ATOM     25  O   UNL     1      -2.807  -0.977  -0.722  1.00  0.00    -0.271 OA
ATOM     26  C   UNL     1      -4.616  -0.278   3.602  1.00  0.00     0.127 C 
ATOM     27  C   UNL     1      -3.094   0.772   1.853  1.00  0.00     0.168 C 
ATOM     28  C   UNL     1      -5.104  -0.903   0.801  1.00  0.00     0.048 C 
ATOM     29  C   UNL     1      -5.039   1.338   2.798  1.00  0.00     0.055 C 
ATOM     30  C   UNL     1      -3.998   1.869   1.654  1.00  0.00    -0.032 C 
ATOM     31  N   UNL     1      -1.700   1.214   2.209  1.00  0.00    -0.274 NA
ATOM     32  C   UNL     1      -3.098   2.841   1.291  1.00  0.00     0.005 A 
ATOM     33  C   UNL     1      -1.967   2.509   2.241  1.00  0.00     0.066 A 
ATOM     34  C   UNL     1      -2.213   2.690  -0.023  1.00  0.00     0.056 A 
ATOM     35  C   UNL     1      -0.971   3.583   2.390  1.00  0.00     0.032 A 
ATOM     36  C   UNL     1      -0.857   2.937   0.105  1.00  0.00     0.119 A 
ATOM     37  C   UNL     1      -0.392   3.765   1.198  1.00  0.00     0.048 A 
BRANCH  36  38
ATOM     38  O   UNL     1       0.104   2.089  -0.394  1.00  0.00    -0.497 OA
ATOM     39  C   UNL     1       1.315   1.741   0.314  1.00  0.00     0.278 C 
ENDBRANCH  36  38
ENDBRANCH  17  19
ENDBRANCH  14  17
ENDBRANCH   8  13
ENDBRANCH   5   8
ENDBRANCH   3   4
ENDBRANCH   2   3
ENDBRANCH   1   2
BRANCH   1  40
ATOM     40  C   UNL     1      -2.918  -0.917  -8.136  1.00  0.00     0.002 C 
BRANCH  40  41
ATOM     41  C   UNL     1      -1.893  -1.981  -8.523  1.00  0.00     0.021 C 
BRANCH  41  42
ATOM     42  C   UNL     1      -2.426  -3.402  -8.590  1.00  0.00     0.116 C 
BRANCH  42  43
ATOM     43  N   UNL     1      -3.473  -3.576  -9.575  1.00  0.00    -0.352 N 
ATOM     44  C   UNL     1      -3.631  -4.621 -10.475  1.00  0.00     0.251 C 
ATOM     45  H   UNL     1      -4.155  -2.867  -9.611  1.00  0.00     0.163 HD
ATOM     46  O   UNL     1      -4.497  -4.611 -11.299  1.00  0.00    -0.269 OA
BRANCH  44  47
ATOM     47  C   UNL     1      -2.637  -5.721 -10.397  1.00  0.00     0.039 A 
ATOM     48  C   UNL     1      -2.399  -6.370  -9.183  1.00  0.00     0.014 A 
ATOM     49  C   UNL     1      -1.854  -5.988 -11.520  1.00  0.00     0.014 A 
ATOM     50  C   UNL     1      -1.267  -7.165  -9.048  1.00  0.00     0.010 A 
ATOM     51  C   UNL     1      -0.765  -6.853 -11.400  1.00  0.00     0.010 A 
ATOM     52  C   UNL     1      -0.432  -7.405 -10.152  1.00  0.00    -0.014 A 
BRANCH  52  53
ATOM     53  C   UNL     1       0.797  -8.221  -9.993  1.00  0.00     0.031 A 
ATOM     54  C   UNL     1       2.156  -7.618 -10.223  1.00  0.00     0.074 A 
ATOM     55  C   UNL     1       0.686  -9.511  -9.624  1.00  0.00     0.049 A 
ATOM     56  N   UNL     1       3.326  -8.202 -10.218  1.00  0.00    -0.248 NA
ATOM     57  C   UNL     1       2.211  -6.171 -10.493  1.00  0.00     0.031 C 
ATOM     58  C   UNL     1      -0.574 -10.204  -9.355  1.00  0.00     0.029 A 
ATOM     59  N   UNL     1       1.647 -10.465  -9.413  1.00  0.00    -0.354 N 
ATOM     60  C   UNL     1       4.251  -7.210 -10.522  1.00  0.00     0.074 A 
ATOM     61  C   UNL     1       3.506  -5.984 -10.711  1.00  0.00     0.031 C 
ATOM     62  C   UNL     1      -0.310 -11.465  -8.987  1.00  0.00     0.029 A 
ATOM     63  C   UNL     1       1.130 -11.687  -9.059  1.00  0.00     0.049 A 
ATOM     64  H   UNL     1       2.611 -10.292  -9.506  1.00  0.00     0.167 HD
ATOM     65  C   UNL     1       5.598  -7.307 -10.614  1.00  0.00     0.034 A 
ATOM     66  C   UNL     1       1.740 -12.867  -8.841  1.00  0.00     0.034 A 
ATOM     67  C   UNL     1       6.340  -8.518 -10.388  1.00  0.00     0.049 A 
ATOM     68  C   UNL     1       3.229 -12.960  -8.981  1.00  0.00     0.074 A 
ATOM     69  C   UNL     1       7.709  -8.714 -10.456  1.00  0.00     0.029 A 
ATOM     70  N   UNL     1       5.779  -9.737 -10.040  1.00  0.00    -0.354 N 
ATOM     71  N   UNL     1       4.088 -12.010  -9.260  1.00  0.00    -0.248 NA
ATOM     72  C   UNL     1       3.834 -14.282  -8.773  1.00  0.00     0.031 C 
ATOM     73  C   UNL     1       7.974 -10.054 -10.150  1.00  0.00     0.029 A 
ATOM     74  C   UNL     1       6.772 -10.689  -9.883  1.00  0.00     0.049 A 
ATOM     75  H   UNL     1       4.816  -9.902  -9.921  1.00  0.00     0.167 HD
ATOM     76  C   UNL     1       5.337 -12.615  -9.258  1.00  0.00     0.074 A 
ATOM     77  C   UNL     1       5.124 -14.011  -8.925  1.00  0.00     0.031 C 
ATOM     78  C   UNL     1       6.548 -12.067  -9.527  1.00  0.00     0.034 A 
BRANCH  65  79
ATOM     79  C   UNL     1       6.367  -6.051 -10.927  1.00  0.00     0.023 A 
ATOM     80  C   UNL     1       6.578  -5.103  -9.906  1.00  0.00     0.012 A 
ATOM     81  C   UNL     1       6.926  -5.833 -12.201  1.00  0.00     0.148 A 
ATOM     82  C   UNL     1       7.315  -3.945 -10.153  1.00  0.00     0.002 A 
ATOM     83  C   UNL     1       7.684  -4.691 -12.432  1.00  0.00     0.091 A 
ATOM     84  F   UNL     1       6.697  -6.739 -13.163  1.00  0.00    -0.205 F 
ATOM     85  C   UNL     1       7.875  -3.744 -11.412  1.00  0.00     0.022 A 
BRANCH  83  86
ATOM     86  S   UNL     1       8.489  -4.357 -14.004  1.00  0.00     0.127 S 
ATOM     87  O   UNL     1       7.710  -3.221 -14.496  1.00  0.00    -0.237 OA
ATOM     88  O   UNL     1       9.852  -4.027 -13.588  1.00  0.00    -0.237 OA
ATOM     89  O   UNL     1       8.369  -5.580 -14.785  1.00  0.00    -0.744 OA
ENDBRANCH  83  86
ENDBRANCH  65  79
BRANCH  66  90
ATOM     90  C   UNL     1       0.912 -14.030  -8.430  1.00  0.00     0.023 A 
ATOM     91  C   UNL     1       0.893 -14.411  -7.076  1.00  0.00     0.012 A 
ATOM     92  C   UNL     1       0.048 -14.665  -9.344  1.00  0.00     0.148 A 
ATOM     93  C   UNL     1       0.018 -15.403  -6.635  1.00  0.00     0.002 A 
ATOM     94  C   UNL     1      -0.850 -15.622  -8.889  1.00  0.00     0.091 A 
ATOM     95  F   UNL     1       0.084 -14.273 -10.625  1.00  0.00    -0.205 F 
ATOM     96  C   UNL     1      -0.861 -15.998  -7.537  1.00  0.00     0.022 A 
BRANCH  94  97
ATOM     97  S   UNL     1      -2.101 -16.359  -9.946  1.00  0.00     0.127 S 
ATOM     98  O   UNL     1      -1.792 -17.783  -9.827  1.00  0.00    -0.237 OA
ATOM     99  O   UNL     1      -3.334 -15.938  -9.281  1.00  0.00    -0.237 OA
ATOM    100  O   UNL     1      -1.892 -15.789 -11.270  1.00  0.00    -0.744 OA
ENDBRANCH  94  97
ENDBRANCH  66  90
BRANCH  78 101
ATOM    101  C   UNL     1       7.745 -12.976  -9.483  1.00  0.00     0.023 A 
ATOM    102  C   UNL     1       7.989 -13.843 -10.566  1.00  0.00     0.012 A 
ATOM    103  C   UNL     1       8.664 -12.915  -8.419  1.00  0.00     0.148 A 
ATOM    104  C   UNL     1       9.126 -14.649 -10.583  1.00  0.00     0.002 A 
ATOM    105  C   UNL     1       9.812 -13.697  -8.459  1.00  0.00     0.091 A 
ATOM    106  F   UNL     1       8.401 -12.092  -7.394  1.00  0.00    -0.205 F 
ATOM    107  C   UNL     1      10.041 -14.569  -9.536  1.00  0.00     0.022 A 
BRANCH 105 108
ATOM    108  S   UNL     1      11.082 -13.614  -7.191  1.00  0.00     0.127 S 
ATOM    109  O   UNL     1      10.918 -14.902  -6.520  1.00  0.00    -0.237 OA
ATOM    110  O   UNL     1      12.305 -13.490  -7.985  1.00  0.00    -0.237 OA
ATOM    111  O   UNL     1      10.766 -12.445  -6.381  1.00  0.00    -0.744 OA
ENDBRANCH 105 108
ENDBRANCH  78 101
ENDBRANCH  52  53
ENDBRANCH  44  47
ENDBRANCH  42  43
ENDBRANCH  41  42
ENDBRANCH  40  41
ENDBRANCH   1  40
TORSDOF 22
