REMARK SMILES C[C@H]1CC[C@H]([NH2+]Cc2c(C(=O)NCCCCCCNC(=O)c3ccc(-c4c5nc(c(-c6cccc(S(=O)(=O)[O-])c6F)c6ccc([nH]6)c(-c6cccc(S(=O)(=O)[O-])c6F)c6nc(c(-c7cccc(S(=O)(=O)[O-])c7F)c7ccc4[nH]7)C=C6)C=C5)cc3)n(Cc3ccccc3F)c3ccccc23)CC1
REMARK SMILES IDX 15 1 14 2 13 3 12 4 10 5 11 6 9 8 8 9 99 10 85 11 94 12
REMARK SMILES IDX 98 13 95 14 97 15 96 16 7 17 6 18 5 21 1 22 2 23 3 24 101 25
REMARK SMILES IDX 4 26 100 27 86 28 87 29 88 30 92 31 89 32 91 33 93 34 90 35
REMARK SMILES IDX 16 36 17 37 18 38 19 39 20 40 21 42 22 43 23 44 84 45 24 46
REMARK SMILES IDX 83 47 25 48 26 49 27 50 77 51 28 52 82 53 76 54 78 55 29 56
REMARK SMILES IDX 81 57 75 58 74 59 30 61 62 62 42 63 61 64 43 65 46 66 60 67
REMARK SMILES IDX 79 68 44 69 45 70 59 72 80 73 47 74 31 75 32 76 40 77 33 78
REMARK SMILES IDX 35 79 41 80 34 81 36 82 37 83 38 84 39 85 63 86 64 87 72 88
REMARK SMILES IDX 65 89 67 90 73 91 66 92 68 93 69 94 70 95 71 96 48 97 49 98
REMARK SMILES IDX 57 99 50 100 52 101 58 102 51 103 53 104 54 105 55 106
REMARK SMILES IDX 56 107
REMARK H PARENT 12 7 6 19 6 20 19 41 78 60 46 71
REMARK Flexibility Score: inf
ROOT
ATOM      1  C   UNL     1      -3.574   3.007   1.990  1.00  0.00     0.002 C 
ENDROOT
BRANCH   1   2
ATOM      2  C   UNL     1      -4.370   1.706   2.195  1.00  0.00     0.021 C 
BRANCH   2   3
ATOM      3  C   UNL     1      -3.704   0.448   1.650  1.00  0.00     0.116 C 
BRANCH   3   4
ATOM      4  N   UNL     1      -2.799  -0.266   2.511  1.00  0.00    -0.351 N 
ATOM      5  C   UNL     1      -2.242  -1.520   2.355  1.00  0.00     0.268 C 
ATOM      6  O   UNL     1      -1.360  -1.768   3.183  1.00  0.00    -0.268 OA
ATOM      7  H   UNL     1      -2.538   0.210   3.332  1.00  0.00     0.163 HD
BRANCH   5   8
ATOM      8  C   UNL     1      -2.677  -2.520   1.358  1.00  0.00     0.117 A 
ATOM      9  C   UNL     1      -3.339  -2.448   0.113  1.00  0.00     0.045 A 
ATOM     10  C   UNL     1      -3.872  -3.758  -0.120  1.00  0.00     0.009 A 
ATOM     11  N   UNL     1      -2.286  -3.887   1.423  1.00  0.00    -0.331 N 
ATOM     12  C   UNL     1      -3.010  -4.639   0.505  1.00  0.00     0.049 A 
ATOM     13  C   UNL     1      -4.886  -4.266  -0.961  1.00  0.00     0.011 A 
ATOM     14  C   UNL     1      -2.985  -5.998   0.141  1.00  0.00     0.027 A 
ATOM     15  C   UNL     1      -4.988  -5.641  -1.170  1.00  0.00     0.001 A 
ATOM     16  C   UNL     1      -4.016  -6.491  -0.663  1.00  0.00     0.002 A 
BRANCH   9  17
ATOM     17  C   UNL     1      -3.583  -1.393  -0.935  1.00  0.00     0.300 C 
BRANCH  17  18
ATOM     18  N   UNL     1      -2.676  -0.265  -0.984  1.00  0.00    -0.340 N 
ATOM     19  H   UNL     1      -3.085   0.389  -1.652  1.00  0.00     0.346 HD
ATOM     20  H   UNL     1      -2.608  -0.029   0.006  1.00  0.00     0.346 HD
BRANCH  18  21
ATOM     21  C   UNL     1      -1.260  -0.365  -1.343  1.00  0.00     0.182 C 
ATOM     22  C   UNL     1       3.030  -0.047  -0.267  1.00  0.00     0.007 C 
ATOM     23  C   UNL     1       1.511  -0.136  -0.246  1.00  0.00    -0.014 C 
ATOM     24  C   UNL     1       1.021  -1.425  -0.910  1.00  0.00     0.009 C 
ATOM     25  C   UNL     1       0.868   1.061  -0.945  1.00  0.00     0.009 C 
ATOM     26  C   UNL     1      -0.489  -1.543  -0.748  1.00  0.00     0.065 C 
ATOM     27  C   UNL     1      -0.652   0.979  -0.874  1.00  0.00     0.065 C 
ENDBRANCH  18  21
ENDBRANCH  17  18
ENDBRANCH   9  17
BRANCH  11  28
ATOM     28  C   UNL     1      -1.201  -4.473   2.233  1.00  0.00     0.161 C 
BRANCH  28  29
ATOM     29  C   UNL     1      -1.662  -5.200   3.478  1.00  0.00     0.008 A 
ATOM     30  C   UNL     1      -2.439  -6.371   3.427  1.00  0.00     0.008 A 
ATOM     31  C   UNL     1      -1.270  -4.762   4.745  1.00  0.00     0.128 A 
ATOM     32  C   UNL     1      -2.861  -7.031   4.583  1.00  0.00     0.001 A 
ATOM     33  C   UNL     1      -1.694  -5.408   5.909  1.00  0.00     0.039 A 
ATOM     34  F   UNL     1      -0.430  -3.727   4.874  1.00  0.00    -0.207 F 
ATOM     35  C   UNL     1      -2.503  -6.538   5.829  1.00  0.00     0.003 A 
ENDBRANCH  28  29
ENDBRANCH  11  28
ENDBRANCH   5   8
ENDBRANCH   3   4
ENDBRANCH   2   3
ENDBRANCH   1   2
BRANCH   1  36
ATOM     36  C   UNL     1      -3.243   3.446   0.550  1.00  0.00     0.002 C 
BRANCH  36  37
ATOM     37  C   UNL     1      -4.384   3.559  -0.473  1.00  0.00     0.021 C 
BRANCH  37  38
ATOM     38  C   UNL     1      -5.598   4.370  -0.025  1.00  0.00     0.116 C 
BRANCH  38  39
ATOM     39  N   UNL     1      -5.258   5.650   0.557  1.00  0.00    -0.352 N 
ATOM     40  C   UNL     1      -5.151   6.938   0.124  1.00  0.00     0.251 C 
ATOM     41  H   UNL     1      -5.049   5.569   1.516  1.00  0.00     0.163 HD
ATOM     42  O   UNL     1      -4.937   7.770   1.012  1.00  0.00    -0.269 OA
BRANCH  40  43
ATOM     43  C   UNL     1      -5.213   7.397  -1.288  1.00  0.00     0.039 A 
ATOM     44  C   UNL     1      -5.392   6.583  -2.406  1.00  0.00     0.014 A 
ATOM     45  C   UNL     1      -4.994   8.777  -1.485  1.00  0.00     0.014 A 
ATOM     46  C   UNL     1      -5.258   7.119  -3.685  1.00  0.00     0.010 A 
ATOM     47  C   UNL     1      -4.869   9.316  -2.758  1.00  0.00     0.010 A 
ATOM     48  C   UNL     1      -4.946   8.473  -3.857  1.00  0.00    -0.014 A 
BRANCH  48  49
ATOM     49  C   UNL     1      -4.823   8.986  -5.219  1.00  0.00     0.031 A 
ATOM     50  C   UNL     1      -6.059   8.824  -6.036  1.00  0.00     0.074 A 
ATOM     51  C   UNL     1      -3.732   9.629  -5.685  1.00  0.00     0.049 A 
ATOM     52  N   UNL     1      -6.237   8.060  -7.065  1.00  0.00    -0.248 NA
ATOM     53  C   UNL     1      -7.287   9.474  -5.551  1.00  0.00     0.031 C 
ATOM     54  C   UNL     1      -2.564  10.094  -4.931  1.00  0.00     0.029 A 
ATOM     55  N   UNL     1      -3.489  10.109  -6.939  1.00  0.00    -0.354 N 
ATOM     56  C   UNL     1      -7.537   8.319  -7.498  1.00  0.00     0.074 A 
ATOM     57  C   UNL     1      -8.186   9.045  -6.439  1.00  0.00     0.031 C 
ATOM     58  C   UNL     1      -1.872  10.986  -5.679  1.00  0.00     0.029 A 
ATOM     59  C   UNL     1      -2.457  11.044  -7.005  1.00  0.00     0.049 A 
ATOM     60  H   UNL     1      -3.999   9.819  -7.730  1.00  0.00     0.167 HD
ATOM     61  C   UNL     1      -7.905   8.143  -8.797  1.00  0.00     0.034 A 
ATOM     62  C   UNL     1      -2.161  11.845  -8.062  1.00  0.00     0.034 A 
ATOM     63  C   UNL     1      -6.990   7.292  -9.507  1.00  0.00     0.049 A 
ATOM     64  C   UNL     1      -2.749  11.200  -9.257  1.00  0.00     0.074 A 
ATOM     65  C   UNL     1      -6.549   5.992  -9.364  1.00  0.00     0.029 A 
ATOM     66  N   UNL     1      -6.088   7.907 -10.337  1.00  0.00    -0.354 N 
ATOM     67  N   UNL     1      -2.346  10.057  -9.736  1.00  0.00    -0.248 NA
ATOM     68  C   UNL     1      -4.064  11.640  -9.689  1.00  0.00     0.031 C 
ATOM     69  C   UNL     1      -5.167   6.036  -9.709  1.00  0.00     0.029 A 
ATOM     70  C   UNL     1      -4.865   7.343 -10.096  1.00  0.00     0.049 A 
ATOM     71  H   UNL     1      -6.284   8.622 -10.985  1.00  0.00     0.167 HD
ATOM     72  C   UNL     1      -3.512   9.433 -10.153  1.00  0.00     0.074 A 
ATOM     73  C   UNL     1      -4.519  10.492 -10.196  1.00  0.00     0.031 C 
ATOM     74  C   UNL     1      -3.620   8.074 -10.149  1.00  0.00     0.034 A 
BRANCH  61  75
ATOM     75  C   UNL     1      -8.866   9.052  -9.526  1.00  0.00     0.023 A 
ATOM     76  C   UNL     1      -9.319   8.651 -10.802  1.00  0.00     0.012 A 
ATOM     77  C   UNL     1      -9.108  10.394  -9.151  1.00  0.00     0.148 A 
ATOM     78  C   UNL     1      -9.951   9.550 -11.669  1.00  0.00     0.002 A 
ATOM     79  C   UNL     1      -9.801  11.261  -9.985  1.00  0.00     0.091 A 
ATOM     80  F   UNL     1      -8.546  10.889  -8.044  1.00  0.00    -0.205 F 
ATOM     81  C   UNL     1     -10.203  10.853 -11.258  1.00  0.00     0.022 A 
BRANCH  79  82
ATOM     82  S   UNL     1     -10.166  12.948  -9.484  1.00  0.00     0.127 S 
ATOM     83  O   UNL     1      -9.198  13.700 -10.276  1.00  0.00    -0.237 OA
ATOM     84  O   UNL     1     -11.560  13.089  -9.906  1.00  0.00    -0.237 OA
ATOM     85  O   UNL     1      -9.977  12.971  -8.040  1.00  0.00    -0.744 OA
ENDBRANCH  79  82
ENDBRANCH  61  75
BRANCH  62  86
ATOM     86  C   UNL     1      -1.676  13.251  -8.116  1.00  0.00     0.023 A 
ATOM     87  C   UNL     1      -1.263  13.784  -9.359  1.00  0.00     0.012 A 
ATOM     88  C   UNL     1      -1.916  14.157  -7.060  1.00  0.00     0.148 A 
ATOM     89  C   UNL     1      -1.167  15.166  -9.564  1.00  0.00     0.002 A 
ATOM     90  C   UNL     1      -1.808  15.532  -7.267  1.00  0.00     0.091 A 
ATOM     91  F   UNL     1      -2.346  13.683  -5.885  1.00  0.00    -0.205 F 
ATOM     92  C   UNL     1      -1.455  16.041  -8.522  1.00  0.00     0.022 A 
BRANCH  90  93
ATOM     93  S   UNL     1      -2.168  16.721  -5.965  1.00  0.00     0.127 S 
ATOM     94  O   UNL     1      -1.047  17.657  -6.091  1.00  0.00    -0.237 OA
ATOM     95  O   UNL     1      -3.459  17.261  -6.399  1.00  0.00    -0.237 OA
ATOM     96  O   UNL     1      -2.179  15.965  -4.729  1.00  0.00    -0.744 OA
ENDBRANCH  90  93
ENDBRANCH  62  86
BRANCH  74  97
ATOM     97  C   UNL     1      -2.371   7.263  -9.927  1.00  0.00     0.023 A 
ATOM     98  C   UNL     1      -1.713   7.219  -8.679  1.00  0.00     0.012 A 
ATOM     99  C   UNL     1      -1.981   6.373 -10.939  1.00  0.00     0.148 A 
ATOM    100  C   UNL     1      -0.685   6.299  -8.449  1.00  0.00     0.002 A 
ATOM    101  C   UNL     1      -0.988   5.435 -10.694  1.00  0.00     0.091 A 
ATOM    102  F   UNL     1      -2.632   6.429 -12.111  1.00  0.00    -0.205 F 
ATOM    103  C   UNL     1      -0.334   5.396  -9.452  1.00  0.00     0.022 A 
BRANCH 101 104
ATOM    104  S   UNL     1      -0.564   4.173 -11.896  1.00  0.00     0.127 S 
ATOM    105  O   UNL     1       0.808   4.534 -12.248  1.00  0.00    -0.237 OA
ATOM    106  O   UNL     1      -0.693   2.945 -11.111  1.00  0.00    -0.237 OA
ATOM    107  O   UNL     1      -1.534   4.298 -12.977  1.00  0.00    -0.744 OA
ENDBRANCH 101 104
ENDBRANCH  74  97
ENDBRANCH  48  49
ENDBRANCH  40  43
ENDBRANCH  38  39
ENDBRANCH  37  38
ENDBRANCH  36  37
ENDBRANCH   1  36
TORSDOF 21
