REMARK SMILES O=C(NCCCCCCNC(=O)c1c(F)cccc1N1CC[C@@H]([NH+]2CCCCC2)C1)c1ccc(-c2c3nc(c(-c4cccc(S(=O)(=O)[O-])c4F)c4ccc([nH]4)c(-c4cccc(S(=O)(=O)[O-])c4F)c4nc(c(-c5cccc(S(=O)(=O)[O-])c5F)c5ccc2[nH]5)C=C4)C=C3)cc1
REMARK SMILES IDX 6 1 5 2 4 3 3 4 1 5 2 6 31 8 32 9 93 10 33 11 92 12 34 13
REMARK SMILES IDX 35 14 36 15 86 16 37 17 91 18 85 19 87 20 38 21 90 22 84 23
REMARK SMILES IDX 83 24 39 26 71 27 51 28 70 29 52 30 55 31 69 32 88 33 53 34
REMARK SMILES IDX 54 35 68 37 89 38 56 39 40 40 41 41 49 42 42 43 44 44 50 45
REMARK SMILES IDX 43 46 45 47 46 48 47 49 48 50 72 51 73 52 81 53 74 54 76 55
REMARK SMILES IDX 82 56 75 57 77 58 78 59 79 60 80 61 57 62 58 63 66 64 59 65
REMARK SMILES IDX 61 66 67 67 60 68 62 69 63 70 64 71 65 72 7 73 8 74 9 75
REMARK SMILES IDX 10 76 11 77 12 79 13 80 14 81 19 82 15 83 16 84 18 85 17 86
REMARK SMILES IDX 20 87 21 88 30 89 22 90 23 91 24 92 25 93 29 94 26 96 28 97
REMARK SMILES IDX 27 98
REMARK H PARENT 3 7 87 25 55 36 10 78 24 95
REMARK Flexibility Score: inf
ROOT
ATOM      1  C   UNL     1       4.280  -3.593   1.387  1.00  0.00     0.002 C 
ENDROOT
BRANCH   1   2
ATOM      2  C   UNL     1       4.734  -2.137   1.490  1.00  0.00     0.021 C 
BRANCH   2   3
ATOM      3  C   UNL     1       4.459  -1.281   0.261  1.00  0.00     0.116 C 
BRANCH   3   4
ATOM      4  N   UNL     1       3.039  -1.095   0.013  1.00  0.00    -0.352 N 
ATOM      5  O   UNL     1       1.102   0.040  -0.171  1.00  0.00    -0.269 OA
ATOM      6  C   UNL     1       2.329   0.074  -0.125  1.00  0.00     0.251 C 
ATOM      7  H   UNL     1       2.512  -1.922  -0.069  1.00  0.00     0.163 HD
BRANCH   6   8
ATOM      8  C   UNL     1       3.043   1.370  -0.189  1.00  0.00     0.039 A 
ATOM      9  C   UNL     1       4.186   1.516  -0.980  1.00  0.00     0.014 A 
ATOM     10  C   UNL     1       2.561   2.455   0.549  1.00  0.00     0.014 A 
ATOM     11  C   UNL     1       4.922   2.695  -0.921  1.00  0.00     0.010 A 
ATOM     12  C   UNL     1       3.256   3.668   0.538  1.00  0.00     0.010 A 
ATOM     13  C   UNL     1       4.459   3.791  -0.175  1.00  0.00    -0.014 A 
BRANCH  13  14
ATOM     14  C   UNL     1       5.203   5.076  -0.228  1.00  0.00     0.031 A 
ATOM     15  C   UNL     1       5.846   5.665   0.997  1.00  0.00     0.074 A 
ATOM     16  C   UNL     1       5.297   5.713  -1.412  1.00  0.00     0.049 A 
ATOM     17  N   UNL     1       6.548   6.764   1.105  1.00  0.00    -0.248 NA
ATOM     18  C   UNL     1       5.680   4.936   2.266  1.00  0.00     0.031 C 
ATOM     19  C   UNL     1       4.679   5.257  -2.659  1.00  0.00     0.029 A 
ATOM     20  N   UNL     1       5.941   6.871  -1.766  1.00  0.00    -0.354 N 
ATOM     21  C   UNL     1       6.878   6.880   2.450  1.00  0.00     0.074 A 
ATOM     22  C   UNL     1       6.293   5.741   3.125  1.00  0.00     0.031 C 
ATOM     23  C   UNL     1       4.999   6.105  -3.646  1.00  0.00     0.029 A 
ATOM     24  C   UNL     1       5.795   7.196  -3.094  1.00  0.00     0.049 A 
ATOM     25  H   UNL     1       6.458   7.417  -1.130  1.00  0.00     0.167 HD
ATOM     26  C   UNL     1       7.615   7.840   3.059  1.00  0.00     0.034 A 
ATOM     27  C   UNL     1       6.235   8.259  -3.794  1.00  0.00     0.034 A 
ATOM     28  C   UNL     1       8.223   8.950   2.373  1.00  0.00     0.049 A 
ATOM     29  C   UNL     1       7.061   9.299  -3.094  1.00  0.00     0.074 A 
ATOM     30  C   UNL     1       9.040   9.937   2.897  1.00  0.00     0.029 A 
ATOM     31  N   UNL     1       8.078   9.228   1.022  1.00  0.00    -0.354 N 
ATOM     32  N   UNL     1       7.462   9.326  -1.846  1.00  0.00    -0.248 NA
ATOM     33  C   UNL     1       7.516  10.442  -3.897  1.00  0.00     0.031 C 
ATOM     34  C   UNL     1       9.368  10.825   1.869  1.00  0.00     0.029 A 
ATOM     35  C   UNL     1       8.780  10.377   0.698  1.00  0.00     0.049 A 
ATOM     36  H   UNL     1       7.553   8.688   0.387  1.00  0.00     0.167 HD
ATOM     37  C   UNL     1       8.232  10.474  -1.718  1.00  0.00     0.074 A 
ATOM     38  C   UNL     1       8.263  11.104  -3.023  1.00  0.00     0.031 C 
ATOM     39  C   UNL     1       8.842  10.970  -0.614  1.00  0.00     0.034 A 
BRANCH  26  40
ATOM     40  C   UNL     1       7.858   7.721   4.542  1.00  0.00     0.023 A 
ATOM     41  C   UNL     1       8.775   6.764   5.019  1.00  0.00     0.012 A 
ATOM     42  C   UNL     1       7.275   8.631   5.447  1.00  0.00     0.148 A 
ATOM     43  C   UNL     1       9.097   6.703   6.375  1.00  0.00     0.002 A 
ATOM     44  C   UNL     1       7.632   8.591   6.791  1.00  0.00     0.091 A 
ATOM     45  F   UNL     1       6.393   9.524   4.976  1.00  0.00    -0.205 F 
ATOM     46  C   UNL     1       8.536   7.623   7.257  1.00  0.00     0.022 A 
BRANCH  44  47
ATOM     47  S   UNL     1       7.032   9.784   7.993  1.00  0.00     0.127 S 
ATOM     48  O   UNL     1       6.163   8.952   8.825  1.00  0.00    -0.237 OA
ATOM     49  O   UNL     1       8.270  10.212   8.645  1.00  0.00    -0.237 OA
ATOM     50  O   UNL     1       6.356  10.822   7.228  1.00  0.00    -0.744 OA
ENDBRANCH  44  47
ENDBRANCH  26  40
BRANCH  27  51
ATOM     51  C   UNL     1       5.939   8.347  -5.251  1.00  0.00     0.023 A 
ATOM     52  C   UNL     1       6.980   8.170  -6.181  1.00  0.00     0.012 A 
ATOM     53  C   UNL     1       4.620   8.514  -5.718  1.00  0.00     0.148 A 
ATOM     54  C   UNL     1       6.716   8.168  -7.551  1.00  0.00     0.002 A 
ATOM     55  C   UNL     1       4.355   8.448  -7.080  1.00  0.00     0.091 A 
ATOM     56  F   UNL     1       3.645   8.695  -4.816  1.00  0.00    -0.205 F 
ATOM     57  C   UNL     1       5.403   8.291  -8.000  1.00  0.00     0.022 A 
BRANCH  55  58
ATOM     58  S   UNL     1       2.682   8.437  -7.736  1.00  0.00     0.127 S 
ATOM     59  O   UNL     1       2.611   9.738  -8.394  1.00  0.00    -0.237 OA
ATOM     60  O   UNL     1       2.721   7.288  -8.641  1.00  0.00    -0.237 OA
ATOM     61  O   UNL     1       1.809   8.262  -6.583  1.00  0.00    -0.744 OA
ENDBRANCH  55  58
ENDBRANCH  27  51
BRANCH  39  62
ATOM     62  C   UNL     1       9.614  12.256  -0.755  1.00  0.00     0.023 A 
ATOM     63  C   UNL     1       8.918  13.474  -0.884  1.00  0.00     0.012 A 
ATOM     64  C   UNL     1      11.019  12.267  -0.648  1.00  0.00     0.148 A 
ATOM     65  C   UNL     1       9.611  14.683  -0.924  1.00  0.00     0.002 A 
ATOM     66  C   UNL     1      11.698  13.479  -0.640  1.00  0.00     0.091 A 
ATOM     67  F   UNL     1      11.661  11.095  -0.544  1.00  0.00    -0.205 F 
ATOM     68  C   UNL     1      10.997  14.687  -0.787  1.00  0.00     0.022 A 
BRANCH  66  69
ATOM     69  S   UNL     1      13.471  13.589  -0.369  1.00  0.00     0.127 S 
ATOM     70  O   UNL     1      13.950  13.989  -1.691  1.00  0.00    -0.237 OA
ATOM     71  O   UNL     1      13.564  14.630   0.655  1.00  0.00    -0.237 OA
ATOM     72  O   UNL     1      13.894  12.267   0.073  1.00  0.00    -0.744 OA
ENDBRANCH  66  69
ENDBRANCH  39  62
ENDBRANCH  13  14
ENDBRANCH   6   8
ENDBRANCH   3   4
ENDBRANCH   2   3
ENDBRANCH   1   2
BRANCH   1  73
ATOM     73  C   UNL     1       4.839  -4.384   0.201  1.00  0.00     0.002 C 
BRANCH  73  74
ATOM     74  C   UNL     1       6.362  -4.371   0.036  1.00  0.00     0.021 C 
BRANCH  74  75
ATOM     75  C   UNL     1       7.171  -4.755   1.274  1.00  0.00     0.116 C 
BRANCH  75  76
ATOM     76  N   UNL     1       6.852  -6.081   1.770  1.00  0.00    -0.352 N 
ATOM     77  C   UNL     1       7.709  -7.109   2.091  1.00  0.00     0.256 C 
ATOM     78  H   UNL     1       5.894  -6.270   1.894  1.00  0.00     0.163 HD
ATOM     79  O   UNL     1       7.260  -8.168   2.523  1.00  0.00    -0.269 OA
BRANCH  77  80
ATOM     80  C   UNL     1       9.161  -6.941   1.881  1.00  0.00     0.098 A 
ATOM     81  C   UNL     1       9.811  -6.017   2.709  1.00  0.00     0.138 A 
ATOM     82  C   UNL     1       9.888  -7.738   0.968  1.00  0.00     0.053 A 
ATOM     83  F   UNL     1       9.118  -5.281   3.592  1.00  0.00    -0.206 F 
ATOM     84  C   UNL     1      11.182  -5.820   2.625  1.00  0.00     0.040 A 
ATOM     85  C   UNL     1      11.283  -7.542   0.937  1.00  0.00     0.027 A 
ATOM     86  C   UNL     1      11.923  -6.587   1.737  1.00  0.00     0.005 A 
BRANCH  82  87
ATOM     87  N   UNL     1       9.329  -8.652   0.107  1.00  0.00    -0.365 N 
ATOM     88  C   UNL     1       8.143  -8.412  -0.691  1.00  0.00     0.123 C 
ATOM     89  C   UNL     1       9.802 -10.032  -0.032  1.00  0.00     0.181 C 
ATOM     90  C   UNL     1       7.528  -9.793  -0.833  1.00  0.00     0.088 C 
ATOM     91  C   UNL     1       8.715 -10.760  -0.894  1.00  0.00     0.205 C 
BRANCH  91  92
ATOM     92  N   UNL     1       9.181 -11.226  -2.216  1.00  0.00    -0.331 N 
ATOM     93  C   UNL     1       9.647 -10.228  -3.177  1.00  0.00     0.262 C 
ATOM     94  C   UNL     1       8.341 -12.249  -2.845  1.00  0.00     0.262 C 
ATOM     95  H   UNL     1      10.047 -11.681  -1.927  1.00  0.00     0.348 HD
ATOM     96  C   UNL     1       8.557  -9.618  -4.061  1.00  0.00     0.062 C 
ATOM     97  C   UNL     1       7.190 -11.714  -3.696  1.00  0.00     0.062 C 
ATOM     98  C   UNL     1       7.663 -10.671  -4.702  1.00  0.00     0.012 C 
ENDBRANCH  91  92
ENDBRANCH  82  87
ENDBRANCH  77  80
ENDBRANCH  75  76
ENDBRANCH  74  75
ENDBRANCH  73  74
ENDBRANCH   1  73
TORSDOF 18
