REMARK SMILES C[C@@H]1CC[C@@H](C(=O)NCCCCCCNC(=O)c2ccc(-c3c4nc(c(-c5cccc(S(=O)(=O)[O-])c5F)c5ccc([nH]5)c(-c5cccc(S(=O)(=O)[O-])c5F)c5nc(c(-c6cccc(S(=O)(=O)[O-])c6F)c6ccc3[nH]6)C=C5)C=C4)cc2)[C@H]2C(=O)N(c3ccccc3)C(=O)[C@@H]21
REMARK SMILES IDX 12 1 11 2 10 3 9 4 8 5 6 6 7 7 5 9 1 10 2 11 3 12 93 13 4 14
REMARK SMILES IDX 81 15 91 16 82 17 84 18 92 19 83 20 85 21 86 22 90 23 87 24
REMARK SMILES IDX 89 25 88 26 13 27 14 28 15 29 16 30 17 32 18 33 19 34 80 35
REMARK SMILES IDX 20 36 79 37 21 38 22 39 23 40 73 41 24 42 78 43 72 44 74 45
REMARK SMILES IDX 25 46 77 47 71 48 70 49 26 51 58 52 38 53 57 54 39 55 42 56
REMARK SMILES IDX 56 57 75 58 40 59 41 60 55 62 76 63 43 64 27 65 28 66 36 67
REMARK SMILES IDX 29 68 31 69 37 70 30 71 32 72 33 73 34 74 35 75 59 76 60 77
REMARK SMILES IDX 68 78 61 79 63 80 69 81 62 82 64 83 65 84 66 85 67 86 44 87
REMARK SMILES IDX 45 88 53 89 46 90 48 91 54 92 47 93 49 94 50 95 51 96 52 97
REMARK H PARENT 8 8 15 31 74 50 42 61
REMARK Flexibility Score: inf
ROOT
ATOM      1  C   UNL     1      -3.830  -3.448  -5.565  1.00  0.00     0.002 C 
ENDROOT
BRANCH   1   2
ATOM      2  C   UNL     1      -3.073  -2.163  -5.218  1.00  0.00     0.002 C 
BRANCH   2   3
ATOM      3  C   UNL     1      -2.486  -2.117  -3.805  1.00  0.00     0.021 C 
BRANCH   3   4
ATOM      4  C   UNL     1      -1.499  -3.247  -3.498  1.00  0.00     0.116 C 
BRANCH   4   5
ATOM      5  N   UNL     1      -0.205  -2.962  -4.082  1.00  0.00    -0.356 N 
ATOM      6  C   UNL     1       0.963  -2.491  -3.596  1.00  0.00     0.223 C 
ATOM      7  O   UNL     1       1.733  -2.050  -4.460  1.00  0.00    -0.275 OA
ATOM      8  H   UNL     1      -0.169  -3.155  -5.046  1.00  0.00     0.163 HD
BRANCH   6   9
ATOM      9  C   UNL     1       1.423  -2.557  -2.126  1.00  0.00     0.092 C 
ATOM     10  C   UNL     1       1.301   0.305   0.553  1.00  0.00     0.008 C 
ATOM     11  C   UNL     1       0.740   0.137  -0.863  1.00  0.00    -0.001 C 
ATOM     12  C   UNL     1      -0.269  -1.036  -0.917  1.00  0.00     0.005 C 
ATOM     13  C   UNL     1       1.798  -0.085  -1.942  1.00  0.00     0.095 C 
ATOM     14  C   UNL     1       0.404  -2.420  -0.978  1.00  0.00     0.014 C 
ATOM     15  C   UNL     1       2.451  -1.453  -1.844  1.00  0.00     0.104 C 
ATOM     16  C   UNL     1       2.998   0.821  -2.014  1.00  0.00     0.237 C 
ATOM     17  C   UNL     1       3.696  -1.276  -2.679  1.00  0.00     0.238 C 
ATOM     18  N   UNL     1       4.007   0.079  -2.616  1.00  0.00    -0.250 N 
ATOM     19  O   UNL     1       2.980   1.994  -1.690  1.00  0.00    -0.274 OA
ATOM     20  O   UNL     1       4.375  -2.206  -3.092  1.00  0.00    -0.274 OA
BRANCH  18  21
ATOM     21  C   UNL     1       5.237   0.632  -3.051  1.00  0.00     0.052 A 
ATOM     22  C   UNL     1       5.814   1.720  -2.380  1.00  0.00     0.027 A 
ATOM     23  C   UNL     1       5.903   0.111  -4.168  1.00  0.00     0.027 A 
ATOM     24  C   UNL     1       7.028   2.265  -2.805  1.00  0.00     0.002 A 
ATOM     25  C   UNL     1       7.099   0.679  -4.616  1.00  0.00     0.002 A 
ATOM     26  C   UNL     1       7.665   1.751  -3.929  1.00  0.00     0.000 A 
ENDBRANCH  18  21
ENDBRANCH   6   9
ENDBRANCH   4   5
ENDBRANCH   3   4
ENDBRANCH   2   3
ENDBRANCH   1   2
BRANCH   1  27
ATOM     27  C   UNL     1      -4.900  -3.871  -4.554  1.00  0.00     0.021 C 
BRANCH  27  28
ATOM     28  C   UNL     1      -5.963  -2.817  -4.257  1.00  0.00     0.116 C 
BRANCH  28  29
ATOM     29  N   UNL     1      -6.673  -2.405  -5.455  1.00  0.00    -0.352 N 
ATOM     30  C   UNL     1      -8.020  -2.356  -5.700  1.00  0.00     0.251 C 
ATOM     31  H   UNL     1      -6.101  -2.118  -6.203  1.00  0.00     0.163 HD
ATOM     32  O   UNL     1      -8.420  -2.167  -6.846  1.00  0.00    -0.269 OA
BRANCH  30  33
ATOM     33  C   UNL     1      -8.991  -2.538  -4.598  1.00  0.00     0.039 A 
ATOM     34  C   UNL     1     -10.128  -3.314  -4.833  1.00  0.00     0.014 A 
ATOM     35  C   UNL     1      -8.810  -1.919  -3.357  1.00  0.00     0.014 A 
ATOM     36  C   UNL     1     -11.066  -3.495  -3.815  1.00  0.00     0.010 A 
ATOM     37  C   UNL     1      -9.712  -2.157  -2.321  1.00  0.00     0.010 A 
ATOM     38  C   UNL     1     -10.858  -2.932  -2.544  1.00  0.00    -0.014 A 
BRANCH  38  39
ATOM     39  C   UNL     1     -11.839  -3.162  -1.452  1.00  0.00     0.031 A 
ATOM     40  C   UNL     1     -12.630  -2.020  -0.873  1.00  0.00     0.074 A 
ATOM     41  C   UNL     1     -11.988  -4.404  -0.953  1.00  0.00     0.049 A 
ATOM     42  N   UNL     1     -13.572  -2.050   0.034  1.00  0.00    -0.248 NA
ATOM     43  C   UNL     1     -12.307  -0.666  -1.353  1.00  0.00     0.031 C 
ATOM     44  C   UNL     1     -11.207  -5.576  -1.357  1.00  0.00     0.029 A 
ATOM     45  N   UNL     1     -12.838  -4.888   0.009  1.00  0.00    -0.354 N 
ATOM     46  C   UNL     1     -13.935  -0.726   0.253  1.00  0.00     0.074 A 
ATOM     47  C   UNL     1     -13.084   0.087  -0.588  1.00  0.00     0.031 C 
ATOM     48  C   UNL     1     -11.627  -6.645  -0.663  1.00  0.00     0.029 A 
ATOM     49  C   UNL     1     -12.697  -6.236   0.242  1.00  0.00     0.049 A 
ATOM     50  H   UNL     1     -13.488  -4.324   0.487  1.00  0.00     0.167 HD
ATOM     51  C   UNL     1     -14.910  -0.233   1.054  1.00  0.00     0.034 A 
ATOM     52  C   UNL     1     -13.366  -7.055   1.078  1.00  0.00     0.034 A 
ATOM     53  C   UNL     1     -15.784  -1.050   1.853  1.00  0.00     0.049 A 
ATOM     54  C   UNL     1     -14.504  -6.497   1.888  1.00  0.00     0.074 A 
ATOM     55  C   UNL     1     -16.861  -0.657   2.628  1.00  0.00     0.029 A 
ATOM     56  N   UNL     1     -15.680  -2.426   1.984  1.00  0.00    -0.354 N 
ATOM     57  N   UNL     1     -14.952  -5.266   1.943  1.00  0.00    -0.248 NA
ATOM     58  C   UNL     1     -15.262  -7.449   2.712  1.00  0.00     0.031 C 
ATOM     59  C   UNL     1     -17.400  -1.795   3.239  1.00  0.00     0.029 A 
ATOM     60  C   UNL     1     -16.671  -2.899   2.826  1.00  0.00     0.049 A 
ATOM     61  H   UNL     1     -15.000  -2.985   1.542  1.00  0.00     0.167 HD
ATOM     62  C   UNL     1     -16.064  -5.301   2.776  1.00  0.00     0.074 A 
ATOM     63  C   UNL     1     -16.236  -6.681   3.182  1.00  0.00     0.031 C 
ATOM     64  C   UNL     1     -16.863  -4.282   3.180  1.00  0.00     0.034 A 
BRANCH  51  65
ATOM     65  C   UNL     1     -15.128   1.259   1.055  1.00  0.00     0.023 A 
ATOM     66  C   UNL     1     -15.697   1.877  -0.077  1.00  0.00     0.012 A 
ATOM     67  C   UNL     1     -14.830   2.039   2.189  1.00  0.00     0.148 A 
ATOM     68  C   UNL     1     -15.933   3.251  -0.096  1.00  0.00     0.002 A 
ATOM     69  C   UNL     1     -15.109   3.402   2.180  1.00  0.00     0.091 A 
ATOM     70  F   UNL     1     -14.269   1.440   3.250  1.00  0.00    -0.205 F 
ATOM     71  C   UNL     1     -15.649   4.011   1.036  1.00  0.00     0.022 A 
BRANCH  69  72
ATOM     72  S   UNL     1     -14.854   4.452   3.615  1.00  0.00     0.127 S 
ATOM     73  O   UNL     1     -13.686   5.231   3.207  1.00  0.00    -0.237 OA
ATOM     74  O   UNL     1     -16.104   5.211   3.670  1.00  0.00    -0.237 OA
ATOM     75  O   UNL     1     -14.644   3.550   4.739  1.00  0.00    -0.744 OA
ENDBRANCH  69  72
ENDBRANCH  51  65
BRANCH  52  76
ATOM     76  C   UNL     1     -13.040  -8.508   1.107  1.00  0.00     0.023 A 
ATOM     77  C   UNL     1     -13.948  -9.433   0.555  1.00  0.00     0.012 A 
ATOM     78  C   UNL     1     -11.822  -8.975   1.636  1.00  0.00     0.148 A 
ATOM     79  C   UNL     1     -13.664 -10.799   0.559  1.00  0.00     0.002 A 
ATOM     80  C   UNL     1     -11.520 -10.331   1.586  1.00  0.00     0.091 A 
ATOM     81  F   UNL     1     -10.976  -8.081   2.167  1.00  0.00    -0.205 F 
ATOM     82  C   UNL     1     -12.446 -11.247   1.064  1.00  0.00     0.022 A 
BRANCH  80  83
ATOM     83  S   UNL     1      -9.918 -10.975   2.084  1.00  0.00     0.127 S 
ATOM     84  O   UNL     1     -10.239 -11.629   3.349  1.00  0.00    -0.237 OA
ATOM     85  O   UNL     1      -9.599 -11.884   0.982  1.00  0.00    -0.237 OA
ATOM     86  O   UNL     1      -9.042  -9.814   2.172  1.00  0.00    -0.744 OA
ENDBRANCH  80  83
ENDBRANCH  52  76
BRANCH  64  87
ATOM     87  C   UNL     1     -18.018  -4.622   4.085  1.00  0.00     0.023 A 
ATOM     88  C   UNL     1     -17.776  -4.983   5.425  1.00  0.00     0.012 A 
ATOM     89  C   UNL     1     -19.345  -4.531   3.623  1.00  0.00     0.148 A 
ATOM     90  C   UNL     1     -18.835  -5.288   6.280  1.00  0.00     0.002 A 
ATOM     91  C   UNL     1     -20.398  -4.789   4.494  1.00  0.00     0.091 A 
ATOM     92  F   UNL     1     -19.557  -4.208   2.339  1.00  0.00    -0.205 F 
ATOM     93  C   UNL     1     -20.144  -5.180   5.818  1.00  0.00     0.022 A 
BRANCH  91  94
ATOM     94  S   UNL     1     -22.113  -4.580   4.003  1.00  0.00     0.127 S 
ATOM     95  O   UNL     1     -22.520  -5.960   3.745  1.00  0.00    -0.237 OA
ATOM     96  O   UNL     1     -22.712  -3.980   5.196  1.00  0.00    -0.237 OA
ATOM     97  O   UNL     1     -22.086  -3.701   2.841  1.00  0.00    -0.744 OA
ENDBRANCH  91  94
ENDBRANCH  64  87
ENDBRANCH  38  39
ENDBRANCH  30  33
ENDBRANCH  28  29
ENDBRANCH  27  28
ENDBRANCH   1  27
TORSDOF 17
