REMARK SMILES CC/C=C/C/C=C/C/C=C/C/C=C/CC/C=C/COCC(=O)NCCCCCCNC(=O)c1ccc(-c2c3nc(c(-c4cccc(S(=O)(=O)[O-])c4F)c4ccc([nH]4)c(-c4cccc(S(=O)(=O)[O-])c4F)c4nc(c(-c5cccc(S(=O)(=O)[O-])c5F)c5ccc2[nH]5)C=C4)C=C3)cc1
REMARK SMILES IDX 20 1 19 2 18 3 17 4 16 5 15 6 14 7 13 8 12 9 11 10 10 11
REMARK SMILES IDX 9 12 8 13 7 14 6 15 5 16 4 17 3 18 2 19 1 20 21 21 22 22
REMARK SMILES IDX 23 23 24 25 25 26 26 27 27 28 28 29 29 30 30 31 31 32 32 34
REMARK SMILES IDX 33 35 34 36 95 37 35 38 94 39 36 40 37 41 38 42 88 43 39 44
REMARK SMILES IDX 93 45 87 46 89 47 40 48 92 49 86 50 85 51 41 53 73 54 53 55
REMARK SMILES IDX 72 56 54 57 57 58 71 59 90 60 55 61 56 62 70 64 91 65 58 66
REMARK SMILES IDX 42 67 43 68 51 69 44 70 46 71 52 72 45 73 47 74 48 75 49 76
REMARK SMILES IDX 50 77 74 78 75 79 83 80 76 81 78 82 84 83 77 84 79 85 80 86
REMARK SMILES IDX 81 87 82 88 59 89 60 90 68 91 61 92 63 93 69 94 62 95 64 96
REMARK SMILES IDX 65 97 66 98 67 99
REMARK H PARENT 23 24 30 33 89 52 57 63
REMARK Flexibility Score: inf
ROOT
ATOM      1  C   UNL     1      -9.940  13.462  -0.837  1.00  0.00     0.260 C 
ENDROOT
BRANCH   1   2
ATOM      2  O   UNL     1      -9.433  14.784  -0.695  1.00  0.00    -0.368 OA
BRANCH   2   3
ATOM      3  C   UNL     1      -8.011  14.876  -0.755  1.00  0.00     0.188 C 
BRANCH   3   4
ATOM      4  C   UNL     1      -7.404  14.166   0.414  1.00  0.00    -0.003 C 
ATOM      5  C   UNL     1      -6.608  13.095   0.282  1.00  0.00    -0.029 C 
BRANCH   5   6
ATOM      6  C   UNL     1      -6.127  12.249   1.426  1.00  0.00     0.031 C 
BRANCH   6   7
ATOM      7  C   UNL     1      -6.715  10.828   1.388  1.00  0.00     0.031 C 
BRANCH   7   8
ATOM      8  C   UNL     1      -6.266  10.039   0.187  1.00  0.00    -0.031 C 
ATOM      9  C   UNL     1      -5.455   8.971   0.240  1.00  0.00    -0.027 C 
BRANCH   9  10
ATOM     10  C   UNL     1      -4.972   8.233  -0.975  1.00  0.00     0.054 C 
BRANCH  10  11
ATOM     11  C   UNL     1      -3.471   8.230  -1.021  1.00  0.00    -0.027 C 
ATOM     12  C   UNL     1      -2.719   7.117  -1.026  1.00  0.00    -0.027 C 
BRANCH  12  13
ATOM     13  C   UNL     1      -1.219   7.114  -1.025  1.00  0.00     0.054 C 
BRANCH  13  14
ATOM     14  C   UNL     1      -0.695   6.399   0.188  1.00  0.00    -0.027 C 
ATOM     15  C   UNL     1       0.077   5.301   0.141  1.00  0.00    -0.027 C 
BRANCH  15  16
ATOM     16  C   UNL     1       0.575   4.569   1.353  1.00  0.00     0.054 C 
BRANCH  16  17
ATOM     17  C   UNL     1       0.103   3.143   1.347  1.00  0.00    -0.027 C 
ATOM     18  C   UNL     1       0.919   2.078   1.324  1.00  0.00    -0.031 C 
BRANCH  18  19
ATOM     19  C   UNL     1       0.439   0.656   1.305  1.00  0.00     0.023 C 
ATOM     20  C   UNL     1       0.925  -0.072   0.060  1.00  0.00     0.008 C 
ENDBRANCH  18  19
ENDBRANCH  16  17
ENDBRANCH  15  16
ENDBRANCH  13  14
ENDBRANCH  12  13
ENDBRANCH  10  11
ENDBRANCH   9  10
ENDBRANCH   7   8
ENDBRANCH   6   7
ENDBRANCH   5   6
ENDBRANCH   3   4
ENDBRANCH   2   3
ENDBRANCH   1   2
BRANCH   1  21
ATOM     21  C   UNL     1      -9.584  12.698  -2.119  1.00  0.00     0.246 C 
ATOM     22  O   UNL     1      -8.951  11.640  -2.098  1.00  0.00    -0.272 OA
ATOM     23  N   UNL     1     -10.006  13.195  -3.317  1.00  0.00    -0.354 N 
ATOM     24  H   UNL     1      -9.827  12.634  -4.106  1.00  0.00     0.163 HD
BRANCH  23  25
ATOM     25  C   UNL     1     -10.687  14.451  -3.571  1.00  0.00     0.116 C 
BRANCH  25  26
ATOM     26  C   UNL     1      -9.806  15.400  -4.383  1.00  0.00     0.021 C 
BRANCH  26  27
ATOM     27  C   UNL     1      -9.452  14.886  -5.785  1.00  0.00     0.002 C 
BRANCH  27  28
ATOM     28  C   UNL     1     -10.652  14.521  -6.665  1.00  0.00     0.002 C 
BRANCH  28  29
ATOM     29  C   UNL     1     -11.674  15.642  -6.865  1.00  0.00     0.021 C 
BRANCH  29  30
ATOM     30  C   UNL     1     -11.111  16.910  -7.498  1.00  0.00     0.116 C 
BRANCH  30  31
ATOM     31  N   UNL     1     -10.612  16.676  -8.845  1.00  0.00    -0.352 N 
ATOM     32  C   UNL     1     -10.917  17.334 -10.010  1.00  0.00     0.251 C 
ATOM     33  H   UNL     1      -9.963  15.941  -8.933  1.00  0.00     0.163 HD
ATOM     34  O   UNL     1     -10.543  16.877 -11.089  1.00  0.00    -0.269 OA
BRANCH  32  35
ATOM     35  C   UNL     1     -11.711  18.580  -9.967  1.00  0.00     0.039 A 
ATOM     36  C   UNL     1     -12.753  18.751 -10.882  1.00  0.00     0.014 A 
ATOM     37  C   UNL     1     -11.432  19.576  -9.026  1.00  0.00     0.014 A 
ATOM     38  C   UNL     1     -13.553  19.894 -10.814  1.00  0.00     0.010 A 
ATOM     39  C   UNL     1     -12.278  20.675  -8.910  1.00  0.00     0.010 A 
ATOM     40  C   UNL     1     -13.345  20.850  -9.805  1.00  0.00    -0.014 A 
BRANCH  40  41
ATOM     41  C   UNL     1     -14.244  22.025  -9.661  1.00  0.00     0.031 A 
ATOM     42  C   UNL     1     -13.703  23.422  -9.805  1.00  0.00     0.074 A 
ATOM     43  C   UNL     1     -15.534  21.835  -9.317  1.00  0.00     0.049 A 
ATOM     44  N   UNL     1     -14.325  24.564  -9.667  1.00  0.00    -0.248 NA
ATOM     45  C   UNL     1     -12.271  23.556 -10.120  1.00  0.00     0.031 C 
ATOM     46  C   UNL     1     -16.160  20.535  -9.070  1.00  0.00     0.029 A 
ATOM     47  N   UNL     1     -16.543  22.737  -9.090  1.00  0.00    -0.354 N 
ATOM     48  C   UNL     1     -13.360  25.548  -9.842  1.00  0.00     0.074 A 
ATOM     49  C   UNL     1     -12.102  24.869 -10.064  1.00  0.00     0.031 C 
ATOM     50  C   UNL     1     -17.445  20.722  -8.731  1.00  0.00     0.029 A 
ATOM     51  C   UNL     1     -17.727  22.154  -8.701  1.00  0.00     0.049 A 
ATOM     52  H   UNL     1     -16.431  23.710  -9.195  1.00  0.00     0.167 HD
ATOM     53  C   UNL     1     -13.509  26.895  -9.843  1.00  0.00     0.034 A 
ATOM     54  C   UNL     1     -18.903  22.708  -8.345  1.00  0.00     0.034 A 
ATOM     55  C   UNL     1     -14.767  27.566  -9.656  1.00  0.00     0.049 A 
ATOM     56  C   UNL     1     -19.049  24.204  -8.385  1.00  0.00     0.074 A 
ATOM     57  C   UNL     1     -15.037  28.921  -9.731  1.00  0.00     0.029 A 
ATOM     58  N   UNL     1     -15.962  26.938  -9.341  1.00  0.00    -0.354 N 
ATOM     59  N   UNL     1     -18.162  25.112  -8.711  1.00  0.00    -0.248 NA
ATOM     60  C   UNL     1     -20.370  24.753  -8.042  1.00  0.00     0.031 C 
ATOM     61  C   UNL     1     -16.387  29.116  -9.424  1.00  0.00     0.029 A 
ATOM     62  C   UNL     1     -16.968  27.878  -9.201  1.00  0.00     0.049 A 
ATOM     63  H   UNL     1     -16.077  25.966  -9.232  1.00  0.00     0.167 HD
ATOM     64  C   UNL     1     -18.824  26.333  -8.651  1.00  0.00     0.074 A 
ATOM     65  C   UNL     1     -20.193  26.046  -8.276  1.00  0.00     0.031 C 
ATOM     66  C   UNL     1     -18.339  27.579  -8.875  1.00  0.00     0.034 A 
BRANCH  53  67
ATOM     67  C   UNL     1     -12.284  27.738 -10.092  1.00  0.00     0.023 A 
ATOM     68  C   UNL     1     -11.697  27.757 -11.374  1.00  0.00     0.012 A 
ATOM     69  C   UNL     1     -11.755  28.560  -9.079  1.00  0.00     0.148 A 
ATOM     70  C   UNL     1     -10.582  28.553 -11.634  1.00  0.00     0.002 A 
ATOM     71  C   UNL     1     -10.673  29.387  -9.358  1.00  0.00     0.091 A 
ATOM     72  F   UNL     1     -12.314  28.515  -7.861  1.00  0.00    -0.205 F 
ATOM     73  C   UNL     1     -10.078  29.375 -10.630  1.00  0.00     0.022 A 
BRANCH  71  74
ATOM     74  S   UNL     1     -10.002  30.545  -8.160  1.00  0.00     0.127 S 
ATOM     75  O   UNL     1      -8.697  29.950  -7.874  1.00  0.00    -0.237 OA
ATOM     76  O   UNL     1      -9.949  31.788  -8.931  1.00  0.00    -0.237 OA
ATOM     77  O   UNL     1     -10.938  30.559  -7.045  1.00  0.00    -0.744 OA
ENDBRANCH  71  74
ENDBRANCH  53  67
BRANCH  54  78
ATOM     78  C   UNL     1     -20.053  21.837  -7.968  1.00  0.00     0.023 A 
ATOM     79  C   UNL     1     -21.173  21.756  -8.819  1.00  0.00     0.012 A 
ATOM     80  C   UNL     1     -20.035  21.077  -6.783  1.00  0.00     0.148 A 
ATOM     81  C   UNL     1     -22.269  20.962  -8.479  1.00  0.00     0.002 A 
ATOM     82  C   UNL     1     -21.104  20.244  -6.478  1.00  0.00     0.091 A 
ATOM     83  F   UNL     1     -18.964  21.176  -5.982  1.00  0.00    -0.205 F 
ATOM     84  C   UNL     1     -22.231  20.199  -7.314  1.00  0.00     0.022 A 
BRANCH  82  85
ATOM     85  S   UNL     1     -21.085  19.127  -5.072  1.00  0.00     0.127 S 
ATOM     86  O   UNL     1     -22.098  19.722  -4.204  1.00  0.00    -0.237 OA
ATOM     87  O   UNL     1     -21.471  17.858  -5.690  1.00  0.00    -0.237 OA
ATOM     88  O   UNL     1     -19.721  19.156  -4.563  1.00  0.00    -0.744 OA
ENDBRANCH  82  85
ENDBRANCH  54  78
BRANCH  66  89
ATOM     89  C   UNL     1     -19.300  28.735  -8.768  1.00  0.00     0.023 A 
ATOM     90  C   UNL     1     -19.787  29.135  -7.508  1.00  0.00     0.012 A 
ATOM     91  C   UNL     1     -19.663  29.469  -9.915  1.00  0.00     0.148 A 
ATOM     92  C   UNL     1     -20.649  30.226  -7.396  1.00  0.00     0.002 A 
ATOM     93  C   UNL     1     -20.478  30.587  -9.788  1.00  0.00     0.091 A 
ATOM     94  F   UNL     1     -19.203  29.062 -11.106  1.00  0.00    -0.205 F 
ATOM     95  C   UNL     1     -20.984  30.959  -8.532  1.00  0.00     0.022 A 
BRANCH  93  96
ATOM     96  S   UNL     1     -20.881  31.649 -11.180  1.00  0.00     0.127 S 
ATOM     97  O   UNL     1     -22.300  31.359 -11.375  1.00  0.00    -0.237 OA
ATOM     98  O   UNL     1     -20.598  32.981 -10.645  1.00  0.00    -0.237 OA
ATOM     99  O   UNL     1     -20.006  31.236 -12.269  1.00  0.00    -0.744 OA
ENDBRANCH  93  96
ENDBRANCH  66  89
ENDBRANCH  40  41
ENDBRANCH  32  35
ENDBRANCH  30  31
ENDBRANCH  29  30
ENDBRANCH  28  29
ENDBRANCH  27  28
ENDBRANCH  26  27
ENDBRANCH  25  26
ENDBRANCH  23  25
ENDBRANCH   1  21
TORSDOF 29
