REMARK SMILES CCOc1ccc2c(c1)=N[C@H](SCC(=O)NCCCCCCNC(=O)c1ccc(-c3c4nc(c(-c5cccc(S(=O)(=O)[O-])c5F)c5ccc([nH]5)c(-c5cccc(S(=O)(=O)[O-])c5F)c5nc(c(-c6cccc(S(=O)(=O)[O-])c6F)c6ccc3[nH]6)C=C5)C=C4)cc1)N=2
REMARK SMILES IDX 19 1 18 2 17 3 16 4 14 5 15 6 13 8 12 9 11 10 4 11 5 12 9 13
REMARK SMILES IDX 6 14 8 15 7 16 10 17 89 18 3 19 2 20 1 21 20 22 21 23 22 24
REMARK SMILES IDX 23 25 24 26 25 28 26 29 27 30 88 31 28 32 87 33 29 34 30 35
REMARK SMILES IDX 31 36 81 37 32 38 86 39 80 40 82 41 33 42 85 43 79 44 78 45
REMARK SMILES IDX 34 47 66 48 46 49 65 50 47 51 50 52 64 53 83 54 48 55 49 56
REMARK SMILES IDX 63 58 84 59 51 60 35 61 36 62 44 63 37 64 39 65 45 66 38 67
REMARK SMILES IDX 40 68 41 69 42 70 43 71 67 72 68 73 76 74 69 75 71 76 77 77
REMARK SMILES IDX 70 78 72 79 73 80 74 81 75 82 52 83 53 84 61 85 54 86 56 87
REMARK SMILES IDX 62 88 55 89 57 90 58 91 59 92 60 93
REMARK H PARENT 16 7 23 27 82 46 50 57
REMARK Flexibility Score: inf
ROOT
ATOM      1  C   UNL     1       7.003   9.378  -3.807  1.00  0.00     0.002 C 
ENDROOT
BRANCH   1   2
ATOM      2  C   UNL     1       6.761   8.063  -4.560  1.00  0.00     0.021 C 
BRANCH   2   3
ATOM      3  C   UNL     1       8.038   7.385  -5.067  1.00  0.00     0.116 C 
BRANCH   3   4
ATOM      4  N   UNL     1       8.842   6.899  -3.958  1.00  0.00    -0.355 N 
ATOM      5  C   UNL     1       8.988   5.627  -3.487  1.00  0.00     0.230 C 
ATOM      6  O   UNL     1       9.618   5.465  -2.439  1.00  0.00    -0.274 OA
ATOM      7  H   UNL     1       9.356   7.588  -3.477  1.00  0.00     0.163 HD
BRANCH   5   8
ATOM      8  C   UNL     1       8.456   4.442  -4.273  1.00  0.00     0.173 C 
BRANCH   8   9
ATOM      9  S   UNL     1       6.649   4.398  -4.382  1.00  0.00    -0.102 SA
BRANCH   9  10
ATOM     10  C   UNL     1       6.230   4.231  -2.598  1.00  0.00     0.281 C 
ATOM     11  C   UNL     1       2.473   2.035  -1.485  1.00  0.00     0.121 A 
ATOM     12  C   UNL     1       3.432   0.950  -1.369  1.00  0.00     0.049 A 
ATOM     13  C   UNL     1       2.823   3.288  -1.806  1.00  0.00     0.076 A 
ATOM     14  C   UNL     1       4.753   1.112  -1.522  1.00  0.00     0.034 A 
ATOM     15  C   UNL     1       4.245   3.546  -2.035  1.00  0.00     0.090 A 
ATOM     16  C   UNL     1       5.221   2.448  -1.893  1.00  0.00     0.087 A 
ATOM     17  N   UNL     1       4.817   4.651  -2.358  1.00  0.00    -0.246 NA
ATOM     18  N   UNL     1       6.426   2.833  -2.125  1.00  0.00    -0.246 NA
BRANCH  11  19
ATOM     19  O   UNL     1       1.149   1.668  -1.403  1.00  0.00    -0.494 OA
BRANCH  19  20
ATOM     20  C   UNL     1       0.654   1.583  -0.063  1.00  0.00     0.226 C 
ATOM     21  C   UNL     1       0.601   0.133   0.386  1.00  0.00     0.049 C 
ENDBRANCH  19  20
ENDBRANCH  11  19
ENDBRANCH   9  10
ENDBRANCH   8   9
ENDBRANCH   5   8
ENDBRANCH   3   4
ENDBRANCH   2   3
ENDBRANCH   1   2
BRANCH   1  22
ATOM     22  C   UNL     1       7.706  10.476  -4.612  1.00  0.00     0.002 C 
BRANCH  22  23
ATOM     23  C   UNL     1       7.047  10.831  -5.945  1.00  0.00     0.021 C 
BRANCH  23  24
ATOM     24  C   UNL     1       5.604  11.310  -5.840  1.00  0.00     0.116 C 
BRANCH  24  25
ATOM     25  N   UNL     1       5.486  12.596  -5.168  1.00  0.00    -0.352 N 
ATOM     26  C   UNL     1       4.785  13.712  -5.563  1.00  0.00     0.251 C 
ATOM     27  H   UNL     1       5.973  12.677  -4.316  1.00  0.00     0.163 HD
ATOM     28  O   UNL     1       4.905  14.768  -4.947  1.00  0.00    -0.269 OA
BRANCH  26  29
ATOM     29  C   UNL     1       3.918  13.635  -6.759  1.00  0.00     0.039 A 
ATOM     30  C   UNL     1       3.026  12.572  -6.917  1.00  0.00     0.014 A 
ATOM     31  C   UNL     1       4.041  14.605  -7.757  1.00  0.00     0.014 A 
ATOM     32  C   UNL     1       2.385  12.388  -8.139  1.00  0.00     0.010 A 
ATOM     33  C   UNL     1       3.337  14.458  -8.956  1.00  0.00     0.010 A 
ATOM     34  C   UNL     1       2.546  13.319  -9.178  1.00  0.00    -0.014 A 
BRANCH  34  35
ATOM     35  C   UNL     1       1.891  13.071 -10.489  1.00  0.00     0.031 A 
ATOM     36  C   UNL     1       2.711  12.822 -11.729  1.00  0.00     0.074 A 
ATOM     37  C   UNL     1       0.546  13.020 -10.555  1.00  0.00     0.049 A 
ATOM     38  N   UNL     1       2.301  12.554 -12.943  1.00  0.00    -0.248 NA
ATOM     39  C   UNL     1       4.177  12.882 -11.596  1.00  0.00     0.031 C 
ATOM     40  C   UNL     1      -0.360  13.259  -9.430  1.00  0.00     0.029 A 
ATOM     41  N   UNL     1      -0.292  12.735 -11.602  1.00  0.00    -0.354 N 
ATOM     42  C   UNL     1       3.447  12.455 -13.722  1.00  0.00     0.074 A 
ATOM     43  C   UNL     1       4.575  12.692 -12.848  1.00  0.00     0.031 C 
ATOM     44  C   UNL     1      -1.624  13.068  -9.835  1.00  0.00     0.029 A 
ATOM     45  C   UNL     1      -1.623  12.738 -11.257  1.00  0.00     0.049 A 
ATOM     46  H   UNL     1       0.028  12.547 -12.514  1.00  0.00     0.167 HD
ATOM     47  C   UNL     1       3.553  12.168 -15.041  1.00  0.00     0.034 A 
ATOM     48  C   UNL     1      -2.723  12.503 -11.998  1.00  0.00     0.034 A 
ATOM     49  C   UNL     1       2.440  11.867 -15.899  1.00  0.00     0.049 A 
ATOM     50  C   UNL     1      -2.575  12.165 -13.453  1.00  0.00     0.074 A 
ATOM     51  C   UNL     1       2.462  11.516 -17.238  1.00  0.00     0.029 A 
ATOM     52  N   UNL     1       1.113  11.869 -15.506  1.00  0.00    -0.354 N 
ATOM     53  N   UNL     1      -1.477  12.002 -14.149  1.00  0.00    -0.248 NA
ATOM     54  C   UNL     1      -3.812  11.968 -14.222  1.00  0.00     0.031 C 
ATOM     55  C   UNL     1       1.145  11.304 -17.655  1.00  0.00     0.029 A 
ATOM     56  C   UNL     1       0.305  11.524 -16.576  1.00  0.00     0.049 A 
ATOM     57  H   UNL     1       0.791  12.084 -14.601  1.00  0.00     0.167 HD
ATOM     58  C   UNL     1      -1.888  11.674 -15.434  1.00  0.00     0.074 A 
ATOM     59  C   UNL     1      -3.336  11.639 -15.417  1.00  0.00     0.031 C 
ATOM     60  C   UNL     1      -1.131  11.445 -16.534  1.00  0.00     0.034 A 
BRANCH  47  61
ATOM     61  C   UNL     1       4.928  12.101 -15.646  1.00  0.00     0.023 A 
ATOM     62  C   UNL     1       5.688  10.926 -15.488  1.00  0.00     0.012 A 
ATOM     63  C   UNL     1       5.415  13.141 -16.461  1.00  0.00     0.148 A 
ATOM     64  C   UNL     1       6.918  10.787 -16.130  1.00  0.00     0.002 A 
ATOM     65  C   UNL     1       6.629  12.985 -17.119  1.00  0.00     0.091 A 
ATOM     66  F   UNL     1       4.675  14.252 -16.586  1.00  0.00    -0.205 F 
ATOM     67  C   UNL     1       7.383  11.810 -16.952  1.00  0.00     0.022 A 
BRANCH  65  68
ATOM     68  S   UNL     1       7.295  14.217 -18.244  1.00  0.00     0.127 S 
ATOM     69  O   UNL     1       8.504  14.639 -17.536  1.00  0.00    -0.237 OA
ATOM     70  O   UNL     1       7.540  13.429 -19.451  1.00  0.00    -0.237 OA
ATOM     71  O   UNL     1       6.268  15.240 -18.378  1.00  0.00    -0.744 OA
ENDBRANCH  65  68
ENDBRANCH  47  61
BRANCH  48  72
ATOM     72  C   UNL     1      -4.059  12.525 -11.343  1.00  0.00     0.023 A 
ATOM     73  C   UNL     1      -4.717  11.307 -11.088  1.00  0.00     0.012 A 
ATOM     74  C   UNL     1      -4.637  13.731 -10.903  1.00  0.00     0.148 A 
ATOM     75  C   UNL     1      -5.935  11.291 -10.407  1.00  0.00     0.002 A 
ATOM     76  C   UNL     1      -5.826  13.703 -10.187  1.00  0.00     0.091 A 
ATOM     77  F   UNL     1      -3.993  14.876 -11.170  1.00  0.00    -0.205 F 
ATOM     78  C   UNL     1      -6.482  12.486  -9.946  1.00  0.00     0.022 A 
BRANCH  76  79
ATOM     79  S   UNL     1      -6.545  15.176  -9.452  1.00  0.00     0.127 S 
ATOM     80  O   UNL     1      -7.761  15.342 -10.244  1.00  0.00    -0.237 OA
ATOM     81  O   UNL     1      -6.763  14.747  -8.070  1.00  0.00    -0.237 OA
ATOM     82  O   UNL     1      -5.544  16.223  -9.607  1.00  0.00    -0.744 OA
ENDBRANCH  76  79
ENDBRANCH  48  72
BRANCH  60  83
ATOM     83  C   UNL     1      -1.836  11.135 -17.823  1.00  0.00     0.023 A 
ATOM     84  C   UNL     1      -2.369  12.194 -18.583  1.00  0.00     0.012 A 
ATOM     85  C   UNL     1      -1.861   9.825 -18.338  1.00  0.00     0.148 A 
ATOM     86  C   UNL     1      -2.923  11.953 -19.838  1.00  0.00     0.002 A 
ATOM     87  C   UNL     1      -2.387   9.596 -19.604  1.00  0.00     0.091 A 
ATOM     88  F   UNL     1      -1.354   8.835 -17.589  1.00  0.00    -0.205 F 
ATOM     89  C   UNL     1      -2.921  10.658 -20.353  1.00  0.00     0.022 A 
BRANCH  87  90
ATOM     90  S   UNL     1      -2.365   7.978 -20.384  1.00  0.00     0.127 S 
ATOM     91  O   UNL     1      -3.789   7.646 -20.418  1.00  0.00    -0.237 OA
ATOM     92  O   UNL     1      -1.775   8.273 -21.690  1.00  0.00    -0.237 OA
ATOM     93  O   UNL     1      -1.550   7.128 -19.527  1.00  0.00    -0.744 OA
ENDBRANCH  87  90
ENDBRANCH  60  83
ENDBRANCH  34  35
ENDBRANCH  26  29
ENDBRANCH  24  25
ENDBRANCH  23  24
ENDBRANCH  22  23
ENDBRANCH   1  22
TORSDOF 20
