REMARK SMILES CN(CC(=O)NCCCCCCNC(=O)c1ccc(-c2c3nc(c(-c4cccc(S(=O)(=O)[O-])c4F)c4ccc([nH]4)c(-c4cccc(S(=O)(=O)[O-])c4F)c4nc(c(-c5cccc(S(=O)(=O)[O-])c5F)c5ccc2[nH]5)C=C4)C=C3)cc1)C(=O)N[C@@H]1C[C@H]1c1ccccc1
REMARK SMILES IDX 9 1 8 2 7 3 6 4 4 5 5 6 3 8 2 9 1 10 79 11 80 12 81 13 82 15
REMARK SMILES IDX 83 16 84 17 85 18 86 19 90 20 87 21 89 22 88 23 10 24 11 25
REMARK SMILES IDX 12 26 13 27 14 28 15 30 16 31 17 32 78 33 18 34 77 35 19 36
REMARK SMILES IDX 20 37 21 38 71 39 22 40 76 41 70 42 72 43 23 44 75 45 69 46
REMARK SMILES IDX 68 47 24 49 56 50 36 51 55 52 37 53 40 54 54 55 73 56 38 57
REMARK SMILES IDX 39 58 53 60 74 61 41 62 25 63 26 64 34 65 27 66 29 67 35 68
REMARK SMILES IDX 28 69 30 70 31 71 32 72 33 73 57 74 58 75 66 76 59 77 61 78
REMARK SMILES IDX 67 79 60 80 62 81 63 82 64 83 65 84 42 85 43 86 51 87 44 88
REMARK SMILES IDX 46 89 52 90 45 91 47 92 48 93 49 94 50 95
REMARK H PARENT 6 7 81 14 13 29 72 48 40 59
REMARK Flexibility Score: inf
ROOT
ATOM      1  C   UNL     1      -3.524   2.450  -0.636  1.00  0.00     0.002 C 
ENDROOT
BRANCH   1   2
ATOM      2  C   UNL     1      -2.141   1.896  -0.269  1.00  0.00     0.021 C 
BRANCH   2   3
ATOM      3  C   UNL     1      -2.138   0.418   0.101  1.00  0.00     0.116 C 
BRANCH   3   4
ATOM      4  N   UNL     1      -2.542  -0.425  -0.999  1.00  0.00    -0.355 N 
ATOM      5  C   UNL     1      -1.839  -1.420  -1.605  1.00  0.00     0.239 C 
ATOM      6  O   UNL     1      -2.485  -2.253  -2.249  1.00  0.00    -0.273 OA
ATOM      7  H   UNL     1      -3.443  -0.257  -1.359  1.00  0.00     0.163 HD
BRANCH   5   8
ATOM      8  C   UNL     1      -0.336  -1.600  -1.353  1.00  0.00     0.220 C 
BRANCH   8   9
ATOM      9  N   UNL     1       0.528  -0.424  -1.509  1.00  0.00    -0.319 N 
ATOM     10  C   UNL     1       1.249   0.025  -0.320  1.00  0.00     0.149 C 
BRANCH   9  11
ATOM     11  C   UNL     1       0.907   0.188  -2.676  1.00  0.00     0.317 C 
ATOM     12  O   UNL     1       1.709   1.130  -2.674  1.00  0.00    -0.249 OA
ATOM     13  N   UNL     1       0.459  -0.183  -3.896  1.00  0.00    -0.335 N 
ATOM     14  H   UNL     1       0.884   0.323  -4.626  1.00  0.00     0.165 HD
BRANCH  13  15
ATOM     15  C   UNL     1      -0.485  -1.135  -4.367  1.00  0.00     0.092 C 
ATOM     16  C   UNL     1      -0.169  -2.599  -4.458  1.00  0.00     0.036 C 
ATOM     17  C   UNL     1      -0.272  -1.799  -5.724  1.00  0.00     0.044 C 
BRANCH  17  18
ATOM     18  C   UNL     1      -1.440  -1.973  -6.671  1.00  0.00    -0.043 A 
ATOM     19  C   UNL     1      -2.147  -3.182  -6.788  1.00  0.00     0.004 A 
ATOM     20  C   UNL     1      -1.832  -0.919  -7.513  1.00  0.00     0.004 A 
ATOM     21  C   UNL     1      -3.200  -3.332  -7.695  1.00  0.00     0.000 A 
ATOM     22  C   UNL     1      -2.877  -1.065  -8.431  1.00  0.00     0.000 A 
ATOM     23  C   UNL     1      -3.561  -2.273  -8.521  1.00  0.00     0.000 A 
ENDBRANCH  17  18
ENDBRANCH  13  15
ENDBRANCH   9  11
ENDBRANCH   8   9
ENDBRANCH   5   8
ENDBRANCH   3   4
ENDBRANCH   2   3
ENDBRANCH   1   2
BRANCH   1  24
ATOM     24  C   UNL     1      -4.643   2.133   0.362  1.00  0.00     0.002 C 
BRANCH  24  25
ATOM     25  C   UNL     1      -4.349   2.515   1.815  1.00  0.00     0.021 C 
BRANCH  25  26
ATOM     26  C   UNL     1      -4.045   3.990   2.032  1.00  0.00     0.116 C 
BRANCH  26  27
ATOM     27  N   UNL     1      -5.180   4.831   1.691  1.00  0.00    -0.352 N 
ATOM     28  C   UNL     1      -5.804   5.784   2.453  1.00  0.00     0.251 C 
ATOM     29  H   UNL     1      -5.551   4.698   0.789  1.00  0.00     0.163 HD
ATOM     30  O   UNL     1      -6.885   6.248   2.089  1.00  0.00    -0.269 OA
BRANCH  28  31
ATOM     31  C   UNL     1      -5.185   6.243   3.714  1.00  0.00     0.039 A 
ATOM     32  C   UNL     1      -5.994   6.420   4.839  1.00  0.00     0.014 A 
ATOM     33  C   UNL     1      -3.815   6.512   3.785  1.00  0.00     0.014 A 
ATOM     34  C   UNL     1      -5.421   6.832   6.043  1.00  0.00     0.010 A 
ATOM     35  C   UNL     1      -3.234   6.841   5.006  1.00  0.00     0.010 A 
ATOM     36  C   UNL     1      -4.032   7.026   6.144  1.00  0.00    -0.014 A 
BRANCH  36  37
ATOM     37  C   UNL     1      -3.409   7.433   7.429  1.00  0.00     0.031 A 
ATOM     38  C   UNL     1      -2.681   8.748   7.537  1.00  0.00     0.074 A 
ATOM     39  C   UNL     1      -3.440   6.590   8.481  1.00  0.00     0.049 A 
ATOM     40  N   UNL     1      -2.064   9.264   8.569  1.00  0.00    -0.248 NA
ATOM     41  C   UNL     1      -2.612   9.581   6.324  1.00  0.00     0.031 C 
ATOM     42  C   UNL     1      -4.036   5.252   8.477  1.00  0.00     0.029 A 
ATOM     43  N   UNL     1      -2.937   6.723   9.752  1.00  0.00    -0.354 N 
ATOM     44  C   UNL     1      -1.498  10.452   8.120  1.00  0.00     0.074 A 
ATOM     45  C   UNL     1      -1.824  10.572   6.717  1.00  0.00     0.031 C 
ATOM     46  C   UNL     1      -3.867   4.690   9.685  1.00  0.00     0.029 A 
ATOM     47  C   UNL     1      -3.127   5.612  10.540  1.00  0.00     0.049 A 
ATOM     48  H   UNL     1      -2.482   7.537  10.068  1.00  0.00     0.167 HD
ATOM     49  C   UNL     1      -0.791  11.370   8.819  1.00  0.00     0.034 A 
ATOM     50  C   UNL     1      -2.741   5.361  11.807  1.00  0.00     0.034 A 
ATOM     51  C   UNL     1      -0.516  11.274  10.226  1.00  0.00     0.049 A 
ATOM     52  C   UNL     1      -2.014   6.433  12.575  1.00  0.00     0.074 A 
ATOM     53  C   UNL     1       0.091  12.208  11.048  1.00  0.00     0.029 A 
ATOM     54  N   UNL     1      -0.814  10.178  11.018  1.00  0.00    -0.354 N 
ATOM     55  N   UNL     1      -1.652   7.629  12.181  1.00  0.00    -0.248 NA
ATOM     56  C   UNL     1      -1.683   6.137  13.976  1.00  0.00     0.031 C 
ATOM     57  C   UNL     1       0.196  11.660  12.329  1.00  0.00     0.029 A 
ATOM     58  C   UNL     1      -0.388  10.404  12.316  1.00  0.00     0.049 A 
ATOM     59  H   UNL     1      -1.262   9.359  10.705  1.00  0.00     0.167 HD
ATOM     60  C   UNL     1      -1.091   8.243  13.296  1.00  0.00     0.074 A 
ATOM     61  C   UNL     1      -1.184   7.294  14.386  1.00  0.00     0.031 C 
ATOM     62  C   UNL     1      -0.538   9.475  13.405  1.00  0.00     0.034 A 
BRANCH  49  63
ATOM     63  C   UNL     1      -0.289  12.588   8.088  1.00  0.00     0.023 A 
ATOM     64  C   UNL     1      -1.194  13.588   7.681  1.00  0.00     0.012 A 
ATOM     65  C   UNL     1       1.093  12.785   7.894  1.00  0.00     0.148 A 
ATOM     66  C   UNL     1      -0.735  14.755   7.070  1.00  0.00     0.002 A 
ATOM     67  C   UNL     1       1.547  13.971   7.330  1.00  0.00     0.091 A 
ATOM     68  F   UNL     1       1.935  11.812   8.271  1.00  0.00    -0.205 F 
ATOM     69  C   UNL     1       0.634  14.952   6.908  1.00  0.00     0.022 A 
BRANCH  67  70
ATOM     70  S   UNL     1       3.292  14.359   7.159  1.00  0.00     0.127 S 
ATOM     71  O   UNL     1       3.451  14.365   5.706  1.00  0.00    -0.237 OA
ATOM     72  O   UNL     1       3.374  15.677   7.788  1.00  0.00    -0.237 OA
ATOM     73  O   UNL     1       4.011  13.303   7.858  1.00  0.00    -0.744 OA
ENDBRANCH  67  70
ENDBRANCH  49  63
BRANCH  50  74
ATOM     74  C   UNL     1      -3.070   4.057  12.451  1.00  0.00     0.023 A 
ATOM     75  C   UNL     1      -3.986   4.018  13.521  1.00  0.00     0.012 A 
ATOM     76  C   UNL     1      -2.473   2.859  12.017  1.00  0.00     0.148 A 
ATOM     77  C   UNL     1      -4.260   2.819  14.181  1.00  0.00     0.002 A 
ATOM     78  C   UNL     1      -2.797   1.658  12.637  1.00  0.00     0.091 A 
ATOM     79  F   UNL     1      -1.597   2.915  11.004  1.00  0.00    -0.205 F 
ATOM     80  C   UNL     1      -3.672   1.638  13.734  1.00  0.00     0.022 A 
BRANCH  78  81
ATOM     81  S   UNL     1      -2.190   0.078  12.038  1.00  0.00     0.127 S 
ATOM     82  O   UNL     1      -1.197  -0.266  13.053  1.00  0.00    -0.237 OA
ATOM     83  O   UNL     1      -3.403  -0.741  12.059  1.00  0.00    -0.237 OA
ATOM     84  O   UNL     1      -1.671   0.340  10.703  1.00  0.00    -0.744 OA
ENDBRANCH  78  81
ENDBRANCH  50  74
BRANCH  62  85
ATOM     85  C   UNL     1      -0.041   9.901  14.762  1.00  0.00     0.023 A 
ATOM     86  C   UNL     1       1.107   9.304  15.318  1.00  0.00     0.012 A 
ATOM     87  C   UNL     1      -0.687  10.940  15.463  1.00  0.00     0.148 A 
ATOM     88  C   UNL     1       1.577   9.701  16.569  1.00  0.00     0.002 A 
ATOM     89  C   UNL     1      -0.180  11.369  16.682  1.00  0.00     0.091 A 
ATOM     90  F   UNL     1      -1.790  11.485  14.927  1.00  0.00    -0.205 F 
ATOM     91  C   UNL     1       0.941  10.740  17.245  1.00  0.00     0.022 A 
BRANCH  89  92
ATOM     92  S   UNL     1      -0.874  12.768  17.570  1.00  0.00     0.127 S 
ATOM     93  O   UNL     1      -1.569  12.106  18.672  1.00  0.00    -0.237 OA
ATOM     94  O   UNL     1       0.324  13.511  17.963  1.00  0.00    -0.237 OA
ATOM     95  O   UNL     1      -1.728  13.463  16.616  1.00  0.00    -0.744 OA
ENDBRANCH  89  92
ENDBRANCH  62  85
ENDBRANCH  36  37
ENDBRANCH  28  31
ENDBRANCH  26  27
ENDBRANCH  25  26
ENDBRANCH  24  25
ENDBRANCH   1  24
TORSDOF 20
