REMARK SMILES O=C(Nc1cccc(C(=O)NCCCCCCNC(=O)c2ccc(-c3c4nc(c(-c5cccc(S(=O)(=O)[O-])c5F)c5ccc([nH]5)c(-c5cccc(S(=O)(=O)[O-])c5F)c5nc(c(-c6cccc(S(=O)(=O)[O-])c6F)c6ccc3[nH]6)C=C5)C=C4)cc2)c1)Nc1cc(Cl)c(Cl)cc1Cl
REMARK SMILES IDX 15 1 14 2 13 3 12 4 11 5 9 6 10 7 8 9 4 10 5 11 84 12 6 13
REMARK SMILES IDX 7 14 3 15 1 16 2 17 85 18 86 21 87 22 93 23 88 24 92 25
REMARK SMILES IDX 94 26 89 27 90 28 91 29 16 30 17 31 18 32 19 33 20 35 21 36
REMARK SMILES IDX 22 37 83 38 23 39 82 40 24 41 25 42 26 43 76 44 27 45 81 46
REMARK SMILES IDX 75 47 77 48 28 49 80 50 74 51 73 52 29 54 61 55 41 56 60 57
REMARK SMILES IDX 42 58 45 59 59 60 78 61 43 62 44 63 58 65 79 66 46 67 30 68
REMARK SMILES IDX 31 69 39 70 32 71 34 72 40 73 33 74 35 75 36 76 37 77 38 78
REMARK SMILES IDX 62 79 63 80 71 81 64 82 66 83 72 84 65 85 67 86 68 87 69 88
REMARK SMILES IDX 70 89 47 90 48 91 56 92 49 93 51 94 57 95 50 96 52 97 53 98
REMARK SMILES IDX 54 99 55 100
REMARK H PARENT 11 8 3 19 85 20 18 34 77 53 45 64
REMARK Flexibility Score: inf
ROOT
ATOM      1  C   UNL     1       4.651   1.107  -6.181  1.00  0.00     0.002 C 
ENDROOT
BRANCH   1   2
ATOM      2  C   UNL     1       5.054   2.204  -5.186  1.00  0.00     0.002 C 
BRANCH   2   3
ATOM      3  C   UNL     1       4.689   1.905  -3.725  1.00  0.00     0.021 C 
BRANCH   3   4
ATOM      4  C   UNL     1       5.375   0.645  -3.195  1.00  0.00     0.116 C 
BRANCH   4   5
ATOM      5  N   UNL     1       6.687   0.971  -2.671  1.00  0.00    -0.352 N 
ATOM      6  C   UNL     1       7.187   1.205  -1.419  1.00  0.00     0.251 C 
ATOM      7  O   UNL     1       8.381   1.509  -1.355  1.00  0.00    -0.269 OA
ATOM      8  H   UNL     1       7.373   1.039  -3.375  1.00  0.00     0.163 HD
BRANCH   6   9
ATOM      9  C   UNL     1       6.415   1.066  -0.146  1.00  0.00     0.041 A 
ATOM     10  C   UNL     1       4.408   0.698   1.186  1.00  0.00     0.043 A 
ATOM     11  C   UNL     1       5.162   0.733   2.358  1.00  0.00     0.026 A 
ATOM     12  C   UNL     1       5.028   0.949  -0.044  1.00  0.00     0.040 A 
ATOM     13  C   UNL     1       6.541   0.911   2.287  1.00  0.00     0.003 A 
ATOM     14  C   UNL     1       7.162   1.051   1.044  1.00  0.00     0.014 A 
BRANCH  10  15
ATOM     15  N   UNL     1       3.033   0.437   1.283  1.00  0.00    -0.308 N 
ATOM     16  O   UNL     1       0.967  -0.047   0.561  1.00  0.00    -0.248 OA
ATOM     17  C   UNL     1       2.176  -0.135   0.371  1.00  0.00     0.323 C 
ATOM     18  N   UNL     1       2.772  -0.924  -0.587  1.00  0.00    -0.306 N 
ATOM     19  H   UNL     1       2.617   0.704   2.135  1.00  0.00     0.171 HD
ATOM     20  H   UNL     1       3.747  -1.042  -0.530  1.00  0.00     0.171 HD
BRANCH  18  21
ATOM     21  C   UNL     1       2.101  -1.579  -1.648  1.00  0.00     0.063 A 
ATOM     22  C   UNL     1       2.556  -2.870  -1.959  1.00  0.00     0.049 A 
ATOM     23  C   UNL     1       1.062  -1.028  -2.420  1.00  0.00     0.066 A 
ATOM     24  C   UNL     1       1.947  -3.626  -2.969  1.00  0.00     0.061 A 
ATOM     25  C   UNL     1       0.442  -1.792  -3.419  1.00  0.00     0.044 A 
ATOM     26  Cl  UNL     1       0.654   0.654  -2.371  1.00  0.00    -0.082 Cl
ATOM     27  Cl  UNL     1       2.592  -5.199  -3.282  1.00  0.00    -0.083 Cl
ATOM     28  C   UNL     1       0.879  -3.090  -3.693  1.00  0.00     0.061 A 
ATOM     29  Cl  UNL     1       0.126  -3.941  -4.992  1.00  0.00    -0.083 Cl
ENDBRANCH  18  21
ENDBRANCH  10  15
ENDBRANCH   6   9
ENDBRANCH   4   5
ENDBRANCH   3   4
ENDBRANCH   2   3
ENDBRANCH   1   2
BRANCH   1  30
ATOM     30  C   UNL     1       3.173   0.707  -6.131  1.00  0.00     0.021 C 
BRANCH  30  31
ATOM     31  C   UNL     1       2.214   1.843  -6.468  1.00  0.00     0.116 C 
BRANCH  31  32
ATOM     32  N   UNL     1       2.423   2.323  -7.827  1.00  0.00    -0.352 N 
ATOM     33  C   UNL     1       1.539   2.370  -8.875  1.00  0.00     0.251 C 
ATOM     34  H   UNL     1       3.327   2.661  -8.021  1.00  0.00     0.163 HD
ATOM     35  O   UNL     1       1.950   2.553 -10.016  1.00  0.00    -0.269 OA
BRANCH  33  36
ATOM     36  C   UNL     1       0.094   2.202  -8.619  1.00  0.00     0.039 A 
ATOM     37  C   UNL     1      -0.660   1.400  -9.478  1.00  0.00     0.014 A 
ATOM     38  C   UNL     1      -0.515   2.853  -7.542  1.00  0.00     0.014 A 
ATOM     39  C   UNL     1      -2.021   1.216  -9.230  1.00  0.00     0.010 A 
ATOM     40  C   UNL     1      -1.853   2.610  -7.255  1.00  0.00     0.010 A 
ATOM     41  C   UNL     1      -2.623   1.800  -8.103  1.00  0.00    -0.014 A 
BRANCH  41  42
ATOM     42  C   UNL     1      -4.056   1.576  -7.792  1.00  0.00     0.031 A 
ATOM     43  C   UNL     1      -5.020   2.732  -7.787  1.00  0.00     0.074 A 
ATOM     44  C   UNL     1      -4.471   0.345  -7.435  1.00  0.00     0.049 A 
ATOM     45  N   UNL     1      -6.293   2.742  -7.488  1.00  0.00    -0.248 NA
ATOM     46  C   UNL     1      -4.477   4.056  -8.137  1.00  0.00     0.031 C 
ATOM     47  C   UNL     1      -3.615  -0.839  -7.328  1.00  0.00     0.029 A 
ATOM     48  N   UNL     1      -5.712  -0.110  -7.068  1.00  0.00    -0.354 N 
ATOM     49  C   UNL     1      -6.695   4.070  -7.582  1.00  0.00     0.074 A 
ATOM     50  C   UNL     1      -5.522   4.842  -7.929  1.00  0.00     0.031 C 
ATOM     51  C   UNL     1      -4.356  -1.883  -6.926  1.00  0.00     0.029 A 
ATOM     52  C   UNL     1      -5.731  -1.439  -6.717  1.00  0.00     0.049 A 
ATOM     53  H   UNL     1      -6.514   0.462  -7.057  1.00  0.00     0.167 HD
ATOM     54  C   UNL     1      -7.934   4.595  -7.425  1.00  0.00     0.034 A 
ATOM     55  C   UNL     1      -6.740  -2.211  -6.270  1.00  0.00     0.034 A 
ATOM     56  C   UNL     1      -9.102   3.816  -7.115  1.00  0.00     0.049 A 
ATOM     57  C   UNL     1      -8.113  -1.610  -6.136  1.00  0.00     0.074 A 
ATOM     58  C   UNL     1     -10.415   4.238  -7.013  1.00  0.00     0.029 A 
ATOM     59  N   UNL     1      -9.098   2.455  -6.851  1.00  0.00    -0.354 N 
ATOM     60  N   UNL     1      -8.505  -0.383  -6.383  1.00  0.00    -0.248 NA
ATOM     61  C   UNL     1      -9.192  -2.508  -5.698  1.00  0.00     0.031 C 
ATOM     62  C   UNL     1     -11.202   3.136  -6.662  1.00  0.00     0.029 A 
ATOM     63  C   UNL     1     -10.384   2.021  -6.577  1.00  0.00     0.049 A 
ATOM     64  H   UNL     1      -8.298   1.881  -6.857  1.00  0.00     0.167 HD
ATOM     65  C   UNL     1      -9.879  -0.371  -6.168  1.00  0.00     0.074 A 
ATOM     66  C   UNL     1     -10.253  -1.719  -5.792  1.00  0.00     0.031 C 
ATOM     67  C   UNL     1     -10.749   0.665  -6.258  1.00  0.00     0.034 A 
BRANCH  54  68
ATOM     68  C   UNL     1      -8.098   6.078  -7.639  1.00  0.00     0.023 A 
ATOM     69  C   UNL     1      -7.986   6.607  -8.942  1.00  0.00     0.012 A 
ATOM     70  C   UNL     1      -8.419   6.938  -6.571  1.00  0.00     0.148 A 
ATOM     71  C   UNL     1      -8.153   7.972  -9.173  1.00  0.00     0.002 A 
ATOM     72  C   UNL     1      -8.630   8.290  -6.816  1.00  0.00     0.091 A 
ATOM     73  F   UNL     1      -8.503   6.421  -5.337  1.00  0.00    -0.205 F 
ATOM     74  C   UNL     1      -8.485   8.810  -8.113  1.00  0.00     0.022 A 
BRANCH  72  75
ATOM     75  S   UNL     1      -9.141   9.441  -5.534  1.00  0.00     0.127 S 
ATOM     76  O   UNL     1      -7.938  10.257  -5.375  1.00  0.00    -0.237 OA
ATOM     77  O   UNL     1     -10.264  10.130  -6.170  1.00  0.00    -0.237 OA
ATOM     78  O   UNL     1      -9.500   8.627  -4.382  1.00  0.00    -0.744 OA
ENDBRANCH  72  75
ENDBRANCH  54  68
BRANCH  55  79
ATOM     79  C   UNL     1      -6.502  -3.653  -5.977  1.00  0.00     0.023 A 
ATOM     80  C   UNL     1      -7.071  -4.632  -6.814  1.00  0.00     0.012 A 
ATOM     81  C   UNL     1      -5.702  -4.058  -4.891  1.00  0.00     0.148 A 
ATOM     82  C   UNL     1      -6.877  -5.989  -6.555  1.00  0.00     0.002 A 
ATOM     83  C   UNL     1      -5.468  -5.410  -4.671  1.00  0.00     0.091 A 
ATOM     84  F   UNL     1      -5.178  -3.112  -4.099  1.00  0.00    -0.205 F 
ATOM     85  C   UNL     1      -6.069  -6.378  -5.490  1.00  0.00     0.022 A 
BRANCH  83  86
ATOM     86  S   UNL     1      -4.338  -5.994  -3.402  1.00  0.00     0.127 S 
ATOM     87  O   UNL     1      -5.260  -6.534  -2.406  1.00  0.00    -0.237 OA
ATOM     88  O   UNL     1      -3.558  -6.997  -4.127  1.00  0.00    -0.237 OA
ATOM     89  O   UNL     1      -3.573  -4.824  -2.991  1.00  0.00    -0.744 OA
ENDBRANCH  83  86
ENDBRANCH  55  79
BRANCH  67  90
ATOM     90  C   UNL     1     -12.204   0.381  -5.988  1.00  0.00     0.023 A 
ATOM     91  C   UNL     1     -12.638   0.125  -4.672  1.00  0.00     0.012 A 
ATOM     92  C   UNL     1     -13.151   0.441  -7.029  1.00  0.00     0.148 A 
ATOM     93  C   UNL     1     -13.987  -0.101  -4.402  1.00  0.00     0.002 A 
ATOM     94  C   UNL     1     -14.500   0.266  -6.745  1.00  0.00     0.091 A 
ATOM     95  F   UNL     1     -12.716   0.668  -8.277  1.00  0.00    -0.205 F 
ATOM     96  C   UNL     1     -14.918  -0.019  -5.435  1.00  0.00     0.022 A 
BRANCH  94  97
ATOM     97  S   UNL     1     -15.779   0.452  -7.992  1.00  0.00     0.127 S 
ATOM     98  O   UNL     1     -16.213  -0.931  -8.183  1.00  0.00    -0.237 OA
ATOM     99  O   UNL     1     -16.752   1.308  -7.312  1.00  0.00    -0.237 OA
ATOM    100  O   UNL     1     -15.133   1.068  -9.143  1.00  0.00    -0.744 OA
ENDBRANCH  94  97
ENDBRANCH  67  90
ENDBRANCH  41  42
ENDBRANCH  33  36
ENDBRANCH  31  32
ENDBRANCH  30  31
ENDBRANCH   1  30
TORSDOF 18
