REMARK SMILES COc1c[nH]c(C[N@H+]2CCC[C@@H](c3ccc(C(=O)NCCCCCCNC(=O)c4ccc(-c5c6nc(c(-c7cccc(S(=O)(=O)[O-])c7F)c7ccc([nH]7)c(-c7cccc(S(=O)(=O)[O-])c7F)c7nc(c(-c8cccc(S(=O)(=O)[O-])c8F)c8ccc5[nH]8)C=C7)C=C6)cc4)cc3)C2)cc1=O
REMARK SMILES IDX 22 1 21 2 20 3 19 4 17 5 18 6 16 8 13 9 14 10 93 11 15 12
REMARK SMILES IDX 92 13 12 14 8 15 9 16 94 17 10 19 11 20 7 21 6 22 3 23 4 24
REMARK SMILES IDX 96 25 5 26 95 27 97 28 2 30 1 31 23 32 24 33 25 34 26 35
REMARK SMILES IDX 27 36 28 38 29 39 30 40 91 41 31 42 90 43 32 44 33 45 34 46
REMARK SMILES IDX 84 47 35 48 89 49 83 50 85 51 36 52 88 53 82 54 81 55 37 57
REMARK SMILES IDX 69 58 49 59 68 60 50 61 53 62 67 63 86 64 51 65 52 66 66 68
REMARK SMILES IDX 87 69 54 70 38 71 39 72 47 73 40 74 42 75 48 76 41 77 43 78
REMARK SMILES IDX 44 79 45 80 46 81 70 82 71 83 79 84 72 85 74 86 80 87 73 88
REMARK SMILES IDX 75 89 76 90 77 91 78 92 55 93 56 94 64 95 57 96 59 97 65 98
REMARK SMILES IDX 58 99 60 100 61 101 62 102 63 103
REMARK H PARENT 19 7 8 18 5 29 26 37 85 56 53 67
REMARK Flexibility Score: inf
ROOT
ATOM      1  C   UNL     1      -8.572   9.960  -4.380  1.00  0.00     0.002 C 
ENDROOT
BRANCH   1   2
ATOM      2  C   UNL     1      -7.080   9.921  -4.023  1.00  0.00     0.021 C 
BRANCH   2   3
ATOM      3  C   UNL     1      -6.769   8.992  -2.848  1.00  0.00     0.116 C 
BRANCH   3   4
ATOM      4  N   UNL     1      -6.817   7.614  -3.292  1.00  0.00    -0.352 N 
ATOM      5  C   UNL     1      -5.830   6.739  -3.660  1.00  0.00     0.251 C 
ATOM      6  O   UNL     1      -6.172   5.616  -4.036  1.00  0.00    -0.269 OA
ATOM      7  H   UNL     1      -7.726   7.237  -3.338  1.00  0.00     0.163 HD
BRANCH   5   8
ATOM      8  C   UNL     1      -4.380   7.055  -3.544  1.00  0.00     0.039 A 
ATOM      9  C   UNL     1      -1.618   7.465  -3.095  1.00  0.00    -0.039 A 
ATOM     10  C   UNL     1      -2.170   6.174  -3.068  1.00  0.00     0.005 A 
ATOM     11  C   UNL     1      -2.450   8.532  -3.448  1.00  0.00     0.005 A 
ATOM     12  C   UNL     1      -3.535   5.976  -3.268  1.00  0.00     0.014 A 
ATOM     13  C   UNL     1      -3.812   8.322  -3.700  1.00  0.00     0.014 A 
BRANCH   9  14
ATOM     14  C   UNL     1      -0.155   7.715  -2.747  1.00  0.00     0.074 C 
ATOM     15  N   UNL     1       1.651   7.039  -1.081  1.00  0.00    -0.329 N 
ATOM     16  C   UNL     1       2.488   6.575  -2.194  1.00  0.00     0.262 C 
ATOM     17  C   UNL     1       0.223   7.008  -1.424  1.00  0.00     0.270 C 
ATOM     18  H   UNL     1       1.891   8.016  -0.914  1.00  0.00     0.348 HD
ATOM     19  C   UNL     1       2.222   7.368  -3.474  1.00  0.00     0.062 C 
ATOM     20  C   UNL     1       0.759   7.263  -3.891  1.00  0.00     0.020 C 
BRANCH  15  21
ATOM     21  C   UNL     1       1.945   6.316   0.179  1.00  0.00     0.317 C 
BRANCH  21  22
ATOM     22  C   UNL     1       1.690   4.808   0.167  1.00  0.00     0.074 A 
ATOM     23  C   UNL     1       0.941   2.081  -0.242  1.00  0.00     0.182 A 
ATOM     24  C   UNL     1       0.046   3.060  -0.051  1.00  0.00     0.133 A 
ATOM     25  C   UNL     1       2.391   2.474  -0.107  1.00  0.00     0.223 A 
ATOM     26  N   UNL     1       0.383   4.355   0.229  1.00  0.00    -0.357 N 
ATOM     27  C   UNL     1       2.700   3.925   0.057  1.00  0.00     0.083 A 
ATOM     28  O   UNL     1       3.312   1.664  -0.161  1.00  0.00    -0.286 OA
ATOM     29  H   UNL     1      -0.328   4.987   0.482  1.00  0.00     0.166 HD
BRANCH  23  30
ATOM     30  O   UNL     1       0.530   0.822  -0.635  1.00  0.00    -0.491 OA
ATOM     31  C   UNL     1       1.047  -0.219   0.184  1.00  0.00     0.278 C 
ENDBRANCH  23  30
ENDBRANCH  21  22
ENDBRANCH  15  21
ENDBRANCH   9  14
ENDBRANCH   5   8
ENDBRANCH   3   4
ENDBRANCH   2   3
ENDBRANCH   1   2
BRANCH   1  32
ATOM     32  C   UNL     1      -9.480  10.520  -3.279  1.00  0.00     0.002 C 
BRANCH  32  33
ATOM     33  C   UNL     1      -9.081  11.905  -2.764  1.00  0.00     0.021 C 
BRANCH  33  34
ATOM     34  C   UNL     1      -9.108  12.993  -3.831  1.00  0.00     0.116 C 
BRANCH  34  35
ATOM     35  N   UNL     1     -10.466  13.261  -4.284  1.00  0.00    -0.352 N 
ATOM     36  C   UNL     1     -11.134  14.463  -4.309  1.00  0.00     0.251 C 
ATOM     37  H   UNL     1     -10.970  12.482  -4.615  1.00  0.00     0.163 HD
ATOM     38  O   UNL     1     -12.341  14.506  -4.500  1.00  0.00    -0.269 OA
BRANCH  36  39
ATOM     39  C   UNL     1     -10.363  15.703  -4.089  1.00  0.00     0.039 A 
ATOM     40  C   UNL     1     -10.798  16.625  -3.135  1.00  0.00     0.014 A 
ATOM     41  C   UNL     1      -9.187  15.923  -4.812  1.00  0.00     0.014 A 
ATOM     42  C   UNL     1     -10.018  17.752  -2.863  1.00  0.00     0.010 A 
ATOM     43  C   UNL     1      -8.383  17.009  -4.494  1.00  0.00     0.010 A 
ATOM     44  C   UNL     1      -8.792  17.936  -3.522  1.00  0.00    -0.014 A 
BRANCH  44  45
ATOM     45  C   UNL     1      -7.906  19.093  -3.241  1.00  0.00     0.031 A 
ATOM     46  C   UNL     1      -7.609  20.073  -4.343  1.00  0.00     0.074 A 
ATOM     47  C   UNL     1      -7.267  19.181  -2.059  1.00  0.00     0.049 A 
ATOM     48  N   UNL     1      -6.721  21.030  -4.380  1.00  0.00    -0.248 NA
ATOM     49  C   UNL     1      -8.393  19.931  -5.582  1.00  0.00     0.031 C 
ATOM     50  C   UNL     1      -7.432  18.257  -0.935  1.00  0.00     0.029 A 
ATOM     51  N   UNL     1      -6.313  20.067  -1.623  1.00  0.00    -0.354 N 
ATOM     52  C   UNL     1      -6.798  21.566  -5.660  1.00  0.00     0.074 A 
ATOM     53  C   UNL     1      -7.806  20.815  -6.375  1.00  0.00     0.031 C 
ATOM     54  C   UNL     1      -6.596  18.614   0.054  1.00  0.00     0.029 A 
ATOM     55  C   UNL     1      -5.809  19.765  -0.379  1.00  0.00     0.049 A 
ATOM     56  H   UNL     1      -6.017  20.844  -2.151  1.00  0.00     0.167 HD
ATOM     57  C   UNL     1      -6.106  22.604  -6.185  1.00  0.00     0.034 A 
ATOM     58  C   UNL     1      -4.811  20.337   0.324  1.00  0.00     0.034 A 
ATOM     59  C   UNL     1      -5.149  23.381  -5.447  1.00  0.00     0.049 A 
ATOM     60  C   UNL     1      -4.090  21.521  -0.265  1.00  0.00     0.074 A 
ATOM     61  C   UNL     1      -4.455  24.505  -5.858  1.00  0.00     0.029 A 
ATOM     62  N   UNL     1      -4.754  23.117  -4.145  1.00  0.00    -0.354 N 
ATOM     63  N   UNL     1      -4.267  22.097  -1.429  1.00  0.00    -0.248 NA
ATOM     64  C   UNL     1      -3.057  22.156   0.566  1.00  0.00     0.031 C 
ATOM     65  C   UNL     1      -3.629  24.913  -4.807  1.00  0.00     0.029 A 
ATOM     66  C   UNL     1      -3.827  24.058  -3.735  1.00  0.00     0.049 A 
ATOM     67  H   UNL     1      -5.084  22.371  -3.595  1.00  0.00     0.167 HD
ATOM     68  C   UNL     1      -3.406  23.188  -1.451  1.00  0.00     0.074 A 
ATOM     69  C   UNL     1      -2.709  23.196  -0.182  1.00  0.00     0.031 C 
ATOM     70  C   UNL     1      -3.203  24.095  -2.437  1.00  0.00     0.034 A 
BRANCH  57  71
ATOM     71  C   UNL     1      -6.397  22.993  -7.609  1.00  0.00     0.023 A 
ATOM     72  C   UNL     1      -7.621  23.619  -7.923  1.00  0.00     0.012 A 
ATOM     73  C   UNL     1      -5.443  22.794  -8.625  1.00  0.00     0.148 A 
ATOM     74  C   UNL     1      -7.905  24.008  -9.231  1.00  0.00     0.002 A 
ATOM     75  C   UNL     1      -5.715  23.226  -9.918  1.00  0.00     0.091 A 
ATOM     76  F   UNL     1      -4.294  22.177  -8.313  1.00  0.00    -0.205 F 
ATOM     77  C   UNL     1      -6.949  23.822 -10.225  1.00  0.00     0.022 A 
BRANCH  75  78
ATOM     78  S   UNL     1      -4.516  23.103 -11.250  1.00  0.00     0.127 S 
ATOM     79  O   UNL     1      -5.083  22.026 -12.060  1.00  0.00    -0.237 OA
ATOM     80  O   UNL     1      -4.595  24.431 -11.861  1.00  0.00    -0.237 OA
ATOM     81  O   UNL     1      -3.240  22.804 -10.614  1.00  0.00    -0.744 OA
ENDBRANCH  75  78
ENDBRANCH  57  71
BRANCH  58  82
ATOM     82  C   UNL     1      -4.479  19.838   1.688  1.00  0.00     0.023 A 
ATOM     83  C   UNL     1      -4.802  20.630   2.807  1.00  0.00     0.012 A 
ATOM     84  C   UNL     1      -3.881  18.579   1.889  1.00  0.00     0.148 A 
ATOM     85  C   UNL     1      -4.508  20.192   4.099  1.00  0.00     0.002 A 
ATOM     86  C   UNL     1      -3.639  18.125   3.181  1.00  0.00     0.091 A 
ATOM     87  F   UNL     1      -3.570  17.843   0.812  1.00  0.00    -0.205 F 
ATOM     88  C   UNL     1      -3.936  18.937   4.287  1.00  0.00     0.022 A 
BRANCH  86  89
ATOM     89  S   UNL     1      -3.027  16.470   3.521  1.00  0.00     0.127 S 
ATOM     90  O   UNL     1      -1.658  16.739   3.952  1.00  0.00    -0.237 OA
ATOM     91  O   UNL     1      -3.931  16.024   4.582  1.00  0.00    -0.237 OA
ATOM     92  O   UNL     1      -3.166  15.736   2.270  1.00  0.00    -0.744 OA
ENDBRANCH  86  89
ENDBRANCH  58  82
BRANCH  70  93
ATOM     93  C   UNL     1      -2.241  25.222  -2.178  1.00  0.00     0.023 A 
ATOM     94  C   UNL     1      -0.854  24.986  -2.218  1.00  0.00     0.012 A 
ATOM     95  C   UNL     1      -2.720  26.539  -2.023  1.00  0.00     0.148 A 
ATOM     96  C   UNL     1       0.045  26.045  -2.094  1.00  0.00     0.002 A 
ATOM     97  C   UNL     1      -1.819  27.593  -1.947  1.00  0.00     0.091 A 
ATOM     98  F   UNL     1      -4.045  26.735  -1.971  1.00  0.00    -0.205 F 
ATOM     99  C   UNL     1      -0.436  27.348  -1.973  1.00  0.00     0.022 A 
BRANCH  97 100
ATOM    100  S   UNL     1      -2.346  29.310  -1.893  1.00  0.00     0.127 S 
ATOM    101  O   UNL     1      -1.979  29.691  -0.529  1.00  0.00    -0.237 OA
ATOM    102  O   UNL     1      -1.524  29.918  -2.938  1.00  0.00    -0.237 OA
ATOM    103  O   UNL     1      -3.775  29.303  -2.173  1.00  0.00    -0.744 OA
ENDBRANCH  97 100
ENDBRANCH  70  93
ENDBRANCH  44  45
ENDBRANCH  36  39
ENDBRANCH  34  35
ENDBRANCH  33  34
ENDBRANCH  32  33
ENDBRANCH   1  32
TORSDOF 20
