REMARK SMILES CC(C)(C)OC(=O)N[C@@H](C(=O)NCCCCCCNC(=O)c1ccc(-c2c3nc(c(-c4cccc(S(=O)(=O)[O-])c4F)c4ccc([nH]4)c(-c4cccc(S(=O)(=O)[O-])c4F)c4nc(c(-c5cccc(S(=O)(=O)[O-])c5F)c5ccc2[nH]5)C=C4)C=C3)cc1)[C@H](O)c1ccccc1F
REMARK SMILES IDX 15 1 14 2 13 3 12 4 10 5 11 6 9 8 8 9 6 10 7 11 5 13 2 14
REMARK SMILES IDX 1 15 3 16 4 17 85 18 87 19 88 20 92 21 89 22 91 23 93 24
REMARK SMILES IDX 90 25 86 26 16 28 17 29 18 30 19 31 20 32 21 34 22 35 23 36
REMARK SMILES IDX 84 37 24 38 83 39 25 40 26 41 27 42 77 43 28 44 82 45 76 46
REMARK SMILES IDX 78 47 29 48 81 49 75 50 74 51 30 53 62 54 42 55 61 56 43 57
REMARK SMILES IDX 46 58 60 59 79 60 44 61 45 62 59 64 80 65 47 66 31 67 32 68
REMARK SMILES IDX 40 69 33 70 35 71 41 72 34 73 36 74 37 75 38 76 39 77 63 78
REMARK SMILES IDX 64 79 72 80 65 81 67 82 73 83 66 84 68 85 69 86 70 87 71 88
REMARK SMILES IDX 48 89 49 90 57 91 50 92 52 93 58 94 51 95 53 96 54 97 55 98
REMARK SMILES IDX 56 99
REMARK H PARENT 12 7 8 12 86 27 19 33 78 52 46 63
REMARK Flexibility Score: inf
ROOT
ATOM      1  C   UNL     1      -3.976  -0.805  -2.678  1.00  0.00     0.002 C 
ENDROOT
BRANCH   1   2
ATOM      2  C   UNL     1      -3.520  -2.257  -2.861  1.00  0.00     0.021 C 
BRANCH   2   3
ATOM      3  C   UNL     1      -2.612  -2.443  -4.077  1.00  0.00     0.116 C 
BRANCH   3   4
ATOM      4  N   UNL     1      -1.301  -1.893  -3.789  1.00  0.00    -0.354 N 
ATOM      5  C   UNL     1      -0.185  -2.582  -3.385  1.00  0.00     0.245 C 
ATOM      6  O   UNL     1       0.635  -1.992  -2.679  1.00  0.00    -0.273 OA
ATOM      7  H   UNL     1      -1.201  -0.919  -3.895  1.00  0.00     0.163 HD
BRANCH   5   8
ATOM      8  C   UNL     1      -0.073  -4.066  -3.763  1.00  0.00     0.208 C 
BRANCH   8   9
ATOM      9  N   UNL     1      -0.766  -4.798  -2.690  1.00  0.00    -0.307 N 
ATOM     10  C   UNL     1      -1.779  -5.696  -2.811  1.00  0.00     0.408 C 
ATOM     11  O   UNL     1      -2.298  -6.198  -1.827  1.00  0.00    -0.225 OA
ATOM     12  H   UNL     1      -0.458  -4.614  -1.773  1.00  0.00     0.168 HD
BRANCH  10  13
ATOM     13  O   UNL     1      -2.127  -5.922  -4.100  1.00  0.00    -0.444 OA
BRANCH  13  14
ATOM     14  C   UNL     1      -3.261  -6.771  -4.426  1.00  0.00     0.106 C 
ATOM     15  C   UNL     1      -3.338  -6.754  -5.962  1.00  0.00     0.056 C 
ATOM     16  C   UNL     1      -4.570  -6.195  -3.873  1.00  0.00     0.056 C 
ATOM     17  C   UNL     1      -3.028  -8.214  -3.966  1.00  0.00     0.056 C 
ENDBRANCH  13  14
ENDBRANCH  10  13
ENDBRANCH   8   9
BRANCH   8  18
ATOM     18  C   UNL     1       1.379  -4.595  -3.903  1.00  0.00     0.179 C 
BRANCH  18  19
ATOM     19  C   UNL     1       2.243  -4.154  -5.073  1.00  0.00     0.019 A 
ATOM     20  C   UNL     1       3.100  -5.112  -5.651  1.00  0.00     0.009 A 
ATOM     21  C   UNL     1       2.309  -2.855  -5.586  1.00  0.00     0.129 A 
ATOM     22  C   UNL     1       3.967  -4.780  -6.697  1.00  0.00     0.001 A 
ATOM     23  C   UNL     1       3.185  -2.513  -6.617  1.00  0.00     0.039 A 
ATOM     24  F   UNL     1       1.539  -1.874  -5.111  1.00  0.00    -0.207 F 
ATOM     25  C   UNL     1       4.015  -3.476  -7.177  1.00  0.00     0.003 A 
ENDBRANCH  18  19
BRANCH  18  26
ATOM     26  O   UNL     1       2.113  -4.500  -2.674  1.00  0.00    -0.386 OA
ATOM     27  H   UNL     1       2.287  -3.568  -2.472  1.00  0.00     0.211 HD
ENDBRANCH  18  26
ENDBRANCH   8  18
ENDBRANCH   5   8
ENDBRANCH   3   4
ENDBRANCH   2   3
ENDBRANCH   1   2
BRANCH   1  28
ATOM     28  C   UNL     1      -4.792  -0.250  -3.851  1.00  0.00     0.002 C 
BRANCH  28  29
ATOM     29  C   UNL     1      -6.042  -1.064  -4.198  1.00  0.00     0.021 C 
BRANCH  29  30
ATOM     30  C   UNL     1      -7.041  -1.194  -3.052  1.00  0.00     0.116 C 
BRANCH  30  31
ATOM     31  N   UNL     1      -7.517   0.107  -2.610  1.00  0.00    -0.352 N 
ATOM     32  C   UNL     1      -8.798   0.573  -2.482  1.00  0.00     0.251 C 
ATOM     33  H   UNL     1      -6.812   0.749  -2.366  1.00  0.00     0.163 HD
ATOM     34  O   UNL     1      -8.991   1.776  -2.328  1.00  0.00    -0.269 OA
BRANCH  32  35
ATOM     35  C   UNL     1      -9.943  -0.361  -2.536  1.00  0.00     0.039 A 
ATOM     36  C   UNL     1     -11.104   0.045  -3.197  1.00  0.00     0.014 A 
ATOM     37  C   UNL     1      -9.895  -1.610  -1.908  1.00  0.00     0.014 A 
ATOM     38  C   UNL     1     -12.201  -0.814  -3.255  1.00  0.00     0.010 A 
ATOM     39  C   UNL     1     -10.961  -2.498  -2.039  1.00  0.00     0.010 A 
ATOM     40  C   UNL     1     -12.132  -2.103  -2.698  1.00  0.00    -0.014 A 
BRANCH  40  41
ATOM     41  C   UNL     1     -13.280  -3.034  -2.833  1.00  0.00     0.031 A 
ATOM     42  C   UNL     1     -14.021  -3.541  -1.627  1.00  0.00     0.074 A 
ATOM     43  C   UNL     1     -13.630  -3.463  -4.062  1.00  0.00     0.049 A 
ATOM     44  N   UNL     1     -15.093  -4.290  -1.577  1.00  0.00    -0.248 NA
ATOM     45  C   UNL     1     -13.477  -3.188  -0.307  1.00  0.00     0.031 C 
ATOM     46  C   UNL     1     -12.918  -3.141  -5.300  1.00  0.00     0.029 A 
ATOM     47  N   UNL     1     -14.661  -4.271  -4.470  1.00  0.00    -0.354 N 
ATOM     48  C   UNL     1     -15.333  -4.524  -0.228  1.00  0.00     0.074 A 
ATOM     49  C   UNL     1     -14.272  -3.869   0.505  1.00  0.00     0.031 C 
ATOM     50  C   UNL     1     -13.541  -3.731  -6.330  1.00  0.00     0.029 A 
ATOM     51  C   UNL     1     -14.682  -4.489  -5.826  1.00  0.00     0.049 A 
ATOM     52  H   UNL     1     -15.322  -4.657  -3.851  1.00  0.00     0.167 HD
ATOM     53  C   UNL     1     -16.357  -5.199   0.349  1.00  0.00     0.034 A 
ATOM     54  C   UNL     1     -15.525  -5.216  -6.584  1.00  0.00     0.034 A 
ATOM     55  C   UNL     1     -17.421  -5.830  -0.387  1.00  0.00     0.049 A 
ATOM     56  C   UNL     1     -16.702  -5.883  -5.932  1.00  0.00     0.074 A 
ATOM     57  C   UNL     1     -18.562  -6.443   0.102  1.00  0.00     0.029 A 
ATOM     58  N   UNL     1     -17.466  -5.953  -1.767  1.00  0.00    -0.354 N 
ATOM     59  N   UNL     1     -17.026  -5.925  -4.663  1.00  0.00    -0.248 NA
ATOM     60  C   UNL     1     -17.656  -6.559  -6.821  1.00  0.00     0.031 C 
ATOM     61  C   UNL     1     -19.274  -6.971  -0.981  1.00  0.00     0.029 A 
ATOM     62  C   UNL     1     -18.602  -6.648  -2.149  1.00  0.00     0.049 A 
ATOM     63  H   UNL     1     -16.788  -5.597  -2.387  1.00  0.00     0.167 HD
ATOM     64  C   UNL     1     -18.233  -6.611  -4.600  1.00  0.00     0.074 A 
ATOM     65  C   UNL     1     -18.596  -6.936  -5.965  1.00  0.00     0.031 C 
ATOM     66  C   UNL     1     -18.968  -6.950  -3.510  1.00  0.00     0.034 A 
BRANCH  53  67
ATOM     67  C   UNL     1     -16.386  -5.263   1.857  1.00  0.00     0.023 A 
ATOM     68  C   UNL     1     -16.626  -4.091   2.606  1.00  0.00     0.012 A 
ATOM     69  C   UNL     1     -16.207  -6.486   2.533  1.00  0.00     0.148 A 
ATOM     70  C   UNL     1     -16.635  -4.126   4.000  1.00  0.00     0.002 A 
ATOM     71  C   UNL     1     -16.270  -6.521   3.922  1.00  0.00     0.091 A 
ATOM     72  F   UNL     1     -15.959  -7.587   1.810  1.00  0.00    -0.205 F 
ATOM     73  C   UNL     1     -16.467  -5.341   4.657  1.00  0.00     0.022 A 
BRANCH  71  74
ATOM     74  S   UNL     1     -16.154  -8.053   4.853  1.00  0.00     0.127 S 
ATOM     75  O   UNL     1     -14.813  -7.948   5.427  1.00  0.00    -0.237 OA
ATOM     76  O   UNL     1     -17.243  -7.909   5.820  1.00  0.00    -0.237 OA
ATOM     77  O   UNL     1     -16.342  -9.124   3.886  1.00  0.00    -0.744 OA
ENDBRANCH  71  74
ENDBRANCH  53  67
BRANCH  54  78
ATOM     78  C   UNL     1     -15.306  -5.282  -8.055  1.00  0.00     0.023 A 
ATOM     79  C   UNL     1     -16.171  -4.594  -8.927  1.00  0.00     0.012 A 
ATOM     80  C   UNL     1     -14.194  -5.966  -8.584  1.00  0.00     0.148 A 
ATOM     81  C   UNL     1     -15.944  -4.604 -10.304  1.00  0.00     0.002 A 
ATOM     82  C   UNL     1     -13.940  -5.921  -9.948  1.00  0.00     0.091 A 
ATOM     83  F   UNL     1     -13.389  -6.619  -7.734  1.00  0.00    -0.205 F 
ATOM     84  C   UNL     1     -14.823  -5.255 -10.813  1.00  0.00     0.022 A 
BRANCH  82  85
ATOM     85  S   UNL     1     -12.443  -6.600 -10.671  1.00  0.00     0.127 S 
ATOM     86  O   UNL     1     -12.970  -7.699 -11.476  1.00  0.00    -0.237 OA
ATOM     87  O   UNL     1     -11.937  -5.460 -11.438  1.00  0.00    -0.237 OA
ATOM     88  O   UNL     1     -11.601  -6.989  -9.548  1.00  0.00    -0.744 OA
ENDBRANCH  82  85
ENDBRANCH  54  78
BRANCH  66  89
ATOM     89  C   UNL     1     -20.255  -7.699  -3.752  1.00  0.00     0.023 A 
ATOM     90  C   UNL     1     -20.222  -9.027  -4.223  1.00  0.00     0.012 A 
ATOM     91  C   UNL     1     -21.499  -7.094  -3.486  1.00  0.00     0.148 A 
ATOM     92  C   UNL     1     -21.405  -9.721  -4.475  1.00  0.00     0.002 A 
ATOM     93  C   UNL     1     -22.673  -7.811  -3.687  1.00  0.00     0.091 A 
ATOM     94  F   UNL     1     -21.516  -5.823  -3.057  1.00  0.00    -0.205 F 
ATOM     95  C   UNL     1     -22.629  -9.117  -4.199  1.00  0.00     0.022 A 
BRANCH  93  96
ATOM     96  S   UNL     1     -24.285  -7.144  -3.263  1.00  0.00     0.127 S 
ATOM     97  O   UNL     1     -24.818  -6.793  -4.578  1.00  0.00    -0.237 OA
ATOM     98  O   UNL     1     -24.939  -8.287  -2.626  1.00  0.00    -0.237 OA
ATOM     99  O   UNL     1     -24.030  -6.023  -2.368  1.00  0.00    -0.744 OA
ENDBRANCH  93  96
ENDBRANCH  66  89
ENDBRANCH  40  41
ENDBRANCH  32  35
ENDBRANCH  30  31
ENDBRANCH  29  30
ENDBRANCH  28  29
ENDBRANCH   1  28
TORSDOF 22
