REMARK SMILES CC(C)Cn1c([C@@H](O)[C@@H](O)C(=O)NCCCCCCNC(=O)c2ccc(-c3c4nc(c(-c5cccc(S(=O)(=O)[O-])c5F)c5ccc([nH]5)c(-c5cccc(S(=O)(=O)[O-])c5F)c5nc(c(-c6cccc(S(=O)(=O)[O-])c6F)c6ccc3[nH]6)C=C5)C=C4)cc2)nc2cc(Cl)ccc21
REMARK SMILES IDX 16 1 15 2 14 3 13 4 11 5 12 6 9 8 7 9 6 10 5 11 93 12 86 13
REMARK SMILES IDX 87 14 92 15 88 16 91 17 89 18 90 19 4 20 2 21 1 22 3 23 8 24
REMARK SMILES IDX 10 26 17 28 18 29 19 30 20 31 21 32 22 34 23 35 24 36 85 37
REMARK SMILES IDX 25 38 84 39 26 40 27 41 28 42 78 43 29 44 83 45 77 46 79 47
REMARK SMILES IDX 30 48 82 49 76 50 75 51 31 53 63 54 43 55 62 56 44 57 47 58
REMARK SMILES IDX 61 59 80 60 45 61 46 62 60 64 81 65 48 66 32 67 33 68 41 69
REMARK SMILES IDX 34 70 36 71 42 72 35 73 37 74 38 75 39 76 40 77 64 78 65 79
REMARK SMILES IDX 73 80 66 81 68 82 74 83 67 84 69 85 70 86 71 87 72 88 49 89
REMARK SMILES IDX 50 90 58 91 51 92 53 93 59 94 52 95 54 96 55 97 56 98 57 99
REMARK H PARENT 13 7 8 25 10 27 20 33 79 52 47 63
REMARK Flexibility Score: inf
ROOT
ATOM      1  C   UNL     1       1.610  -2.157   6.327  1.00  0.00     0.002 C 
ENDROOT
BRANCH   1   2
ATOM      2  C   UNL     1       0.951  -1.975   4.957  1.00  0.00     0.021 C 
BRANCH   2   3
ATOM      3  C   UNL     1       1.856  -2.372   3.792  1.00  0.00     0.116 C 
BRANCH   3   4
ATOM      4  N   UNL     1       1.870  -3.807   3.603  1.00  0.00    -0.354 N 
ATOM      5  C   UNL     1       1.345  -4.562   2.592  1.00  0.00     0.252 C 
ATOM      6  O   UNL     1       1.524  -5.784   2.647  1.00  0.00    -0.272 OA
ATOM      7  H   UNL     1       2.328  -4.316   4.310  1.00  0.00     0.163 HD
BRANCH   5   8
ATOM      8  C   UNL     1       0.606  -3.924   1.400  1.00  0.00     0.239 C 
BRANCH   8   9
ATOM      9  C   UNL     1      -0.703  -3.214   1.794  1.00  0.00     0.219 C 
BRANCH   9  10
ATOM     10  C   UNL     1      -1.357  -2.590   0.582  1.00  0.00     0.142 A 
ATOM     11  N   UNL     1      -1.512  -1.232   0.372  1.00  0.00    -0.325 N 
ATOM     12  C   UNL     1      -2.193  -1.060  -0.816  1.00  0.00     0.068 A 
ATOM     13  N   UNL     1      -1.861  -3.276  -0.429  1.00  0.00    -0.230 NA
ATOM     14  C   UNL     1      -2.352  -2.350  -1.312  1.00  0.00     0.090 A 
ATOM     15  C   UNL     1      -2.655   0.072  -1.501  1.00  0.00     0.030 A 
ATOM     16  C   UNL     1      -2.955  -2.547  -2.562  1.00  0.00     0.051 A 
ATOM     17  C   UNL     1      -3.271  -0.140  -2.739  1.00  0.00     0.023 A 
ATOM     18  C   UNL     1      -3.406  -1.426  -3.263  1.00  0.00     0.043 A 
ATOM     19  Cl  UNL     1      -4.146  -1.636  -4.805  1.00  0.00    -0.084 Cl
BRANCH  11  20
ATOM     20  C   UNL     1      -1.051  -0.148   1.226  1.00  0.00     0.127 C 
BRANCH  20  21
ATOM     21  C   UNL     1       0.452   0.149   1.106  1.00  0.00     0.003 C 
ATOM     22  C   UNL     1       0.877   0.598  -0.290  1.00  0.00     0.009 C 
ATOM     23  C   UNL     1       0.877   1.179   2.152  1.00  0.00     0.009 C 
ENDBRANCH  20  21
ENDBRANCH  11  20
ENDBRANCH   9  10
BRANCH   9  24
ATOM     24  O   UNL     1      -1.646  -4.137   2.353  1.00  0.00    -0.382 OA
ATOM     25  H   UNL     1      -1.873  -4.808   1.690  1.00  0.00     0.211 HD
ENDBRANCH   9  24
ENDBRANCH   8   9
BRANCH   8  26
ATOM     26  O   UNL     1       1.489  -3.039   0.697  1.00  0.00    -0.380 OA
ATOM     27  H   UNL     1       1.757  -2.315   1.285  1.00  0.00     0.211 HD
ENDBRANCH   8  26
ENDBRANCH   5   8
ENDBRANCH   3   4
ENDBRANCH   2   3
ENDBRANCH   1   2
BRANCH   1  28
ATOM     28  C   UNL     1       2.804  -1.232   6.590  1.00  0.00     0.002 C 
BRANCH  28  29
ATOM     29  C   UNL     1       2.514   0.269   6.462  1.00  0.00     0.021 C 
BRANCH  29  30
ATOM     30  C   UNL     1       1.339   0.760   7.310  1.00  0.00     0.116 C 
BRANCH  30  31
ATOM     31  N   UNL     1       1.470   0.452   8.718  1.00  0.00    -0.352 N 
ATOM     32  C   UNL     1       2.103   1.036   9.780  1.00  0.00     0.251 C 
ATOM     33  H   UNL     1       0.991  -0.370   8.970  1.00  0.00     0.163 HD
ATOM     34  O   UNL     1       1.916   0.499  10.875  1.00  0.00    -0.269 OA
BRANCH  32  35
ATOM     35  C   UNL     1       3.023   2.202   9.692  1.00  0.00     0.039 A 
ATOM     36  C   UNL     1       3.279   2.945   8.540  1.00  0.00     0.014 A 
ATOM     37  C   UNL     1       3.727   2.526  10.868  1.00  0.00     0.014 A 
ATOM     38  C   UNL     1       4.291   3.896   8.525  1.00  0.00     0.010 A 
ATOM     39  C   UNL     1       4.721   3.499  10.867  1.00  0.00     0.010 A 
ATOM     40  C   UNL     1       5.042   4.139   9.675  1.00  0.00    -0.014 A 
BRANCH  40  41
ATOM     41  C   UNL     1       6.136   5.097   9.566  1.00  0.00     0.031 A 
ATOM     42  C   UNL     1       5.750   6.478   9.159  1.00  0.00     0.074 A 
ATOM     43  C   UNL     1       7.414   4.790   9.859  1.00  0.00     0.049 A 
ATOM     44  N   UNL     1       6.055   7.105   8.066  1.00  0.00    -0.248 NA
ATOM     45  C   UNL     1       4.826   7.210  10.037  1.00  0.00     0.031 C 
ATOM     46  C   UNL     1       7.929   3.592  10.527  1.00  0.00     0.029 A 
ATOM     47  N   UNL     1       8.521   5.573   9.731  1.00  0.00    -0.354 N 
ATOM     48  C   UNL     1       5.524   8.386   8.207  1.00  0.00     0.074 A 
ATOM     49  C   UNL     1       4.672   8.354   9.370  1.00  0.00     0.031 C 
ATOM     50  C   UNL     1       9.178   3.845  10.981  1.00  0.00     0.029 A 
ATOM     51  C   UNL     1       9.594   5.153  10.511  1.00  0.00     0.049 A 
ATOM     52  H   UNL     1       8.559   6.361   9.143  1.00  0.00     0.167 HD
ATOM     53  C   UNL     1       5.958   9.453   7.482  1.00  0.00     0.034 A 
ATOM     54  C   UNL     1      10.686   5.894  10.818  1.00  0.00     0.034 A 
ATOM     55  C   UNL     1       6.766   9.081   6.359  1.00  0.00     0.049 A 
ATOM     56  C   UNL     1      10.793   6.957   9.791  1.00  0.00     0.074 A 
ATOM     57  C   UNL     1       6.575   8.338   5.213  1.00  0.00     0.029 A 
ATOM     58  N   UNL     1       8.125   9.223   6.495  1.00  0.00    -0.354 N 
ATOM     59  N   UNL     1      11.059   6.735   8.535  1.00  0.00    -0.248 NA
ATOM     60  C   UNL     1      10.233   8.264  10.094  1.00  0.00     0.031 C 
ATOM     61  C   UNL     1       7.816   7.670   4.999  1.00  0.00     0.029 A 
ATOM     62  C   UNL     1       8.690   8.074   6.010  1.00  0.00     0.049 A 
ATOM     63  H   UNL     1       8.600  10.000   6.867  1.00  0.00     0.167 HD
ATOM     64  C   UNL     1      10.316   7.686   7.849  1.00  0.00     0.074 A 
ATOM     65  C   UNL     1       9.920   8.662   8.859  1.00  0.00     0.031 C 
ATOM     66  C   UNL     1       9.855   7.446   6.588  1.00  0.00     0.034 A 
BRANCH  53  67
ATOM     67  C   UNL     1       5.910  10.870   7.977  1.00  0.00     0.023 A 
ATOM     68  C   UNL     1       5.957  11.923   7.041  1.00  0.00     0.012 A 
ATOM     69  C   UNL     1       6.075  11.198   9.341  1.00  0.00     0.148 A 
ATOM     70  C   UNL     1       6.150  13.248   7.449  1.00  0.00     0.002 A 
ATOM     71  C   UNL     1       6.193  12.521   9.746  1.00  0.00     0.091 A 
ATOM     72  F   UNL     1       6.244  10.216  10.235  1.00  0.00    -0.205 F 
ATOM     73  C   UNL     1       6.250  13.550   8.804  1.00  0.00     0.022 A 
BRANCH  71  74
ATOM     74  S   UNL     1       6.277  12.956  11.486  1.00  0.00     0.127 S 
ATOM     75  O   UNL     1       7.700  13.262  11.640  1.00  0.00    -0.237 OA
ATOM     76  O   UNL     1       5.386  14.119  11.546  1.00  0.00    -0.237 OA
ATOM     77  O   UNL     1       5.785  11.791  12.195  1.00  0.00    -0.744 OA
ENDBRANCH  71  74
ENDBRANCH  53  67
BRANCH  54  78
ATOM     78  C   UNL     1      11.448   5.970  12.091  1.00  0.00     0.023 A 
ATOM     79  C   UNL     1      12.672   6.673  12.102  1.00  0.00     0.012 A 
ATOM     80  C   UNL     1      10.856   5.653  13.333  1.00  0.00     0.148 A 
ATOM     81  C   UNL     1      13.245   7.109  13.302  1.00  0.00     0.002 A 
ATOM     82  C   UNL     1      11.439   6.076  14.525  1.00  0.00     0.091 A 
ATOM     83  F   UNL     1       9.671   5.030  13.354  1.00  0.00    -0.205 F 
ATOM     84  C   UNL     1      12.623   6.823  14.512  1.00  0.00     0.022 A 
BRANCH  82  85
ATOM     85  S   UNL     1      10.679   5.741  16.120  1.00  0.00     0.127 S 
ATOM     86  O   UNL     1      11.839   5.419  16.953  1.00  0.00    -0.237 OA
ATOM     87  O   UNL     1      10.040   7.017  16.427  1.00  0.00    -0.237 OA
ATOM     88  O   UNL     1       9.781   4.615  15.894  1.00  0.00    -0.744 OA
ENDBRANCH  82  85
ENDBRANCH  54  78
BRANCH  66  89
ATOM     89  C   UNL     1      10.402   6.256   5.848  1.00  0.00     0.023 A 
ATOM     90  C   UNL     1      10.134   4.933   6.257  1.00  0.00     0.012 A 
ATOM     91  C   UNL     1      11.040   6.477   4.616  1.00  0.00     0.148 A 
ATOM     92  C   UNL     1      10.509   3.851   5.455  1.00  0.00     0.002 A 
ATOM     93  C   UNL     1      11.376   5.402   3.805  1.00  0.00     0.091 A 
ATOM     94  F   UNL     1      11.273   7.745   4.244  1.00  0.00    -0.205 F 
ATOM     95  C   UNL     1      11.117   4.086   4.224  1.00  0.00     0.022 A 
BRANCH  93  96
ATOM     96  S   UNL     1      12.054   5.635   2.161  1.00  0.00     0.127 S 
ATOM     97  O   UNL     1      13.435   5.188   2.333  1.00  0.00    -0.237 OA
ATOM     98  O   UNL     1      11.219   4.747   1.351  1.00  0.00    -0.237 OA
ATOM     99  O   UNL     1      11.890   7.051   1.853  1.00  0.00    -0.744 OA
ENDBRANCH  93  96
ENDBRANCH  66  89
ENDBRANCH  40  41
ENDBRANCH  32  35
ENDBRANCH  30  31
ENDBRANCH  29  30
ENDBRANCH  28  29
ENDBRANCH   1  28
TORSDOF 22
