REMARK SMILES O=C(/C=C\c1ccc(S(=O)(=O)N2CCCCCC2)cc1)NCCCCCCNC(=O)c1ccc(-c2c3nc(c(-c4cccc(S(=O)(=O)[O-])c4F)c4ccc([nH]4)c(-c4cccc(S(=O)(=O)[O-])c4F)c4nc(c(-c5cccc(S(=O)(=O)[O-])c5F)c5ccc2[nH]5)C=C4)C=C3)cc1
REMARK SMILES IDX 23 1 22 2 21 3 1 4 2 5 3 7 4 8 5 9 6 10 20 11 7 12 19 13
REMARK SMILES IDX 8 14 9 15 10 16 11 17 12 18 13 19 14 20 15 21 18 23 17 24
REMARK SMILES IDX 16 25 24 27 25 28 26 29 27 30 28 31 29 32 30 34 31 35 32 36
REMARK SMILES IDX 93 37 33 38 92 39 34 40 35 41 36 42 86 43 37 44 91 45 85 46
REMARK SMILES IDX 87 47 38 48 90 49 84 50 83 51 39 53 71 54 51 55 70 56 52 57
REMARK SMILES IDX 55 58 69 59 88 60 53 61 54 62 68 64 89 65 56 66 40 67 41 68
REMARK SMILES IDX 49 69 42 70 44 71 50 72 43 73 45 74 46 75 47 76 48 77 72 78
REMARK SMILES IDX 73 79 81 80 74 81 76 82 82 83 75 84 77 85 78 86 79 87 80 88
REMARK SMILES IDX 57 89 58 90 66 91 59 92 61 93 67 94 60 95 62 96 63 97 64 98
REMARK SMILES IDX 65 99
REMARK H PARENT 21 6 28 33 87 52 55 63
REMARK Flexibility Score: 90.00
ROOT
ATOM      1  C   UNL     1       1.559   0.124   2.674  1.00  0.00     0.021 C 
ENDROOT
BRANCH   1   2
ATOM      2  C   UNL     1       1.306   0.985   1.427  1.00  0.00     0.116 C 
BRANCH   2   3
ATOM      3  N   UNL     1       2.305   0.755   0.393  1.00  0.00    -0.353 N 
ATOM      4  O   UNL     1       1.304  -1.118  -0.451  1.00  0.00    -0.270 OA
ATOM      5  C   UNL     1       2.252  -0.342  -0.413  1.00  0.00     0.243 C 
ATOM      6  H   UNL     1       3.033   1.407   0.273  1.00  0.00     0.163 HD
BRANCH   5   7
ATOM      7  C   UNL     1       3.389  -0.540  -1.349  1.00  0.00     0.072 C 
ATOM      8  C   UNL     1       4.720  -0.367  -1.243  1.00  0.00     0.014 C 
BRANCH   8   9
ATOM      9  C   UNL     1       5.552   0.114  -0.130  1.00  0.00    -0.025 A 
ATOM     10  C   UNL     1       6.209   1.343  -0.251  1.00  0.00     0.009 A 
ATOM     11  C   UNL     1       5.785  -0.643   1.024  1.00  0.00     0.009 A 
ATOM     12  C   UNL     1       6.956   1.870   0.817  1.00  0.00     0.022 A 
ATOM     13  C   UNL     1       6.545  -0.123   2.099  1.00  0.00     0.022 A 
ATOM     14  C   UNL     1       7.074   1.172   2.029  1.00  0.00     0.082 A 
BRANCH  14  15
ATOM     15  S   UNL     1       7.866   2.033   3.423  1.00  0.00     0.243 S 
ATOM     16  O   UNL     1       9.193   1.457   3.508  1.00  0.00    -0.207 OA
ATOM     17  O   UNL     1       7.665   3.446   3.182  1.00  0.00    -0.207 OA
BRANCH  15  18
ATOM     18  N   UNL     1       7.019   1.641   4.887  1.00  0.00    -0.198 NA
BRANCH  18  19
ATOM     19  C   UNL     1       5.956   2.969   5.644  1.00  0.00     0.102 C 
BRANCH  19  20
ATOM     20  C   UNL     1       4.457   2.571   6.809  1.00  0.00     0.017 C 
BRANCH  20  21
ATOM     21  C   UNL     1       4.061   0.789   7.522  1.00  0.00     0.001 CG0
ATOM     22  G   UNL     1       5.208  -0.671   7.494  1.00  0.00     0.000 G0
ENDBRANCH  20  21
ENDBRANCH  19  20
ENDBRANCH  18  19
BRANCH  18  23
ATOM     23  C   UNL     1       7.510   0.059   5.555  1.00  0.00     0.102 C 
BRANCH  23  24
ATOM     24  C   UNL     1       6.419  -1.008   6.301  1.00  0.00     0.017 C 
BRANCH  24  25
ATOM     25  C   UNL     1       5.208  -0.671   7.494  1.00  0.00     0.001 CG0
ATOM     26  G   UNL     1       4.061   0.789   7.522  1.00  0.00     0.000 G0
ENDBRANCH  24  25
ENDBRANCH  23  24
ENDBRANCH  18  23
ENDBRANCH  15  18
ENDBRANCH  14  15
ENDBRANCH   8   9
ENDBRANCH   5   7
ENDBRANCH   2   3
ENDBRANCH   1   2
BRANCH   1  27
ATOM     27  C   UNL     1       3.040  -0.025   3.008  1.00  0.00     0.002 C 
BRANCH  27  28
ATOM     28  C   UNL     1       3.703   1.321   3.213  1.00  0.00     0.002 C 
BRANCH  28  29
ATOM     29  C   UNL     1       3.810   1.664   4.674  1.00  0.00     0.021 C 
BRANCH  29  30
ATOM     30  C   UNL     1       4.939   0.789   5.474  1.00  0.00     0.116 C 
BRANCH  30  31
ATOM     31  N   UNL     1       6.080   1.302   6.965  1.00  0.00    -0.352 N 
ATOM     32  C   UNL     1       6.359   1.863   8.330  1.00  0.00     0.251 C 
ATOM     33  H   UNL     1       6.977   1.056   6.644  1.00  0.00     0.163 HD
ATOM     34  O   UNL     1       7.582   1.871   8.566  1.00  0.00    -0.269 OA
BRANCH  32  35
ATOM     35  C   UNL     1       5.471   2.594   9.476  1.00  0.00     0.039 A 
ATOM     36  C   UNL     1       6.130   3.485  10.359  1.00  0.00     0.014 A 
ATOM     37  C   UNL     1       4.072   2.606   9.679  1.00  0.00     0.014 A 
ATOM     38  C   UNL     1       5.444   4.218  11.388  1.00  0.00     0.010 A 
ATOM     39  C   UNL     1       3.396   3.251  10.706  1.00  0.00     0.010 A 
ATOM     40  C   UNL     1       4.072   4.052  11.598  1.00  0.00    -0.014 A 
BRANCH  40  41
ATOM     41  C   UNL     1       3.191   4.623  12.648  1.00  0.00     0.031 A 
ATOM     42  C   UNL     1       2.700   3.712  13.755  1.00  0.00     0.074 A 
ATOM     43  C   UNL     1       2.500   5.752  12.382  1.00  0.00     0.049 A 
ATOM     44  N   UNL     1       1.841   3.948  14.713  1.00  0.00    -0.248 NA
ATOM     45  C   UNL     1       3.191   2.321  13.727  1.00  0.00     0.031 C 
ATOM     46  C   UNL     1       2.658   6.571  11.176  1.00  0.00     0.029 A 
ATOM     47  N   UNL     1       1.466   6.355  13.056  1.00  0.00    -0.354 N 
ATOM     48  C   UNL     1       1.688   2.744  15.397  1.00  0.00     0.074 A 
ATOM     49  C   UNL     1       2.490   1.762  14.702  1.00  0.00     0.031 C 
ATOM     50  C   UNL     1       1.754   7.566  11.198  1.00  0.00     0.029 A 
ATOM     51  C   UNL     1       0.968   7.471  12.424  1.00  0.00     0.049 A 
ATOM     52  H   UNL     1       1.114   6.019  13.912  1.00  0.00     0.167 HD
ATOM     53  C   UNL     1       0.973   2.488  16.521  1.00  0.00     0.034 A 
ATOM     54  C   UNL     1       0.011   8.338  12.812  1.00  0.00     0.034 A 
ATOM     55  C   UNL     1       0.173   3.484  17.182  1.00  0.00     0.049 A 
ATOM     56  C   UNL     1      -0.652   8.127  14.148  1.00  0.00     0.074 A 
ATOM     57  C   UNL     1      -0.442   3.427  18.419  1.00  0.00     0.029 A 
ATOM     58  N   UNL     1      -0.151   4.715  16.631  1.00  0.00    -0.354 N 
ATOM     59  N   UNL     1      -0.530   7.119  14.979  1.00  0.00    -0.248 NA
ATOM     60  C   UNL     1      -1.532   9.200  14.631  1.00  0.00     0.031 C 
ATOM     61  C   UNL     1      -1.163   4.614  18.602  1.00  0.00     0.029 A 
ATOM     62  C   UNL     1      -0.968   5.424  17.494  1.00  0.00     0.049 A 
ATOM     63  H   UNL     1       0.156   5.038  15.753  1.00  0.00     0.167 HD
ATOM     64  C   UNL     1      -1.276   7.456  16.102  1.00  0.00     0.074 A 
ATOM     65  C   UNL     1      -1.834   8.771  15.849  1.00  0.00     0.031 C 
ATOM     66  C   UNL     1      -1.486   6.744  17.238  1.00  0.00     0.034 A 
BRANCH  53  67
ATOM     67  C   UNL     1       1.097   1.118  17.151  1.00  0.00     0.023 A 
ATOM     68  C   UNL     1       2.348   0.708  17.664  1.00  0.00     0.012 A 
ATOM     69  C   UNL     1      -0.013   0.262  17.303  1.00  0.00     0.148 A 
ATOM     70  C   UNL     1       2.506  -0.539  18.267  1.00  0.00     0.002 A 
ATOM     71  C   UNL     1       0.142  -0.962  17.950  1.00  0.00     0.091 A 
ATOM     72  F   UNL     1      -1.195   0.649  16.804  1.00  0.00    -0.205 F 
ATOM     73  C   UNL     1       1.402  -1.370  18.418  1.00  0.00     0.022 A 
BRANCH  71  74
ATOM     74  S   UNL     1      -1.233  -2.075  18.277  1.00  0.00     0.127 S 
ATOM     75  O   UNL     1      -0.952  -3.171  17.350  1.00  0.00    -0.237 OA
ATOM     76  O   UNL     1      -1.032  -2.406  19.689  1.00  0.00    -0.237 OA
ATOM     77  O   UNL     1      -2.441  -1.312  17.998  1.00  0.00    -0.744 OA
ENDBRANCH  71  74
ENDBRANCH  53  67
BRANCH  54  78
ATOM     78  C   UNL     1      -0.220   9.585  12.026  1.00  0.00     0.023 A 
ATOM     79  C   UNL     1       0.306  10.796  12.524  1.00  0.00     0.012 A 
ATOM     80  C   UNL     1      -0.883   9.587  10.786  1.00  0.00     0.148 A 
ATOM     81  C   UNL     1       0.151  11.989  11.820  1.00  0.00     0.002 A 
ATOM     82  C   UNL     1      -0.994  10.773  10.064  1.00  0.00     0.091 A 
ATOM     83  F   UNL     1      -1.375   8.428  10.327  1.00  0.00    -0.205 F 
ATOM     84  C   UNL     1      -0.491  11.976  10.586  1.00  0.00     0.022 A 
BRANCH  82  85
ATOM     85  S   UNL     1      -1.692  10.844   8.409  1.00  0.00     0.127 S 
ATOM     86  O   UNL     1      -2.910  11.619   8.630  1.00  0.00    -0.237 OA
ATOM     87  O   UNL     1      -0.642  11.546   7.670  1.00  0.00    -0.237 OA
ATOM     88  O   UNL     1      -1.890   9.459   8.005  1.00  0.00    -0.744 OA
ENDBRANCH  82  85
ENDBRANCH  54  78
BRANCH  66  89
ATOM     89  C   UNL     1      -2.330   7.382  18.310  1.00  0.00     0.023 A 
ATOM     90  C   UNL     1      -3.716   7.544  18.114  1.00  0.00     0.012 A 
ATOM     91  C   UNL     1      -1.755   7.772  19.535  1.00  0.00     0.148 A 
ATOM     92  C   UNL     1      -4.508   8.127  19.103  1.00  0.00     0.002 A 
ATOM     93  C   UNL     1      -2.559   8.301  20.537  1.00  0.00     0.091 A 
ATOM     94  F   UNL     1      -0.431   7.628  19.697  1.00  0.00    -0.205 F 
ATOM     95  C   UNL     1      -3.933   8.495  20.317  1.00  0.00     0.022 A 
BRANCH  93  96
ATOM     96  S   UNL     1      -1.921   8.706  22.166  1.00  0.00     0.127 S 
ATOM     97  O   UNL     1      -1.901  10.167  22.124  1.00  0.00    -0.237 OA
ATOM     98  O   UNL     1      -2.940   8.135  23.049  1.00  0.00    -0.237 OA
ATOM     99  O   UNL     1      -0.617   8.063  22.257  1.00  0.00    -0.744 OA
ENDBRANCH  93  96
ENDBRANCH  66  89
ENDBRANCH  40  41
ENDBRANCH  32  35
ENDBRANCH  30  31
ENDBRANCH  29  30
ENDBRANCH  28  29
ENDBRANCH  27  28
ENDBRANCH   1  27
TORSDOF 19
