REMARK SMILES O=C(NCCCCCCNC(=O)C1CN(c2cnccn2)C1)c1ccc(-c2c3nc(c(-c4cccc(S(=O)(=O)[O-])c4F)c4ccc([nH]4)c(-c4cccc(S(=O)(=O)[O-])c4F)c4nc(c(-c5cccc(S(=O)(=O)[O-])c5F)c5ccc2[nH]5)C=C4)C=C3)cc1
REMARK SMILES IDX 5 1 4 2 3 3 1 4 2 5 23 7 24 8 85 9 25 10 84 11 26 12 27 13
REMARK SMILES IDX 28 14 78 15 29 16 83 17 77 18 79 19 30 20 82 21 76 22 75 23
REMARK SMILES IDX 31 25 63 26 43 27 62 28 44 29 47 30 61 31 80 32 45 33 46 34
REMARK SMILES IDX 60 36 81 37 48 38 32 39 33 40 41 41 34 42 36 43 42 44 35 45
REMARK SMILES IDX 37 46 38 47 39 48 40 49 64 50 65 51 73 52 66 53 68 54 74 55
REMARK SMILES IDX 67 56 69 57 70 58 71 59 72 60 49 61 50 62 58 63 51 64 53 65
REMARK SMILES IDX 59 66 52 67 54 68 55 69 56 70 57 71 6 72 7 73 8 74 9 75
REMARK SMILES IDX 10 76 11 77 12 79 13 80 14 81 22 82 15 83 16 84 17 85 21 86
REMARK SMILES IDX 18 87 20 88 19 89
REMARK H PARENT 3 6 79 24 47 35 10 78
REMARK Flexibility Score: inf
ROOT
ATOM      1  C   UNL     1       4.503  -0.276  -2.732  1.00  0.00     0.021 C 
ENDROOT
BRANCH   1   2
ATOM      2  C   UNL     1       4.304   0.275  -1.327  1.00  0.00     0.116 C 
BRANCH   2   3
ATOM      3  N   UNL     1       2.904   0.438  -0.975  1.00  0.00    -0.352 N 
ATOM      4  O   UNL     1       1.027   0.118   0.233  1.00  0.00    -0.269 OA
ATOM      5  C   UNL     1       2.249   0.022   0.162  1.00  0.00     0.251 C 
ATOM      6  H   UNL     1       2.350   0.910  -1.638  1.00  0.00     0.163 HD
BRANCH   5   7
ATOM      7  C   UNL     1       3.022  -0.570   1.278  1.00  0.00     0.039 A 
ATOM      8  C   UNL     1       4.215   0.016   1.706  1.00  0.00     0.014 A 
ATOM      9  C   UNL     1       2.554  -1.733   1.897  1.00  0.00     0.014 A 
ATOM     10  C   UNL     1       5.009  -0.638   2.642  1.00  0.00     0.010 A 
ATOM     11  C   UNL     1       3.312  -2.342   2.903  1.00  0.00     0.010 A 
ATOM     12  C   UNL     1       4.563  -1.818   3.262  1.00  0.00    -0.014 A 
BRANCH  12  13
ATOM     13  C   UNL     1       5.396  -2.424   4.334  1.00  0.00     0.031 A 
ATOM     14  C   UNL     1       6.011  -3.789   4.184  1.00  0.00     0.074 A 
ATOM     15  C   UNL     1       5.621  -1.702   5.449  1.00  0.00     0.049 A 
ATOM     16  N   UNL     1       6.827  -4.412   4.996  1.00  0.00    -0.248 NA
ATOM     17  C   UNL     1       5.665  -4.559   2.979  1.00  0.00     0.031 C 
ATOM     18  C   UNL     1       5.026  -0.394   5.735  1.00  0.00     0.029 A 
ATOM     19  N   UNL     1       6.412  -1.951   6.541  1.00  0.00    -0.354 N 
ATOM     20  C   UNL     1       7.072  -5.652   4.420  1.00  0.00     0.074 A 
ATOM     21  C   UNL     1       6.305  -5.702   3.193  1.00  0.00     0.031 C 
ATOM     22  C   UNL     1       5.500   0.061   6.903  1.00  0.00     0.029 A 
ATOM     23  C   UNL     1       6.398  -0.937   7.471  1.00  0.00     0.049 A 
ATOM     24  H   UNL     1       6.938  -2.776   6.650  1.00  0.00     0.167 HD
ATOM     25  C   UNL     1       7.880  -6.648   4.860  1.00  0.00     0.034 A 
ATOM     26  C   UNL     1       7.036  -0.820   8.651  1.00  0.00     0.034 A 
ATOM     27  C   UNL     1       8.665  -6.581   6.066  1.00  0.00     0.049 A 
ATOM     28  C   UNL     1       7.969  -1.913   9.082  1.00  0.00     0.074 A 
ATOM     29  C   UNL     1       9.539  -7.525   6.578  1.00  0.00     0.029 A 
ATOM     30  N   UNL     1       8.675  -5.511   6.948  1.00  0.00    -0.354 N 
ATOM     31  N   UNL     1       8.280  -3.023   8.458  1.00  0.00    -0.248 NA
ATOM     32  C   UNL     1       8.663  -1.726  10.364  1.00  0.00     0.031 C 
ATOM     33  C   UNL     1      10.076  -7.026   7.771  1.00  0.00     0.029 A 
ATOM     34  C   UNL     1       9.543  -5.768   7.997  1.00  0.00     0.049 A 
ATOM     35  H   UNL     1       8.143  -4.689   6.844  1.00  0.00     0.167 HD
ATOM     36  C   UNL     1       9.213  -3.662   9.264  1.00  0.00     0.074 A 
ATOM     37  C   UNL     1       9.448  -2.793  10.400  1.00  0.00     0.031 C 
ATOM     38  C   UNL     1       9.799  -4.873   9.096  1.00  0.00     0.034 A 
BRANCH  25  39
ATOM     39  C   UNL     1       8.011  -7.880   4.002  1.00  0.00     0.023 A 
ATOM     40  C   UNL     1       8.788  -7.818   2.828  1.00  0.00     0.012 A 
ATOM     41  C   UNL     1       7.444  -9.111   4.390  1.00  0.00     0.148 A 
ATOM     42  C   UNL     1       8.983  -8.954   2.042  1.00  0.00     0.002 A 
ATOM     43  C   UNL     1       7.672 -10.247   3.620  1.00  0.00     0.091 A 
ATOM     44  F   UNL     1       6.692  -9.147   5.499  1.00  0.00    -0.205 F 
ATOM     45  C   UNL     1       8.435 -10.168   2.443  1.00  0.00     0.022 A 
BRANCH  43  46
ATOM     46  S   UNL     1       7.067 -11.874   4.088  1.00  0.00     0.127 S 
ATOM     47  O   UNL     1       5.994 -12.080   3.116  1.00  0.00    -0.237 OA
ATOM     48  O   UNL     1       8.247 -12.714   3.879  1.00  0.00    -0.237 OA
ATOM     49  O   UNL     1       6.643 -11.759   5.476  1.00  0.00    -0.744 OA
ENDBRANCH  43  46
ENDBRANCH  25  39
BRANCH  26  50
ATOM     50  C   UNL     1       6.848   0.412   9.467  1.00  0.00     0.023 A 
ATOM     51  C   UNL     1       7.909   1.327   9.602  1.00  0.00     0.012 A 
ATOM     52  C   UNL     1       5.605   0.711  10.056  1.00  0.00     0.148 A 
ATOM     53  C   UNL     1       7.740   2.507  10.327  1.00  0.00     0.002 A 
ATOM     54  C   UNL     1       5.425   1.917  10.723  1.00  0.00     0.091 A 
ATOM     55  F   UNL     1       4.610  -0.181   9.939  1.00  0.00    -0.205 F 
ATOM     56  C   UNL     1       6.496   2.810  10.874  1.00  0.00     0.022 A 
BRANCH  54  57
ATOM     57  S   UNL     1       3.805   2.433  11.303  1.00  0.00     0.127 S 
ATOM     58  O   UNL     1       3.845   2.031  12.705  1.00  0.00    -0.237 OA
ATOM     59  O   UNL     1       3.837   3.879  11.074  1.00  0.00    -0.237 OA
ATOM     60  O   UNL     1       2.858   1.722  10.453  1.00  0.00    -0.744 OA
ENDBRANCH  54  57
ENDBRANCH  26  50
BRANCH  38  61
ATOM     61  C   UNL     1      10.751  -5.327  10.169  1.00  0.00     0.023 A 
ATOM     62  C   UNL     1      10.239  -5.756  11.410  1.00  0.00     0.012 A 
ATOM     63  C   UNL     1      12.139  -5.371   9.940  1.00  0.00     0.148 A 
ATOM     64  C   UNL     1      11.097  -6.189  12.419  1.00  0.00     0.002 A 
ATOM     65  C   UNL     1      12.986  -5.842  10.937  1.00  0.00     0.091 A 
ATOM     66  F   UNL     1      12.610  -4.935   8.762  1.00  0.00    -0.205 F 
ATOM     67  C   UNL     1      12.468  -6.242  12.180  1.00  0.00     0.022 A 
BRANCH  65  68
ATOM     68  S   UNL     1      14.755  -6.015  10.678  1.00  0.00     0.127 S 
ATOM     69  O   UNL     1      15.272  -4.814  11.331  1.00  0.00    -0.237 OA
ATOM     70  O   UNL     1      15.057  -7.265  11.377  1.00  0.00    -0.237 OA
ATOM     71  O   UNL     1      14.936  -6.077   9.234  1.00  0.00    -0.744 OA
ENDBRANCH  65  68
ENDBRANCH  38  61
ENDBRANCH  12  13
ENDBRANCH   5   7
ENDBRANCH   2   3
ENDBRANCH   1   2
BRANCH   1  72
ATOM     72  C   UNL     1       4.078   0.659  -3.864  1.00  0.00     0.002 C 
BRANCH  72  73
ATOM     73  C   UNL     1       4.731   2.045  -3.861  1.00  0.00     0.002 C 
BRANCH  73  74
ATOM     74  C   UNL     1       6.263   2.069  -3.761  1.00  0.00     0.021 C 
BRANCH  74  75
ATOM     75  C   UNL     1       6.994   1.231  -4.810  1.00  0.00     0.116 C 
BRANCH  75  76
ATOM     76  N   UNL     1       6.738   1.720  -6.150  1.00  0.00    -0.356 N 
ATOM     77  C   UNL     1       7.573   2.241  -7.103  1.00  0.00     0.226 C 
ATOM     78  H   UNL     1       5.794   1.667  -6.426  1.00  0.00     0.163 HD
ATOM     79  O   UNL     1       7.025   2.570  -8.168  1.00  0.00    -0.275 OA
BRANCH  77  80
ATOM     80  C   UNL     1       9.076   2.401  -6.906  1.00  0.00     0.117 C 
ATOM     81  C   UNL     1       9.695   3.036  -5.658  1.00  0.00     0.133 C 
ATOM     82  C   UNL     1       9.961   1.180  -6.637  1.00  0.00     0.133 C 
ATOM     83  N   UNL     1      10.602   1.942  -5.628  1.00  0.00    -0.354 N 
BRANCH  83  84
ATOM     84  C   UNL     1      11.726   1.723  -4.835  1.00  0.00     0.147 A 
ATOM     85  C   UNL     1      12.668   0.743  -5.158  1.00  0.00     0.157 A 
ATOM     86  N   UNL     1      11.912   2.497  -3.740  1.00  0.00    -0.236 NA
ATOM     87  N   UNL     1      13.796   0.502  -4.441  1.00  0.00    -0.259 NA
ATOM     88  C   UNL     1      13.017   2.241  -2.998  1.00  0.00     0.133 A 
ATOM     89  C   UNL     1      13.942   1.272  -3.344  1.00  0.00     0.131 A 
ENDBRANCH  83  84
ENDBRANCH  77  80
ENDBRANCH  75  76
ENDBRANCH  74  75
ENDBRANCH  73  74
ENDBRANCH  72  73
ENDBRANCH   1  72
TORSDOF 17
