REMARK SMILES O=C(NCCCCCCNC(=O)[C@H]1CC2(CCN(C(=O)c3cccc(O)c3)CC2)CN1C(=O)C1CC1)c1ccc(-c2c3nc(c(-c4cccc(S(=O)(=O)[O-])c4F)c4ccc([nH]4)c(-c4cccc(S(=O)(=O)[O-])c4F)c4nc(c(-c5cccc(S(=O)(=O)[O-])c5F)c5ccc2[nH]5)C=C4)C=C3)cc1
REMARK SMILES IDX 6 1 5 2 4 3 3 4 1 5 2 6 37 8 38 9 99 10 39 11 98 12 40 13
REMARK SMILES IDX 41 14 42 15 92 16 43 17 97 18 91 19 93 20 44 21 96 22 90 23
REMARK SMILES IDX 89 24 45 26 77 27 57 28 76 29 58 30 61 31 75 32 94 33 59 34
REMARK SMILES IDX 60 35 74 37 95 38 62 39 46 40 47 41 55 42 48 43 50 44 56 45
REMARK SMILES IDX 49 46 51 47 52 48 53 49 54 50 78 51 79 52 87 53 80 54 82 55
REMARK SMILES IDX 88 56 81 57 83 58 84 59 85 60 86 61 63 62 64 63 72 64 65 65
REMARK SMILES IDX 67 66 73 67 66 68 68 69 69 70 70 71 71 72 7 73 8 74 9 75
REMARK SMILES IDX 10 76 11 77 12 79 13 80 14 81 31 82 15 83 30 84 16 85 29 86
REMARK SMILES IDX 17 87 28 88 18 89 19 90 20 91 32 92 33 93 34 94 35 95 36 96
REMARK SMILES IDX 21 97 22 98 27 99 23 100 25 101 24 102 26 103
REMARK H PARENT 3 7 93 25 61 36 10 78 26 104
REMARK Flexibility Score: inf
ROOT
ATOM      1  C   UNL     1       5.293   4.342   5.124  1.00  0.00     0.002 C 
ENDROOT
BRANCH   1   2
ATOM      2  C   UNL     1       3.971   4.600   5.845  1.00  0.00     0.021 C 
BRANCH   2   3
ATOM      3  C   UNL     1       3.979   5.823   6.752  1.00  0.00     0.116 C 
BRANCH   3   4
ATOM      4  N   UNL     1       4.002   7.061   5.993  1.00  0.00    -0.352 N 
ATOM      5  O   UNL     1       3.114   9.006   5.253  1.00  0.00    -0.269 OA
ATOM      6  C   UNL     1       3.120   8.111   6.090  1.00  0.00     0.251 C 
ATOM      7  H   UNL     1       4.730   7.160   5.337  1.00  0.00     0.163 HD
BRANCH   6   8
ATOM      8  C   UNL     1       2.167   8.114   7.219  1.00  0.00     0.039 A 
ATOM      9  C   UNL     1       2.639   7.915   8.520  1.00  0.00     0.014 A 
ATOM     10  C   UNL     1       0.801   8.249   6.968  1.00  0.00     0.014 A 
ATOM     11  C   UNL     1       1.734   7.737   9.559  1.00  0.00     0.010 A 
ATOM     12  C   UNL     1      -0.102   8.155   8.030  1.00  0.00     0.010 A 
ATOM     13  C   UNL     1       0.356   7.880   9.329  1.00  0.00    -0.014 A 
BRANCH  13  14
ATOM     14  C   UNL     1      -0.579   7.851  10.482  1.00  0.00     0.031 A 
ATOM     15  C   UNL     1      -1.650   6.806  10.604  1.00  0.00     0.074 A 
ATOM     16  C   UNL     1      -0.466   8.820  11.411  1.00  0.00     0.049 A 
ATOM     17  N   UNL     1      -2.553   6.664  11.541  1.00  0.00    -0.248 NA
ATOM     18  C   UNL     1      -1.729   5.795   9.539  1.00  0.00     0.031 C 
ATOM     19  C   UNL     1       0.503   9.919  11.362  1.00  0.00     0.029 A 
ATOM     20  N   UNL     1      -1.174   9.053  12.561  1.00  0.00    -0.354 N 
ATOM     21  C   UNL     1      -3.335   5.581  11.160  1.00  0.00     0.074 A 
ATOM     22  C   UNL     1      -2.800   5.101   9.903  1.00  0.00     0.031 C 
ATOM     23  C   UNL     1       0.335  10.704  12.434  1.00  0.00     0.029 A 
ATOM     24  C   UNL     1      -0.790  10.201  13.213  1.00  0.00     0.049 A 
ATOM     25  H   UNL     1      -1.886   8.458  12.887  1.00  0.00     0.167 HD
ATOM     26  C   UNL     1      -4.394   5.034  11.805  1.00  0.00     0.034 A 
ATOM     27  C   UNL     1      -1.304  10.807  14.299  1.00  0.00     0.034 A 
ATOM     28  C   UNL     1      -4.902   5.508  13.067  1.00  0.00     0.049 A 
ATOM     29  C   UNL     1      -2.462  10.167  15.005  1.00  0.00     0.074 A 
ATOM     30  C   UNL     1      -5.917   4.973  13.841  1.00  0.00     0.029 A 
ATOM     31  N   UNL     1      -4.449   6.638  13.732  1.00  0.00    -0.354 N 
ATOM     32  N   UNL     1      -3.095   9.058  14.707  1.00  0.00    -0.248 NA
ATOM     33  C   UNL     1      -2.958  10.841  16.210  1.00  0.00     0.031 C 
ATOM     34  C   UNL     1      -6.099   5.798  14.956  1.00  0.00     0.029 A 
ATOM     35  C   UNL     1      -5.175   6.828  14.896  1.00  0.00     0.049 A 
ATOM     36  H   UNL     1      -3.717   7.219  13.422  1.00  0.00     0.167 HD
ATOM     37  C   UNL     1      -4.050   8.888  15.699  1.00  0.00     0.074 A 
ATOM     38  C   UNL     1      -3.893   9.995  16.622  1.00  0.00     0.031 C 
ATOM     39  C   UNL     1      -4.983   7.913  15.826  1.00  0.00     0.034 A 
BRANCH  26  40
ATOM     40  C   UNL     1      -5.067   3.843  11.171  1.00  0.00     0.023 A 
ATOM     41  C   UNL     1      -4.414   2.593  11.159  1.00  0.00     0.012 A 
ATOM     42  C   UNL     1      -6.370   3.943  10.643  1.00  0.00     0.148 A 
ATOM     43  C   UNL     1      -5.031   1.473  10.601  1.00  0.00     0.002 A 
ATOM     44  C   UNL     1      -6.995   2.813  10.128  1.00  0.00     0.091 A 
ATOM     45  F   UNL     1      -6.970   5.142  10.644  1.00  0.00    -0.205 F 
ATOM     46  C   UNL     1      -6.323   1.581  10.095  1.00  0.00     0.022 A 
BRANCH  44  47
ATOM     47  S   UNL     1      -8.688   2.834   9.525  1.00  0.00     0.127 S 
ATOM     48  O   UNL     1      -8.486   2.751   8.079  1.00  0.00    -0.237 OA
ATOM     49  O   UNL     1      -9.248   1.626  10.132  1.00  0.00    -0.237 OA
ATOM     50  O   UNL     1      -9.269   4.079  10.008  1.00  0.00    -0.744 OA
ENDBRANCH  44  47
ENDBRANCH  26  40
BRANCH  27  51
ATOM     51  C   UNL     1      -0.696  12.076  14.783  1.00  0.00     0.023 A 
ATOM     52  C   UNL     1       0.040  12.085  15.982  1.00  0.00     0.012 A 
ATOM     53  C   UNL     1      -0.783  13.257  14.018  1.00  0.00     0.148 A 
ATOM     54  C   UNL     1       0.661  13.254  16.422  1.00  0.00     0.002 A 
ATOM     55  C   UNL     1      -0.111  14.400  14.431  1.00  0.00     0.091 A 
ATOM     56  F   UNL     1      -1.497  13.227  12.884  1.00  0.00    -0.205 F 
ATOM     57  C   UNL     1       0.598  14.406  15.642  1.00  0.00     0.022 A 
BRANCH  55  58
ATOM     58  S   UNL     1      -0.015  15.878  13.415  1.00  0.00     0.127 S 
ATOM     59  O   UNL     1      -0.857  16.808  14.162  1.00  0.00    -0.237 OA
ATOM     60  O   UNL     1       1.417  16.176  13.451  1.00  0.00    -0.237 OA
ATOM     61  O   UNL     1      -0.513  15.486  12.103  1.00  0.00    -0.744 OA
ENDBRANCH  55  58
ENDBRANCH  27  51
BRANCH  39  62
ATOM     62  C   UNL     1      -5.895   7.981  17.022  1.00  0.00     0.023 A 
ATOM     63  C   UNL     1      -6.907   8.959  17.078  1.00  0.00     0.012 A 
ATOM     64  C   UNL     1      -5.788   7.035  18.060  1.00  0.00     0.148 A 
ATOM     65  C   UNL     1      -7.779   9.015  18.165  1.00  0.00     0.002 A 
ATOM     66  C   UNL     1      -6.692   7.065  19.115  1.00  0.00     0.091 A 
ATOM     67  F   UNL     1      -4.805   6.125  17.998  1.00  0.00    -0.205 F 
ATOM     68  C   UNL     1      -7.680   8.062  19.176  1.00  0.00     0.022 A 
BRANCH  66  69
ATOM     69  S   UNL     1      -6.701   5.822  20.412  1.00  0.00     0.127 S 
ATOM     70  O   UNL     1      -6.197   6.581  21.555  1.00  0.00    -0.237 OA
ATOM     71  O   UNL     1      -8.118   5.467  20.491  1.00  0.00    -0.237 OA
ATOM     72  O   UNL     1      -5.834   4.748  19.944  1.00  0.00    -0.744 OA
ENDBRANCH  66  69
ENDBRANCH  39  62
ENDBRANCH  13  14
ENDBRANCH   6   8
ENDBRANCH   3   4
ENDBRANCH   2   3
ENDBRANCH   1   2
BRANCH   1  73
ATOM     73  C   UNL     1       6.520   4.323   6.039  1.00  0.00     0.002 C 
BRANCH  73  74
ATOM     74  C   UNL     1       6.410   3.353   7.225  1.00  0.00     0.021 C 
BRANCH  74  75
ATOM     75  C   UNL     1       6.454   1.871   6.841  1.00  0.00     0.116 C 
BRANCH  75  76
ATOM     76  N   UNL     1       7.530   1.537   5.914  1.00  0.00    -0.354 N 
ATOM     77  C   UNL     1       8.688   0.822   6.067  1.00  0.00     0.242 C 
ATOM     78  H   UNL     1       7.398   1.893   5.005  1.00  0.00     0.163 HD
ATOM     79  O   UNL     1       9.383   0.649   5.062  1.00  0.00    -0.273 OA
BRANCH  77  80
ATOM     80  C   UNL     1       9.053   0.241   7.447  1.00  0.00     0.175 C 
ATOM     81  C   UNL     1       9.438  -1.239   7.164  1.00  0.00     0.044 C 
ATOM     82  N   UNL     1      10.142   0.572   8.382  1.00  0.00    -0.330 N 
ATOM     83  C   UNL     1       9.913  -1.806   8.522  1.00  0.00    -0.006 C 
ATOM     84  C   UNL     1      10.209  -0.535   9.335  1.00  0.00     0.127 C 
ATOM     85  C   UNL     1      11.219  -2.625   8.404  1.00  0.00     0.030 C 
ATOM     86  C   UNL     1       8.811  -2.680   9.162  1.00  0.00     0.030 C 
ATOM     87  C   UNL     1      11.008  -3.956   7.699  1.00  0.00     0.120 C 
ATOM     88  C   UNL     1       8.669  -4.043   8.468  1.00  0.00     0.120 C 
ATOM     89  N   UNL     1       9.961  -4.715   8.380  1.00  0.00    -0.339 N 
ATOM     90  C   UNL     1      10.073  -6.029   8.826  1.00  0.00     0.253 C 
ATOM     91  O   UNL     1       9.119  -6.710   9.193  1.00  0.00    -0.269 OA
BRANCH  82  92
ATOM     92  C   UNL     1      10.770   1.742   8.790  1.00  0.00     0.226 C 
ATOM     93  O   UNL     1      11.254   1.812   9.921  1.00  0.00    -0.275 OA
BRANCH  92  94
ATOM     94  C   UNL     1      11.037   2.930   7.934  1.00  0.00     0.079 C 
ATOM     95  C   UNL     1      11.071   3.013   6.438  1.00  0.00     0.014 C 
ATOM     96  C   UNL     1       9.955   3.656   7.208  1.00  0.00     0.014 C 
ENDBRANCH  92  94
ENDBRANCH  82  92
BRANCH  90  97
ATOM     97  C   UNL     1      11.412  -6.653   8.883  1.00  0.00     0.043 A 
ATOM     98  C   UNL     1      12.412  -6.116   9.703  1.00  0.00     0.014 A 
ATOM     99  C   UNL     1      11.643  -7.821   8.154  1.00  0.00     0.060 A 
ATOM    100  C   UNL     1      13.666  -6.726   9.754  1.00  0.00     0.005 A 
ATOM    101  C   UNL     1      12.895  -8.421   8.219  1.00  0.00     0.116 A 
ATOM    102  C   UNL     1      13.911  -7.880   9.006  1.00  0.00     0.046 A 
BRANCH 101 103
ATOM    103  O   UNL     1      13.095  -9.555   7.488  1.00  0.00    -0.508 OA
ATOM    104  H   UNL     1      13.927  -9.985   7.508  1.00  0.00     0.293 HD
ENDBRANCH 101 103
ENDBRANCH  90  97
ENDBRANCH  77  80
ENDBRANCH  75  76
ENDBRANCH  74  75
ENDBRANCH  73  74
ENDBRANCH   1  73
TORSDOF 20
