REMARK SMILES COc1ccc(OC)c([C@H](C(=O)NCCCCCCNC(=O)c2ccc(-c3c4nc(c(-c5cccc(S(=O)(=O)[O-])c5F)c5ccc([nH]5)c(-c5cccc(S(=O)(=O)[O-])c5F)c5nc(c(-c6cccc(S(=O)(=O)[O-])c6F)c6ccc3[nH]6)C=C5)C=C4)cc2)[NH+]2CC[NH+](Cc3nccn3C)CC2)c1
REMARK SMILES IDX 16 1 15 2 14 3 13 4 11 5 12 6 10 8 9 9 3 10 4 11 99 12 5 13
REMARK SMILES IDX 6 14 2 15 1 16 7 17 8 18 86 19 87 20 98 21 88 23 97 24 89 25
REMARK SMILES IDX 90 27 91 28 92 29 95 30 93 31 94 32 96 33 17 34 18 35 19 36
REMARK SMILES IDX 20 37 21 38 22 40 23 41 24 42 85 43 25 44 84 45 26 46 27 47
REMARK SMILES IDX 28 48 78 49 29 50 83 51 77 52 79 53 30 54 82 55 76 56 75 57
REMARK SMILES IDX 31 59 63 60 43 61 62 62 44 63 47 64 61 65 80 66 45 67 46 68
REMARK SMILES IDX 60 70 81 71 48 72 32 73 33 74 41 75 34 76 36 77 42 78 35 79
REMARK SMILES IDX 37 80 38 81 39 82 40 83 64 84 65 85 73 86 66 87 68 88 74 89
REMARK SMILES IDX 67 90 69 91 70 92 71 93 72 94 49 95 50 96 58 97 51 98 53 99
REMARK SMILES IDX 59 100 52 101 54 102 55 103 56 104 57 105
REMARK H PARENT 13 7 86 22 89 26 20 39 79 58 47 69
REMARK Flexibility Score: inf
ROOT
ATOM      1  C   UNL     1       1.517  -0.145   0.416  1.00  0.00     0.002 C 
ENDROOT
BRANCH   1   2
ATOM      2  C   UNL     1       2.900  -0.176  -0.252  1.00  0.00     0.021 C 
BRANCH   2   3
ATOM      3  C   UNL     1       3.373  -1.567  -0.673  1.00  0.00     0.116 C 
BRANCH   3   4
ATOM      4  N   UNL     1       2.364  -2.222  -1.480  1.00  0.00    -0.351 N 
ATOM      5  C   UNL     1       2.365  -2.617  -2.778  1.00  0.00     0.283 C 
ATOM      6  O   UNL     1       1.280  -3.019  -3.216  1.00  0.00    -0.268 OA
ATOM      7  H   UNL     1       1.527  -2.415  -0.999  1.00  0.00     0.163 HD
BRANCH   5   8
ATOM      8  C   UNL     1       3.666  -2.578  -3.622  1.00  0.00     0.309 C 
BRANCH   8   9
ATOM      9  C   UNL     1       4.272  -3.966  -3.868  1.00  0.00     0.065 A 
ATOM     10  C   UNL     1       3.925  -6.405  -4.003  1.00  0.00     0.119 A 
ATOM     11  C   UNL     1       5.285  -6.582  -4.221  1.00  0.00     0.050 A 
ATOM     12  C   UNL     1       3.436  -5.110  -3.837  1.00  0.00     0.060 A 
ATOM     13  C   UNL     1       6.138  -5.477  -4.268  1.00  0.00     0.051 A 
ATOM     14  C   UNL     1       5.644  -4.176  -4.096  1.00  0.00     0.128 A 
BRANCH  10  15
ATOM     15  O   UNL     1       3.176  -7.548  -3.941  1.00  0.00    -0.497 OA
ATOM     16  C   UNL     1       1.761  -7.380  -3.966  1.00  0.00     0.278 C 
ENDBRANCH  10  15
BRANCH  14  17
ATOM     17  O   UNL     1       6.614  -3.213  -4.004  1.00  0.00    -0.496 OA
ATOM     18  C   UNL     1       6.514  -2.158  -4.956  1.00  0.00     0.278 C 
ENDBRANCH  14  17
ENDBRANCH   8   9
BRANCH   8  19
ATOM     19  N   UNL     1       3.480  -1.778  -4.852  1.00  0.00    -0.311 N 
ATOM     20  C   UNL     1       2.708  -2.374  -5.945  1.00  0.00     0.325 C 
ATOM     21  C   UNL     1       3.192  -0.360  -4.627  1.00  0.00     0.325 C 
ATOM     22  H   UNL     1       4.427  -1.810  -5.230  1.00  0.00     0.349 HD
ATOM     23  C   UNL     1       1.272  -1.851  -6.182  1.00  0.00     0.324 C 
ATOM     24  C   UNL     1       1.724   0.085  -4.815  1.00  0.00     0.324 C 
ATOM     25  N   UNL     1       1.045  -0.410  -6.013  1.00  0.00    -0.319 N 
ATOM     26  H   UNL     1       0.051  -0.266  -5.836  1.00  0.00     0.348 HD
BRANCH  25  27
ATOM     27  C   UNL     1       1.223   0.378  -7.240  1.00  0.00     0.339 C 
BRANCH  27  28
ATOM     28  C   UNL     1       2.617   0.501  -7.779  1.00  0.00     0.164 A 
ATOM     29  N   UNL     1       3.237  -0.419  -8.500  1.00  0.00    -0.236 NA
ATOM     30  N   UNL     1       3.438   1.595  -7.612  1.00  0.00    -0.333 N 
ATOM     31  C   UNL     1       4.515   0.030  -8.678  1.00  0.00     0.131 A 
ATOM     32  C   UNL     1       4.665   1.281  -8.135  1.00  0.00     0.107 A 
ATOM     33  C   UNL     1       3.140   2.858  -6.983  1.00  0.00     0.151 C 
ENDBRANCH  27  28
ENDBRANCH  25  27
ENDBRANCH   8  19
ENDBRANCH   5   8
ENDBRANCH   3   4
ENDBRANCH   2   3
ENDBRANCH   1   2
BRANCH   1  34
ATOM     34  C   UNL     1       1.310  -1.152   1.552  1.00  0.00     0.002 C 
BRANCH  34  35
ATOM     35  C   UNL     1       2.342  -1.085   2.678  1.00  0.00     0.021 C 
BRANCH  35  36
ATOM     36  C   UNL     1       2.474   0.280   3.336  1.00  0.00     0.116 C 
BRANCH  36  37
ATOM     37  N   UNL     1       1.233   0.711   3.957  1.00  0.00    -0.352 N 
ATOM     38  C   UNL     1       1.037   1.238   5.205  1.00  0.00     0.251 C 
ATOM     39  H   UNL     1       0.424   0.611   3.405  1.00  0.00     0.163 HD
ATOM     40  O   UNL     1      -0.111   1.380   5.635  1.00  0.00    -0.269 OA
BRANCH  38  41
ATOM     41  C   UNL     1       2.194   1.616   6.041  1.00  0.00     0.039 A 
ATOM     42  C   UNL     1       2.182   1.284   7.397  1.00  0.00     0.014 A 
ATOM     43  C   UNL     1       3.283   2.306   5.497  1.00  0.00     0.014 A 
ATOM     44  C   UNL     1       3.276   1.612   8.199  1.00  0.00     0.010 A 
ATOM     45  C   UNL     1       4.405   2.564   6.280  1.00  0.00     0.010 A 
ATOM     46  C   UNL     1       4.405   2.238   7.644  1.00  0.00    -0.014 A 
BRANCH  46  47
ATOM     47  C   UNL     1       5.584   2.559   8.486  1.00  0.00     0.031 A 
ATOM     48  C   UNL     1       5.993   3.990   8.714  1.00  0.00     0.074 A 
ATOM     49  C   UNL     1       6.319   1.557   9.006  1.00  0.00     0.049 A 
ATOM     50  N   UNL     1       6.974   4.459   9.442  1.00  0.00    -0.248 NA
ATOM     51  C   UNL     1       5.219   5.029   8.016  1.00  0.00     0.031 C 
ATOM     52  C   UNL     1       6.083   0.129   8.777  1.00  0.00     0.029 A 
ATOM     53  N   UNL     1       7.423   1.584   9.820  1.00  0.00    -0.354 N 
ATOM     54  C   UNL     1       6.954   5.837   9.266  1.00  0.00     0.074 A 
ATOM     55  C   UNL     1       5.889   6.128   8.332  1.00  0.00     0.031 C 
ATOM     56  C   UNL     1       7.005  -0.581   9.447  1.00  0.00     0.029 A 
ATOM     57  C   UNL     1       7.905   0.336  10.138  1.00  0.00     0.049 A 
ATOM     58  H   UNL     1       7.832   2.418  10.145  1.00  0.00     0.167 HD
ATOM     59  C   UNL     1       7.727   6.780   9.856  1.00  0.00     0.034 A 
ATOM     60  C   UNL     1       8.949  -0.028  10.908  1.00  0.00     0.034 A 
ATOM     61  C   UNL     1       8.752   6.490  10.822  1.00  0.00     0.049 A 
ATOM     62  C   UNL     1       9.745   1.039  11.608  1.00  0.00     0.074 A 
ATOM     63  C   UNL     1       9.527   7.378  11.548  1.00  0.00     0.029 A 
ATOM     64  N   UNL     1       9.150   5.215  11.194  1.00  0.00    -0.354 N 
ATOM     65  N   UNL     1       9.595   2.341  11.569  1.00  0.00    -0.248 NA
ATOM     66  C   UNL     1      10.826   0.586  12.495  1.00  0.00     0.031 C 
ATOM     67  C   UNL     1      10.406   6.638  12.348  1.00  0.00     0.029 A 
ATOM     68  C   UNL     1      10.163   5.290  12.135  1.00  0.00     0.049 A 
ATOM     69  H   UNL     1       8.769   4.379  10.841  1.00  0.00     0.167 HD
ATOM     70  C   UNL     1      10.538   2.861  12.448  1.00  0.00     0.074 A 
ATOM     71  C   UNL     1      11.236   1.730  13.026  1.00  0.00     0.031 C 
ATOM     72  C   UNL     1      10.814   4.156  12.738  1.00  0.00     0.034 A 
BRANCH  59  73
ATOM     73  C   UNL     1       7.450   8.223   9.520  1.00  0.00     0.023 A 
ATOM     74  C   UNL     1       6.276   8.834  10.007  1.00  0.00     0.012 A 
ATOM     75  C   UNL     1       8.369   8.988   8.778  1.00  0.00     0.148 A 
ATOM     76  C   UNL     1       6.004  10.174   9.732  1.00  0.00     0.002 A 
ATOM     77  C   UNL     1       8.113  10.335   8.545  1.00  0.00     0.091 A 
ATOM     78  F   UNL     1       9.469   8.386   8.304  1.00  0.00    -0.205 F 
ATOM     79  C   UNL     1       6.927  10.926   9.012  1.00  0.00     0.022 A 
BRANCH  77  80
ATOM     80  S   UNL     1       9.274  11.409   7.693  1.00  0.00     0.127 S 
ATOM     81  O   UNL     1       8.594  11.624   6.416  1.00  0.00    -0.237 OA
ATOM     82  O   UNL     1       9.310  12.581   8.569  1.00  0.00    -0.237 OA
ATOM     83  O   UNL     1      10.525  10.669   7.618  1.00  0.00    -0.744 OA
ENDBRANCH  77  80
ENDBRANCH  59  73
BRANCH  60  84
ATOM     84  C   UNL     1       9.242  -1.472  11.126  1.00  0.00     0.023 A 
ATOM     85  C   UNL     1       8.992  -2.047  12.387  1.00  0.00     0.012 A 
ATOM     86  C   UNL     1       9.733  -2.284  10.085  1.00  0.00     0.148 A 
ATOM     87  C   UNL     1       9.256  -3.398  12.618  1.00  0.00     0.002 A 
ATOM     88  C   UNL     1       9.941  -3.641  10.307  1.00  0.00     0.091 A 
ATOM     89  F   UNL     1       9.976  -1.716   8.896  1.00  0.00    -0.205 F 
ATOM     90  C   UNL     1       9.720  -4.196  11.576  1.00  0.00     0.022 A 
BRANCH  88  91
ATOM     91  S   UNL     1      10.406  -4.767   8.986  1.00  0.00     0.127 S 
ATOM     92  O   UNL     1      11.803  -5.045   9.309  1.00  0.00    -0.237 OA
ATOM     93  O   UNL     1       9.488  -5.886   9.204  1.00  0.00    -0.237 OA
ATOM     94  O   UNL     1      10.173  -4.035   7.750  1.00  0.00    -0.744 OA
ENDBRANCH  88  91
ENDBRANCH  60  84
BRANCH  72  95
ATOM     95  C   UNL     1      11.902   4.425  13.745  1.00  0.00     0.023 A 
ATOM     96  C   UNL     1      13.248   4.200  13.398  1.00  0.00     0.012 A 
ATOM     97  C   UNL     1      11.595   4.955  15.014  1.00  0.00     0.148 A 
ATOM     98  C   UNL     1      14.270   4.460  14.310  1.00  0.00     0.002 A 
ATOM     99  C   UNL     1      12.621   5.258  15.901  1.00  0.00     0.091 A 
ATOM    100  F   UNL     1      10.307   5.144  15.336  1.00  0.00    -0.205 F 
ATOM    101  C   UNL     1      13.958   4.999  15.556  1.00  0.00     0.022 A 
BRANCH  99 102
ATOM    102  S   UNL     1      12.313   6.043  17.487  1.00  0.00     0.127 S 
ATOM    103  O   UNL     1      12.452   4.917  18.409  1.00  0.00    -0.237 OA
ATOM    104  O   UNL     1      13.392   7.030  17.563  1.00  0.00    -0.237 OA
ATOM    105  O   UNL     1      10.979   6.619  17.392  1.00  0.00    -0.744 OA
ENDBRANCH  99 102
ENDBRANCH  72  95
ENDBRANCH  46  47
ENDBRANCH  38  41
ENDBRANCH  36  37
ENDBRANCH  35  36
ENDBRANCH  34  35
ENDBRANCH   1  34
TORSDOF 22
