REMARK SMILES CC(C)Cc1ccc(S(=O)(=O)Nc2cnc(N3CCCC3)c(C(=O)NCCCCCCNC(=O)c3ccc(-c4c5nc(c(-c6cccc(S(=O)(=O)[O-])c6F)c6ccc([nH]6)c(-c6cccc(S(=O)(=O)[O-])c6F)c6nc(c(-c7cccc(S(=O)(=O)[O-])c7F)c7ccc4[nH]7)C=C6)C=C5)cc3)c2)cc1
REMARK SMILES IDX 27 1 26 2 25 3 23 4 24 5 22 7 13 8 14 9 98 10 15 11 16 12
REMARK SMILES IDX 12 13 9 15 10 16 11 17 8 18 5 19 6 20 100 21 7 22 99 23 4 24
REMARK SMILES IDX 2 25 1 26 3 27 17 28 18 29 21 30 19 31 20 32 28 33 29 34
REMARK SMILES IDX 30 35 31 36 32 37 33 38 34 40 35 41 36 42 97 43 37 44 96 45
REMARK SMILES IDX 38 46 39 47 40 48 90 49 41 50 95 51 89 52 91 53 42 54 94 55
REMARK SMILES IDX 88 56 87 57 43 59 75 60 55 61 74 62 56 63 59 64 73 65 92 66
REMARK SMILES IDX 57 67 58 68 72 70 93 71 60 72 44 73 45 74 53 75 46 76 48 77
REMARK SMILES IDX 54 78 47 79 49 80 50 81 51 82 52 83 76 84 77 85 85 86 78 87
REMARK SMILES IDX 80 88 86 89 79 90 81 91 82 92 83 93 84 94 61 95 62 96 70 97
REMARK SMILES IDX 63 98 65 99 71 100 64 101 66 102 67 103 68 104 69 105
REMARK H PARENT 25 6 12 14 32 39 91 58 59 69
REMARK Flexibility Score: inf
ROOT
ATOM      1  C   UNL     1       2.129   0.469   3.945  1.00  0.00     0.021 C 
ENDROOT
BRANCH   1   2
ATOM      2  C   UNL     1       0.833   0.299   3.158  1.00  0.00     0.116 C 
BRANCH   2   3
ATOM      3  N   UNL     1       0.535  -1.112   2.999  1.00  0.00    -0.352 N 
ATOM      4  C   UNL     1      -0.413  -2.010   3.407  1.00  0.00     0.255 C 
ATOM      5  O   UNL     1      -0.184  -3.145   2.986  1.00  0.00    -0.269 OA
ATOM      6  H   UNL     1       1.212  -1.551   2.433  1.00  0.00     0.163 HD
BRANCH   4   7
ATOM      7  C   UNL     1      -1.656  -1.674   4.189  1.00  0.00     0.084 A 
ATOM      8  C   UNL     1      -3.077   0.092   5.015  1.00  0.00     0.068 A 
ATOM      9  C   UNL     1      -4.136  -0.791   4.960  1.00  0.00     0.140 A 
ATOM     10  C   UNL     1      -1.807  -0.418   4.790  1.00  0.00     0.046 A 
ATOM     11  N   UNL     1      -4.014  -2.070   4.560  1.00  0.00    -0.236 NA
ATOM     12  C   UNL     1      -2.795  -2.514   4.144  1.00  0.00     0.141 A 
BRANCH   8  13
ATOM     13  N   UNL     1      -3.356   1.481   5.140  1.00  0.00    -0.278 N 
ATOM     14  H   UNL     1      -4.083   1.754   5.745  1.00  0.00     0.180 HD
BRANCH  13  15
ATOM     15  S   UNL     1      -2.517   2.689   4.316  1.00  0.00     0.261 S 
ATOM     16  O   UNL     1      -1.179   2.736   4.874  1.00  0.00    -0.201 OA
ATOM     17  O   UNL     1      -3.396   3.834   4.355  1.00  0.00    -0.201 OA
BRANCH  15  18
ATOM     18  C   UNL     1      -2.329   2.246   2.592  1.00  0.00     0.087 A 
ATOM     19  C   UNL     1      -1.596   1.484  -0.025  1.00  0.00    -0.048 A 
ATOM     20  C   UNL     1      -1.122   2.681   0.527  1.00  0.00     0.005 A 
ATOM     21  C   UNL     1      -2.497   0.714   0.723  1.00  0.00     0.005 A 
ATOM     22  C   UNL     1      -1.471   3.053   1.830  1.00  0.00     0.022 A 
ATOM     23  C   UNL     1      -2.885   1.107   2.012  1.00  0.00     0.022 A 
BRANCH  19  24
ATOM     24  C   UNL     1      -1.161   1.040  -1.406  1.00  0.00     0.038 C 
BRANCH  24  25
ATOM     25  C   UNL     1       0.344   0.710  -1.525  1.00  0.00    -0.013 C 
ATOM     26  C   UNL     1       0.715  -0.555  -0.751  1.00  0.00     0.008 C 
ATOM     27  C   UNL     1       0.737   0.525  -2.993  1.00  0.00     0.008 C 
ENDBRANCH  24  25
ENDBRANCH  19  24
ENDBRANCH  15  18
ENDBRANCH  13  15
ENDBRANCH   8  13
BRANCH  12  28
ATOM     28  N   UNL     1      -2.816  -3.779   3.643  1.00  0.00    -0.356 N 
ATOM     29  C   UNL     1      -2.024  -4.891   4.133  1.00  0.00     0.118 C 
ATOM     30  C   UNL     1      -3.860  -4.219   2.734  1.00  0.00     0.118 C 
ATOM     31  C   UNL     1      -2.079  -5.841   2.941  1.00  0.00     0.023 C 
ATOM     32  C   UNL     1      -3.521  -5.690   2.468  1.00  0.00     0.023 C 
ENDBRANCH  12  28
ENDBRANCH   4   7
ENDBRANCH   2   3
ENDBRANCH   1   2
BRANCH   1  33
ATOM     33  C   UNL     1       3.373   0.021   3.163  1.00  0.00     0.002 C 
BRANCH  33  34
ATOM     34  C   UNL     1       3.574   0.716   1.811  1.00  0.00     0.002 C 
BRANCH  34  35
ATOM     35  C   UNL     1       3.542   2.245   1.854  1.00  0.00     0.021 C 
BRANCH  35  36
ATOM     36  C   UNL     1       4.559   2.868   2.801  1.00  0.00     0.116 C 
BRANCH  36  37
ATOM     37  N   UNL     1       5.926   2.556   2.420  1.00  0.00    -0.352 N 
ATOM     38  C   UNL     1       7.024   3.378   2.417  1.00  0.00     0.251 C 
ATOM     39  H   UNL     1       6.085   1.630   2.124  1.00  0.00     0.163 HD
ATOM     40  O   UNL     1       8.075   2.998   1.911  1.00  0.00    -0.269 OA
BRANCH  38  41
ATOM     41  C   UNL     1       6.925   4.731   3.005  1.00  0.00     0.039 A 
ATOM     42  C   UNL     1       7.463   5.811   2.302  1.00  0.00     0.014 A 
ATOM     43  C   UNL     1       6.310   4.931   4.245  1.00  0.00     0.014 A 
ATOM     44  C   UNL     1       7.352   7.100   2.826  1.00  0.00     0.010 A 
ATOM     45  C   UNL     1       6.141   6.223   4.733  1.00  0.00     0.010 A 
ATOM     46  C   UNL     1       6.676   7.317   4.038  1.00  0.00    -0.014 A 
BRANCH  46  47
ATOM     47  C   UNL     1       6.538   8.681   4.603  1.00  0.00     0.031 A 
ATOM     48  C   UNL     1       7.216   9.030   5.900  1.00  0.00     0.074 A 
ATOM     49  C   UNL     1       5.745   9.579   3.989  1.00  0.00     0.049 A 
ATOM     50  N   UNL     1       7.202  10.160   6.558  1.00  0.00    -0.248 NA
ATOM     51  C   UNL     1       7.986   7.962   6.560  1.00  0.00     0.031 C 
ATOM     52  C   UNL     1       4.964   9.327   2.776  1.00  0.00     0.029 A 
ATOM     53  N   UNL     1       5.450  10.879   4.310  1.00  0.00    -0.354 N 
ATOM     54  C   UNL     1       7.926   9.930   7.721  1.00  0.00     0.074 A 
ATOM     55  C   UNL     1       8.336   8.543   7.699  1.00  0.00     0.031 C 
ATOM     56  C   UNL     1       4.287  10.440   2.451  1.00  0.00     0.029 A 
ATOM     57  C   UNL     1       4.575  11.479   3.435  1.00  0.00     0.049 A 
ATOM     58  H   UNL     1       5.828  11.340   5.094  1.00  0.00     0.167 HD
ATOM     59  C   UNL     1       8.255  10.804   8.702  1.00  0.00     0.034 A 
ATOM     60  C   UNL     1       4.075  12.730   3.421  1.00  0.00     0.034 A 
ATOM     61  C   UNL     1       7.903  12.197   8.685  1.00  0.00     0.049 A 
ATOM     62  C   UNL     1       4.524  13.705   4.476  1.00  0.00     0.074 A 
ATOM     63  C   UNL     1       8.270  13.189   9.577  1.00  0.00     0.029 A 
ATOM     64  N   UNL     1       7.106  12.796   7.723  1.00  0.00    -0.354 N 
ATOM     65  N   UNL     1       5.353  13.516   5.474  1.00  0.00    -0.248 NA
ATOM     66  C   UNL     1       4.005  15.077   4.378  1.00  0.00     0.031 C 
ATOM     67  C   UNL     1       7.693  14.391   9.151  1.00  0.00     0.029 A 
ATOM     68  C   UNL     1       6.970  14.146   7.994  1.00  0.00     0.049 A 
ATOM     69  H   UNL     1       6.697  12.330   6.958  1.00  0.00     0.167 HD
ATOM     70  C   UNL     1       5.482  14.748   6.103  1.00  0.00     0.074 A 
ATOM     71  C   UNL     1       4.660  15.683   5.361  1.00  0.00     0.031 C 
ATOM     72  C   UNL     1       6.200  15.074   7.206  1.00  0.00     0.034 A 
BRANCH  59  73
ATOM     73  C   UNL     1       9.106  10.290   9.833  1.00  0.00     0.023 A 
ATOM     74  C   UNL     1      10.470  10.018   9.598  1.00  0.00     0.012 A 
ATOM     75  C   UNL     1       8.579  10.112  11.126  1.00  0.00     0.148 A 
ATOM     76  C   UNL     1      11.288   9.544  10.623  1.00  0.00     0.002 A 
ATOM     77  C   UNL     1       9.411   9.675  12.153  1.00  0.00     0.091 A 
ATOM     78  F   UNL     1       7.275  10.348  11.327  1.00  0.00    -0.205 F 
ATOM     79  C   UNL     1      10.761   9.382  11.901  1.00  0.00     0.022 A 
BRANCH  77  80
ATOM     80  S   UNL     1       8.835   9.506  13.847  1.00  0.00     0.127 S 
ATOM     81  O   UNL     1       8.634   8.062  13.948  1.00  0.00    -0.237 OA
ATOM     82  O   UNL     1       9.971  10.018  14.616  1.00  0.00    -0.237 OA
ATOM     83  O   UNL     1       7.632  10.322  13.937  1.00  0.00    -0.744 OA
ENDBRANCH  77  80
ENDBRANCH  59  73
BRANCH  60  84
ATOM     84  C   UNL     1       3.188  13.157   2.303  1.00  0.00     0.023 A 
ATOM     85  C   UNL     1       3.699  14.029   1.321  1.00  0.00     0.012 A 
ATOM     86  C   UNL     1       1.874  12.668   2.171  1.00  0.00     0.148 A 
ATOM     87  C   UNL     1       2.910  14.425   0.241  1.00  0.00     0.002 A 
ATOM     88  C   UNL     1       1.110  13.028   1.066  1.00  0.00     0.091 A 
ATOM     89  F   UNL     1       1.401  11.851   3.123  1.00  0.00    -0.205 F 
ATOM     90  C   UNL     1       1.621  13.916   0.107  1.00  0.00     0.022 A 
BRANCH  88  91
ATOM     91  S   UNL     1      -0.508  12.315   0.747  1.00  0.00     0.127 S 
ATOM     92  O   UNL     1      -1.397  13.414   1.112  1.00  0.00    -0.237 OA
ATOM     93  O   UNL     1      -0.440  12.028  -0.687  1.00  0.00    -0.237 OA
ATOM     94  O   UNL     1      -0.581  11.128   1.588  1.00  0.00    -0.744 OA
ENDBRANCH  88  91
ENDBRANCH  60  84
BRANCH  72  95
ATOM     95  C   UNL     1       6.155  16.504   7.671  1.00  0.00     0.023 A 
ATOM     96  C   UNL     1       5.011  16.979   8.340  1.00  0.00     0.012 A 
ATOM     97  C   UNL     1       7.274  17.347   7.526  1.00  0.00     0.148 A 
ATOM     98  C   UNL     1       4.971  18.280   8.839  1.00  0.00     0.002 A 
ATOM     99  C   UNL     1       7.243  18.630   8.061  1.00  0.00     0.091 A 
ATOM    100  F   UNL     1       8.346  16.884   6.865  1.00  0.00    -0.205 F 
ATOM    101  C   UNL     1       6.090  19.101   8.710  1.00  0.00     0.022 A 
BRANCH  99 102
ATOM    102  S   UNL     1       8.673  19.716   8.017  1.00  0.00     0.127 S 
ATOM    103  O   UNL     1       8.336  20.610   6.910  1.00  0.00    -0.237 OA
ATOM    104  O   UNL     1       8.636  20.342   9.339  1.00  0.00    -0.237 OA
ATOM    105  O   UNL     1       9.822  18.847   7.799  1.00  0.00    -0.744 OA
ENDBRANCH  99 102
ENDBRANCH  72  95
ENDBRANCH  46  47
ENDBRANCH  38  41
ENDBRANCH  36  37
ENDBRANCH  35  36
ENDBRANCH  34  35
ENDBRANCH  33  34
ENDBRANCH   1  33
TORSDOF 22
