REMARK SMILES COc1cc(Cl)c2c(c1)C=C(C(=O)NCCCCCCNC(=O)c1ccc(-c3c4nc(c(-c5cccc(S(=O)(=O)[O-])c5F)c5ccc([nH]5)c(-c5cccc(S(=O)(=O)[O-])c5F)c5nc(c(-c6cccc(S(=O)(=O)[O-])c6F)c6ccc3[nH]6)C=C5)C=C4)cc1)[C@@H](C(F)(F)F)O2
REMARK SMILES IDX 18 1 17 2 16 3 15 4 14 5 12 6 13 7 11 9 3 10 4 11 9 12 5 13
REMARK SMILES IDX 8 14 6 15 7 16 10 17 92 18 87 19 2 20 1 21 88 22 89 23 90 24
REMARK SMILES IDX 91 25 19 26 20 27 21 28 22 29 23 31 24 32 25 33 86 34 26 35
REMARK SMILES IDX 85 36 27 37 28 38 29 39 79 40 30 41 84 42 78 43 80 44 31 45
REMARK SMILES IDX 83 46 77 47 76 48 32 50 64 51 44 52 63 53 45 54 48 55 62 56
REMARK SMILES IDX 81 57 46 58 47 59 61 61 82 62 49 63 33 64 34 65 42 66 35 67
REMARK SMILES IDX 37 68 43 69 36 70 38 71 39 72 40 73 41 74 65 75 66 76 74 77
REMARK SMILES IDX 67 78 69 79 75 80 68 81 70 82 71 83 72 84 73 85 50 86 51 87
REMARK SMILES IDX 59 88 52 89 54 90 60 91 53 92 55 93 56 94 57 95 58 96
REMARK H PARENT 14 8 21 30 80 49 48 60
REMARK Flexibility Score: inf
ROOT
ATOM      1  C   UNL     1      -0.262   7.842 -10.328  1.00  0.00     0.002 C 
ENDROOT
BRANCH   1   2
ATOM      2  C   UNL     1      -0.367   6.318 -10.480  1.00  0.00     0.002 C 
BRANCH   2   3
ATOM      3  C   UNL     1       0.467   5.504  -9.485  1.00  0.00     0.021 C 
BRANCH   3   4
ATOM      4  C   UNL     1       0.151   5.809  -8.024  1.00  0.00     0.116 C 
BRANCH   4   5
ATOM      5  N   UNL     1      -0.973   5.023  -7.545  1.00  0.00    -0.352 N 
ATOM      6  C   UNL     1      -1.197   4.094  -6.588  1.00  0.00     0.251 C 
ATOM      7  O   UNL     1      -2.362   3.686  -6.516  1.00  0.00    -0.270 OA
ATOM      8  H   UNL     1      -1.793   5.219  -8.055  1.00  0.00     0.163 HD
BRANCH   6   9
ATOM      9  C   UNL     1      -0.169   3.552  -5.648  1.00  0.00     0.067 C 
ATOM     10  C   UNL     1       0.817   0.541  -1.993  1.00  0.00     0.121 A 
ATOM     11  C   UNL     1       2.172   0.857  -2.078  1.00  0.00     0.070 A 
ATOM     12  C   UNL     1      -0.086   1.073  -2.916  1.00  0.00     0.058 A 
ATOM     13  C   UNL     1       2.612   1.748  -3.055  1.00  0.00     0.087 A 
ATOM     14  C   UNL     1       0.350   1.977  -3.889  1.00  0.00     0.022 A 
ATOM     15  Cl  UNL     1       4.297   2.117  -3.131  1.00  0.00    -0.080 Cl
ATOM     16  C   UNL     1       1.701   2.325  -3.946  1.00  0.00     0.146 A 
ATOM     17  C   UNL     1      -0.578   2.536  -4.865  1.00  0.00     0.025 C 
ATOM     18  O   UNL     1       2.178   3.184  -4.894  1.00  0.00    -0.474 OA
ATOM     19  C   UNL     1       1.225   4.095  -5.501  1.00  0.00     0.314 C 
BRANCH  10  20
ATOM     20  O   UNL     1       0.299  -0.328  -1.071  1.00  0.00    -0.497 OA
ATOM     21  C   UNL     1       0.802  -0.121   0.247  1.00  0.00     0.278 C 
ENDBRANCH  10  20
BRANCH  19  22
ATOM     22  C   UNL     1       1.252   5.445  -4.758  1.00  0.00     0.429 C 
ATOM     23  F   UNL     1       2.445   6.062  -4.922  1.00  0.00    -0.167 F 
ATOM     24  F   UNL     1       0.308   6.302  -5.216  1.00  0.00    -0.167 F 
ATOM     25  F   UNL     1       1.038   5.303  -3.430  1.00  0.00    -0.167 F 
ENDBRANCH  19  22
ENDBRANCH   6   9
ENDBRANCH   4   5
ENDBRANCH   3   4
ENDBRANCH   2   3
ENDBRANCH   1   2
BRANCH   1  26
ATOM     26  C   UNL     1       1.164   8.396 -10.241  1.00  0.00     0.021 C 
BRANCH  26  27
ATOM     27  C   UNL     1       2.046   8.056 -11.438  1.00  0.00     0.116 C 
BRANCH  27  28
ATOM     28  N   UNL     1       1.525   8.636 -12.665  1.00  0.00    -0.352 N 
ATOM     29  C   UNL     1       2.125   9.540 -13.502  1.00  0.00     0.251 C 
ATOM     30  H   UNL     1       0.624   8.340 -12.929  1.00  0.00     0.163 HD
ATOM     31  O   UNL     1       1.474  10.110 -14.374  1.00  0.00    -0.269 OA
BRANCH  29  32
ATOM     32  C   UNL     1       3.563   9.823 -13.340  1.00  0.00     0.039 A 
ATOM     33  C   UNL     1       3.991  11.149 -13.239  1.00  0.00     0.014 A 
ATOM     34  C   UNL     1       4.482   8.769 -13.287  1.00  0.00     0.014 A 
ATOM     35  C   UNL     1       5.347  11.419 -13.050  1.00  0.00     0.010 A 
ATOM     36  C   UNL     1       5.825   9.038 -13.050  1.00  0.00     0.010 A 
ATOM     37  C   UNL     1       6.269  10.365 -12.946  1.00  0.00    -0.014 A 
BRANCH  37  38
ATOM     38  C   UNL     1       7.713  10.632 -12.768  1.00  0.00     0.031 A 
ATOM     39  C   UNL     1       8.666  10.345 -13.893  1.00  0.00     0.074 A 
ATOM     40  C   UNL     1       8.173  11.069 -11.581  1.00  0.00     0.049 A 
ATOM     41  N   UNL     1       9.964  10.490 -13.926  1.00  0.00    -0.248 NA
ATOM     42  C   UNL     1       8.088   9.807 -15.136  1.00  0.00     0.031 C 
ATOM     43  C   UNL     1       7.350  11.326 -10.399  1.00  0.00     0.029 A 
ATOM     44  N   UNL     1       9.449  11.358 -11.170  1.00  0.00    -0.354 N 
ATOM     45  C   UNL     1      10.361  10.039 -15.177  1.00  0.00     0.074 A 
ATOM     46  C   UNL     1       9.172   9.589 -15.867  1.00  0.00     0.031 C 
ATOM     47  C   UNL     1       8.142  11.741  -9.396  1.00  0.00     0.029 A 
ATOM     48  C   UNL     1       9.527  11.765  -9.860  1.00  0.00     0.049 A 
ATOM     49  H   UNL     1      10.235  11.280 -11.758  1.00  0.00     0.167 HD
ATOM     50  C   UNL     1      11.601  10.030 -15.716  1.00  0.00     0.034 A 
ATOM     51  C   UNL     1      10.593  12.125  -9.119  1.00  0.00     0.034 A 
ATOM     52  C   UNL     1      12.771  10.525 -15.050  1.00  0.00     0.049 A 
ATOM     53  C   UNL     1      11.958  12.136  -9.748  1.00  0.00     0.074 A 
ATOM     54  C   UNL     1      14.056  10.645 -15.549  1.00  0.00     0.029 A 
ATOM     55  N   UNL     1      12.802  10.979 -13.742  1.00  0.00    -0.354 N 
ATOM     56  N   UNL     1      12.296  11.837 -10.979  1.00  0.00    -0.248 NA
ATOM     57  C   UNL     1      13.083  12.557  -8.901  1.00  0.00     0.031 C 
ATOM     58  C   UNL     1      14.868  11.163 -14.536  1.00  0.00     0.029 A 
ATOM     59  C   UNL     1      14.086  11.372 -13.411  1.00  0.00     0.049 A 
ATOM     60  H   UNL     1      12.026  11.016 -13.137  1.00  0.00     0.167 HD
ATOM     61  C   UNL     1      13.665  12.055 -11.063  1.00  0.00     0.074 A 
ATOM     62  C   UNL     1      14.095  12.521  -9.761  1.00  0.00     0.031 C 
ATOM     63  C   UNL     1      14.490  11.875 -12.123  1.00  0.00     0.034 A 
BRANCH  50  64
ATOM     64  C   UNL     1      11.744   9.528 -17.125  1.00  0.00     0.023 A 
ATOM     65  C   UNL     1      11.355  10.361 -18.193  1.00  0.00     0.012 A 
ATOM     66  C   UNL     1      12.319   8.272 -17.395  1.00  0.00     0.148 A 
ATOM     67  C   UNL     1      11.519   9.944 -19.512  1.00  0.00     0.002 A 
ATOM     68  C   UNL     1      12.507   7.875 -18.713  1.00  0.00     0.091 A 
ATOM     69  F   UNL     1      12.660   7.491 -16.360  1.00  0.00    -0.205 F 
ATOM     70  C   UNL     1      12.103   8.707 -19.771  1.00  0.00     0.022 A 
BRANCH  68  71
ATOM     71  S   UNL     1      13.295   6.324 -19.158  1.00  0.00     0.127 S 
ATOM     72  O   UNL     1      12.179   5.587 -19.749  1.00  0.00    -0.237 OA
ATOM     73  O   UNL     1      14.313   6.760 -20.113  1.00  0.00    -0.237 OA
ATOM     74  O   UNL     1      13.819   5.768 -17.918  1.00  0.00    -0.744 OA
ENDBRANCH  68  71
ENDBRANCH  50  64
BRANCH  51  75
ATOM     75  C   UNL     1      10.379  12.594  -7.724  1.00  0.00     0.023 A 
ATOM     76  C   UNL     1      10.400  13.977  -7.461  1.00  0.00     0.012 A 
ATOM     77  C   UNL     1      10.063  11.696  -6.688  1.00  0.00     0.148 A 
ATOM     78  C   UNL     1      10.113  14.459  -6.184  1.00  0.00     0.002 A 
ATOM     79  C   UNL     1       9.745  12.185  -5.426  1.00  0.00     0.091 A 
ATOM     80  F   UNL     1      10.043  10.386  -6.970  1.00  0.00    -0.205 F 
ATOM     81  C   UNL     1       9.778  13.566  -5.170  1.00  0.00     0.022 A 
BRANCH  79  82
ATOM     82  S   UNL     1       9.204  11.127  -4.079  1.00  0.00     0.127 S 
ATOM     83  O   UNL     1      10.209  11.409  -3.055  1.00  0.00    -0.237 OA
ATOM     84  O   UNL     1       7.872  11.664  -3.799  1.00  0.00    -0.237 OA
ATOM     85  O   UNL     1       9.220   9.771  -4.607  1.00  0.00    -0.744 OA
ENDBRANCH  79  82
ENDBRANCH  51  75
BRANCH  63  86
ATOM     86  C   UNL     1      15.952  12.179 -11.946  1.00  0.00     0.023 A 
ATOM     87  C   UNL     1      16.779  11.231 -11.317  1.00  0.00     0.012 A 
ATOM     88  C   UNL     1      16.523  13.325 -12.533  1.00  0.00     0.148 A 
ATOM     89  C   UNL     1      18.160  11.420 -11.272  1.00  0.00     0.002 A 
ATOM     90  C   UNL     1      17.903  13.490 -12.514  1.00  0.00     0.091 A 
ATOM     91  F   UNL     1      15.709  14.214 -13.120  1.00  0.00    -0.205 F 
ATOM     92  C   UNL     1      18.722  12.540 -11.881  1.00  0.00     0.022 A 
BRANCH  90  93
ATOM     93  S   UNL     1      18.727  14.855 -13.341  1.00  0.00     0.127 S 
ATOM     94  O   UNL     1      19.278  15.599 -12.210  1.00  0.00    -0.237 OA
ATOM     95  O   UNL     1      19.724  14.163 -14.159  1.00  0.00    -0.237 OA
ATOM     96  O   UNL     1      17.697  15.552 -14.098  1.00  0.00    -0.744 OA
ENDBRANCH  90  93
ENDBRANCH  63  86
ENDBRANCH  37  38
ENDBRANCH  29  32
ENDBRANCH  27  28
ENDBRANCH  26  27
ENDBRANCH   1  26
TORSDOF 18
