REMARK SMILES Cc1c(CCC(=O)N2CCC(C(=O)NCCCCCCNC(=O)c3ccc(-c4c5nc(c(-c6cccc(S(=O)(=O)[O-])c6F)c6ccc([nH]6)c(-c6cccc(S(=O)(=O)[O-])c6F)c6nc(c(-c7cccc(S(=O)(=O)[O-])c7F)c7ccc4[nH]7)C=C6)C=C5)cc3)CC2)c(=O)oc2cc3oc4c(c3cc12)CCCC4
REMARK SMILES IDX 17 1 16 2 15 3 14 4 12 5 13 6 11 8 6 9 7 10 8 11 9 12 88 13
REMARK SMILES IDX 10 14 87 15 5 16 4 17 3 18 1 19 2 20 100 21 89 22 92 23
REMARK SMILES IDX 99 24 90 25 91 26 93 27 98 28 94 29 97 30 95 31 96 32 101 33
REMARK SMILES IDX 104 34 102 35 103 36 18 37 19 38 20 39 21 40 22 41 23 43
REMARK SMILES IDX 24 44 25 45 86 46 26 47 85 48 27 49 28 50 29 51 79 52 30 53
REMARK SMILES IDX 84 54 78 55 80 56 31 57 83 58 77 59 76 60 32 62 64 63 44 64
REMARK SMILES IDX 63 65 45 66 48 67 62 68 81 69 46 70 47 71 61 73 82 74 49 75
REMARK SMILES IDX 33 76 34 77 42 78 35 79 37 80 43 81 36 82 38 83 39 84 40 85
REMARK SMILES IDX 41 86 65 87 66 88 74 89 67 90 69 91 75 92 68 93 70 94 71 95
REMARK SMILES IDX 72 96 73 97 50 98 51 99 59 100 52 101 54 102 60 103 53 104
REMARK SMILES IDX 55 105 56 106 57 107 58 108
REMARK H PARENT 14 7 21 42 80 61 48 72
REMARK Flexibility Score: inf
ROOT
ATOM      1  C   UNL     1       0.917   1.099  -5.884  1.00  0.00     0.002 C 
ENDROOT
BRANCH   1   2
ATOM      2  C   UNL     1       1.494   1.697  -4.586  1.00  0.00     0.021 C 
BRANCH   2   3
ATOM      3  C   UNL     1       0.811   1.186  -3.321  1.00  0.00     0.116 C 
BRANCH   3   4
ATOM      4  N   UNL     1       1.093  -0.222  -3.204  1.00  0.00    -0.356 N 
ATOM      5  C   UNL     1       2.280  -0.749  -2.800  1.00  0.00     0.223 C 
ATOM      6  O   UNL     1       2.698  -1.743  -3.397  1.00  0.00    -0.275 OA
ATOM      7  H   UNL     1       0.371  -0.850  -3.434  1.00  0.00     0.163 HD
BRANCH   5   8
ATOM      8  C   UNL     1       2.950  -0.278  -1.511  1.00  0.00     0.082 C 
ATOM      9  C   UNL     1       2.055   1.607   1.885  1.00  0.00     0.222 C 
ATOM     10  O   UNL     1       1.933   2.813   1.670  1.00  0.00    -0.275 OA
ATOM     11  N   UNL     1       2.985   0.840   1.171  1.00  0.00    -0.343 N 
ATOM     12  C   UNL     1       3.947   1.405   0.188  1.00  0.00     0.120 C 
ATOM     13  C   UNL     1       2.651  -0.521   0.891  1.00  0.00     0.120 C 
ATOM     14  C   UNL     1       3.646   1.073  -1.326  1.00  0.00     0.035 C 
ATOM     15  C   UNL     1       1.914  -0.378  -0.417  1.00  0.00     0.035 C 
BRANCH   9  16
ATOM     16  C   UNL     1       1.234   0.912   3.023  1.00  0.00     0.105 C 
BRANCH  16  17
ATOM     17  C   UNL     1      -0.168   0.269   2.761  1.00  0.00     0.053 C 
BRANCH  17  18
ATOM     18  C   UNL     1      -0.224  -1.226   2.418  1.00  0.00     0.042 A 
ATOM     19  C   UNL     1      -1.215  -0.970   0.103  1.00  0.00     0.046 C 
ATOM     20  C   UNL     1      -0.513  -1.721   1.200  1.00  0.00    -0.030 A 
ATOM     21  C   UNL     1      -0.060  -3.090   0.927  1.00  0.00     0.022 A 
ATOM     22  C   UNL     1      -0.115  -2.243   3.524  1.00  0.00     0.339 A 
ATOM     23  C   UNL     1      -0.262  -4.048   1.899  1.00  0.00     0.142 A 
ATOM     24  C   UNL     1       0.630  -3.465  -0.226  1.00  0.00     0.024 A 
ATOM     25  O   UNL     1       0.160  -1.911   4.672  1.00  0.00    -0.246 OA
ATOM     26  O   UNL     1      -0.479  -3.578   3.213  1.00  0.00    -0.422 OA
ATOM     27  C   UNL     1      -0.204  -5.429   1.604  1.00  0.00     0.095 A 
ATOM     28  C   UNL     1       0.921  -4.799  -0.468  1.00  0.00     0.025 A 
ATOM     29  C   UNL     1       0.312  -5.748   0.337  1.00  0.00     0.138 A 
ATOM     30  C   UNL     1       1.575  -5.470  -1.511  1.00  0.00     0.001 A 
ATOM     31  O   UNL     1       0.239  -6.923  -0.393  1.00  0.00    -0.461 OA
ATOM     32  C   UNL     1       0.875  -6.647  -1.576  1.00  0.00     0.108 A 
ATOM     33  C   UNL     1       2.362  -4.980  -2.668  1.00  0.00     0.040 C 
ATOM     34  C   UNL     1       0.487  -7.235  -2.889  1.00  0.00     0.076 C 
ATOM     35  C   UNL     1       1.538  -5.072  -3.961  1.00  0.00     0.005 C 
ATOM     36  C   UNL     1       0.318  -6.032  -3.879  1.00  0.00     0.008 C 
ENDBRANCH  17  18
ENDBRANCH  16  17
ENDBRANCH   9  16
ENDBRANCH   5   8
ENDBRANCH   3   4
ENDBRANCH   2   3
ENDBRANCH   1   2
BRANCH   1  37
ATOM     37  C   UNL     1      -0.582   1.334  -6.125  1.00  0.00     0.002 C 
BRANCH  37  38
ATOM     38  C   UNL     1      -1.085   2.746  -5.818  1.00  0.00     0.021 C 
BRANCH  38  39
ATOM     39  C   UNL     1      -0.182   3.853  -6.355  1.00  0.00     0.116 C 
BRANCH  39  40
ATOM     40  N   UNL     1      -0.631   4.423  -7.604  1.00  0.00    -0.352 N 
ATOM     41  C   UNL     1      -1.505   5.464  -7.787  1.00  0.00     0.251 C 
ATOM     42  H   UNL     1      -0.267   4.014  -8.422  1.00  0.00     0.163 HD
ATOM     43  O   UNL     1      -1.789   5.853  -8.916  1.00  0.00    -0.269 OA
BRANCH  41  44
ATOM     44  C   UNL     1      -2.117   6.069  -6.592  1.00  0.00     0.039 A 
ATOM     45  C   UNL     1      -1.311   6.689  -5.630  1.00  0.00     0.014 A 
ATOM     46  C   UNL     1      -3.489   5.912  -6.394  1.00  0.00     0.014 A 
ATOM     47  C   UNL     1      -1.863   7.050  -4.411  1.00  0.00     0.010 A 
ATOM     48  C   UNL     1      -4.051   6.324  -5.190  1.00  0.00     0.010 A 
ATOM     49  C   UNL     1      -3.232   6.866  -4.189  1.00  0.00    -0.014 A 
BRANCH  49  50
ATOM     50  C   UNL     1      -3.774   7.391  -2.930  1.00  0.00     0.031 A 
ATOM     51  C   UNL     1      -4.601   8.617  -3.125  1.00  0.00     0.074 A 
ATOM     52  C   UNL     1      -4.002   6.609  -1.857  1.00  0.00     0.049 A 
ATOM     53  N   UNL     1      -5.842   8.550  -3.506  1.00  0.00    -0.248 NA
ATOM     54  C   UNL     1      -4.024   9.957  -3.211  1.00  0.00     0.031 C 
ATOM     55  C   UNL     1      -4.334   5.180  -1.933  1.00  0.00     0.029 A 
ATOM     56  N   UNL     1      -4.231   6.943  -0.543  1.00  0.00    -0.354 N 
ATOM     57  C   UNL     1      -6.194   9.804  -3.966  1.00  0.00     0.074 A 
ATOM     58  C   UNL     1      -5.045  10.652  -3.735  1.00  0.00     0.031 C 
ATOM     59  C   UNL     1      -4.917   4.813  -0.773  1.00  0.00     0.029 A 
ATOM     60  C   UNL     1      -4.840   5.918   0.177  1.00  0.00     0.049 A 
ATOM     61  H   UNL     1      -3.991   7.814  -0.152  1.00  0.00     0.167 HD
ATOM     62  C   UNL     1      -7.402  10.063  -4.533  1.00  0.00     0.034 A 
ATOM     63  C   UNL     1      -5.682   6.110   1.230  1.00  0.00     0.034 A 
ATOM     64  C   UNL     1      -8.295   8.943  -4.620  1.00  0.00     0.049 A 
ATOM     65  C   UNL     1      -6.897   6.662   0.525  1.00  0.00     0.074 A 
ATOM     66  C   UNL     1      -8.643   8.013  -5.575  1.00  0.00     0.029 A 
ATOM     67  N   UNL     1      -8.947   8.537  -3.480  1.00  0.00    -0.354 N 
ATOM     68  N   UNL     1      -7.770   5.954  -0.146  1.00  0.00    -0.248 NA
ATOM     69  C   UNL     1      -6.929   8.096   0.233  1.00  0.00     0.031 C 
ATOM     70  C   UNL     1      -9.122   6.876  -4.851  1.00  0.00     0.029 A 
ATOM     71  C   UNL     1      -8.992   7.164  -3.493  1.00  0.00     0.049 A 
ATOM     72  H   UNL     1      -9.315   9.124  -2.781  1.00  0.00     0.167 HD
ATOM     73  C   UNL     1      -8.227   6.798  -1.164  1.00  0.00     0.074 A 
ATOM     74  C   UNL     1      -7.697   8.109  -0.848  1.00  0.00     0.031 C 
ATOM     75  C   UNL     1      -8.854   6.359  -2.296  1.00  0.00     0.034 A 
BRANCH  62  76
ATOM     76  C   UNL     1      -7.869  11.419  -4.894  1.00  0.00     0.023 A 
ATOM     77  C   UNL     1      -8.689  12.067  -3.950  1.00  0.00     0.012 A 
ATOM     78  C   UNL     1      -7.673  11.999  -6.159  1.00  0.00     0.148 A 
ATOM     79  C   UNL     1      -9.343  13.252  -4.266  1.00  0.00     0.002 A 
ATOM     80  C   UNL     1      -8.326  13.190  -6.467  1.00  0.00     0.091 A 
ATOM     81  F   UNL     1      -6.893  11.363  -7.045  1.00  0.00    -0.205 F 
ATOM     82  C   UNL     1      -9.168  13.810  -5.526  1.00  0.00     0.022 A 
BRANCH  80  83
ATOM     83  S   UNL     1      -8.175  14.014  -8.058  1.00  0.00     0.127 S 
ATOM     84  O   UNL     1      -9.508  13.820  -8.627  1.00  0.00    -0.237 OA
ATOM     85  O   UNL     1      -7.878  15.391  -7.660  1.00  0.00    -0.237 OA
ATOM     86  O   UNL     1      -7.088  13.341  -8.755  1.00  0.00    -0.744 OA
ENDBRANCH  80  83
ENDBRANCH  62  76
BRANCH  63  87
ATOM     87  C   UNL     1      -5.017   6.733   2.424  1.00  0.00     0.023 A 
ATOM     88  C   UNL     1      -3.832   6.100   2.882  1.00  0.00     0.012 A 
ATOM     89  C   UNL     1      -5.432   7.890   3.105  1.00  0.00     0.148 A 
ATOM     90  C   UNL     1      -3.036   6.653   3.886  1.00  0.00     0.002 A 
ATOM     91  C   UNL     1      -4.603   8.477   4.062  1.00  0.00     0.091 A 
ATOM     92  F   UNL     1      -6.626   8.421   2.823  1.00  0.00    -0.205 F 
ATOM     93  C   UNL     1      -3.405   7.863   4.454  1.00  0.00     0.022 A 
BRANCH  91  94
ATOM     94  S   UNL     1      -4.948  10.092   4.773  1.00  0.00     0.127 S 
ATOM     95  O   UNL     1      -4.760   9.846   6.202  1.00  0.00    -0.237 OA
ATOM     96  O   UNL     1      -3.910  10.909   4.146  1.00  0.00    -0.237 OA
ATOM     97  O   UNL     1      -6.312  10.413   4.380  1.00  0.00    -0.744 OA
ENDBRANCH  91  94
ENDBRANCH  63  87
BRANCH  75  98
ATOM     98  C   UNL     1      -9.233   4.907  -2.326  1.00  0.00     0.023 A 
ATOM     99  C   UNL     1     -10.242   4.461  -1.451  1.00  0.00     0.012 A 
ATOM    100  C   UNL     1      -8.671   3.996  -3.244  1.00  0.00     0.148 A 
ATOM    101  C   UNL     1     -10.704   3.147  -1.502  1.00  0.00     0.002 A 
ATOM    102  C   UNL     1      -9.167   2.698  -3.321  1.00  0.00     0.091 A 
ATOM    103  F   UNL     1      -7.672   4.408  -4.039  1.00  0.00    -0.205 F 
ATOM    104  C   UNL     1     -10.181   2.271  -2.449  1.00  0.00     0.022 A 
BRANCH 102 105
ATOM    105  S   UNL     1      -8.610   1.510  -4.550  1.00  0.00     0.127 S 
ATOM    106  O   UNL     1      -8.192   0.380  -3.720  1.00  0.00    -0.237 OA
ATOM    107  O   UNL     1      -9.832   1.278  -5.321  1.00  0.00    -0.237 OA
ATOM    108  O   UNL     1      -7.530   2.154  -5.287  1.00  0.00    -0.744 OA
ENDBRANCH 102 105
ENDBRANCH  75  98
ENDBRANCH  49  50
ENDBRANCH  41  44
ENDBRANCH  39  40
ENDBRANCH  38  39
ENDBRANCH  37  38
ENDBRANCH   1  37
TORSDOF 19
