REMARK SMILES COc1cccc2ccc(C[N@@H+]3CC4(CC[NH2+]CC4)C[C@@H]3C(=O)NCCCCCCNC(=O)c3ccc(-c4c5nc(c(-c6cccc(S(=O)(=O)[O-])c6F)c6ccc([nH]6)c(-c6cccc(S(=O)(=O)[O-])c6F)c6nc(c(-c7cccc(S(=O)(=O)[O-])c7F)c7ccc4[nH]7)C=C6)C=C5)cc3)nc12
REMARK SMILES IDX 27 1 26 2 25 3 24 4 22 5 23 6 21 8 12 9 13 10 14 12 20 13
REMARK SMILES IDX 15 14 19 15 16 16 18 17 17 18 11 21 10 22 3 23 4 24 98 25
REMARK SMILES IDX 5 26 7 27 97 28 6 29 8 30 9 31 2 32 1 33 28 34 29 35 30 36
REMARK SMILES IDX 31 37 32 38 33 40 34 41 35 42 96 43 36 44 95 45 37 46 38 47
REMARK SMILES IDX 39 48 89 49 40 50 94 51 88 52 90 53 41 54 93 55 87 56 86 57
REMARK SMILES IDX 42 59 74 60 54 61 73 62 55 63 58 64 72 65 91 66 56 67 57 68
REMARK SMILES IDX 71 70 92 71 59 72 43 73 44 74 52 75 45 76 47 77 53 78 46 79
REMARK SMILES IDX 48 80 49 81 50 82 51 83 75 84 76 85 84 86 77 87 79 88 85 89
REMARK SMILES IDX 78 90 80 91 81 92 82 93 83 94 60 95 61 96 69 97 62 98 64 99
REMARK SMILES IDX 70 100 63 101 65 102 66 103 67 104 68 105
REMARK H PARENT 24 7 12 11 17 19 17 20 31 39 90 58 58 69
REMARK Flexibility Score: inf
ROOT
ATOM      1  C   UNL     1      -1.663  -2.653  -2.017  1.00  0.00     0.002 C 
ENDROOT
BRANCH   1   2
ATOM      2  C   UNL     1      -2.163  -1.324  -2.576  1.00  0.00     0.021 C 
BRANCH   2   3
ATOM      3  C   UNL     1      -3.455  -0.775  -1.954  1.00  0.00     0.116 C 
BRANCH   3   4
ATOM      4  N   UNL     1      -3.150   0.393  -1.153  1.00  0.00    -0.351 N 
ATOM      5  C   UNL     1      -3.092   1.724  -1.405  1.00  0.00     0.278 C 
ATOM      6  O   UNL     1      -2.540   2.365  -0.489  1.00  0.00    -0.268 OA
ATOM      7  H   UNL     1      -2.936   0.171  -0.217  1.00  0.00     0.163 HD
BRANCH   5   8
ATOM      8  C   UNL     1      -3.850   2.514  -2.489  1.00  0.00     0.275 C 
ATOM      9  N   UNL     1      -4.152   2.078  -3.868  1.00  0.00    -0.319 N 
ATOM     10  C   UNL     1      -4.520   3.319  -4.567  1.00  0.00     0.270 C 
ATOM     11  H   UNL     1      -4.857   1.354  -3.730  1.00  0.00     0.349 HD
ATOM     12  C   UNL     1      -3.608   4.443  -4.039  1.00  0.00     0.036 C 
ATOM     13  C   UNL     1      -3.336   3.978  -2.598  1.00  0.00     0.089 C 
ATOM     14  C   UNL     1      -4.313   5.812  -4.148  1.00  0.00     0.074 C 
ATOM     15  C   UNL     1      -2.274   4.648  -4.787  1.00  0.00     0.074 C 
ATOM     16  C   UNL     1      -4.486   6.229  -5.620  1.00  0.00     0.261 C 
ATOM     17  C   UNL     1      -2.488   4.993  -6.255  1.00  0.00     0.261 C 
ATOM     18  N   UNL     1      -3.231   6.248  -6.380  1.00  0.00    -0.346 N 
ATOM     19  H   UNL     1      -2.648   7.010  -6.032  1.00  0.00     0.346 HD
ATOM     20  H   UNL     1      -3.463   6.378  -7.364  1.00  0.00     0.346 HD
BRANCH   9  21
ATOM     21  C   UNL     1      -3.315   1.202  -4.688  1.00  0.00     0.320 C 
BRANCH  21  22
ATOM     22  C   UNL     1      -1.824   1.415  -4.777  1.00  0.00     0.095 A 
ATOM     23  C   UNL     1       0.968   1.482  -2.441  1.00  0.00     0.145 A 
ATOM     24  C   UNL     1       2.343   1.740  -2.439  1.00  0.00     0.049 A 
ATOM     25  C   UNL     1       0.216   1.579  -3.627  1.00  0.00     0.113 A 
ATOM     26  C   UNL     1       2.993   2.059  -3.627  1.00  0.00     0.005 A 
ATOM     27  C   UNL     1       0.897   1.844  -4.830  1.00  0.00     0.004 A 
ATOM     28  N   UNL     1      -1.122   1.402  -3.622  1.00  0.00    -0.243 NA
ATOM     29  C   UNL     1       2.277   2.099  -4.821  1.00  0.00     0.010 A 
ATOM     30  C   UNL     1       0.167   1.833  -6.026  1.00  0.00     0.012 A 
ATOM     31  C   UNL     1      -1.202   1.587  -6.006  1.00  0.00     0.030 A 
BRANCH  23  32
ATOM     32  O   UNL     1       0.266   1.131  -1.310  1.00  0.00    -0.494 OA
ATOM     33  C   UNL     1       0.992   0.595  -0.216  1.00  0.00     0.278 C 
ENDBRANCH  23  32
ENDBRANCH  21  22
ENDBRANCH   9  21
ENDBRANCH   5   8
ENDBRANCH   3   4
ENDBRANCH   2   3
ENDBRANCH   1   2
BRANCH   1  34
ATOM     34  C   UNL     1      -2.354  -3.887  -2.595  1.00  0.00     0.002 C 
BRANCH  34  35
ATOM     35  C   UNL     1      -2.321  -4.019  -4.123  1.00  0.00     0.021 C 
BRANCH  35  36
ATOM     36  C   UNL     1      -0.951  -3.832  -4.778  1.00  0.00     0.116 C 
BRANCH  36  37
ATOM     37  N   UNL     1       0.026  -4.794  -4.290  1.00  0.00    -0.352 N 
ATOM     38  C   UNL     1       0.585  -5.872  -4.927  1.00  0.00     0.251 C 
ATOM     39  H   UNL     1       0.331  -4.649  -3.366  1.00  0.00     0.163 HD
ATOM     40  O   UNL     1       1.220  -6.705  -4.284  1.00  0.00    -0.269 OA
BRANCH  38  41
ATOM     41  C   UNL     1       0.420  -6.038  -6.386  1.00  0.00     0.039 A 
ATOM     42  C   UNL     1       0.029  -7.282  -6.889  1.00  0.00     0.014 A 
ATOM     43  C   UNL     1       0.679  -4.976  -7.256  1.00  0.00     0.014 A 
ATOM     44  C   UNL     1      -0.152  -7.446  -8.265  1.00  0.00     0.010 A 
ATOM     45  C   UNL     1       0.439  -5.125  -8.620  1.00  0.00     0.010 A 
ATOM     46  C   UNL     1       0.028  -6.362  -9.140  1.00  0.00    -0.014 A 
BRANCH  46  47
ATOM     47  C   UNL     1      -0.214  -6.500 -10.599  1.00  0.00     0.031 A 
ATOM     48  C   UNL     1       0.920  -6.332 -11.575  1.00  0.00     0.074 A 
ATOM     49  C   UNL     1      -1.471  -6.680 -11.050  1.00  0.00     0.049 A 
ATOM     50  N   UNL     1       0.891  -6.351 -12.882  1.00  0.00    -0.248 NA
ATOM     51  C   UNL     1       2.256  -6.083 -11.009  1.00  0.00     0.031 C 
ATOM     52  C   UNL     1      -2.666  -6.772 -10.208  1.00  0.00     0.029 A 
ATOM     53  N   UNL     1      -1.958  -6.784 -12.329  1.00  0.00    -0.354 N 
ATOM     54  C   UNL     1       2.189  -6.077 -13.295  1.00  0.00     0.074 A 
ATOM     55  C   UNL     1       2.978  -5.870 -12.100  1.00  0.00     0.031 C 
ATOM     56  C   UNL     1      -3.747  -6.910 -10.993  1.00  0.00     0.029 A 
ATOM     57  C   UNL     1      -3.328  -6.894 -12.391  1.00  0.00     0.049 A 
ATOM     58  H   UNL     1      -1.382  -6.781 -13.127  1.00  0.00     0.167 HD
ATOM     59  C   UNL     1       2.687  -6.028 -14.554  1.00  0.00     0.034 A 
ATOM     60  C   UNL     1      -4.155  -6.964 -13.453  1.00  0.00     0.034 A 
ATOM     61  C   UNL     1       1.911  -6.290 -15.737  1.00  0.00     0.049 A 
ATOM     62  C   UNL     1      -3.567  -6.971 -14.838  1.00  0.00     0.074 A 
ATOM     63  C   UNL     1       2.345  -6.371 -17.048  1.00  0.00     0.029 A 
ATOM     64  N   UNL     1       0.543  -6.506 -15.754  1.00  0.00    -0.354 N 
ATOM     65  N   UNL     1      -2.310  -6.886 -15.201  1.00  0.00    -0.248 NA
ATOM     66  C   UNL     1      -4.505  -7.123 -15.960  1.00  0.00     0.031 C 
ATOM     67  C   UNL     1       1.234  -6.619 -17.861  1.00  0.00     0.029 A 
ATOM     68  C   UNL     1       0.112  -6.712 -17.053  1.00  0.00     0.049 A 
ATOM     69  H   UNL     1      -0.038  -6.513 -14.959  1.00  0.00     0.167 HD
ATOM     70  C   UNL     1      -2.303  -7.009 -16.585  1.00  0.00     0.074 A 
ATOM     71  C   UNL     1      -3.679  -7.196 -16.995  1.00  0.00     0.031 C 
ATOM     72  C   UNL     1      -1.253  -6.955 -17.442  1.00  0.00     0.034 A 
BRANCH  59  73
ATOM     73  C   UNL     1       4.155  -5.737 -14.720  1.00  0.00     0.023 A 
ATOM     74  C   UNL     1       5.102  -6.721 -14.372  1.00  0.00     0.012 A 
ATOM     75  C   UNL     1       4.596  -4.523 -15.283  1.00  0.00     0.148 A 
ATOM     76  C   UNL     1       6.465  -6.492 -14.551  1.00  0.00     0.002 A 
ATOM     77  C   UNL     1       5.954  -4.318 -15.499  1.00  0.00     0.091 A 
ATOM     78  F   UNL     1       3.682  -3.590 -15.588  1.00  0.00    -0.205 F 
ATOM     79  C   UNL     1       6.890  -5.296 -15.124  1.00  0.00     0.022 A 
BRANCH  77  80
ATOM     80  S   UNL     1       6.596  -2.844 -16.300  1.00  0.00     0.127 S 
ATOM     81  O   UNL     1       7.241  -2.157 -15.181  1.00  0.00    -0.237 OA
ATOM     82  O   UNL     1       7.522  -3.406 -17.285  1.00  0.00    -0.237 OA
ATOM     83  O   UNL     1       5.444  -2.162 -16.871  1.00  0.00    -0.744 OA
ENDBRANCH  77  80
ENDBRANCH  59  73
BRANCH  60  84
ATOM     84  C   UNL     1      -5.624  -7.101 -13.243  1.00  0.00     0.023 A 
ATOM     85  C   UNL     1      -6.254  -8.324 -13.542  1.00  0.00     0.012 A 
ATOM     86  C   UNL     1      -6.392  -6.042 -12.722  1.00  0.00     0.148 A 
ATOM     87  C   UNL     1      -7.628  -8.481 -13.355  1.00  0.00     0.002 A 
ATOM     88  C   UNL     1      -7.751  -6.223 -12.487  1.00  0.00     0.091 A 
ATOM     89  F   UNL     1      -5.777  -4.880 -12.457  1.00  0.00    -0.205 F 
ATOM     90  C   UNL     1      -8.374  -7.435 -12.818  1.00  0.00     0.022 A 
BRANCH  88  91
ATOM     91  S   UNL     1      -8.754  -4.974 -11.672  1.00  0.00     0.127 S 
ATOM     92  O   UNL     1      -9.544  -4.452 -12.786  1.00  0.00    -0.237 OA
ATOM     93  O   UNL     1      -9.510  -5.775 -10.706  1.00  0.00    -0.237 OA
ATOM     94  O   UNL     1      -7.811  -4.047 -11.069  1.00  0.00    -0.744 OA
ENDBRANCH  88  91
ENDBRANCH  60  84
BRANCH  72  95
ATOM     95  C   UNL     1      -1.537  -7.130 -18.910  1.00  0.00     0.023 A 
ATOM     96  C   UNL     1      -2.155  -6.091 -19.632  1.00  0.00     0.012 A 
ATOM     97  C   UNL     1      -1.114  -8.290 -19.590  1.00  0.00     0.148 A 
ATOM     98  C   UNL     1      -2.375  -6.214 -21.003  1.00  0.00     0.002 A 
ATOM     99  C   UNL     1      -1.293  -8.385 -20.965  1.00  0.00     0.091 A 
ATOM    100  F   UNL     1      -0.545  -9.276 -18.882  1.00  0.00    -0.205 F 
ATOM    101  C   UNL     1      -1.933  -7.354 -21.671  1.00  0.00     0.022 A 
BRANCH  99 102
ATOM    102  S   UNL     1      -0.670  -9.772 -21.922  1.00  0.00     0.127 S 
ATOM    103  O   UNL     1      -1.901 -10.497 -22.232  1.00  0.00    -0.237 OA
ATOM    104  O   UNL     1      -0.048  -9.107 -23.067  1.00  0.00    -0.237 OA
ATOM    105  O   UNL     1       0.266 -10.471 -21.050  1.00  0.00    -0.744 OA
ENDBRANCH  99 102
ENDBRANCH  72  95
ENDBRANCH  46  47
ENDBRANCH  38  41
ENDBRANCH  36  37
ENDBRANCH  35  36
ENDBRANCH  34  35
ENDBRANCH   1  34
TORSDOF 19
