REMARK SMILES Cc1ccc(S(=O)(=O)/[NH+]=C(\NCCCCCCNC(=O)c2ccc(-c3c4nc(c(-c5cccc(S(=O)(=O)[O-])c5F)c5ccc([nH]5)c(-c5cccc(S(=O)(=O)[O-])c5F)c5nc(c(-c6cccc(S(=O)(=O)[O-])c6F)c6ccc3[nH]6)C=C5)C=C4)cc2)N[C@@H](Cc2ccc(O)cc2)C(=O)[O-])cc1
REMARK SMILES IDX 14 1 13 2 12 3 11 4 9 5 10 6 84 8 6 11 7 12 8 13 5 14 1 15
REMARK SMILES IDX 2 16 3 17 98 18 4 19 97 20 85 21 86 22 87 23 88 24 93 25
REMARK SMILES IDX 89 26 92 27 90 28 91 29 94 31 95 32 96 33 15 34 16 35 17 36
REMARK SMILES IDX 18 37 19 38 20 40 21 41 22 42 83 43 23 44 82 45 24 46 25 47
REMARK SMILES IDX 26 48 76 49 27 50 81 51 75 52 77 53 28 54 80 55 74 56 73 57
REMARK SMILES IDX 29 59 61 60 41 61 60 62 42 63 45 64 59 65 78 66 43 67 44 68
REMARK SMILES IDX 58 70 79 71 46 72 30 73 31 74 39 75 32 76 34 77 40 78 33 79
REMARK SMILES IDX 35 80 36 81 37 82 38 83 62 84 63 85 71 86 64 87 66 88 72 89
REMARK SMILES IDX 65 90 67 91 68 92 69 93 70 94 47 95 48 96 56 97 49 98 51 99
REMARK SMILES IDX 57 100 50 101 52 102 53 103 54 104 55 105
REMARK H PARENT 9 7 11 9 84 10 91 30 18 39 77 58 45 69
REMARK Flexibility Score: inf
ROOT
ATOM      1  C   UNL     1      -8.003  -1.118  -1.239  1.00  0.00     0.003 C 
ENDROOT
BRANCH   1   2
ATOM      2  C   UNL     1      -8.279   0.388  -1.346  1.00  0.00     0.037 C 
BRANCH   2   3
ATOM      3  C   UNL     1      -7.787   1.232  -0.172  1.00  0.00     0.197 C 
BRANCH   3   4
ATOM      4  N   UNL     1      -6.364   1.070   0.001  1.00  0.00    -0.277 N 
ATOM      5  N   UNL     1      -4.063   1.617  -0.165  1.00  0.00    -0.167 N 
ATOM      6  C   UNL     1      -5.319   1.924  -0.185  1.00  0.00     0.359 C 
ATOM      7  H   UNL     1      -3.383   2.326  -0.233  1.00  0.00     0.281 HD
ATOM      8  N   UNL     1      -5.699   3.214  -0.372  1.00  0.00    -0.269 N 
ATOM      9  H   UNL     1      -6.098   0.175   0.310  1.00  0.00     0.260 HD
ATOM     10  H   UNL     1      -6.558   3.370  -0.828  1.00  0.00     0.260 HD
BRANCH   5  11
ATOM     11  S   UNL     1      -3.607   0.068  -0.028  1.00  0.00     0.308 S 
ATOM     12  O   UNL     1      -3.962  -0.643  -1.253  1.00  0.00    -0.186 OA
ATOM     13  O   UNL     1      -4.029  -0.448   1.251  1.00  0.00    -0.186 OA
BRANCH  11  14
ATOM     14  C   UNL     1      -1.831   0.087   0.004  1.00  0.00     0.101 A 
ATOM     15  C   UNL     1       2.457   0.000  -0.002  1.00  0.00     0.044 C 
ATOM     16  C   UNL     1       0.958   0.039   0.009  1.00  0.00    -0.051 A 
ATOM     17  C   UNL     1       0.232  -1.160   0.004  1.00  0.00     0.005 A 
ATOM     18  C   UNL     1       0.271   1.261   0.011  1.00  0.00     0.005 A 
ATOM     19  C   UNL     1      -1.161  -1.140   0.000  1.00  0.00     0.024 A 
ATOM     20  C   UNL     1      -1.124   1.290   0.009  1.00  0.00     0.024 A 
ENDBRANCH  11  14
ENDBRANCH   5  11
BRANCH   8  21
ATOM     21  C   UNL     1      -4.940   4.392   0.047  1.00  0.00     0.195 C 
BRANCH  21  22
ATOM     22  C   UNL     1      -5.080   5.462  -1.053  1.00  0.00     0.083 C 
BRANCH  22  23
ATOM     23  C   UNL     1      -4.708   6.910  -0.807  1.00  0.00    -0.044 A 
ATOM     24  C   UNL     1      -4.980   7.823  -1.843  1.00  0.00     0.007 A 
ATOM     25  C   UNL     1      -4.177   7.409   0.388  1.00  0.00     0.007 A 
ATOM     26  C   UNL     1      -4.797   9.195  -1.663  1.00  0.00     0.046 A 
ATOM     27  C   UNL     1      -4.025   8.786   0.583  1.00  0.00     0.046 A 
ATOM     28  C   UNL     1      -4.349   9.668  -0.440  1.00  0.00     0.115 A 
BRANCH  28  29
ATOM     29  O   UNL     1      -4.245  11.016  -0.273  1.00  0.00    -0.508 OA
ATOM     30  H   UNL     1      -4.468  11.594  -0.976  1.00  0.00     0.293 HD
ENDBRANCH  28  29
ENDBRANCH  22  23
ENDBRANCH  21  22
BRANCH  21  31
ATOM     31  C   UNL     1      -5.517   4.830   1.395  1.00  0.00     0.079 C 
ATOM     32  O   UNL     1      -4.923   4.862   2.463  1.00  0.00    -0.546 OA
ATOM     33  O   UNL     1      -6.818   5.194   1.334  1.00  0.00    -0.546 OA
ENDBRANCH  21  31
ENDBRANCH   8  21
ENDBRANCH   3   4
ENDBRANCH   2   3
ENDBRANCH   1   2
BRANCH   1  34
ATOM     34  C   UNL     1      -8.412  -1.799   0.075  1.00  0.00     0.002 C 
BRANCH  34  35
ATOM     35  C   UNL     1      -9.804  -1.465   0.602  1.00  0.00     0.021 C 
BRANCH  35  36
ATOM     36  C   UNL     1     -10.934  -1.830  -0.338  1.00  0.00     0.116 C 
BRANCH  36  37
ATOM     37  N   UNL     1     -11.470  -3.148  -0.084  1.00  0.00    -0.352 N 
ATOM     38  C   UNL     1     -12.725  -3.639  -0.393  1.00  0.00     0.251 C 
ATOM     39  H   UNL     1     -10.863  -3.778   0.368  1.00  0.00     0.163 HD
ATOM     40  O   UNL     1     -13.175  -4.568   0.271  1.00  0.00    -0.269 OA
BRANCH  38  41
ATOM     41  C   UNL     1     -13.397  -3.186  -1.642  1.00  0.00     0.039 A 
ATOM     42  C   UNL     1     -13.896  -4.212  -2.456  1.00  0.00     0.014 A 
ATOM     43  C   UNL     1     -13.128  -1.939  -2.190  1.00  0.00     0.014 A 
ATOM     44  C   UNL     1     -13.766  -4.109  -3.832  1.00  0.00     0.010 A 
ATOM     45  C   UNL     1     -12.873  -1.874  -3.532  1.00  0.00     0.010 A 
ATOM     46  C   UNL     1     -13.108  -2.997  -4.327  1.00  0.00    -0.014 A 
BRANCH  46  47
ATOM     47  C   UNL     1     -12.720  -2.797  -5.700  1.00  0.00     0.031 A 
ATOM     48  C   UNL     1     -13.715  -2.139  -6.565  1.00  0.00     0.074 A 
ATOM     49  C   UNL     1     -11.399  -2.869  -5.985  1.00  0.00     0.049 A 
ATOM     50  N   UNL     1     -13.549  -1.942  -7.819  1.00  0.00    -0.248 NA
ATOM     51  C   UNL     1     -14.990  -1.626  -6.064  1.00  0.00     0.031 C 
ATOM     52  C   UNL     1     -10.696  -2.198  -7.070  1.00  0.00     0.029 A 
ATOM     53  N   UNL     1     -10.395  -3.649  -5.394  1.00  0.00    -0.354 N 
ATOM     54  C   UNL     1     -14.512  -1.044  -8.227  1.00  0.00     0.074 A 
ATOM     55  C   UNL     1     -15.440  -0.954  -7.128  1.00  0.00     0.031 C 
ATOM     56  C   UNL     1      -9.504  -2.792  -7.246  1.00  0.00     0.029 A 
ATOM     57  C   UNL     1      -9.518  -3.997  -6.439  1.00  0.00     0.049 A 
ATOM     58  H   UNL     1     -10.319  -3.900  -4.445  1.00  0.00     0.167 HD
ATOM     59  C   UNL     1     -14.303  -0.380  -9.396  1.00  0.00     0.034 A 
ATOM     60  C   UNL     1      -9.426  -5.270  -6.944  1.00  0.00     0.034 A 
ATOM     61  C   UNL     1     -13.054  -0.856 -10.022  1.00  0.00     0.049 A 
ATOM     62  C   UNL     1      -9.899  -5.374  -8.401  1.00  0.00     0.074 A 
ATOM     63  C   UNL     1     -11.747  -0.399 -10.073  1.00  0.00     0.029 A 
ATOM     64  N   UNL     1     -12.997  -2.184 -10.405  1.00  0.00    -0.354 N 
ATOM     65  N   UNL     1     -10.262  -4.359  -9.141  1.00  0.00    -0.248 NA
ATOM     66  C   UNL     1     -10.073  -6.643  -9.109  1.00  0.00     0.031 C 
ATOM     67  C   UNL     1     -10.912  -1.485 -10.492  1.00  0.00     0.029 A 
ATOM     68  C   UNL     1     -11.715  -2.587 -10.727  1.00  0.00     0.049 A 
ATOM     69  H   UNL     1     -13.783  -2.776 -10.445  1.00  0.00     0.167 HD
ATOM     70  C   UNL     1     -10.867  -4.802 -10.292  1.00  0.00     0.074 A 
ATOM     71  C   UNL     1     -10.679  -6.245 -10.243  1.00  0.00     0.031 C 
ATOM     72  C   UNL     1     -11.534  -3.970 -11.160  1.00  0.00     0.034 A 
BRANCH  59  73
ATOM     73  C   UNL     1     -15.063   0.842  -9.880  1.00  0.00     0.023 A 
ATOM     74  C   UNL     1     -14.416   1.641 -10.850  1.00  0.00     0.012 A 
ATOM     75  C   UNL     1     -16.337   1.294  -9.456  1.00  0.00     0.148 A 
ATOM     76  C   UNL     1     -14.949   2.846 -11.315  1.00  0.00     0.002 A 
ATOM     77  C   UNL     1     -16.851   2.526  -9.884  1.00  0.00     0.091 A 
ATOM     78  F   UNL     1     -17.102   0.514  -8.689  1.00  0.00    -0.205 F 
ATOM     79  C   UNL     1     -16.155   3.304 -10.813  1.00  0.00     0.022 A 
BRANCH  77  80
ATOM     80  S   UNL     1     -18.384   3.232  -9.245  1.00  0.00     0.127 S 
ATOM     81  O   UNL     1     -17.943   4.551  -8.784  1.00  0.00    -0.237 OA
ATOM     82  O   UNL     1     -19.238   3.261 -10.431  1.00  0.00    -0.237 OA
ATOM     83  O   UNL     1     -18.828   2.347  -8.175  1.00  0.00    -0.744 OA
ENDBRANCH  77  80
ENDBRANCH  59  73
BRANCH  60  84
ATOM     84  C   UNL     1      -9.600  -6.316  -5.885  1.00  0.00     0.023 A 
ATOM     85  C   UNL     1      -8.649  -6.307  -4.834  1.00  0.00     0.012 A 
ATOM     86  C   UNL     1     -10.849  -6.918  -5.661  1.00  0.00     0.148 A 
ATOM     87  C   UNL     1      -9.018  -6.671  -3.538  1.00  0.00     0.002 A 
ATOM     88  C   UNL     1     -11.206  -7.289  -4.367  1.00  0.00     0.091 A 
ATOM     89  F   UNL     1     -11.696  -7.045  -6.689  1.00  0.00    -0.205 F 
ATOM     90  C   UNL     1     -10.316  -7.108  -3.296  1.00  0.00     0.022 A 
BRANCH  88  91
ATOM     91  S   UNL     1     -12.864  -7.870  -3.988  1.00  0.00     0.127 S 
ATOM     92  O   UNL     1     -12.682  -9.317  -4.016  1.00  0.00    -0.237 OA
ATOM     93  O   UNL     1     -13.099  -7.307  -2.660  1.00  0.00    -0.237 OA
ATOM     94  O   UNL     1     -13.705  -7.307  -5.034  1.00  0.00    -0.744 OA
ENDBRANCH  88  91
ENDBRANCH  60  84
BRANCH  72  95
ATOM     95  C   UNL     1     -12.166  -4.418 -12.478  1.00  0.00     0.023 A 
ATOM     96  C   UNL     1     -11.637  -5.500 -13.203  1.00  0.00     0.012 A 
ATOM     97  C   UNL     1     -13.236  -3.714 -13.104  1.00  0.00     0.148 A 
ATOM     98  C   UNL     1     -12.219  -5.947 -14.397  1.00  0.00     0.002 A 
ATOM     99  C   UNL     1     -13.793  -4.137 -14.305  1.00  0.00     0.091 A 
ATOM    100  F   UNL     1     -13.717  -2.592 -12.570  1.00  0.00    -0.205 F 
ATOM    101  C   UNL     1     -13.309  -5.277 -14.939  1.00  0.00     0.022 A 
BRANCH  99 102
ATOM    102  S   UNL     1     -15.116  -3.229 -15.123  1.00  0.00     0.127 S 
ATOM    103  O   UNL     1     -14.450  -2.787 -16.349  1.00  0.00    -0.237 OA
ATOM    104  O   UNL     1     -16.120  -4.275 -15.316  1.00  0.00    -0.237 OA
ATOM    105  O   UNL     1     -15.511  -2.162 -14.216  1.00  0.00    -0.744 OA
ENDBRANCH  99 102
ENDBRANCH  72  95
ENDBRANCH  46  47
ENDBRANCH  38  41
ENDBRANCH  36  37
ENDBRANCH  35  36
ENDBRANCH  34  35
ENDBRANCH   1  34
TORSDOF 22
