REMARK SMILES C#CC[C@]1(C(=O)NCCCCCCNC(=O)c2ccc(-c3c4nc(c(-c5cccc(S(=O)(=O)[O-])c5F)c5ccc([nH]5)c(-c5cccc(S(=O)(=O)[O-])c5F)c5nc(c(-c6cccc(S(=O)(=O)[O-])c6F)c6ccc3[nH]6)C=C5)C=C4)cc2)CCCN(C(=O)OC(C)(C)C)C1
REMARK SMILES IDX 10 1 9 2 8 3 7 4 5 5 6 6 4 8 80 9 91 10 81 11 83 12 82 13
REMARK SMILES IDX 3 14 2 15 1 16 84 17 85 18 86 19 87 20 88 21 89 22 90 23
REMARK SMILES IDX 11 24 12 25 13 26 14 27 15 28 16 30 17 31 18 32 79 33 19 34
REMARK SMILES IDX 78 35 20 36 21 37 22 38 72 39 23 40 77 41 71 42 73 43 24 44
REMARK SMILES IDX 76 45 70 46 69 47 25 49 57 50 37 51 56 52 38 53 41 54 55 55
REMARK SMILES IDX 74 56 39 57 40 58 54 60 75 61 42 62 26 63 27 64 35 65 28 66
REMARK SMILES IDX 30 67 36 68 29 69 31 70 32 71 33 72 34 73 58 74 59 75 67 76
REMARK SMILES IDX 60 77 62 78 68 79 61 80 63 81 64 82 65 83 66 84 43 85 44 86
REMARK SMILES IDX 52 87 45 88 47 89 53 90 46 91 48 92 49 93 50 94 51 95
REMARK H PARENT 7 7 14 29 73 48 41 59
REMARK Flexibility Score: inf
ROOT
ATOM      1  C   UNL     1      -1.734   3.243  -5.714  1.00  0.00     0.002 C 
ENDROOT
BRANCH   1   2
ATOM      2  C   UNL     1      -2.566   3.325  -4.429  1.00  0.00     0.021 C 
BRANCH   2   3
ATOM      3  C   UNL     1      -3.137   1.983  -3.990  1.00  0.00     0.116 C 
BRANCH   3   4
ATOM      4  N   UNL     1      -2.073   1.075  -3.623  1.00  0.00    -0.356 N 
ATOM      5  C   UNL     1      -1.756   0.445  -2.465  1.00  0.00     0.228 C 
ATOM      6  O   UNL     1      -0.870  -0.406  -2.580  1.00  0.00    -0.274 OA
ATOM      7  H   UNL     1      -1.455   0.873  -4.363  1.00  0.00     0.163 HD
BRANCH   5   8
ATOM      8  C   UNL     1      -2.553   0.662  -1.160  1.00  0.00     0.078 C 
ATOM      9  C   UNL     1      -2.775   2.140  -0.740  1.00  0.00     0.021 C 
ATOM     10  C   UNL     1      -3.888  -0.059  -1.447  1.00  0.00     0.141 C 
ATOM     11  C   UNL     1      -3.941   2.328   0.254  1.00  0.00     0.023 C 
ATOM     12  N   UNL     1      -4.840   0.134  -0.376  1.00  0.00    -0.307 N 
ATOM     13  C   UNL     1      -5.192   1.519  -0.101  1.00  0.00     0.123 C 
BRANCH   8  14
ATOM     14  C   UNL     1      -1.894  -0.043   0.057  1.00  0.00     0.108 C 
BRANCH  14  15
ATOM     15  C   UNL     1      -0.374  -0.043   0.057  1.00  0.00    -0.106 C 
ATOM     16  C   UNL     1       0.930  -0.043   0.057  1.00  0.00     0.004 C 
ENDBRANCH  14  15
ENDBRANCH   8  14
BRANCH  12  17
ATOM     17  C   UNL     1      -5.331  -0.979   0.276  1.00  0.00     0.410 C 
ATOM     18  O   UNL     1      -4.965  -2.119   0.010  1.00  0.00    -0.224 OA
BRANCH  17  19
ATOM     19  O   UNL     1      -6.230  -0.677   1.243  1.00  0.00    -0.444 OA
BRANCH  19  20
ATOM     20  C   UNL     1      -6.837  -1.751   2.006  1.00  0.00     0.106 C 
ATOM     21  C   UNL     1      -7.661  -2.685   1.109  1.00  0.00     0.056 C 
ATOM     22  C   UNL     1      -5.788  -2.519   2.824  1.00  0.00     0.056 C 
ATOM     23  C   UNL     1      -7.791  -1.047   2.981  1.00  0.00     0.056 C 
ENDBRANCH  19  20
ENDBRANCH  17  19
ENDBRANCH  12  17
ENDBRANCH   5   8
ENDBRANCH   3   4
ENDBRANCH   2   3
ENDBRANCH   1   2
BRANCH   1  24
ATOM     24  C   UNL     1      -2.440   2.564  -6.893  1.00  0.00     0.002 C 
BRANCH  24  25
ATOM     25  C   UNL     1      -3.830   3.119  -7.214  1.00  0.00     0.021 C 
BRANCH  25  26
ATOM     26  C   UNL     1      -3.856   4.616  -7.486  1.00  0.00     0.116 C 
BRANCH  26  27
ATOM     27  N   UNL     1      -3.058   4.966  -8.648  1.00  0.00    -0.352 N 
ATOM     28  C   UNL     1      -3.430   5.675  -9.761  1.00  0.00     0.251 C 
ATOM     29  H   UNL     1      -2.125   4.652  -8.634  1.00  0.00     0.163 HD
ATOM     30  O   UNL     1      -2.702   5.701 -10.749  1.00  0.00    -0.269 OA
BRANCH  28  31
ATOM     31  C   UNL     1      -4.722   6.392  -9.765  1.00  0.00     0.039 A 
ATOM     32  C   UNL     1      -5.554   6.281 -10.880  1.00  0.00     0.014 A 
ATOM     33  C   UNL     1      -5.114   7.158  -8.663  1.00  0.00     0.014 A 
ATOM     34  C   UNL     1      -6.804   6.902 -10.869  1.00  0.00     0.010 A 
ATOM     35  C   UNL     1      -6.392   7.706  -8.622  1.00  0.00     0.010 A 
ATOM     36  C   UNL     1      -7.246   7.594  -9.729  1.00  0.00    -0.014 A 
BRANCH  36  37
ATOM     37  C   UNL     1      -8.598   8.204  -9.677  1.00  0.00     0.031 A 
ATOM     38  C   UNL     1      -8.754   9.692  -9.511  1.00  0.00     0.074 A 
ATOM     39  C   UNL     1      -9.687   7.410  -9.703  1.00  0.00     0.049 A 
ATOM     40  N   UNL     1      -9.848  10.398  -9.399  1.00  0.00    -0.248 NA
ATOM     41  C   UNL     1      -7.518  10.489  -9.434  1.00  0.00     0.031 C 
ATOM     42  C   UNL     1      -9.666   5.948  -9.786  1.00  0.00     0.029 A 
ATOM     43  N   UNL     1     -11.023   7.719  -9.639  1.00  0.00    -0.354 N 
ATOM     44  C   UNL     1      -9.436  11.711  -9.207  1.00  0.00     0.074 A 
ATOM     45  C   UNL     1      -7.990  11.700  -9.178  1.00  0.00     0.031 C 
ATOM     46  C   UNL     1     -10.927   5.488  -9.777  1.00  0.00     0.029 A 
ATOM     47  C   UNL     1     -11.845   6.616  -9.650  1.00  0.00     0.049 A 
ATOM     48  H   UNL     1     -11.361   8.642  -9.589  1.00  0.00     0.167 HD
ATOM     49  C   UNL     1     -10.191  12.830  -9.093  1.00  0.00     0.034 A 
ATOM     50  C   UNL     1     -13.186   6.522  -9.559  1.00  0.00     0.034 A 
ATOM     51  C   UNL     1     -11.627  12.841  -9.155  1.00  0.00     0.049 A 
ATOM     52  C   UNL     1     -14.001   7.782  -9.455  1.00  0.00     0.074 A 
ATOM     53  C   UNL     1     -12.480  13.930  -9.133  1.00  0.00     0.029 A 
ATOM     54  N   UNL     1     -12.425  11.710  -9.240  1.00  0.00    -0.354 N 
ATOM     55  N   UNL     1     -13.594   9.028  -9.426  1.00  0.00    -0.248 NA
ATOM     56  C   UNL     1     -15.462   7.627  -9.408  1.00  0.00     0.031 C 
ATOM     57  C   UNL     1     -13.795  13.456  -9.166  1.00  0.00     0.029 A 
ATOM     58  C   UNL     1     -13.760  12.073  -9.254  1.00  0.00     0.049 A 
ATOM     59  H   UNL     1     -12.091  10.785  -9.283  1.00  0.00     0.167 HD
ATOM     60  C   UNL     1     -14.747   9.805  -9.398  1.00  0.00     0.074 A 
ATOM     61  C   UNL     1     -15.868   8.889  -9.432  1.00  0.00     0.031 C 
ATOM     62  C   UNL     1     -14.867  11.154  -9.338  1.00  0.00     0.034 A 
BRANCH  49  63
ATOM     63  C   UNL     1      -9.473  14.146  -8.930  1.00  0.00     0.023 A 
ATOM     64  C   UNL     1      -8.745  14.684 -10.012  1.00  0.00     0.012 A 
ATOM     65  C   UNL     1      -9.568  14.877  -7.730  1.00  0.00     0.148 A 
ATOM     66  C   UNL     1      -8.091  15.909  -9.889  1.00  0.00     0.002 A 
ATOM     67  C   UNL     1      -8.954  16.120  -7.632  1.00  0.00     0.091 A 
ATOM     68  F   UNL     1     -10.248  14.342  -6.707  1.00  0.00    -0.205 F 
ATOM     69  C   UNL     1      -8.204  16.631  -8.705  1.00  0.00     0.022 A 
BRANCH  67  70
ATOM     70  S   UNL     1      -9.108  17.167  -6.181  1.00  0.00     0.127 S 
ATOM     71  O   UNL     1      -7.748  17.128  -5.644  1.00  0.00    -0.237 OA
ATOM     72  O   UNL     1      -9.497  18.449  -6.767  1.00  0.00    -0.237 OA
ATOM     73  O   UNL     1     -10.126  16.547  -5.343  1.00  0.00    -0.744 OA
ENDBRANCH  67  70
ENDBRANCH  49  63
BRANCH  50  74
ATOM     74  C   UNL     1     -13.846   5.187  -9.613  1.00  0.00     0.023 A 
ATOM     75  C   UNL     1     -14.622   4.841 -10.736  1.00  0.00     0.012 A 
ATOM     76  C   UNL     1     -13.694   4.255  -8.569  1.00  0.00     0.148 A 
ATOM     77  C   UNL     1     -15.266   3.604 -10.802  1.00  0.00     0.002 A 
ATOM     78  C   UNL     1     -14.290   3.003  -8.667  1.00  0.00     0.091 A 
ATOM     79  F   UNL     1     -12.959   4.607  -7.505  1.00  0.00    -0.205 F 
ATOM     80  C   UNL     1     -15.093   2.683  -9.773  1.00  0.00     0.022 A 
BRANCH  78  81
ATOM     81  S   UNL     1     -14.016   1.708  -7.453  1.00  0.00     0.127 S 
ATOM     82  O   UNL     1     -15.332   1.600  -6.828  1.00  0.00    -0.237 OA
ATOM     83  O   UNL     1     -13.640   0.577  -8.301  1.00  0.00    -0.237 OA
ATOM     84  O   UNL     1     -12.947   2.195  -6.592  1.00  0.00    -0.744 OA
ENDBRANCH  78  81
ENDBRANCH  50  74
BRANCH  62  85
ATOM     85  C   UNL     1     -16.257  11.735  -9.353  1.00  0.00     0.023 A 
ATOM     86  C   UNL     1     -17.094  11.597  -8.228  1.00  0.00     0.012 A 
ATOM     87  C   UNL     1     -16.705  12.482 -10.461  1.00  0.00     0.148 A 
ATOM     88  C   UNL     1     -18.369  12.163  -8.220  1.00  0.00     0.002 A 
ATOM     89  C   UNL     1     -17.954  13.088 -10.424  1.00  0.00     0.091 A 
ATOM     90  F   UNL     1     -15.900  12.587 -11.528  1.00  0.00    -0.205 F 
ATOM     91  C   UNL     1     -18.793  12.917  -9.311  1.00  0.00     0.022 A 
BRANCH  89  92
ATOM     92  S   UNL     1     -18.545  14.160 -11.739  1.00  0.00     0.127 S 
ATOM     93  O   UNL     1     -19.607  13.348 -12.330  1.00  0.00    -0.237 OA
ATOM     94  O   UNL     1     -19.014  15.330 -10.995  1.00  0.00    -0.237 OA
ATOM     95  O   UNL     1     -17.398  14.411 -12.601  1.00  0.00    -0.744 OA
ENDBRANCH  89  92
ENDBRANCH  62  85
ENDBRANCH  36  37
ENDBRANCH  28  31
ENDBRANCH  26  27
ENDBRANCH  25  26
ENDBRANCH  24  25
ENDBRANCH   1  24
TORSDOF 21
