REMARK SMILES CC(=O)OCC1=C(C(=O)NCCCCCCNC(=O)c2ccc(-c3c4nc(c(-c5cccc(S(=O)(=O)[O-])c5F)c5ccc([nH]5)c(-c5cccc(S(=O)(=O)[O-])c5F)c5nc(c(-c6cccc(S(=O)(=O)[O-])c6F)c6ccc3[nH]6)C=C5)C=C4)cc2)N2C(=O)[C@H](NC(=O)c3c(C)nn(C(F)F)c3C)[C@@H]2SC1
REMARK SMILES IDX 13 1 12 2 11 3 10 4 8 5 9 6 7 8 6 9 102 10 83 11 101 12
REMARK SMILES IDX 84 13 100 14 85 15 86 16 5 17 4 18 2 19 1 20 3 21 87 22
REMARK SMILES IDX 88 23 89 25 90 26 91 27 98 28 92 29 93 30 94 31 99 32 95 33
REMARK SMILES IDX 96 34 97 35 14 36 15 37 16 38 17 39 18 40 19 42 20 43 21 44
REMARK SMILES IDX 82 45 22 46 81 47 23 48 24 49 25 50 75 51 26 52 80 53 74 54
REMARK SMILES IDX 76 55 27 56 79 57 73 58 72 59 28 61 60 62 40 63 59 64 41 65
REMARK SMILES IDX 44 66 58 67 77 68 42 69 43 70 57 72 78 73 45 74 29 75 30 76
REMARK SMILES IDX 38 77 31 78 33 79 39 80 32 81 34 82 35 83 36 84 37 85 61 86
REMARK SMILES IDX 62 87 70 88 63 89 65 90 71 91 64 92 66 93 67 94 68 95 69 96
REMARK SMILES IDX 46 97 47 98 55 99 48 100 50 101 56 102 49 103 51 104 52 105
REMARK SMILES IDX 53 106 54 107
REMARK H PARENT 10 7 87 24 17 41 76 60 44 71
REMARK Flexibility Score: inf
ROOT
ATOM      1  C   UNL     1       0.265   4.437   5.445  1.00  0.00     0.002 C 
ENDROOT
BRANCH   1   2
ATOM      2  C   UNL     1       0.476   4.215   3.945  1.00  0.00     0.021 C 
BRANCH   2   3
ATOM      3  C   UNL     1      -0.553   4.939   3.060  1.00  0.00     0.116 C 
BRANCH   3   4
ATOM      4  N   UNL     1       0.085   6.080   2.442  1.00  0.00    -0.351 N 
ATOM      5  C   UNL     1       0.745   6.319   1.293  1.00  0.00     0.268 C 
ATOM      6  O   UNL     1       1.412   7.366   1.288  1.00  0.00    -0.268 OA
ATOM      7  H   UNL     1       0.022   6.885   3.005  1.00  0.00     0.163 HD
BRANCH   5   8
ATOM      8  C   UNL     1       0.758   5.495   0.013  1.00  0.00     0.114 C 
ATOM      9  C   UNL     1       0.964   4.163  -0.191  1.00  0.00     0.007 C 
ATOM     10  C   UNL     1       1.148   3.534  -1.571  1.00  0.00     0.108 C 
ATOM     11  N   UNL     1       0.741   6.308  -1.090  1.00  0.00    -0.290 N 
ATOM     12  S   UNL     1       0.790   4.560  -3.009  1.00  0.00    -0.129 SA
ATOM     13  C   UNL     1       0.264   7.516  -1.441  1.00  0.00     0.253 C 
ATOM     14  C   UNL     1       1.500   6.049  -2.280  1.00  0.00     0.181 C 
ATOM     15  O   UNL     1      -0.498   8.298  -0.903  1.00  0.00    -0.272 OA
ATOM     16  C   UNL     1       0.982   7.416  -2.828  1.00  0.00     0.206 C 
BRANCH   9  17
ATOM     17  C   UNL     1       1.047   3.132   0.915  1.00  0.00     0.267 C 
BRANCH  17  18
ATOM     18  O   UNL     1       1.502   1.830   0.489  1.00  0.00    -0.461 OA
BRANCH  18  19
ATOM     19  C   UNL     1       0.509   0.921   0.238  1.00  0.00     0.302 C 
ATOM     20  C   UNL     1       1.063  -0.450   0.008  1.00  0.00     0.139 C 
ATOM     21  O   UNL     1      -0.684   1.192   0.201  1.00  0.00    -0.253 OA
ENDBRANCH  18  19
ENDBRANCH  17  18
ENDBRANCH   9  17
BRANCH  16  22
ATOM     22  N   UNL     1       0.108   7.349  -4.026  1.00  0.00    -0.337 N 
ATOM     23  C   UNL     1       0.382   7.711  -5.321  1.00  0.00     0.255 C 
ATOM     24  H   UNL     1      -0.797   6.995  -3.869  1.00  0.00     0.164 HD
ATOM     25  O   UNL     1      -0.487   7.580  -6.178  1.00  0.00    -0.269 OA
BRANCH  23  26
ATOM     26  C   UNL     1       1.667   8.318  -5.620  1.00  0.00     0.083 A 
ATOM     27  C   UNL     1       1.868   9.563  -6.275  1.00  0.00     0.073 A 
ATOM     28  C   UNL     1       2.949   7.801  -5.465  1.00  0.00     0.054 A 
ATOM     29  C   UNL     1       0.850  10.497  -6.822  1.00  0.00     0.069 C 
ATOM     30  N   UNL     1       3.164   9.875  -6.373  1.00  0.00    -0.172 NA
ATOM     31  N   UNL     1       3.811   8.814  -5.840  1.00  0.00    -0.208 N 
ATOM     32  C   UNL     1       3.426   6.456  -5.058  1.00  0.00     0.067 C 
BRANCH  31  33
ATOM     33  C   UNL     1       5.272   8.831  -5.723  1.00  0.00     0.465 C 
ATOM     34  F   UNL     1       5.882   8.784  -6.937  1.00  0.00    -0.184 F 
ATOM     35  F   UNL     1       5.721   9.950  -5.090  1.00  0.00    -0.184 F 
ENDBRANCH  31  33
ENDBRANCH  23  26
ENDBRANCH  16  22
ENDBRANCH   5   8
ENDBRANCH   3   4
ENDBRANCH   2   3
ENDBRANCH   1   2
BRANCH   1  36
ATOM     36  C   UNL     1      -0.951   3.701   6.014  1.00  0.00     0.002 C 
BRANCH  36  37
ATOM     37  C   UNL     1      -0.906   2.174   5.886  1.00  0.00     0.021 C 
BRANCH  37  38
ATOM     38  C   UNL     1       0.293   1.507   6.558  1.00  0.00     0.116 C 
BRANCH  38  39
ATOM     39  N   UNL     1       0.319   1.763   7.991  1.00  0.00    -0.352 N 
ATOM     40  C   UNL     1       0.186   0.883   9.036  1.00  0.00     0.251 C 
ATOM     41  H   UNL     1       0.450   2.704   8.248  1.00  0.00     0.163 HD
ATOM     42  O   UNL     1      -0.028   1.306  10.169  1.00  0.00    -0.269 OA
BRANCH  40  43
ATOM     43  C   UNL     1       0.303  -0.571   8.798  1.00  0.00     0.039 A 
ATOM     44  C   UNL     1      -0.616  -1.437   9.397  1.00  0.00     0.014 A 
ATOM     45  C   UNL     1       1.336  -1.080   8.006  1.00  0.00     0.014 A 
ATOM     46  C   UNL     1      -0.532  -2.810   9.156  1.00  0.00     0.010 A 
ATOM     47  C   UNL     1       1.379  -2.441   7.715  1.00  0.00     0.010 A 
ATOM     48  C   UNL     1       0.449  -3.320   8.290  1.00  0.00    -0.014 A 
BRANCH  48  49
ATOM     49  C   UNL     1       0.510  -4.765   7.953  1.00  0.00     0.031 A 
ATOM     50  C   UNL     1       1.711  -5.585   8.338  1.00  0.00     0.074 A 
ATOM     51  C   UNL     1      -0.471  -5.313   7.209  1.00  0.00     0.049 A 
ATOM     52  N   UNL     1       1.981  -6.833   8.057  1.00  0.00    -0.248 NA
ATOM     53  C   UNL     1       2.761  -4.905   9.115  1.00  0.00     0.031 C 
ATOM     54  C   UNL     1      -1.649  -4.601   6.707  1.00  0.00     0.029 A 
ATOM     55  N   UNL     1      -0.618  -6.585   6.717  1.00  0.00    -0.354 N 
ATOM     56  C   UNL     1       3.241  -7.080   8.589  1.00  0.00     0.074 A 
ATOM     57  C   UNL     1       3.696  -5.842   9.184  1.00  0.00     0.031 C 
ATOM     58  C   UNL     1      -2.394  -5.444   5.976  1.00  0.00     0.029 A 
ATOM     59  C   UNL     1      -1.735  -6.746   5.931  1.00  0.00     0.049 A 
ATOM     60  H   UNL     1       0.016  -7.314   6.908  1.00  0.00     0.167 HD
ATOM     61  C   UNL     1       3.943  -8.238   8.607  1.00  0.00     0.034 A 
ATOM     62  C   UNL     1      -2.175  -7.817   5.242  1.00  0.00     0.034 A 
ATOM     63  C   UNL     1       3.466  -9.477   8.056  1.00  0.00     0.049 A 
ATOM     64  C   UNL     1      -1.395  -9.102   5.311  1.00  0.00     0.074 A 
ATOM     65  C   UNL     1       4.058 -10.727   8.110  1.00  0.00     0.029 A 
ATOM     66  N   UNL     1       2.285  -9.625   7.344  1.00  0.00    -0.354 N 
ATOM     67  N   UNL     1      -0.285  -9.358   5.959  1.00  0.00    -0.248 NA
ATOM     68  C   UNL     1      -1.946 -10.254   4.582  1.00  0.00     0.031 C 
ATOM     69  C   UNL     1       3.245 -11.627   7.411  1.00  0.00     0.029 A 
ATOM     70  C   UNL     1       2.137 -10.941   6.940  1.00  0.00     0.049 A 
ATOM     71  H   UNL     1       1.647  -8.901   7.153  1.00  0.00     0.167 HD
ATOM     72  C   UNL     1      -0.019 -10.705   5.740  1.00  0.00     0.074 A 
ATOM     73  C   UNL     1      -1.099 -11.216   4.921  1.00  0.00     0.031 C 
ATOM     74  C   UNL     1       1.034 -11.447   6.164  1.00  0.00     0.034 A 
BRANCH  61  75
ATOM     75  C   UNL     1       5.283  -8.233   9.294  1.00  0.00     0.023 A 
ATOM     76  C   UNL     1       5.341  -8.155  10.701  1.00  0.00     0.012 A 
ATOM     77  C   UNL     1       6.478  -8.367   8.561  1.00  0.00     0.148 A 
ATOM     78  C   UNL     1       6.566  -8.176  11.365  1.00  0.00     0.002 A 
ATOM     79  C   UNL     1       7.694  -8.430   9.232  1.00  0.00     0.091 A 
ATOM     80  F   UNL     1       6.406  -8.417   7.223  1.00  0.00    -0.205 F 
ATOM     81  C   UNL     1       7.741  -8.324  10.633  1.00  0.00     0.022 A 
BRANCH  79  82
ATOM     82  S   UNL     1       9.256  -8.693   8.385  1.00  0.00     0.127 S 
ATOM     83  O   UNL     1       9.879  -7.375   8.498  1.00  0.00    -0.237 OA
ATOM     84  O   UNL     1       9.880  -9.734   9.202  1.00  0.00    -0.237 OA
ATOM     85  O   UNL     1       8.913  -9.108   7.032  1.00  0.00    -0.744 OA
ENDBRANCH  79  82
ENDBRANCH  61  75
BRANCH  62  86
ATOM     86  C   UNL     1      -3.450  -7.734   4.476  1.00  0.00     0.023 A 
ATOM     87  C   UNL     1      -4.582  -8.429   4.941  1.00  0.00     0.012 A 
ATOM     88  C   UNL     1      -3.556  -6.944   3.315  1.00  0.00     0.148 A 
ATOM     89  C   UNL     1      -5.792  -8.362   4.249  1.00  0.00     0.002 A 
ATOM     90  C   UNL     1      -4.778  -6.837   2.661  1.00  0.00     0.091 A 
ATOM     91  F   UNL     1      -2.463  -6.302   2.881  1.00  0.00    -0.205 F 
ATOM     92  C   UNL     1      -5.893  -7.558   3.116  1.00  0.00     0.022 A 
BRANCH  90  93
ATOM     93  S   UNL     1      -5.030  -5.721   1.277  1.00  0.00     0.127 S 
ATOM     94  O   UNL     1      -5.134  -6.652   0.157  1.00  0.00    -0.237 OA
ATOM     95  O   UNL     1      -6.282  -5.058   1.647  1.00  0.00    -0.237 OA
ATOM     96  O   UNL     1      -3.868  -4.842   1.267  1.00  0.00    -0.744 OA
ENDBRANCH  90  93
ENDBRANCH  62  86
BRANCH  74  97
ATOM     97  C   UNL     1       1.066 -12.899   5.767  1.00  0.00     0.023 A 
ATOM     98  C   UNL     1       1.361 -13.251   4.435  1.00  0.00     0.012 A 
ATOM     99  C   UNL     1       0.875 -13.915   6.725  1.00  0.00     0.148 A 
ATOM    100  C   UNL     1       1.435 -14.591   4.055  1.00  0.00     0.002 A 
ATOM    101  C   UNL     1       0.997 -15.247   6.349  1.00  0.00     0.091 A 
ATOM    102  F   UNL     1       0.576 -13.559   7.983  1.00  0.00    -0.205 F 
ATOM    103  C   UNL     1       1.266 -15.587   5.013  1.00  0.00     0.022 A 
BRANCH 101 104
ATOM    104  S   UNL     1       0.888 -16.594   7.533  1.00  0.00     0.127 S 
ATOM    105  O   UNL     1      -0.417 -17.168   7.211  1.00  0.00    -0.237 OA
ATOM    106  O   UNL     1       2.030 -17.429   7.161  1.00  0.00    -0.237 OA
ATOM    107  O   UNL     1       0.994 -15.979   8.850  1.00  0.00    -0.744 OA
ENDBRANCH 101 104
ENDBRANCH  74  97
ENDBRANCH  48  49
ENDBRANCH  40  43
ENDBRANCH  38  39
ENDBRANCH  37  38
ENDBRANCH  36  37
ENDBRANCH   1  36
TORSDOF 22
