REMARK SMILES CCOC(=O)C1=NN(c2cc(F)cc(F)c2)[C@@H](C(=O)NCCCCCCNC(=O)c2ccc(-c3c4nc(c(-c5cccc(S(=O)(=O)[O-])c5F)c5ccc([nH]5)c(-c5cccc(S(=O)(=O)[O-])c5F)c5nc(c(-c6cccc(S(=O)(=O)[O-])c6F)c6ccc3[nH]6)C=C5)C=C4)cc2)C1
REMARK SMILES IDX 23 1 22 2 21 3 20 4 18 5 19 6 17 8 6 9 7 10 93 11 8 12 4 13
REMARK SMILES IDX 5 14 3 15 2 16 1 17 9 18 10 19 16 20 11 21 14 22 12 23 13 24
REMARK SMILES IDX 15 25 24 26 25 27 26 28 27 29 28 30 29 32 30 33 31 34 92 35
REMARK SMILES IDX 32 36 91 37 33 38 34 39 35 40 85 41 36 42 90 43 84 44 86 45
REMARK SMILES IDX 37 46 89 47 83 48 82 49 38 51 70 52 50 53 69 54 51 55 54 56
REMARK SMILES IDX 68 57 87 58 52 59 53 60 67 62 88 63 55 64 39 65 40 66 48 67
REMARK SMILES IDX 41 68 43 69 49 70 42 71 44 72 45 73 46 74 47 75 71 76 72 77
REMARK SMILES IDX 80 78 73 79 75 80 81 81 74 82 76 83 77 84 78 85 79 86 56 87
REMARK SMILES IDX 57 88 65 89 58 90 60 91 66 92 59 93 61 94 62 95 63 96 64 97
REMARK H PARENT 20 7 27 31 86 50 54 61
REMARK Flexibility Score: inf
ROOT
ATOM      1  C   UNL     1       1.444   8.371   3.433  1.00  0.00     0.002 C 
ENDROOT
BRANCH   1   2
ATOM      2  C   UNL     1       2.535   7.297   3.530  1.00  0.00     0.021 C 
BRANCH   2   3
ATOM      3  C   UNL     1       2.795   6.810   4.960  1.00  0.00     0.116 C 
BRANCH   3   4
ATOM      4  N   UNL     1       1.859   5.769   5.340  1.00  0.00    -0.354 N 
ATOM      5  C   UNL     1       1.972   4.410   5.236  1.00  0.00     0.245 C 
ATOM      6  O   UNL     1       0.970   3.754   5.546  1.00  0.00    -0.273 OA
ATOM      7  H   UNL     1       1.014   6.089   5.732  1.00  0.00     0.163 HD
BRANCH   5   8
ATOM      8  C   UNL     1       3.316   3.720   4.877  1.00  0.00     0.203 C 
ATOM      9  C   UNL     1       2.959   2.167   3.235  1.00  0.00     0.148 C 
ATOM     10  N   UNL     1       3.378   3.205   2.579  1.00  0.00    -0.169 NA
ATOM     11  C   UNL     1       3.111   2.208   4.719  1.00  0.00     0.103 C 
ATOM     12  N   UNL     1       3.803   4.094   3.538  1.00  0.00    -0.252 N 
BRANCH   9  13
ATOM     13  C   UNL     1       2.449   0.919   2.579  1.00  0.00     0.354 C 
ATOM     14  O   UNL     1       3.064  -0.133   2.644  1.00  0.00    -0.245 OA
BRANCH  13  15
ATOM     15  O   UNL     1       1.242   1.151   2.034  1.00  0.00    -0.461 OA
BRANCH  15  16
ATOM     16  C   UNL     1       0.626   0.026   1.393  1.00  0.00     0.230 C 
ATOM     17  C   UNL     1       0.991   0.008  -0.080  1.00  0.00     0.049 C 
ENDBRANCH  15  16
ENDBRANCH  13  15
ENDBRANCH   9  13
BRANCH  12  18
ATOM     18  C   UNL     1       4.950   4.840   3.258  1.00  0.00     0.066 A 
ATOM     19  C   UNL     1       5.944   5.108   4.210  1.00  0.00     0.067 A 
ATOM     20  C   UNL     1       5.136   5.385   1.976  1.00  0.00     0.067 A 
ATOM     21  C   UNL     1       7.040   5.917   3.900  1.00  0.00     0.128 A 
ATOM     22  C   UNL     1       6.230   6.201   1.687  1.00  0.00     0.128 A 
ATOM     23  F   UNL     1       7.953   6.156   4.849  1.00  0.00    -0.207 F 
ATOM     24  C   UNL     1       7.189   6.481   2.645  1.00  0.00     0.078 A 
ATOM     25  F   UNL     1       6.338   6.742   0.467  1.00  0.00    -0.207 F 
ENDBRANCH  12  18
ENDBRANCH   5   8
ENDBRANCH   3   4
ENDBRANCH   2   3
ENDBRANCH   1   2
BRANCH   1  26
ATOM     26  C   UNL     1       1.829   9.744   4.001  1.00  0.00     0.002 C 
BRANCH  26  27
ATOM     27  C   UNL     1       3.089  10.386   3.405  1.00  0.00     0.021 C 
BRANCH  27  28
ATOM     28  C   UNL     1       3.064  10.607   1.891  1.00  0.00     0.116 C 
BRANCH  28  29
ATOM     29  N   UNL     1       2.044  11.567   1.496  1.00  0.00    -0.352 N 
ATOM     30  C   UNL     1       2.153  12.686   0.707  1.00  0.00     0.251 C 
ATOM     31  H   UNL     1       1.142  11.388   1.847  1.00  0.00     0.163 HD
ATOM     32  O   UNL     1       1.214  13.476   0.641  1.00  0.00    -0.269 OA
BRANCH  30  33
ATOM     33  C   UNL     1       3.395  12.958  -0.054  1.00  0.00     0.039 A 
ATOM     34  C   UNL     1       3.912  14.258  -0.056  1.00  0.00     0.014 A 
ATOM     35  C   UNL     1       4.019  11.956  -0.804  1.00  0.00     0.014 A 
ATOM     36  C   UNL     1       5.083  14.544  -0.766  1.00  0.00     0.010 A 
ATOM     37  C   UNL     1       5.205  12.234  -1.484  1.00  0.00     0.010 A 
ATOM     38  C   UNL     1       5.746  13.529  -1.472  1.00  0.00    -0.014 A 
BRANCH  38  39
ATOM     39  C   UNL     1       7.014  13.793  -2.196  1.00  0.00     0.031 A 
ATOM     40  C   UNL     1       7.046  13.780  -3.698  1.00  0.00     0.074 A 
ATOM     41  C   UNL     1       8.157  13.949  -1.500  1.00  0.00     0.049 A 
ATOM     42  N   UNL     1       8.072  13.893  -4.501  1.00  0.00    -0.248 NA
ATOM     43  C   UNL     1       5.759  13.598  -4.389  1.00  0.00     0.031 C 
ATOM     44  C   UNL     1       8.266  13.922  -0.041  1.00  0.00     0.029 A 
ATOM     45  N   UNL     1       9.449  14.124  -1.928  1.00  0.00    -0.354 N 
ATOM     46  C   UNL     1       7.565  13.757  -5.786  1.00  0.00     0.074 A 
ATOM     47  C   UNL     1       6.138  13.549  -5.659  1.00  0.00     0.031 C 
ATOM     48  C   UNL     1       9.556  14.060   0.305  1.00  0.00     0.029 A 
ATOM     49  C   UNL     1      10.367  14.168  -0.905  1.00  0.00     0.049 A 
ATOM     50  H   UNL     1       9.696  14.211  -2.877  1.00  0.00     0.167 HD
ATOM     51  C   UNL     1       8.223  13.822  -6.967  1.00  0.00     0.034 A 
ATOM     52  C   UNL     1      11.710  14.278  -0.937  1.00  0.00     0.034 A 
ATOM     53  C   UNL     1       9.629  14.094  -7.101  1.00  0.00     0.049 A 
ATOM     54  C   UNL     1      12.408  14.409  -2.263  1.00  0.00     0.074 A 
ATOM     55  C   UNL     1      10.366  14.265  -8.259  1.00  0.00     0.029 A 
ATOM     56  N   UNL     1      10.508  14.240  -6.040  1.00  0.00    -0.354 N 
ATOM     57  N   UNL     1      11.890  14.428  -3.466  1.00  0.00    -0.248 NA
ATOM     58  C   UNL     1      13.870  14.565  -2.235  1.00  0.00     0.031 C 
ATOM     59  C   UNL     1      11.693  14.529  -7.898  1.00  0.00     0.029 A 
ATOM     60  C   UNL     1      11.781  14.505  -6.516  1.00  0.00     0.049 A 
ATOM     61  H   UNL     1      10.264  14.167  -5.090  1.00  0.00     0.167 HD
ATOM     62  C   UNL     1      12.955  14.623  -4.337  1.00  0.00     0.074 A 
ATOM     63  C   UNL     1      14.148  14.732  -3.523  1.00  0.00     0.031 C 
ATOM     64  C   UNL     1      12.947  14.682  -5.691  1.00  0.00     0.034 A 
BRANCH  51  65
ATOM     65  C   UNL     1       7.411  13.676  -8.222  1.00  0.00     0.023 A 
ATOM     66  C   UNL     1       6.707  14.796  -8.710  1.00  0.00     0.012 A 
ATOM     67  C   UNL     1       7.383  12.468  -8.944  1.00  0.00     0.148 A 
ATOM     68  C   UNL     1       5.975  14.712  -9.893  1.00  0.00     0.002 A 
ATOM     69  C   UNL     1       6.668  12.399 -10.137  1.00  0.00     0.091 A 
ATOM     70  F   UNL     1       8.029  11.403  -8.448  1.00  0.00    -0.205 F 
ATOM     71  C   UNL     1       5.963  13.517 -10.611  1.00  0.00     0.022 A 
BRANCH  69  72
ATOM     72  S   UNL     1       6.656  10.901 -11.134  1.00  0.00     0.127 S 
ATOM     73  O   UNL     1       5.487  10.200 -10.607  1.00  0.00    -0.237 OA
ATOM     74  O   UNL     1       6.493  11.416 -12.495  1.00  0.00    -0.237 OA
ATOM     75  O   UNL     1       7.948  10.274 -10.886  1.00  0.00    -0.744 OA
ENDBRANCH  69  72
ENDBRANCH  51  65
BRANCH  52  76
ATOM     76  C   UNL     1      12.468  14.357   0.341  1.00  0.00     0.023 A 
ATOM     77  C   UNL     1      12.974  15.603   0.758  1.00  0.00     0.012 A 
ATOM     78  C   UNL     1      12.633  13.235   1.173  1.00  0.00     0.148 A 
ATOM     79  C   UNL     1      13.643  15.726   1.977  1.00  0.00     0.002 A 
ATOM     80  C   UNL     1      13.261  13.375   2.408  1.00  0.00     0.091 A 
ATOM     81  F   UNL     1      12.167  12.049   0.755  1.00  0.00    -0.205 F 
ATOM     82  C   UNL     1      13.775  14.616   2.809  1.00  0.00     0.022 A 
BRANCH  80  83
ATOM     83  S   UNL     1      13.325  11.997   3.562  1.00  0.00     0.127 S 
ATOM     84  O   UNL     1      14.527  11.291   3.129  1.00  0.00    -0.237 OA
ATOM     85  O   UNL     1      13.440  12.666   4.860  1.00  0.00    -0.237 OA
ATOM     86  O   UNL     1      12.055  11.308   3.364  1.00  0.00    -0.744 OA
ENDBRANCH  80  83
ENDBRANCH  52  76
BRANCH  64  87
ATOM     87  C   UNL     1      14.262  14.886  -6.389  1.00  0.00     0.023 A 
ATOM     88  C   UNL     1      15.104  13.775  -6.596  1.00  0.00     0.012 A 
ATOM     89  C   UNL     1      14.622  16.140  -6.919  1.00  0.00     0.148 A 
ATOM     90  C   UNL     1      16.291  13.912  -7.315  1.00  0.00     0.002 A 
ATOM     91  C   UNL     1      15.794  16.263  -7.658  1.00  0.00     0.091 A 
ATOM     92  F   UNL     1      13.821  17.191  -6.687  1.00  0.00    -0.205 F 
ATOM     93  C   UNL     1      16.630  15.152  -7.856  1.00  0.00     0.022 A 
BRANCH  91  94
ATOM     94  S   UNL     1      16.245  17.819  -8.441  1.00  0.00     0.127 S 
ATOM     95  O   UNL     1      17.079  18.442  -7.416  1.00  0.00    -0.237 OA
ATOM     96  O   UNL     1      16.973  17.384  -9.636  1.00  0.00    -0.237 OA
ATOM     97  O   UNL     1      14.979  18.481  -8.725  1.00  0.00    -0.744 OA
ENDBRANCH  91  94
ENDBRANCH  64  87
ENDBRANCH  38  39
ENDBRANCH  30  33
ENDBRANCH  28  29
ENDBRANCH  27  28
ENDBRANCH  26  27
ENDBRANCH   1  26
TORSDOF 20
