REMARK SMILES CCn1cc(CNC(=O)[C@H]2CC=CC[C@@H]2C(=O)NCCCCCCNC(=O)c2ccc(-c3c4nc(c(-c5cccc(S(=O)(=O)[O-])c5F)c5ccc([nH]5)c(-c5cccc(S(=O)(=O)[O-])c5F)c5nc(c(-c6cccc(S(=O)(=O)[O-])c6F)c6ccc3[nH]6)C=C5)C=C4)cc2)cn1
REMARK SMILES IDX 21 1 20 2 19 3 18 4 16 5 17 6 15 8 10 9 11 10 12 11 14 12
REMARK SMILES IDX 13 13 8 14 7 15 9 17 6 18 5 19 3 20 4 21 92 22 91 23 2 24
REMARK SMILES IDX 1 25 22 26 23 27 24 28 25 29 26 30 27 32 28 33 29 34 90 35
REMARK SMILES IDX 30 36 89 37 31 38 32 39 33 40 83 41 34 42 88 43 82 44 84 45
REMARK SMILES IDX 35 46 87 47 81 48 80 49 36 51 68 52 48 53 67 54 49 55 52 56
REMARK SMILES IDX 66 57 85 58 50 59 51 60 65 62 86 63 53 64 37 65 38 66 46 67
REMARK SMILES IDX 39 68 41 69 47 70 40 71 42 72 43 73 44 74 45 75 69 76 70 77
REMARK SMILES IDX 78 78 71 79 73 80 79 81 72 82 74 83 75 84 76 85 77 86 54 87
REMARK SMILES IDX 55 88 63 89 56 90 58 91 64 92 57 93 59 94 60 95 61 96 62 97
REMARK H PARENT 18 7 7 16 25 31 84 50 52 61
REMARK Flexibility Score: inf
ROOT
ATOM      1  C   UNL     1       7.532  -5.729   4.909  1.00  0.00     0.002 C 
ENDROOT
BRANCH   1   2
ATOM      2  C   UNL     1       6.006  -5.693   4.996  1.00  0.00     0.021 C 
BRANCH   2   3
ATOM      3  C   UNL     1       5.322  -5.646   3.636  1.00  0.00     0.116 C 
BRANCH   3   4
ATOM      4  N   UNL     1       5.250  -6.944   3.012  1.00  0.00    -0.356 N 
ATOM      5  C   UNL     1       4.192  -7.737   2.692  1.00  0.00     0.224 C 
ATOM      6  O   UNL     1       4.475  -8.758   2.056  1.00  0.00    -0.275 OA
ATOM      7  H   UNL     1       6.126  -7.325   2.773  1.00  0.00     0.163 HD
BRANCH   5   8
ATOM      8  C   UNL     1       2.736  -7.316   2.966  1.00  0.00     0.095 C 
ATOM      9  C   UNL     1       2.397  -6.970   4.435  1.00  0.00     0.095 C 
ATOM     10  C   UNL     1       2.489  -8.221   5.335  1.00  0.00     0.041 C 
ATOM     11  C   UNL     1       1.966  -9.478   4.703  1.00  0.00    -0.030 C 
ATOM     12  C   UNL     1       1.769  -8.415   2.457  1.00  0.00     0.041 C 
ATOM     13  C   UNL     1       1.615  -9.562   3.413  1.00  0.00    -0.030 C 
BRANCH   9  14
ATOM     14  C   UNL     1       1.020  -6.292   4.529  1.00  0.00     0.224 C 
ATOM     15  N   UNL     1       0.834  -5.014   4.084  1.00  0.00    -0.352 N 
ATOM     16  H   UNL     1      -0.089  -4.685   4.176  1.00  0.00     0.163 HD
ATOM     17  O   UNL     1       0.022  -6.862   4.971  1.00  0.00    -0.275 OA
BRANCH  15  18
ATOM     18  C   UNL     1       1.744  -4.061   3.503  1.00  0.00     0.155 C 
BRANCH  18  19
ATOM     19  C   UNL     1       1.218  -3.565   2.207  1.00  0.00     0.009 A 
ATOM     20  N   UNL     1       0.680  -2.310   0.477  1.00  0.00    -0.273 N 
ATOM     21  C   UNL     1       1.236  -2.272   1.723  1.00  0.00     0.114 A 
ATOM     22  N   UNL     1       0.335  -3.555   0.095  1.00  0.00    -0.181 NA
ATOM     23  C   UNL     1       0.650  -4.311   1.149  1.00  0.00     0.140 A 
BRANCH  20  24
ATOM     24  C   UNL     1       0.417  -1.218  -0.440  1.00  0.00     0.141 C 
ATOM     25  C   UNL     1       0.935   0.148  -0.019  1.00  0.00     0.029 C 
ENDBRANCH  20  24
ENDBRANCH  18  19
ENDBRANCH  15  18
ENDBRANCH   9  14
ENDBRANCH   5   8
ENDBRANCH   3   4
ENDBRANCH   2   3
ENDBRANCH   1   2
BRANCH   1  26
ATOM     26  C   UNL     1       8.175  -4.617   4.066  1.00  0.00     0.002 C 
BRANCH  26  27
ATOM     27  C   UNL     1       7.728  -3.177   4.367  1.00  0.00     0.021 C 
BRANCH  27  28
ATOM     28  C   UNL     1       8.146  -2.673   5.740  1.00  0.00     0.116 C 
BRANCH  28  29
ATOM     29  N   UNL     1       9.602  -2.632   5.879  1.00  0.00    -0.352 N 
ATOM     30  C   UNL     1      10.372  -2.437   7.010  1.00  0.00     0.251 C 
ATOM     31  H   UNL     1      10.107  -2.762   5.045  1.00  0.00     0.163 HD
ATOM     32  O   UNL     1      11.537  -2.090   6.915  1.00  0.00    -0.269 OA
BRANCH  30  33
ATOM     33  C   UNL     1       9.762  -2.664   8.332  1.00  0.00     0.039 A 
ATOM     34  C   UNL     1      10.058  -1.833   9.418  1.00  0.00     0.014 A 
ATOM     35  C   UNL     1       8.876  -3.727   8.467  1.00  0.00     0.014 A 
ATOM     36  C   UNL     1       9.395  -2.043  10.625  1.00  0.00     0.010 A 
ATOM     37  C   UNL     1       8.106  -3.827   9.593  1.00  0.00     0.010 A 
ATOM     38  C   UNL     1       8.414  -3.038  10.697  1.00  0.00    -0.014 A 
BRANCH  38  39
ATOM     39  C   UNL     1       7.604  -3.231  11.893  1.00  0.00     0.031 A 
ATOM     40  C   UNL     1       6.738  -2.074  12.242  1.00  0.00     0.074 A 
ATOM     41  C   UNL     1       7.434  -4.458  12.429  1.00  0.00     0.049 A 
ATOM     42  N   UNL     1       6.824  -1.294  13.268  1.00  0.00    -0.248 NA
ATOM     43  C   UNL     1       5.762  -1.626  11.236  1.00  0.00     0.031 C 
ATOM     44  C   UNL     1       7.955  -5.735  11.917  1.00  0.00     0.029 A 
ATOM     45  N   UNL     1       6.603  -4.855  13.429  1.00  0.00    -0.354 N 
ATOM     46  C   UNL     1       5.741  -0.419  13.160  1.00  0.00     0.074 A 
ATOM     47  C   UNL     1       5.323  -0.495  11.789  1.00  0.00     0.031 C 
ATOM     48  C   UNL     1       7.222  -6.750  12.417  1.00  0.00     0.029 A 
ATOM     49  C   UNL     1       6.308  -6.216  13.407  1.00  0.00     0.049 A 
ATOM     50  H   UNL     1       6.243  -4.237  14.105  1.00  0.00     0.167 HD
ATOM     51  C   UNL     1       5.094   0.042  14.271  1.00  0.00     0.034 A 
ATOM     52  C   UNL     1       5.334  -6.846  14.106  1.00  0.00     0.034 A 
ATOM     53  C   UNL     1       5.873  -0.239  15.459  1.00  0.00     0.049 A 
ATOM     54  C   UNL     1       4.946  -5.948  15.216  1.00  0.00     0.074 A 
ATOM     55  C   UNL     1       7.143   0.065  15.904  1.00  0.00     0.029 A 
ATOM     56  N   UNL     1       5.443  -1.293  16.231  1.00  0.00    -0.354 N 
ATOM     57  N   UNL     1       5.740  -5.634  16.201  1.00  0.00    -0.248 NA
ATOM     58  C   UNL     1       3.817  -5.055  15.012  1.00  0.00     0.031 C 
ATOM     59  C   UNL     1       7.578  -1.099  16.606  1.00  0.00     0.029 A 
ATOM     60  C   UNL     1       6.531  -2.024  16.613  1.00  0.00     0.049 A 
ATOM     61  H   UNL     1       4.508  -1.488  16.468  1.00  0.00     0.167 HD
ATOM     62  C   UNL     1       5.494  -4.285  16.421  1.00  0.00     0.074 A 
ATOM     63  C   UNL     1       4.214  -4.024  15.764  1.00  0.00     0.031 C 
ATOM     64  C   UNL     1       6.492  -3.452  16.843  1.00  0.00     0.034 A 
BRANCH  51  65
ATOM     65  C   UNL     1       3.593   0.320  14.386  1.00  0.00     0.023 A 
ATOM     66  C   UNL     1       3.122   0.689  15.671  1.00  0.00     0.012 A 
ATOM     67  C   UNL     1       2.603  -0.034  13.441  1.00  0.00     0.148 A 
ATOM     68  C   UNL     1       1.779   0.558  16.039  1.00  0.00     0.002 A 
ATOM     69  C   UNL     1       1.259  -0.118  13.795  1.00  0.00     0.091 A 
ATOM     70  F   UNL     1       2.936  -0.376  12.200  1.00  0.00    -0.205 F 
ATOM     71  C   UNL     1       0.847   0.135  15.104  1.00  0.00     0.022 A 
BRANCH  69  72
ATOM     72  S   UNL     1      -0.000  -0.627  12.612  1.00  0.00     0.127 S 
ATOM     73  O   UNL     1      -0.353  -1.949  13.120  1.00  0.00    -0.237 OA
ATOM     74  O   UNL     1      -1.018   0.406  12.802  1.00  0.00    -0.237 OA
ATOM     75  O   UNL     1       0.644  -0.600  11.305  1.00  0.00    -0.744 OA
ENDBRANCH  69  72
ENDBRANCH  51  65
BRANCH  52  76
ATOM     76  C   UNL     1       4.554  -8.057  13.767  1.00  0.00     0.023 A 
ATOM     77  C   UNL     1       3.908  -8.777  14.791  1.00  0.00     0.012 A 
ATOM     78  C   UNL     1       4.216  -8.354  12.428  1.00  0.00     0.148 A 
ATOM     79  C   UNL     1       2.931  -9.735  14.495  1.00  0.00     0.002 A 
ATOM     80  C   UNL     1       3.252  -9.314  12.137  1.00  0.00     0.091 A 
ATOM     81  F   UNL     1       4.772  -7.632  11.446  1.00  0.00    -0.205 F 
ATOM     82  C   UNL     1       2.596  -9.997  13.169  1.00  0.00     0.022 A 
BRANCH  80  83
ATOM     83  S   UNL     1       2.748  -9.684  10.450  1.00  0.00     0.127 S 
ATOM     84  O   UNL     1       2.809 -11.146  10.431  1.00  0.00    -0.237 OA
ATOM     85  O   UNL     1       1.401  -9.124  10.411  1.00  0.00    -0.237 OA
ATOM     86  O   UNL     1       3.728  -9.032   9.589  1.00  0.00    -0.744 OA
ENDBRANCH  80  83
ENDBRANCH  52  76
BRANCH  64  87
ATOM     87  C   UNL     1       7.766  -4.073  17.357  1.00  0.00     0.023 A 
ATOM     88  C   UNL     1       8.621  -4.841  16.539  1.00  0.00     0.012 A 
ATOM     89  C   UNL     1       8.197  -3.720  18.646  1.00  0.00     0.148 A 
ATOM     90  C   UNL     1       9.870  -5.262  17.005  1.00  0.00     0.002 A 
ATOM     91  C   UNL     1       9.458  -4.098  19.088  1.00  0.00     0.091 A 
ATOM     92  F   UNL     1       7.372  -2.989  19.412  1.00  0.00    -0.205 F 
ATOM     93  C   UNL     1      10.295  -4.877  18.274  1.00  0.00     0.022 A 
BRANCH  91  94
ATOM     94  S   UNL     1      10.108  -3.517  20.655  1.00  0.00     0.127 S 
ATOM     95  O   UNL     1       9.967  -4.699  21.502  1.00  0.00    -0.237 OA
ATOM     96  O   UNL     1      11.489  -3.168  20.315  1.00  0.00    -0.237 OA
ATOM     97  O   UNL     1       9.285  -2.373  21.029  1.00  0.00    -0.744 OA
ENDBRANCH  91  94
ENDBRANCH  64  87
ENDBRANCH  38  39
ENDBRANCH  30  33
ENDBRANCH  28  29
ENDBRANCH  27  28
ENDBRANCH  26  27
ENDBRANCH   1  26
TORSDOF 20
