REMARK SMILES COc1cccc(NC(=O)c2nccnc2C(=O)NCCCCCCNC(=O)c2ccc(-c3c4nc(c(-c5cccc(S(=O)(=O)[O-])c5F)c5ccc([nH]5)c(-c5cccc(S(=O)(=O)[O-])c5F)c5nc(c(-c6cccc(S(=O)(=O)[O-])c6F)c6ccc3[nH]6)C=C5)C=C4)cc2)c1
REMARK SMILES IDX 22 1 21 2 20 3 19 4 17 5 18 6 16 8 11 9 12 10 13 11 15 12
REMARK SMILES IDX 14 13 9 14 8 15 10 17 7 18 3 19 4 20 92 21 5 22 6 23 2 24
REMARK SMILES IDX 1 25 23 26 24 27 25 28 26 29 27 30 28 32 29 33 30 34 91 35
REMARK SMILES IDX 31 36 90 37 32 38 33 39 34 40 84 41 35 42 89 43 83 44 85 45
REMARK SMILES IDX 36 46 88 47 82 48 81 49 37 51 69 52 49 53 68 54 50 55 53 56
REMARK SMILES IDX 67 57 86 58 51 59 52 60 66 62 87 63 54 64 38 65 39 66 47 67
REMARK SMILES IDX 40 68 42 69 48 70 41 71 43 72 44 73 45 74 46 75 70 76 71 77
REMARK SMILES IDX 79 78 72 79 74 80 80 81 73 82 75 83 76 84 77 85 78 86 55 87
REMARK SMILES IDX 56 88 64 89 57 90 59 91 65 92 58 93 60 94 61 95 62 96 63 97
REMARK H PARENT 19 7 8 16 26 31 85 50 53 61
REMARK Flexibility Score: inf
ROOT
ATOM      1  C   UNL     1       7.531  -3.599  -3.505  1.00  0.00     0.002 C 
ENDROOT
BRANCH   1   2
ATOM      2  C   UNL     1       6.000  -3.607  -3.550  1.00  0.00     0.021 C 
BRANCH   2   3
ATOM      3  C   UNL     1       5.340  -2.931  -4.743  1.00  0.00     0.116 C 
BRANCH   3   4
ATOM      4  N   UNL     1       5.628  -3.510  -6.029  1.00  0.00    -0.351 N 
ATOM      5  C   UNL     1       4.956  -3.438  -7.230  1.00  0.00     0.272 C 
ATOM      6  O   UNL     1       5.504  -4.006  -8.182  1.00  0.00    -0.267 OA
ATOM      7  H   UNL     1       6.448  -4.054  -6.056  1.00  0.00     0.163 HD
BRANCH   5   8
ATOM      8  C   UNL     1       3.604  -2.819  -7.466  1.00  0.00     0.159 A 
ATOM      9  C   UNL     1       3.110  -1.602  -7.012  1.00  0.00     0.159 A 
ATOM     10  N   UNL     1       1.918  -1.071  -7.453  1.00  0.00    -0.247 NA
ATOM     11  C   UNL     1       1.218  -1.813  -8.331  1.00  0.00     0.132 A 
ATOM     12  N   UNL     1       2.841  -3.568  -8.336  1.00  0.00    -0.247 NA
ATOM     13  C   UNL     1       1.663  -3.047  -8.749  1.00  0.00     0.132 A 
BRANCH   9  14
ATOM     14  C   UNL     1       3.777  -0.752  -6.023  1.00  0.00     0.276 C 
ATOM     15  N   UNL     1       3.241  -0.547  -4.757  1.00  0.00    -0.320 N 
ATOM     16  H   UNL     1       3.740   0.117  -4.228  1.00  0.00     0.170 HD
ATOM     17  O   UNL     1       4.842  -0.220  -6.336  1.00  0.00    -0.267 OA
BRANCH  15  18
ATOM     18  C   UNL     1       2.126  -1.089  -4.063  1.00  0.00     0.045 A 
ATOM     19  C   UNL     1       0.849  -1.131  -1.977  1.00  0.00     0.120 A 
ATOM     20  C   UNL     1      -0.056  -2.025  -2.545  1.00  0.00     0.046 A 
ATOM     21  C   UNL     1       1.932  -0.663  -2.735  1.00  0.00     0.072 A 
ATOM     22  C   UNL     1       0.132  -2.471  -3.844  1.00  0.00     0.006 A 
ATOM     23  C   UNL     1       1.230  -2.026  -4.583  1.00  0.00     0.026 A 
BRANCH  19  24
ATOM     24  O   UNL     1       0.572  -0.823  -0.675  1.00  0.00    -0.497 OA
ATOM     25  C   UNL     1       1.241   0.297  -0.113  1.00  0.00     0.278 C 
ENDBRANCH  19  24
ENDBRANCH  15  18
ENDBRANCH   9  14
ENDBRANCH   5   8
ENDBRANCH   3   4
ENDBRANCH   2   3
ENDBRANCH   1   2
BRANCH   1  26
ATOM     26  C   UNL     1       8.250  -2.275  -3.780  1.00  0.00     0.002 C 
BRANCH  26  27
ATOM     27  C   UNL     1       7.822  -1.047  -2.970  1.00  0.00     0.021 C 
BRANCH  27  28
ATOM     28  C   UNL     1       7.748  -1.208  -1.455  1.00  0.00     0.116 C 
BRANCH  28  29
ATOM     29  N   UNL     1       8.977  -1.704  -0.867  1.00  0.00    -0.352 N 
ATOM     30  C   UNL     1       9.678  -1.274   0.232  1.00  0.00     0.251 C 
ATOM     31  H   UNL     1       9.374  -2.476  -1.332  1.00  0.00     0.163 HD
ATOM     32  O   UNL     1      10.761  -1.797   0.486  1.00  0.00    -0.269 OA
BRANCH  30  33
ATOM     33  C   UNL     1       9.171  -0.182   1.098  1.00  0.00     0.039 A 
ATOM     34  C   UNL     1      10.096   0.741   1.597  1.00  0.00     0.014 A 
ATOM     35  C   UNL     1       7.825  -0.073   1.461  1.00  0.00     0.014 A 
ATOM     36  C   UNL     1       9.668   1.788   2.416  1.00  0.00     0.010 A 
ATOM     37  C   UNL     1       7.388   1.017   2.218  1.00  0.00     0.010 A 
ATOM     38  C   UNL     1       8.305   1.955   2.713  1.00  0.00    -0.014 A 
BRANCH  38  39
ATOM     39  C   UNL     1       7.852   3.131   3.503  1.00  0.00     0.031 A 
ATOM     40  C   UNL     1       7.197   2.970   4.848  1.00  0.00     0.074 A 
ATOM     41  C   UNL     1       7.993   4.364   2.979  1.00  0.00     0.049 A 
ATOM     42  N   UNL     1       6.821   3.895   5.695  1.00  0.00    -0.248 NA
ATOM     43  C   UNL     1       6.898   1.599   5.288  1.00  0.00     0.031 C 
ATOM     44  C   UNL     1       8.503   4.654   1.638  1.00  0.00     0.029 A 
ATOM     45  N   UNL     1       7.708   5.601   3.502  1.00  0.00    -0.354 N 
ATOM     46  C   UNL     1       6.218   3.224   6.752  1.00  0.00     0.074 A 
ATOM     47  C   UNL     1       6.243   1.815   6.420  1.00  0.00     0.031 C 
ATOM     48  C   UNL     1       8.510   5.982   1.448  1.00  0.00     0.029 A 
ATOM     49  C   UNL     1       7.991   6.638   2.645  1.00  0.00     0.049 A 
ATOM     50  H   UNL     1       7.336   5.733   4.404  1.00  0.00     0.167 HD
ATOM     51  C   UNL     1       5.716   3.728   7.907  1.00  0.00     0.034 A 
ATOM     52  C   UNL     1       7.858   7.969   2.802  1.00  0.00     0.034 A 
ATOM     53  C   UNL     1       5.717   5.128   8.245  1.00  0.00     0.049 A 
ATOM     54  C   UNL     1       7.385   8.509   4.121  1.00  0.00     0.074 A 
ATOM     55  C   UNL     1       5.332   5.729   9.431  1.00  0.00     0.029 A 
ATOM     56  N   UNL     1       6.105   6.150   7.391  1.00  0.00    -0.354 N 
ATOM     57  N   UNL     1       7.002   7.853   5.190  1.00  0.00    -0.248 NA
ATOM     58  C   UNL     1       7.374   9.970   4.276  1.00  0.00     0.031 C 
ATOM     59  C   UNL     1       5.457   7.116   9.282  1.00  0.00     0.029 A 
ATOM     60  C   UNL     1       5.955   7.378   8.016  1.00  0.00     0.049 A 
ATOM     61  H   UNL     1       6.440   6.021   6.474  1.00  0.00     0.167 HD
ATOM     62  C   UNL     1       6.728   8.817   6.152  1.00  0.00     0.074 A 
ATOM     63  C   UNL     1       7.018  10.101   5.546  1.00  0.00     0.031 C 
ATOM     64  C   UNL     1       6.268   8.652   7.418  1.00  0.00     0.034 A 
BRANCH  51  65
ATOM     65  C   UNL     1       5.159   2.745   8.908  1.00  0.00     0.023 A 
ATOM     66  C   UNL     1       6.031   1.862   9.581  1.00  0.00     0.012 A 
ATOM     67  C   UNL     1       3.783   2.712   9.208  1.00  0.00     0.148 A 
ATOM     68  C   UNL     1       5.537   0.929  10.493  1.00  0.00     0.002 A 
ATOM     69  C   UNL     1       3.305   1.812  10.155  1.00  0.00     0.091 A 
ATOM     70  F   UNL     1       2.962   3.541   8.546  1.00  0.00    -0.205 F 
ATOM     71  C   UNL     1       4.177   0.910  10.786  1.00  0.00     0.022 A 
BRANCH  69  72
ATOM     72  S   UNL     1       1.581   1.771  10.657  1.00  0.00     0.127 S 
ATOM     73  O   UNL     1       1.095   0.587   9.951  1.00  0.00    -0.237 OA
ATOM     74  O   UNL     1       1.684   1.615  12.109  1.00  0.00    -0.237 OA
ATOM     75  O   UNL     1       1.012   3.041  10.227  1.00  0.00    -0.744 OA
ENDBRANCH  69  72
ENDBRANCH  51  65
BRANCH  52  76
ATOM     76  C   UNL     1       8.262   8.873   1.690  1.00  0.00     0.023 A 
ATOM     77  C   UNL     1       9.449   9.623   1.794  1.00  0.00     0.012 A 
ATOM     78  C   UNL     1       7.517   8.922   0.496  1.00  0.00     0.148 A 
ATOM     79  C   UNL     1       9.879  10.420   0.732  1.00  0.00     0.002 A 
ATOM     80  C   UNL     1       7.982   9.671  -0.578  1.00  0.00     0.091 A 
ATOM     81  F   UNL     1       6.387   8.204   0.425  1.00  0.00    -0.205 F 
ATOM     82  C   UNL     1       9.154  10.433  -0.457  1.00  0.00     0.022 A 
BRANCH  80  83
ATOM     83  S   UNL     1       7.195   9.627  -2.192  1.00  0.00     0.127 S 
ATOM     84  O   UNL     1       6.691  10.994  -2.315  1.00  0.00    -0.237 OA
ATOM     85  O   UNL     1       8.326   9.306  -3.065  1.00  0.00    -0.237 OA
ATOM     86  O   UNL     1       6.182   8.588  -2.111  1.00  0.00    -0.744 OA
ENDBRANCH  80  83
ENDBRANCH  52  76
BRANCH  64  87
ATOM     87  C   UNL     1       6.062   9.895   8.246  1.00  0.00     0.023 A 
ATOM     88  C   UNL     1       5.014  10.785   7.933  1.00  0.00     0.012 A 
ATOM     89  C   UNL     1       6.883  10.164   9.360  1.00  0.00     0.148 A 
ATOM     90  C   UNL     1       4.816  11.944   8.684  1.00  0.00     0.002 A 
ATOM     91  C   UNL     1       6.648  11.294  10.134  1.00  0.00     0.091 A 
ATOM     92  F   UNL     1       7.889   9.321   9.633  1.00  0.00    -0.205 F 
ATOM     93  C   UNL     1       5.626  12.193   9.790  1.00  0.00     0.022 A 
BRANCH  91  94
ATOM     94  S   UNL     1       7.582  11.639  11.630  1.00  0.00     0.127 S 
ATOM     95  O   UNL     1       8.500  12.681  11.175  1.00  0.00    -0.237 OA
ATOM     96  O   UNL     1       6.542  12.101  12.550  1.00  0.00    -0.237 OA
ATOM     97  O   UNL     1       8.200  10.376  12.010  1.00  0.00    -0.744 OA
ENDBRANCH  91  94
ENDBRANCH  64  87
ENDBRANCH  38  39
ENDBRANCH  30  33
ENDBRANCH  28  29
ENDBRANCH  27  28
ENDBRANCH  26  27
ENDBRANCH   1  26
TORSDOF 19
