REMARK SMILES CS(=O)(=O)N(Cc1ccc(Cl)cc1)c1ccc(C(=O)Nc2ccccc2C(=O)NCCCCCCNC(=O)c2ccc(-c3c4nc(c(-c5cccc(S(=O)(=O)[O-])c5F)c5ccc([nH]5)c(-c5cccc(S(=O)(=O)[O-])c5F)c5nc(c(-c6cccc(S(=O)(=O)[O-])c6F)c6ccc3[nH]6)C=C5)C=C4)cc2)cc1
REMARK SMILES IDX 31 1 30 2 29 3 27 4 28 5 26 7 21 8 22 9 23 10 25 11 24 12
REMARK SMILES IDX 20 13 18 14 19 15 17 17 14 18 15 19 103 20 16 21 102 22 5 23
REMARK SMILES IDX 2 24 1 25 3 26 4 27 6 28 7 29 8 30 13 31 9 32 12 33 10 34
REMARK SMILES IDX 11 35 32 36 33 37 34 38 35 39 36 40 37 41 38 43 39 44 40 45
REMARK SMILES IDX 101 46 41 47 100 48 42 49 43 50 44 51 94 52 45 53 99 54
REMARK SMILES IDX 93 55 95 56 46 57 98 58 92 59 91 60 47 62 79 63 59 64 78 65
REMARK SMILES IDX 60 66 63 67 77 68 96 69 61 70 62 71 76 73 97 74 64 75 48 76
REMARK SMILES IDX 49 77 57 78 50 79 52 80 58 81 51 82 53 83 54 84 55 85 56 86
REMARK SMILES IDX 80 87 81 88 89 89 82 90 84 91 90 92 83 93 85 94 86 95 87 96
REMARK SMILES IDX 88 97 65 98 66 99 74 100 67 101 69 102 75 103 68 104 70 105
REMARK SMILES IDX 71 106 72 107 73 108
REMARK H PARENT 29 6 20 16 36 42 95 61 63 72
REMARK Flexibility Score: inf
ROOT
ATOM      1  C   UNL     1      -0.837   1.111 -10.695  1.00  0.00     0.021 C 
ENDROOT
BRANCH   1   2
ATOM      2  C   UNL     1      -1.314   0.297  -9.498  1.00  0.00     0.116 C 
BRANCH   2   3
ATOM      3  N   UNL     1      -1.455   1.056  -8.276  1.00  0.00    -0.352 N 
ATOM      4  C   UNL     1      -2.186   0.796  -7.142  1.00  0.00     0.253 C 
ATOM      5  O   UNL     1      -2.096   1.617  -6.224  1.00  0.00    -0.269 OA
ATOM      6  H   UNL     1      -0.944   1.897  -8.252  1.00  0.00     0.163 HD
BRANCH   4   7
ATOM      7  C   UNL     1      -3.141  -0.353  -6.995  1.00  0.00     0.063 A 
ATOM      8  C   UNL     1      -3.029  -1.668  -7.497  1.00  0.00     0.054 A 
ATOM      9  C   UNL     1      -4.126  -2.544  -7.385  1.00  0.00     0.027 A 
ATOM     10  C   UNL     1      -5.251  -2.202  -6.637  1.00  0.00     0.002 A 
ATOM     11  C   UNL     1      -4.285  -0.038  -6.227  1.00  0.00     0.016 A 
ATOM     12  C   UNL     1      -5.315  -0.959  -6.025  1.00  0.00     0.001 A 
BRANCH   8  13
ATOM     13  N   UNL     1      -1.874  -2.299  -8.003  1.00  0.00    -0.321 N 
ATOM     14  C   UNL     1      -0.561  -2.208  -7.600  1.00  0.00     0.255 C 
ATOM     15  O   UNL     1       0.327  -2.705  -8.289  1.00  0.00    -0.269 OA
ATOM     16  H   UNL     1      -2.032  -2.901  -8.766  1.00  0.00     0.170 HD
BRANCH  14  17
ATOM     17  C   UNL     1      -0.198  -1.543  -6.335  1.00  0.00     0.040 A 
ATOM     18  C   UNL     1       0.542  -0.210  -3.960  1.00  0.00     0.052 A 
ATOM     19  C   UNL     1       1.293  -0.072  -5.137  1.00  0.00     0.028 A 
ATOM     20  C   UNL     1      -0.621  -0.988  -4.027  1.00  0.00     0.028 A 
ATOM     21  C   UNL     1       0.946  -0.753  -6.306  1.00  0.00     0.016 A 
ATOM     22  C   UNL     1      -0.964  -1.687  -5.183  1.00  0.00     0.016 A 
BRANCH  18  23
ATOM     23  N   UNL     1       0.966   0.377  -2.692  1.00  0.00    -0.266 N 
BRANCH  23  24
ATOM     24  S   UNL     1       0.678  -0.539  -1.296  1.00  0.00     0.232 S 
ATOM     25  C   UNL     1       1.443   0.314   0.060  1.00  0.00     0.183 C 
ATOM     26  O   UNL     1       1.383  -1.802  -1.439  1.00  0.00    -0.207 OA
ATOM     27  O   UNL     1      -0.740  -0.521  -1.014  1.00  0.00    -0.207 OA
ENDBRANCH  23  24
BRANCH  23  28
ATOM     28  C   UNL     1       1.859   1.554  -2.669  1.00  0.00     0.170 C 
BRANCH  28  29
ATOM     29  C   UNL     1       3.293   1.380  -3.143  1.00  0.00    -0.027 A 
ATOM     30  C   UNL     1       3.938   0.134  -3.193  1.00  0.00     0.007 A 
ATOM     31  C   UNL     1       3.978   2.509  -3.631  1.00  0.00     0.007 A 
ATOM     32  C   UNL     1       5.190   0.005  -3.805  1.00  0.00     0.021 A 
ATOM     33  C   UNL     1       5.236   2.382  -4.225  1.00  0.00     0.021 A 
ATOM     34  C   UNL     1       5.828   1.127  -4.328  1.00  0.00     0.041 A 
ATOM     35  Cl  UNL     1       7.344   0.962  -5.123  1.00  0.00    -0.084 Cl
ENDBRANCH  28  29
ENDBRANCH  23  28
ENDBRANCH  18  23
ENDBRANCH  14  17
ENDBRANCH   8  13
ENDBRANCH   4   7
ENDBRANCH   2   3
ENDBRANCH   1   2
BRANCH   1  36
ATOM     36  C   UNL     1       0.583   1.688 -10.607  1.00  0.00     0.002 C 
BRANCH  36  37
ATOM     37  C   UNL     1       1.715   0.740 -10.198  1.00  0.00     0.002 C 
BRANCH  37  38
ATOM     38  C   UNL     1       1.834  -0.583 -10.956  1.00  0.00     0.021 C 
BRANCH  38  39
ATOM     39  C   UNL     1       1.875  -0.486 -12.475  1.00  0.00     0.116 C 
BRANCH  39  40
ATOM     40  N   UNL     1       2.957   0.348 -12.971  1.00  0.00    -0.352 N 
ATOM     41  C   UNL     1       3.819   0.115 -14.017  1.00  0.00     0.251 C 
ATOM     42  H   UNL     1       3.091   1.198 -12.492  1.00  0.00     0.163 HD
ATOM     43  O   UNL     1       4.746   0.887 -14.234  1.00  0.00    -0.269 OA
BRANCH  41  44
ATOM     44  C   UNL     1       3.638  -1.086 -14.864  1.00  0.00     0.039 A 
ATOM     45  C   UNL     1       4.752  -1.879 -15.160  1.00  0.00     0.014 A 
ATOM     46  C   UNL     1       2.378  -1.437 -15.353  1.00  0.00     0.014 A 
ATOM     47  C   UNL     1       4.589  -3.059 -15.893  1.00  0.00     0.010 A 
ATOM     48  C   UNL     1       2.207  -2.646 -16.020  1.00  0.00     0.010 A 
ATOM     49  C   UNL     1       3.310  -3.469 -16.300  1.00  0.00    -0.014 A 
BRANCH  49  50
ATOM     50  C   UNL     1       3.085  -4.744 -17.029  1.00  0.00     0.031 A 
ATOM     51  C   UNL     1       2.507  -4.711 -18.419  1.00  0.00     0.074 A 
ATOM     52  C   UNL     1       3.292  -5.923 -16.407  1.00  0.00     0.049 A 
ATOM     53  N   UNL     1       2.073  -5.698 -19.158  1.00  0.00    -0.248 NA
ATOM     54  C   UNL     1       2.372  -3.386 -19.051  1.00  0.00     0.031 C 
ATOM     55  C   UNL     1       3.803  -6.086 -15.044  1.00  0.00     0.029 A 
ATOM     56  N   UNL     1       3.059  -7.210 -16.828  1.00  0.00    -0.354 N 
ATOM     57  C   UNL     1       1.582  -5.115 -20.320  1.00  0.00     0.074 A 
ATOM     58  C   UNL     1       1.742  -3.685 -20.178  1.00  0.00     0.031 C 
ATOM     59  C   UNL     1       3.829  -7.394 -14.736  1.00  0.00     0.029 A 
ATOM     60  C   UNL     1       3.301  -8.159 -15.860  1.00  0.00     0.049 A 
ATOM     61  H   UNL     1       2.748  -7.433 -17.735  1.00  0.00     0.167 HD
ATOM     62  C   UNL     1       1.071  -5.717 -21.420  1.00  0.00     0.034 A 
ATOM     63  C   UNL     1       3.094  -9.492 -15.869  1.00  0.00     0.034 A 
ATOM     64  C   UNL     1       0.954  -7.141 -21.573  1.00  0.00     0.049 A 
ATOM     65  C   UNL     1       2.533 -10.135 -17.112  1.00  0.00     0.074 A 
ATOM     66  C   UNL     1       0.494  -7.852 -22.667  1.00  0.00     0.029 A 
ATOM     67  N   UNL     1       1.308  -8.071 -20.609  1.00  0.00    -0.354 N 
ATOM     68  N   UNL     1       2.177  -9.574 -18.242  1.00  0.00    -0.248 NA
ATOM     69  C   UNL     1       2.377 -11.597 -17.096  1.00  0.00     0.031 C 
ATOM     70  C   UNL     1       0.556  -9.213 -22.359  1.00  0.00     0.029 A 
ATOM     71  C   UNL     1       1.086  -9.349 -21.086  1.00  0.00     0.049 A 
ATOM     72  H   UNL     1       1.665  -7.853 -19.718  1.00  0.00     0.167 HD
ATOM     73  C   UNL     1       1.813 -10.617 -19.087  1.00  0.00     0.074 A 
ATOM     74  C   UNL     1       1.995 -11.844 -18.341  1.00  0.00     0.031 C 
ATOM     75  C   UNL     1       1.360 -10.562 -20.362  1.00  0.00     0.034 A 
BRANCH  62  76
ATOM     76  C   UNL     1       0.655  -4.846 -22.576  1.00  0.00     0.023 A 
ATOM     77  C   UNL     1       1.646  -4.221 -23.360  1.00  0.00     0.012 A 
ATOM     78  C   UNL     1      -0.699  -4.721 -22.944  1.00  0.00     0.148 A 
ATOM     79  C   UNL     1       1.296  -3.463 -24.476  1.00  0.00     0.002 A 
ATOM     80  C   UNL     1      -1.037  -4.001 -24.084  1.00  0.00     0.091 A 
ATOM     81  F   UNL     1      -1.626  -5.312 -22.177  1.00  0.00    -0.205 F 
ATOM     82  C   UNL     1      -0.043  -3.364 -24.844  1.00  0.00     0.022 A 
BRANCH  80  83
ATOM     83  S   UNL     1      -2.723  -3.877 -24.693  1.00  0.00     0.127 S 
ATOM     84  O   UNL     1      -2.995  -2.451 -24.521  1.00  0.00    -0.237 OA
ATOM     85  O   UNL     1      -2.578  -4.307 -26.084  1.00  0.00    -0.237 OA
ATOM     86  O   UNL     1      -3.521  -4.765 -23.859  1.00  0.00    -0.744 OA
ENDBRANCH  80  83
ENDBRANCH  62  76
BRANCH  63  87
ATOM     87  C   UNL     1       3.451 -10.325 -14.684  1.00  0.00     0.023 A 
ATOM     88  C   UNL     1       4.512 -11.247 -14.781  1.00  0.00     0.012 A 
ATOM     89  C   UNL     1       2.737 -10.227 -13.474  1.00  0.00     0.148 A 
ATOM     90  C   UNL     1       4.823 -12.091 -13.714  1.00  0.00     0.002 A 
ATOM     91  C   UNL     1       3.088 -11.033 -12.396  1.00  0.00     0.091 A 
ATOM     92  F   UNL     1       1.722  -9.355 -13.402  1.00  0.00    -0.205 F 
ATOM     93  C   UNL     1       4.116 -11.980 -12.520  1.00  0.00     0.022 A 
BRANCH  91  94
ATOM     94  S   UNL     1       2.309 -10.871 -10.786  1.00  0.00     0.127 S 
ATOM     95  O   UNL     1       1.445 -12.048 -10.752  1.00  0.00    -0.237 OA
ATOM     96  O   UNL     1       3.459 -10.925  -9.883  1.00  0.00    -0.237 OA
ATOM     97  O   UNL     1       1.628  -9.583 -10.812  1.00  0.00    -0.744 OA
ENDBRANCH  91  94
ENDBRANCH  63  87
BRANCH  75  98
ATOM     98  C   UNL     1       1.111 -11.859 -21.083  1.00  0.00     0.023 A 
ATOM     99  C   UNL     1      -0.021 -12.636 -20.775  1.00  0.00     0.012 A 
ATOM    100  C   UNL     1       1.947 -12.240 -22.152  1.00  0.00     0.148 A 
ATOM    101  C   UNL     1      -0.307 -13.786 -21.510  1.00  0.00     0.002 A 
ATOM    102  C   UNL     1       1.627 -13.357 -22.911  1.00  0.00     0.091 A 
ATOM    103  F   UNL     1       3.029 -11.491 -22.415  1.00  0.00    -0.205 F 
ATOM    104  C   UNL     1       0.507 -14.138 -22.585  1.00  0.00     0.022 A 
BRANCH 102 105
ATOM    105  S   UNL     1       2.555 -13.827 -24.376  1.00  0.00     0.127 S 
ATOM    106  O   UNL     1       3.175 -15.080 -23.946  1.00  0.00    -0.237 OA
ATOM    107  O   UNL     1       1.497 -13.981 -25.374  1.00  0.00    -0.237 OA
ATOM    108  O   UNL     1       3.483 -12.735 -24.636  1.00  0.00    -0.744 OA
ENDBRANCH 102 105
ENDBRANCH  75  98
ENDBRANCH  49  50
ENDBRANCH  41  44
ENDBRANCH  39  40
ENDBRANCH  38  39
ENDBRANCH  37  38
ENDBRANCH  36  37
ENDBRANCH   1  36
TORSDOF 22
