REMARK SMILES C[C@H]1[C@H](C(=O)NCCCCCCNC(=O)c2ccc(-c3c4nc(c(-c5cccc(S(=O)(=O)[O-])c5F)c5ccc([nH]5)c(-c5cccc(S(=O)(=O)[O-])c5F)c5nc(c(-c6cccc(S(=O)(=O)[O-])c6F)c6ccc3[nH]6)C=C5)C=C4)cc2)CC[N@@H+]1CC(=O)N1CCCC1
REMARK SMILES IDX 10 1 9 2 8 3 7 4 6 5 4 6 5 7 3 9 1 10 2 11 81 12 79 13 80 14
REMARK SMILES IDX 82 16 83 17 84 18 85 19 86 20 89 21 87 22 88 23 11 24 12 25
REMARK SMILES IDX 13 26 14 27 15 29 16 30 17 31 78 32 18 33 77 34 19 35 20 36
REMARK SMILES IDX 21 37 71 38 22 39 76 40 70 41 72 42 23 43 75 44 69 45 68 46
REMARK SMILES IDX 24 48 56 49 36 50 55 51 37 52 40 53 54 54 73 55 38 56 39 57
REMARK SMILES IDX 53 59 74 60 41 61 25 62 26 63 34 64 27 65 29 66 35 67 28 68
REMARK SMILES IDX 30 69 31 70 32 71 33 72 57 73 58 74 66 75 59 76 61 77 67 78
REMARK SMILES IDX 60 79 62 80 63 81 64 82 65 83 42 84 43 85 51 86 44 87 46 88
REMARK SMILES IDX 52 89 45 90 47 91 48 92 49 93 50 94
REMARK H PARENT 6 8 81 15 13 28 72 47 40 58
REMARK Flexibility Score: inf
ROOT
ATOM      1  C   UNL     1      -2.840   1.033   6.561  1.00  0.00     0.002 C 
ENDROOT
BRANCH   1   2
ATOM      2  C   UNL     1      -1.752   1.273   5.515  1.00  0.00     0.002 C 
BRANCH   2   3
ATOM      3  C   UNL     1      -1.797   0.347   4.294  1.00  0.00     0.021 C 
BRANCH   3   4
ATOM      4  C   UNL     1      -2.370   0.781   2.923  1.00  0.00     0.116 C 
BRANCH   4   5
ATOM      5  N   UNL     1      -1.705   1.891   2.230  1.00  0.00    -0.356 N 
ATOM      6  C   UNL     1      -1.278   2.170   0.966  1.00  0.00     0.229 C 
ATOM      7  O   UNL     1      -0.921   3.354   0.813  1.00  0.00    -0.275 OA
ATOM      8  H   UNL     1      -1.515   2.636   2.845  1.00  0.00     0.163 HD
BRANCH   6   9
ATOM      9  C   UNL     1      -1.084   1.236  -0.255  1.00  0.00     0.142 C 
ATOM     10  C   UNL     1       1.099   0.852  -1.680  1.00  0.00     0.076 C 
ATOM     11  C   UNL     1       0.341   0.677  -0.359  1.00  0.00     0.194 C 
ATOM     12  N   UNL     1       0.251  -0.765  -0.177  1.00  0.00    -0.324 N 
ATOM     13  C   UNL     1      -1.999   0.049  -0.431  1.00  0.00     0.081 C 
ATOM     14  C   UNL     1      -1.146  -1.184  -0.146  1.00  0.00     0.263 C 
ATOM     15  H   UNL     1       0.648  -1.216  -1.002  1.00  0.00     0.348 HD
BRANCH  12  16
ATOM     16  C   UNL     1       1.153  -1.325   0.847  1.00  0.00     0.364 C 
BRANCH  16  17
ATOM     17  C   UNL     1       1.011  -0.642   2.211  1.00  0.00     0.277 C 
ATOM     18  O   UNL     1       0.251  -1.161   3.026  1.00  0.00    -0.268 OA
ATOM     19  N   UNL     1       1.703   0.544   2.437  1.00  0.00    -0.338 N 
ATOM     20  C   UNL     1       3.026   0.850   1.937  1.00  0.00     0.119 C 
ATOM     21  C   UNL     1       1.235   1.677   3.215  1.00  0.00     0.119 C 
ATOM     22  C   UNL     1       3.557   1.958   2.856  1.00  0.00     0.023 C 
ATOM     23  C   UNL     1       2.466   2.218   3.887  1.00  0.00     0.023 C 
ENDBRANCH  16  17
ENDBRANCH  12  16
ENDBRANCH   6   9
ENDBRANCH   4   5
ENDBRANCH   3   4
ENDBRANCH   2   3
ENDBRANCH   1   2
BRANCH   1  24
ATOM     24  C   UNL     1      -3.076  -0.431   6.963  1.00  0.00     0.021 C 
BRANCH  24  25
ATOM     25  C   UNL     1      -1.831  -1.200   7.406  1.00  0.00     0.116 C 
BRANCH  25  26
ATOM     26  N   UNL     1      -1.301  -0.673   8.658  1.00  0.00    -0.352 N 
ATOM     27  C   UNL     1      -1.433  -1.211   9.914  1.00  0.00     0.251 C 
ATOM     28  H   UNL     1      -0.790   0.166   8.596  1.00  0.00     0.163 HD
ATOM     29  O   UNL     1      -1.218  -0.538  10.922  1.00  0.00    -0.269 OA
BRANCH  27  30
ATOM     30  C   UNL     1      -1.831  -2.625  10.029  1.00  0.00     0.039 A 
ATOM     31  C   UNL     1      -2.959  -2.976  10.771  1.00  0.00     0.014 A 
ATOM     32  C   UNL     1      -1.099  -3.591   9.332  1.00  0.00     0.014 A 
ATOM     33  C   UNL     1      -3.382  -4.307  10.776  1.00  0.00     0.010 A 
ATOM     34  C   UNL     1      -1.569  -4.897   9.276  1.00  0.00     0.010 A 
ATOM     35  C   UNL     1      -2.704  -5.272  10.010  1.00  0.00    -0.014 A 
BRANCH  35  36
ATOM     36  C   UNL     1      -3.156  -6.685   9.978  1.00  0.00     0.031 A 
ATOM     37  C   UNL     1      -2.254  -7.769  10.502  1.00  0.00     0.074 A 
ATOM     38  C   UNL     1      -4.339  -6.996   9.413  1.00  0.00     0.049 A 
ATOM     39  N   UNL     1      -2.452  -9.061  10.538  1.00  0.00    -0.248 NA
ATOM     40  C   UNL     1      -0.943  -7.351  11.029  1.00  0.00     0.031 C 
ATOM     41  C   UNL     1      -5.259  -6.040   8.794  1.00  0.00     0.029 A 
ATOM     42  N   UNL     1      -4.960  -8.208   9.246  1.00  0.00    -0.354 N 
ATOM     43  C   UNL     1      -1.284  -9.608  11.055  1.00  0.00     0.074 A 
ATOM     44  C   UNL     1      -0.364  -8.515  11.276  1.00  0.00     0.031 C 
ATOM     45  C   UNL     1      -6.333  -6.699   8.329  1.00  0.00     0.029 A 
ATOM     46  C   UNL     1      -6.165  -8.125   8.588  1.00  0.00     0.049 A 
ATOM     47  H   UNL     1      -4.580  -9.057   9.569  1.00  0.00     0.167 HD
ATOM     48  C   UNL     1      -1.012 -10.901  11.352  1.00  0.00     0.034 A 
ATOM     49  C   UNL     1      -7.032  -9.092   8.229  1.00  0.00     0.034 A 
ATOM     50  C   UNL     1      -1.946 -11.976  11.161  1.00  0.00     0.049 A 
ATOM     51  C   UNL     1      -6.722 -10.518   8.600  1.00  0.00     0.074 A 
ATOM     52  C   UNL     1      -1.808 -13.307  11.508  1.00  0.00     0.029 A 
ATOM     53  N   UNL     1      -3.187 -11.844  10.557  1.00  0.00    -0.354 N 
ATOM     54  N   UNL     1      -5.681 -10.997   9.239  1.00  0.00    -0.248 NA
ATOM     55  C   UNL     1      -7.720 -11.532   8.233  1.00  0.00     0.031 C 
ATOM     56  C   UNL     1      -2.952 -13.988  11.081  1.00  0.00     0.029 A 
ATOM     57  C   UNL     1      -3.821 -13.073  10.506  1.00  0.00     0.049 A 
ATOM     58  H   UNL     1      -3.562 -11.001  10.216  1.00  0.00     0.167 HD
ATOM     59  C   UNL     1      -5.914 -12.360   9.381  1.00  0.00     0.074 A 
ATOM     60  C   UNL     1      -7.207 -12.625   8.783  1.00  0.00     0.031 C 
ATOM     61  C   UNL     1      -5.127 -13.309   9.945  1.00  0.00     0.034 A 
BRANCH  48  62
ATOM     62  C   UNL     1       0.335 -11.211  11.953  1.00  0.00     0.023 A 
ATOM     63  C   UNL     1       0.636 -10.773  13.260  1.00  0.00     0.012 A 
ATOM     64  C   UNL     1       1.287 -11.969  11.245  1.00  0.00     0.148 A 
ATOM     65  C   UNL     1       1.877 -11.045  13.834  1.00  0.00     0.002 A 
ATOM     66  C   UNL     1       2.502 -12.281  11.843  1.00  0.00     0.091 A 
ATOM     67  F   UNL     1       0.993 -12.361   9.997  1.00  0.00    -0.205 F 
ATOM     68  C   UNL     1       2.805 -11.807  13.130  1.00  0.00     0.022 A 
BRANCH  66  69
ATOM     69  S   UNL     1       3.733 -13.325  11.055  1.00  0.00     0.127 S 
ATOM     70  O   UNL     1       4.806 -12.367  10.788  1.00  0.00    -0.237 OA
ATOM     71  O   UNL     1       4.031 -14.295  12.109  1.00  0.00    -0.237 OA
ATOM     72  O   UNL     1       3.090 -13.886   9.875  1.00  0.00    -0.744 OA
ENDBRANCH  66  69
ENDBRANCH  48  62
BRANCH  49  73
ATOM     73  C   UNL     1      -8.304  -8.738   7.535  1.00  0.00     0.023 A 
ATOM     74  C   UNL     1      -9.530  -8.887   8.213  1.00  0.00     0.012 A 
ATOM     75  C   UNL     1      -8.305  -8.235   6.220  1.00  0.00     0.148 A 
ATOM     76  C   UNL     1     -10.735  -8.575   7.582  1.00  0.00     0.002 A 
ATOM     77  C   UNL     1      -9.504  -7.873   5.617  1.00  0.00     0.091 A 
ATOM     78  F   UNL     1      -7.129  -8.108   5.589  1.00  0.00    -0.205 F 
ATOM     79  C   UNL     1     -10.722  -8.060   6.289  1.00  0.00     0.022 A 
BRANCH  77  80
ATOM     80  S   UNL     1      -9.575  -7.083   4.006  1.00  0.00     0.127 S 
ATOM     81  O   UNL     1     -10.209  -8.117   3.193  1.00  0.00    -0.237 OA
ATOM     82  O   UNL     1     -10.413  -5.915   4.281  1.00  0.00    -0.237 OA
ATOM     83  O   UNL     1      -8.196  -6.765   3.660  1.00  0.00    -0.744 OA
ENDBRANCH  77  80
ENDBRANCH  49  73
BRANCH  61  84
ATOM     84  C   UNL     1      -5.651 -14.721   9.977  1.00  0.00     0.023 A 
ATOM     85  C   UNL     1      -5.730 -15.470   8.787  1.00  0.00     0.012 A 
ATOM     86  C   UNL     1      -5.992 -15.327  11.202  1.00  0.00     0.148 A 
ATOM     87  C   UNL     1      -6.176 -16.791   8.811  1.00  0.00     0.002 A 
ATOM     88  C   UNL     1      -6.382 -16.660  11.225  1.00  0.00     0.091 A 
ATOM     89  F   UNL     1      -5.924 -14.591  12.321  1.00  0.00    -0.205 F 
ATOM     90  C   UNL     1      -6.489 -17.389  10.030  1.00  0.00     0.022 A 
BRANCH  88  91
ATOM     91  S   UNL     1      -6.707 -17.543  12.755  1.00  0.00     0.127 S 
ATOM     92  O   UNL     1      -8.155 -17.735  12.687  1.00  0.00    -0.237 OA
ATOM     93  O   UNL     1      -5.920 -18.764  12.579  1.00  0.00    -0.237 OA
ATOM     94  O   UNL     1      -6.244 -16.674  13.829  1.00  0.00    -0.744 OA
ENDBRANCH  88  91
ENDBRANCH  61  84
ENDBRANCH  35  36
ENDBRANCH  27  30
ENDBRANCH  25  26
ENDBRANCH  24  25
ENDBRANCH   1  24
TORSDOF 18
