REMARK SMILES [NH3+][C@@H](Cc1cn(-c2nc(Cl)nc(N3CCOCC3)n2)c2ccccc12)C(=O)NCCCCCCNC(=O)c1ccc(-c2c3nc(c(-c4cccc(S(=O)(=O)[O-])c4F)c4ccc([nH]4)c(-c4cccc(S(=O)(=O)[O-])c4F)c4nc(c(-c5cccc(S(=O)(=O)[O-])c5F)c5ccc2[nH]5)C=C4)C=C3)cc1
REMARK SMILES IDX 31 1 30 2 29 3 28 4 26 5 27 6 2 8 1 9 3 13 4 14 5 15 25 16
REMARK SMILES IDX 6 17 20 18 24 19 21 20 23 21 22 22 7 23 8 24 19 25 9 26
REMARK SMILES IDX 12 27 10 28 11 29 13 30 14 31 18 32 15 33 17 34 16 35 32 36
REMARK SMILES IDX 33 37 34 38 35 39 36 40 37 42 38 43 39 44 100 45 40 46 99 47
REMARK SMILES IDX 41 48 42 49 43 50 93 51 44 52 98 53 92 54 94 55 45 56 97 57
REMARK SMILES IDX 91 58 90 59 46 61 78 62 58 63 77 64 59 65 62 66 76 67 95 68
REMARK SMILES IDX 60 69 61 70 75 72 96 73 63 74 47 75 48 76 56 77 49 78 51 79
REMARK SMILES IDX 57 80 50 81 52 82 53 83 54 84 55 85 79 86 80 87 88 88 81 89
REMARK SMILES IDX 83 90 89 91 82 92 84 93 85 94 86 95 87 96 64 97 65 98 73 99
REMARK SMILES IDX 66 100 68 101 74 102 67 103 69 104 70 105 71 106 72 107
REMARK H PARENT 28 7 1 10 1 11 1 12 35 41 94 60 62 71
REMARK Flexibility Score: inf
ROOT
ATOM      1  C   UNL     1      -4.048   2.002  -1.534  1.00  0.00     0.002 C 
ENDROOT
BRANCH   1   2
ATOM      2  C   UNL     1      -2.850   1.141  -1.131  1.00  0.00     0.021 C 
BRANCH   2   3
ATOM      3  C   UNL     1      -1.860   1.701  -0.134  1.00  0.00     0.116 C 
BRANCH   3   4
ATOM      4  N   UNL     1      -1.842   1.083   1.166  1.00  0.00    -0.351 N 
ATOM      5  C   UNL     1      -0.749   0.696   1.894  1.00  0.00     0.278 C 
ATOM      6  O   UNL     1      -0.969   0.245   3.026  1.00  0.00    -0.268 OA
ATOM      7  H   UNL     1      -2.720   0.918   1.580  1.00  0.00     0.163 HD
BRANCH   5   8
ATOM      8  C   UNL     1       0.716   0.750   1.340  1.00  0.00     0.275 C 
BRANCH   8   9
ATOM      9  N   UNL     1       0.983  -0.385   0.430  1.00  0.00    -0.347 N 
ATOM     10  H   UNL     1       1.941  -0.326   0.085  1.00  0.00     0.345 HD
ATOM     11  H   UNL     1       0.335  -0.348  -0.358  1.00  0.00     0.345 HD
ATOM     12  H   UNL     1       0.857  -1.262   0.934  1.00  0.00     0.345 HD
ENDBRANCH   8   9
BRANCH   8  13
ATOM     13  C   UNL     1       1.299   2.121   0.922  1.00  0.00     0.113 C 
BRANCH  13  14
ATOM     14  C   UNL     1       1.071   2.705  -0.462  1.00  0.00    -0.015 A 
ATOM     15  C   UNL     1       0.898   2.093  -1.694  1.00  0.00     0.099 A 
ATOM     16  C   UNL     1       0.977   4.112  -0.725  1.00  0.00     0.004 A 
ATOM     17  N   UNL     1       0.446   3.023  -2.624  1.00  0.00    -0.285 N 
ATOM     18  C   UNL     1       0.631   4.295  -2.076  1.00  0.00     0.056 A 
ATOM     19  C   UNL     1       1.125   5.243   0.112  1.00  0.00     0.010 A 
ATOM     20  C   UNL     1       0.420   5.589  -2.592  1.00  0.00     0.027 A 
ATOM     21  C   UNL     1       0.925   6.523  -0.400  1.00  0.00     0.001 A 
ATOM     22  C   UNL     1       0.575   6.690  -1.734  1.00  0.00     0.002 A 
BRANCH  17  23
ATOM     23  C   UNL     1      -0.196   2.671  -3.873  1.00  0.00     0.240 A 
ATOM     24  N   UNL     1       0.224   3.251  -4.983  1.00  0.00    -0.181 NA
ATOM     25  N   UNL     1      -1.185   1.749  -3.842  1.00  0.00    -0.176 NA
ATOM     26  C   UNL     1      -0.364   2.753  -6.067  1.00  0.00     0.228 A 
ATOM     27  C   UNL     1      -1.796   1.421  -4.993  1.00  0.00     0.231 A 
ATOM     28  Cl  UNL     1       0.294   3.263  -7.560  1.00  0.00    -0.041 Cl
ATOM     29  N   UNL     1      -1.361   1.871  -6.154  1.00  0.00    -0.182 NA
BRANCH  27  30
ATOM     30  N   UNL     1      -2.928   0.604  -4.948  1.00  0.00    -0.336 N 
ATOM     31  C   UNL     1      -4.214   1.329  -4.954  1.00  0.00     0.148 C 
ATOM     32  C   UNL     1      -3.020  -0.486  -5.928  1.00  0.00     0.148 C 
ATOM     33  C   UNL     1      -5.393   0.400  -4.609  1.00  0.00     0.181 C 
ATOM     34  C   UNL     1      -4.197  -1.407  -5.522  1.00  0.00     0.181 C 
ATOM     35  O   UNL     1      -5.454  -0.709  -5.515  1.00  0.00    -0.378 OA
ENDBRANCH  27  30
ENDBRANCH  17  23
ENDBRANCH  13  14
ENDBRANCH   8  13
ENDBRANCH   5   8
ENDBRANCH   3   4
ENDBRANCH   2   3
ENDBRANCH   1   2
BRANCH   1  36
ATOM     36  C   UNL     1      -4.047   3.535  -1.720  1.00  0.00     0.002 C 
BRANCH  36  37
ATOM     37  C   UNL     1      -3.253   4.374  -2.742  1.00  0.00     0.021 C 
BRANCH  37  38
ATOM     38  C   UNL     1      -3.589   4.535  -4.243  1.00  0.00     0.116 C 
BRANCH  38  39
ATOM     39  N   UNL     1      -4.951   4.278  -4.682  1.00  0.00    -0.352 N 
ATOM     40  C   UNL     1      -5.431   4.172  -5.981  1.00  0.00     0.251 C 
ATOM     41  H   UNL     1      -5.618   4.165  -3.967  1.00  0.00     0.163 HD
ATOM     42  O   UNL     1      -6.338   3.375  -6.213  1.00  0.00    -0.269 OA
BRANCH  40  43
ATOM     43  C   UNL     1      -5.041   5.157  -7.017  1.00  0.00     0.039 A 
ATOM     44  C   UNL     1      -3.807   5.790  -7.003  1.00  0.00     0.014 A 
ATOM     45  C   UNL     1      -6.117   5.716  -7.727  1.00  0.00     0.014 A 
ATOM     46  C   UNL     1      -3.778   7.136  -7.299  1.00  0.00     0.010 A 
ATOM     47  C   UNL     1      -6.065   7.046  -8.102  1.00  0.00     0.010 A 
ATOM     48  C   UNL     1      -4.945   7.782  -7.741  1.00  0.00    -0.014 A 
BRANCH  48  49
ATOM     49  C   UNL     1      -4.897   9.235  -7.821  1.00  0.00     0.031 A 
ATOM     50  C   UNL     1      -3.751   9.741  -8.610  1.00  0.00     0.074 A 
ATOM     51  C   UNL     1      -5.779  10.072  -7.237  1.00  0.00     0.049 A 
ATOM     52  N   UNL     1      -2.699  10.349  -8.169  1.00  0.00    -0.248 NA
ATOM     53  C   UNL     1      -3.686   9.342 -10.022  1.00  0.00     0.031 C 
ATOM     54  C   UNL     1      -7.075   9.764  -6.630  1.00  0.00     0.029 A 
ATOM     55  N   UNL     1      -5.730  11.433  -7.179  1.00  0.00    -0.354 N 
ATOM     56  C   UNL     1      -1.928  10.599  -9.297  1.00  0.00     0.074 A 
ATOM     57  C   UNL     1      -2.489   9.814 -10.368  1.00  0.00     0.031 C 
ATOM     58  C   UNL     1      -7.792  10.907  -6.520  1.00  0.00     0.029 A 
ATOM     59  C   UNL     1      -6.958  12.028  -6.915  1.00  0.00     0.049 A 
ATOM     60  H   UNL     1      -4.901  11.948  -7.312  1.00  0.00     0.167 HD
ATOM     61  C   UNL     1      -1.025  11.613  -9.342  1.00  0.00     0.034 A 
ATOM     62  C   UNL     1      -7.266  13.333  -7.120  1.00  0.00     0.034 A 
ATOM     63  C   UNL     1      -0.680  12.110  -8.042  1.00  0.00     0.049 A 
ATOM     64  C   UNL     1      -5.984  14.082  -7.127  1.00  0.00     0.074 A 
ATOM     65  C   UNL     1      -0.112  11.569  -6.906  1.00  0.00     0.029 A 
ATOM     66  N   UNL     1      -1.261  13.291  -7.651  1.00  0.00    -0.354 N 
ATOM     67  N   UNL     1      -5.220  14.228  -6.080  1.00  0.00    -0.248 NA
ATOM     68  C   UNL     1      -5.349  14.348  -8.408  1.00  0.00     0.031 C 
ATOM     69  C   UNL     1      -0.777  12.209  -5.821  1.00  0.00     0.029 A 
ATOM     70  C   UNL     1      -1.686  13.122  -6.361  1.00  0.00     0.049 A 
ATOM     71  H   UNL     1      -1.353  14.106  -8.196  1.00  0.00     0.167 HD
ATOM     72  C   UNL     1      -3.927  14.178  -6.583  1.00  0.00     0.074 A 
ATOM     73  C   UNL     1      -4.070  14.361  -8.024  1.00  0.00     0.031 C 
ATOM     74  C   UNL     1      -2.893  13.709  -5.826  1.00  0.00     0.034 A 
BRANCH  61  75
ATOM     75  C   UNL     1      -0.742  12.395 -10.592  1.00  0.00     0.023 A 
ATOM     76  C   UNL     1       0.411  13.201 -10.631  1.00  0.00     0.012 A 
ATOM     77  C   UNL     1      -1.701  12.576 -11.616  1.00  0.00     0.148 A 
ATOM     78  C   UNL     1       0.595  14.154 -11.639  1.00  0.00     0.002 A 
ATOM     79  C   UNL     1      -1.474  13.461 -12.659  1.00  0.00     0.091 A 
ATOM     80  F   UNL     1      -2.904  12.000 -11.511  1.00  0.00    -0.205 F 
ATOM     81  C   UNL     1      -0.340  14.272 -12.663  1.00  0.00     0.022 A 
BRANCH  79  82
ATOM     82  S   UNL     1      -2.640  13.598 -14.016  1.00  0.00     0.127 S 
ATOM     83  O   UNL     1      -3.347  14.833 -13.666  1.00  0.00    -0.237 OA
ATOM     84  O   UNL     1      -1.743  13.708 -15.171  1.00  0.00    -0.237 OA
ATOM     85  O   UNL     1      -3.417  12.376 -13.981  1.00  0.00    -0.744 OA
ENDBRANCH  79  82
ENDBRANCH  61  75
BRANCH  62  86
ATOM     86  C   UNL     1      -8.529  13.946  -7.611  1.00  0.00     0.023 A 
ATOM     87  C   UNL     1      -8.659  15.352  -7.588  1.00  0.00     0.012 A 
ATOM     88  C   UNL     1      -9.476  13.213  -8.361  1.00  0.00     0.148 A 
ATOM     89  C   UNL     1      -9.649  16.004  -8.334  1.00  0.00     0.002 A 
ATOM     90  C   UNL     1     -10.470  13.864  -9.086  1.00  0.00     0.091 A 
ATOM     91  F   UNL     1      -9.349  11.883  -8.454  1.00  0.00    -0.205 F 
ATOM     92  C   UNL     1     -10.548  15.261  -9.091  1.00  0.00     0.022 A 
BRANCH  90  93
ATOM     93  S   UNL     1     -11.664  12.961 -10.084  1.00  0.00     0.127 S 
ATOM     94  O   UNL     1     -12.908  13.677  -9.800  1.00  0.00    -0.237 OA
ATOM     95  O   UNL     1     -11.141  13.146 -11.430  1.00  0.00    -0.237 OA
ATOM     96  O   UNL     1     -11.641  11.591  -9.573  1.00  0.00    -0.744 OA
ENDBRANCH  90  93
ENDBRANCH  62  86
BRANCH  74  97
ATOM     97  C   UNL     1      -3.120  13.507  -4.352  1.00  0.00     0.023 A 
ATOM     98  C   UNL     1      -3.987  12.507  -3.863  1.00  0.00     0.012 A 
ATOM     99  C   UNL     1      -2.279  14.185  -3.455  1.00  0.00     0.148 A 
ATOM    100  C   UNL     1      -4.016  12.195  -2.501  1.00  0.00     0.002 A 
ATOM    101  C   UNL     1      -2.280  13.843  -2.109  1.00  0.00     0.091 A 
ATOM    102  F   UNL     1      -1.452  15.120  -3.948  1.00  0.00    -0.205 F 
ATOM    103  C   UNL     1      -3.152  12.852  -1.627  1.00  0.00     0.022 A 
BRANCH 101 104
ATOM    104  S   UNL     1      -1.109  14.551  -0.949  1.00  0.00     0.127 S 
ATOM    105  O   UNL     1      -1.982  15.318  -0.063  1.00  0.00    -0.237 OA
ATOM    106  O   UNL     1      -0.518  13.356  -0.342  1.00  0.00    -0.237 OA
ATOM    107  O   UNL     1      -0.177  15.343  -1.742  1.00  0.00    -0.744 OA
ENDBRANCH 101 104
ENDBRANCH  74  97
ENDBRANCH  48  49
ENDBRANCH  40  43
ENDBRANCH  38  39
ENDBRANCH  37  38
ENDBRANCH  36  37
ENDBRANCH   1  36
TORSDOF 21
