REMARK SMILES Cc1cc(=O)c(Oc2ccc(C(=O)NCCCCCCNC(=O)c3ccc(-c4c5nc(c(-c6cccc(S(=O)(=O)[O-])c6F)c6ccc([nH]6)c(-c6cccc(S(=O)(=O)[O-])c6F)c6nc(c(-c7cccc(S(=O)(=O)[O-])c7F)c7ccc4[nH]7)C=C6)C=C5)cc3)cc2)c(-c2ccc(S(C)(=O)=O)cc2)o1
REMARK SMILES IDX 17 1 16 2 15 3 14 4 12 5 13 6 11 8 8 9 9 10 88 11 10 12
REMARK SMILES IDX 87 13 7 14 6 15 1 16 2 17 3 18 100 19 4 20 89 21 5 22 90 23
REMARK SMILES IDX 91 24 99 25 92 26 98 27 93 28 94 29 95 30 96 31 97 32 18 33
REMARK SMILES IDX 19 34 20 35 21 36 22 37 23 39 24 40 25 41 86 42 26 43 85 44
REMARK SMILES IDX 27 45 28 46 29 47 79 48 30 49 84 50 78 51 80 52 31 53 83 54
REMARK SMILES IDX 77 55 76 56 32 58 64 59 44 60 63 61 45 62 48 63 62 64 81 65
REMARK SMILES IDX 46 66 47 67 61 69 82 70 49 71 33 72 34 73 42 74 35 75 37 76
REMARK SMILES IDX 43 77 36 78 38 79 39 80 40 81 41 82 65 83 66 84 74 85 67 86
REMARK SMILES IDX 69 87 75 88 68 89 70 90 71 91 72 92 73 93 50 94 51 95 59 96
REMARK SMILES IDX 52 97 54 98 60 99 53 100 55 101 56 102 57 103 58 104
REMARK H PARENT 14 7 21 38 80 57 48 68
REMARK Flexibility Score: inf
ROOT
ATOM      1  C   UNL     1       0.829  11.877   3.690  1.00  0.00     0.002 C 
ENDROOT
BRANCH   1   2
ATOM      2  C   UNL     1       0.248  10.564   3.167  1.00  0.00     0.021 C 
BRANCH   2   3
ATOM      3  C   UNL     1       0.161  10.383   1.654  1.00  0.00     0.116 C 
BRANCH   3   4
ATOM      4  N   UNL     1       1.402  10.561   0.926  1.00  0.00    -0.352 N 
ATOM      5  C   UNL     1       1.828  10.030  -0.271  1.00  0.00     0.251 C 
ATOM      6  O   UNL     1       2.890  10.423  -0.752  1.00  0.00    -0.269 OA
ATOM      7  H   UNL     1       2.049  11.162   1.361  1.00  0.00     0.163 HD
BRANCH   5   8
ATOM      8  C   UNL     1       1.106   8.910  -0.937  1.00  0.00     0.040 A 
ATOM      9  C   UNL     1      -0.022   6.472  -1.668  1.00  0.00     0.127 A 
ATOM     10  C   UNL     1       1.309   6.723  -1.979  1.00  0.00     0.048 A 
ATOM     11  C   UNL     1      -0.839   7.510  -1.223  1.00  0.00     0.048 A 
ATOM     12  C   UNL     1       1.884   7.931  -1.574  1.00  0.00     0.017 A 
ATOM     13  C   UNL     1      -0.278   8.744  -0.892  1.00  0.00     0.017 A 
BRANCH   9  14
ATOM     14  O   UNL     1      -0.614   5.258  -1.844  1.00  0.00    -0.449 OA
BRANCH  14  15
ATOM     15  C   UNL     1      -0.166   4.081  -1.256  1.00  0.00     0.217 A 
ATOM     16  C   UNL     1       1.037   0.143   0.063  1.00  0.00     0.088 C 
ATOM     17  C   UNL     1       0.502   1.452  -0.423  1.00  0.00     0.105 A 
ATOM     18  C   UNL     1      -0.475   1.548  -1.325  1.00  0.00     0.098 A 
ATOM     19  O   UNL     1       1.111   2.558   0.129  1.00  0.00    -0.457 OA
ATOM     20  C   UNL     1      -0.901   2.880  -1.772  1.00  0.00     0.228 A 
ATOM     21  C   UNL     1       0.771   3.841  -0.299  1.00  0.00     0.180 A 
ATOM     22  O   UNL     1      -1.832   2.970  -2.568  1.00  0.00    -0.285 OA
BRANCH  21  23
ATOM     23  C   UNL     1       1.616   4.827   0.405  1.00  0.00     0.021 A 
ATOM     24  C   UNL     1       2.997   4.855   0.136  1.00  0.00     0.013 A 
ATOM     25  C   UNL     1       1.087   5.730   1.338  1.00  0.00     0.013 A 
ATOM     26  C   UNL     1       3.819   5.822   0.718  1.00  0.00     0.021 A 
ATOM     27  C   UNL     1       1.909   6.697   1.933  1.00  0.00     0.021 A 
ATOM     28  C   UNL     1       3.268   6.746   1.608  1.00  0.00     0.067 A 
BRANCH  28  29
ATOM     29  S   UNL     1       4.300   8.050   2.240  1.00  0.00     0.175 S 
ATOM     30  C   UNL     1       5.257   7.253   3.498  1.00  0.00     0.163 C 
ATOM     31  O   UNL     1       5.210   8.433   1.179  1.00  0.00    -0.224 OA
ATOM     32  O   UNL     1       3.448   9.024   2.898  1.00  0.00    -0.224 OA
ENDBRANCH  28  29
ENDBRANCH  21  23
ENDBRANCH  14  15
ENDBRANCH   9  14
ENDBRANCH   5   8
ENDBRANCH   3   4
ENDBRANCH   2   3
ENDBRANCH   1   2
BRANCH   1  33
ATOM     33  C   UNL     1       0.249  13.170   3.115  1.00  0.00     0.002 C 
BRANCH  33  34
ATOM     34  C   UNL     1      -1.271  13.312   3.155  1.00  0.00     0.021 C 
BRANCH  34  35
ATOM     35  C   UNL     1      -1.921  13.117   4.518  1.00  0.00     0.116 C 
BRANCH  35  36
ATOM     36  N   UNL     1      -1.537  14.126   5.494  1.00  0.00    -0.352 N 
ATOM     37  C   UNL     1      -2.335  14.946   6.261  1.00  0.00     0.251 C 
ATOM     38  H   UNL     1      -0.568  14.239   5.624  1.00  0.00     0.163 HD
ATOM     39  O   UNL     1      -1.829  15.823   6.955  1.00  0.00    -0.269 OA
BRANCH  37  40
ATOM     40  C   UNL     1      -3.807  14.791   6.208  1.00  0.00     0.039 A 
ATOM     41  C   UNL     1      -4.389  13.524   6.272  1.00  0.00     0.014 A 
ATOM     42  C   UNL     1      -4.608  15.922   6.033  1.00  0.00     0.014 A 
ATOM     43  C   UNL     1      -5.734  13.371   5.955  1.00  0.00     0.010 A 
ATOM     44  C   UNL     1      -5.981  15.772   5.813  1.00  0.00     0.010 A 
ATOM     45  C   UNL     1      -6.545  14.491   5.708  1.00  0.00    -0.014 A 
BRANCH  45  46
ATOM     46  C   UNL     1      -7.972  14.295   5.334  1.00  0.00     0.031 A 
ATOM     47  C   UNL     1      -8.495  14.755   3.998  1.00  0.00     0.074 A 
ATOM     48  C   UNL     1      -8.795  13.656   6.188  1.00  0.00     0.049 A 
ATOM     49  N   UNL     1      -9.706  14.648   3.510  1.00  0.00    -0.248 NA
ATOM     50  C   UNL     1      -7.545  15.420   3.091  1.00  0.00     0.031 C 
ATOM     51  C   UNL     1      -8.416  13.172   7.517  1.00  0.00     0.029 A 
ATOM     52  N   UNL     1     -10.113  13.296   6.066  1.00  0.00    -0.354 N 
ATOM     53  C   UNL     1      -9.673  15.260   2.263  1.00  0.00     0.074 A 
ATOM     54  C   UNL     1      -8.325  15.749   2.070  1.00  0.00     0.031 C 
ATOM     55  C   UNL     1      -9.463  12.547   8.072  1.00  0.00     0.029 A 
ATOM     56  C   UNL     1     -10.604  12.637   7.167  1.00  0.00     0.049 A 
ATOM     57  H   UNL     1     -10.654  13.490   5.267  1.00  0.00     0.167 HD
ATOM     58  C   UNL     1     -10.665  15.383   1.350  1.00  0.00     0.034 A 
ATOM     59  C   UNL     1     -11.838  12.169   7.436  1.00  0.00     0.034 A 
ATOM     60  C   UNL     1     -11.995  14.863   1.522  1.00  0.00     0.049 A 
ATOM     61  C   UNL     1     -12.926  12.326   6.418  1.00  0.00     0.074 A 
ATOM     62  C   UNL     1     -13.055  14.911   0.634  1.00  0.00     0.029 A 
ATOM     63  N   UNL     1     -12.449  14.203   2.653  1.00  0.00    -0.354 N 
ATOM     64  N   UNL     1     -12.855  12.853   5.221  1.00  0.00    -0.248 NA
ATOM     65  C   UNL     1     -14.256  11.815   6.776  1.00  0.00     0.031 C 
ATOM     66  C   UNL     1     -14.155  14.291   1.234  1.00  0.00     0.029 A 
ATOM     67  C   UNL     1     -13.774  13.841   2.488  1.00  0.00     0.049 A 
ATOM     68  H   UNL     1     -11.909  14.020   3.455  1.00  0.00     0.167 HD
ATOM     69  C   UNL     1     -14.126  12.729   4.675  1.00  0.00     0.074 A 
ATOM     70  C   UNL     1     -14.945  12.061   5.667  1.00  0.00     0.031 C 
ATOM     71  C   UNL     1     -14.572  13.145   3.465  1.00  0.00     0.034 A 
BRANCH  58  72
ATOM     72  C   UNL     1     -10.344  16.069   0.049  1.00  0.00     0.023 A 
ATOM     73  C   UNL     1      -9.607  15.375  -0.932  1.00  0.00     0.012 A 
ATOM     74  C   UNL     1     -10.835  17.358  -0.235  1.00  0.00     0.148 A 
ATOM     75  C   UNL     1      -9.346  15.962  -2.170  1.00  0.00     0.002 A 
ATOM     76  C   UNL     1     -10.597  17.924  -1.482  1.00  0.00     0.091 A 
ATOM     77  F   UNL     1     -11.524  18.002   0.717  1.00  0.00    -0.205 F 
ATOM     78  C   UNL     1      -9.848  17.231  -2.448  1.00  0.00     0.022 A 
BRANCH  76  79
ATOM     79  S   UNL     1     -11.241  19.532  -1.961  1.00  0.00     0.127 S 
ATOM     80  O   UNL     1     -10.014  20.319  -2.071  1.00  0.00    -0.237 OA
ATOM     81  O   UNL     1     -11.890  19.234  -3.238  1.00  0.00    -0.237 OA
ATOM     82  O   UNL     1     -12.146  19.938  -0.896  1.00  0.00    -0.744 OA
ENDBRANCH  76  79
ENDBRANCH  58  72
BRANCH  59  83
ATOM     83  C   UNL     1     -12.066  11.474   8.731  1.00  0.00     0.023 A 
ATOM     84  C   UNL     1     -12.127  10.069   8.758  1.00  0.00     0.012 A 
ATOM     85  C   UNL     1     -12.083  12.195   9.942  1.00  0.00     0.148 A 
ATOM     86  C   UNL     1     -12.193   9.389   9.975  1.00  0.00     0.002 A 
ATOM     87  C   UNL     1     -12.106  11.510  11.149  1.00  0.00     0.091 A 
ATOM     88  F   UNL     1     -12.014  13.532   9.882  1.00  0.00    -0.205 F 
ATOM     89  C   UNL     1     -12.169  10.108  11.168  1.00  0.00     0.022 A 
BRANCH  87  90
ATOM     90  S   UNL     1     -11.961  12.338  12.736  1.00  0.00     0.127 S 
ATOM     91  O   UNL     1     -13.201  11.937  13.396  1.00  0.00    -0.237 OA
ATOM     92  O   UNL     1     -10.748  11.725  13.279  1.00  0.00    -0.237 OA
ATOM     93  O   UNL     1     -11.847  13.758  12.437  1.00  0.00    -0.744 OA
ENDBRANCH  87  90
ENDBRANCH  59  83
BRANCH  71  94
ATOM     94  C   UNL     1     -16.012  12.893   3.116  1.00  0.00     0.023 A 
ATOM     95  C   UNL     1     -17.009  13.737   3.641  1.00  0.00     0.012 A 
ATOM     96  C   UNL     1     -16.359  11.910   2.168  1.00  0.00     0.148 A 
ATOM     97  C   UNL     1     -18.334  13.604   3.230  1.00  0.00     0.002 A 
ATOM     98  C   UNL     1     -17.676  11.805   1.739  1.00  0.00     0.091 A 
ATOM     99  F   UNL     1     -15.390  11.116   1.690  1.00  0.00    -0.205 F 
ATOM    100  C   UNL     1     -18.665  12.649   2.271  1.00  0.00     0.022 A 
BRANCH  98 101
ATOM    101  S   UNL     1     -18.191  10.654   0.459  1.00  0.00     0.127 S 
ATOM    102  O   UNL     1     -19.084   9.765   1.201  1.00  0.00    -0.237 OA
ATOM    103  O   UNL     1     -18.862  11.535  -0.495  1.00  0.00    -0.237 OA
ATOM    104  O   UNL     1     -16.972  10.029  -0.038  1.00  0.00    -0.744 OA
ENDBRANCH  98 101
ENDBRANCH  71  94
ENDBRANCH  45  46
ENDBRANCH  37  40
ENDBRANCH  35  36
ENDBRANCH  34  35
ENDBRANCH  33  34
ENDBRANCH   1  33
TORSDOF 20
