REMARK SMILES C[C@@H](C(=O)NCCCCCCNC(=O)c1ccc(-c2c3nc(c(-c4cccc(S(=O)(=O)[O-])c4F)c4ccc([nH]4)c(-c4cccc(S(=O)(=O)[O-])c4F)c4nc(c(-c5cccc(S(=O)(=O)[O-])c5F)c5ccc2[nH]5)C=C4)C=C3)cc1)c1ccc(Cc2cccs2)cc1F
REMARK SMILES IDX 8 1 7 2 6 3 5 4 3 5 4 6 2 8 1 9 78 10 79 11 89 12 80 13
REMARK SMILES IDX 88 14 90 15 81 16 82 17 83 18 84 19 87 20 85 21 86 22 9 23
REMARK SMILES IDX 10 24 11 25 12 26 13 27 14 29 15 30 16 31 77 32 17 33 76 34
REMARK SMILES IDX 18 35 19 36 20 37 70 38 21 39 75 40 69 41 71 42 22 43 74 44
REMARK SMILES IDX 68 45 67 46 23 48 55 49 35 50 54 51 36 52 39 53 53 54 72 55
REMARK SMILES IDX 37 56 38 57 52 59 73 60 40 61 24 62 25 63 33 64 26 65 28 66
REMARK SMILES IDX 34 67 27 68 29 69 30 70 31 71 32 72 56 73 57 74 65 75 58 76
REMARK SMILES IDX 60 77 66 78 59 79 61 80 62 81 63 82 64 83 41 84 42 85 50 86
REMARK SMILES IDX 43 87 45 88 51 89 44 90 46 91 47 92 48 93 49 94
REMARK H PARENT 5 7 12 28 71 47 39 58
REMARK Flexibility Score: inf
ROOT
ATOM      1  C   UNL     1       4.972  -1.237   2.619  1.00  0.00     0.002 C 
ENDROOT
BRANCH   1   2
ATOM      2  C   UNL     1       4.226  -0.775   1.359  1.00  0.00     0.021 C 
BRANCH   2   3
ATOM      3  C   UNL     1       3.396  -1.880   0.695  1.00  0.00     0.116 C 
BRANCH   3   4
ATOM      4  N   UNL     1       2.280  -2.232   1.549  1.00  0.00    -0.356 N 
ATOM      5  C   UNL     1       0.987  -1.797   1.509  1.00  0.00     0.227 C 
ATOM      6  O   UNL     1       0.306  -1.979   2.522  1.00  0.00    -0.274 OA
ATOM      7  H   UNL     1       2.484  -2.879   2.263  1.00  0.00     0.163 HD
BRANCH   5   8
ATOM      8  C   UNL     1       0.435  -1.140   0.228  1.00  0.00     0.108 C 
ATOM      9  C   UNL     1       0.994   0.281   0.066  1.00  0.00     0.023 C 
BRANCH   8  10
ATOM     10  C   UNL     1      -1.094  -1.185   0.198  1.00  0.00    -0.000 A 
ATOM     11  C   UNL     1      -1.887  -0.032   0.125  1.00  0.00     0.008 A 
ATOM     12  C   UNL     1      -1.756  -2.419   0.265  1.00  0.00     0.127 A 
ATOM     13  C   UNL     1      -3.280  -0.114   0.143  1.00  0.00     0.004 A 
ATOM     14  C   UNL     1      -3.150  -2.505   0.330  1.00  0.00     0.043 A 
ATOM     15  F   UNL     1      -1.047  -3.557   0.272  1.00  0.00    -0.207 F 
ATOM     16  C   UNL     1      -3.931  -1.344   0.288  1.00  0.00    -0.040 A 
BRANCH  16  17
ATOM     17  C   UNL     1      -5.440  -1.405   0.378  1.00  0.00     0.082 C 
BRANCH  17  18
ATOM     18  C   UNL     1      -6.012  -0.824   1.650  1.00  0.00     0.009 A 
ATOM     19  C   UNL     1      -5.907   0.463   2.150  1.00  0.00     0.016 A 
ATOM     20  S   UNL     1      -6.997  -1.795   2.669  1.00  0.00    -0.149 S 
ATOM     21  C   UNL     1      -6.617   0.643   3.371  1.00  0.00     0.012 A 
ATOM     22  C   UNL     1      -7.265  -0.505   3.759  1.00  0.00     0.065 A 
ENDBRANCH  17  18
ENDBRANCH  16  17
ENDBRANCH   8  10
ENDBRANCH   5   8
ENDBRANCH   3   4
ENDBRANCH   2   3
ENDBRANCH   1   2
BRANCH   1  23
ATOM     23  C   UNL     1       5.955  -2.389   2.393  1.00  0.00     0.002 C 
BRANCH  23  24
ATOM     24  C   UNL     1       6.998  -2.130   1.304  1.00  0.00     0.021 C 
BRANCH  24  25
ATOM     25  C   UNL     1       7.889  -0.923   1.571  1.00  0.00     0.116 C 
BRANCH  25  26
ATOM     26  N   UNL     1       8.724  -1.117   2.749  1.00  0.00    -0.352 N 
ATOM     27  C   UNL     1      10.090  -1.038   2.853  1.00  0.00     0.251 C 
ATOM     28  H   UNL     1       8.244  -1.334   3.581  1.00  0.00     0.163 HD
ATOM     29  O   UNL     1      10.662  -1.436   3.864  1.00  0.00    -0.269 OA
BRANCH  27  30
ATOM     30  C   UNL     1      10.865  -0.480   1.727  1.00  0.00     0.039 A 
ATOM     31  C   UNL     1      11.983  -1.172   1.256  1.00  0.00     0.014 A 
ATOM     32  C   UNL     1      10.460   0.712   1.121  1.00  0.00     0.014 A 
ATOM     33  C   UNL     1      12.664  -0.696   0.134  1.00  0.00     0.010 A 
ATOM     34  C   UNL     1      11.091   1.140  -0.041  1.00  0.00     0.010 A 
ATOM     35  C   UNL     1      12.204   0.446  -0.542  1.00  0.00    -0.014 A 
BRANCH  35  36
ATOM     36  C   UNL     1      12.860   0.940  -1.778  1.00  0.00     0.031 A 
ATOM     37  C   UNL     1      13.465   2.315  -1.806  1.00  0.00     0.074 A 
ATOM     38  C   UNL     1      12.798   0.207  -2.907  1.00  0.00     0.049 A 
ATOM     39  N   UNL     1      13.967   2.976  -2.816  1.00  0.00    -0.248 NA
ATOM     40  C   UNL     1      13.474   3.060  -0.536  1.00  0.00     0.031 C 
ATOM     41  C   UNL     1      12.163  -1.107  -3.027  1.00  0.00     0.029 A 
ATOM     42  N   UNL     1      13.234   0.484  -4.179  1.00  0.00    -0.354 N 
ATOM     43  C   UNL     1      14.304   4.229  -2.318  1.00  0.00     0.074 A 
ATOM     44  C   UNL     1      13.921   4.245  -0.923  1.00  0.00     0.031 C 
ATOM     45  C   UNL     1      12.233  -1.513  -4.304  1.00  0.00     0.029 A 
ATOM     46  C   UNL     1      12.883  -0.475  -5.100  1.00  0.00     0.049 A 
ATOM     47  H   UNL     1      13.749   1.291  -4.410  1.00  0.00     0.167 HD
ATOM     48  C   UNL     1      14.898   5.264  -2.957  1.00  0.00     0.034 A 
ATOM     49  C   UNL     1      13.037  -0.505  -6.439  1.00  0.00     0.034 A 
ATOM     50  C   UNL     1      15.310   5.226  -4.333  1.00  0.00     0.049 A 
ATOM     51  C   UNL     1      13.739   0.635  -7.123  1.00  0.00     0.074 A 
ATOM     52  C   UNL     1      16.018   6.177  -5.045  1.00  0.00     0.029 A 
ATOM     53  N   UNL     1      15.034   4.191  -5.213  1.00  0.00    -0.354 N 
ATOM     54  N   UNL     1      14.204   1.744  -6.603  1.00  0.00    -0.248 NA
ATOM     55  C   UNL     1      13.971   0.507  -8.569  1.00  0.00     0.031 C 
ATOM     56  C   UNL     1      16.137   5.734  -6.366  1.00  0.00     0.029 A 
ATOM     57  C   UNL     1      15.539   4.487  -6.466  1.00  0.00     0.049 A 
ATOM     58  H   UNL     1      14.550   3.365  -4.979  1.00  0.00     0.167 HD
ATOM     59  C   UNL     1      14.812   2.432  -7.647  1.00  0.00     0.074 A 
ATOM     60  C   UNL     1      14.666   1.607  -8.829  1.00  0.00     0.031 C 
ATOM     61  C   UNL     1      15.430   3.638  -7.626  1.00  0.00     0.034 A 
BRANCH  48  62
ATOM     62  C   UNL     1      15.162   6.515  -2.159  1.00  0.00     0.023 A 
ATOM     63  C   UNL     1      16.124   6.502  -1.127  1.00  0.00     0.012 A 
ATOM     64  C   UNL     1      14.478   7.712  -2.447  1.00  0.00     0.148 A 
ATOM     65  C   UNL     1      16.360   7.641  -0.360  1.00  0.00     0.002 A 
ATOM     66  C   UNL     1      14.757   8.858  -1.712  1.00  0.00     0.091 A 
ATOM     67  F   UNL     1      13.552   7.704  -3.416  1.00  0.00    -0.205 F 
ATOM     68  C   UNL     1      15.684   8.821  -0.658  1.00  0.00     0.022 A 
BRANCH  66  69
ATOM     69  S   UNL     1      13.999  10.445  -2.078  1.00  0.00     0.127 S 
ATOM     70  O   UNL     1      13.041  10.575  -0.982  1.00  0.00    -0.237 OA
ATOM     71  O   UNL     1      15.141  11.358  -2.001  1.00  0.00    -0.237 OA
ATOM     72  O   UNL     1      13.420  10.313  -3.408  1.00  0.00    -0.744 OA
ENDBRANCH  66  69
ENDBRANCH  48  62
BRANCH  49  73
ATOM     73  C   UNL     1      12.543  -1.684  -7.203  1.00  0.00     0.023 A 
ATOM     74  C   UNL     1      13.463  -2.606  -7.738  1.00  0.00     0.012 A 
ATOM     75  C   UNL     1      11.162  -1.931  -7.339  1.00  0.00     0.148 A 
ATOM     76  C   UNL     1      13.017  -3.744  -8.411  1.00  0.00     0.002 A 
ATOM     77  C   UNL     1      10.725  -3.094  -7.960  1.00  0.00     0.091 A 
ATOM     78  F   UNL     1      10.306  -1.037  -6.826  1.00  0.00    -0.205 F 
ATOM     79  C   UNL     1      11.650  -3.994  -8.512  1.00  0.00     0.022 A 
BRANCH  77  80
ATOM     80  S   UNL     1       8.994  -3.570  -8.012  1.00  0.00     0.127 S 
ATOM     81  O   UNL     1       8.707  -3.501  -9.442  1.00  0.00    -0.237 OA
ATOM     82  O   UNL     1       9.039  -4.922  -7.455  1.00  0.00    -0.237 OA
ATOM     83  O   UNL     1       8.291  -2.600  -7.182  1.00  0.00    -0.744 OA
ENDBRANCH  77  80
ENDBRANCH  49  73
BRANCH  61  84
ATOM     84  C   UNL     1      16.043   4.143  -8.906  1.00  0.00     0.023 A 
ATOM     85  C   UNL     1      15.219   4.627  -9.941  1.00  0.00     0.012 A 
ATOM     86  C   UNL     1      17.443   4.242  -9.031  1.00  0.00     0.148 A 
ATOM     87  C   UNL     1      15.781   5.187 -11.088  1.00  0.00     0.002 A 
ATOM     88  C   UNL     1      17.994   4.847 -10.153  1.00  0.00     0.091 A 
ATOM     89  F   UNL     1      18.207   3.759  -8.041  1.00  0.00    -0.205 F 
ATOM     90  C   UNL     1      17.166   5.311 -11.187  1.00  0.00     0.022 A 
BRANCH  88  91
ATOM     91  S   UNL     1      19.758   5.144 -10.322  1.00  0.00     0.127 S 
ATOM     92  O   UNL     1      20.106   4.247 -11.424  1.00  0.00    -0.237 OA
ATOM     93  O   UNL     1      19.800   6.567 -10.658  1.00  0.00    -0.237 OA
ATOM     94  O   UNL     1      20.351   4.805  -9.036  1.00  0.00    -0.744 OA
ENDBRANCH  88  91
ENDBRANCH  61  84
ENDBRANCH  35  36
ENDBRANCH  27  30
ENDBRANCH  25  26
ENDBRANCH  24  25
ENDBRANCH  23  24
ENDBRANCH   1  23
TORSDOF 19
