REMARK SMILES CC(C)[C@@H](CNC(=O)[C@@H]1CC[C@@H]2CCCC[C@@H]2[NH2+]1)C(=O)NCCCCCCNC(=O)c1ccc(-c2c3nc(c(-c4cccc(S(=O)(=O)[O-])c4F)c4ccc([nH]4)c(-c4cccc(S(=O)(=O)[O-])c4F)c4nc(c(-c5cccc(S(=O)(=O)[O-])c5F)c5ccc2[nH]5)C=C4)C=C3)cc1
REMARK SMILES IDX 24 1 23 2 22 3 21 4 19 5 20 6 4 8 2 9 1 10 3 11 5 12 6 13
REMARK SMILES IDX 7 14 8 16 9 17 10 18 18 19 11 20 17 21 12 24 16 25 13 26
REMARK SMILES IDX 15 27 14 28 25 29 26 30 27 31 28 32 29 33 30 35 31 36 32 37
REMARK SMILES IDX 93 38 33 39 92 40 34 41 35 42 36 43 86 44 37 45 91 46 85 47
REMARK SMILES IDX 87 48 38 49 90 50 84 51 83 52 39 54 71 55 51 56 70 57 52 58
REMARK SMILES IDX 55 59 69 60 88 61 53 62 54 63 68 65 89 66 56 67 40 68 41 69
REMARK SMILES IDX 49 70 42 71 44 72 50 73 43 74 45 75 46 76 47 77 48 78 72 79
REMARK SMILES IDX 73 80 81 81 74 82 76 83 82 84 75 85 77 86 78 87 79 88 80 89
REMARK SMILES IDX 57 90 58 91 66 92 59 93 61 94 67 95 60 96 62 97 63 98 64 99
REMARK SMILES IDX 65 100
REMARK H PARENT 21 7 6 15 18 22 18 23 28 34 87 53 55 64
REMARK Flexibility Score: inf
ROOT
ATOM      1  C   UNL     1       1.221  -2.324   5.695  1.00  0.00     0.002 C 
ENDROOT
BRANCH   1   2
ATOM      2  C   UNL     1       1.676  -2.039   4.260  1.00  0.00     0.021 C 
BRANCH   2   3
ATOM      3  C   UNL     1       0.527  -1.922   3.264  1.00  0.00     0.116 C 
BRANCH   3   4
ATOM      4  N   UNL     1      -0.254  -0.714   3.473  1.00  0.00    -0.356 N 
ATOM      5  C   UNL     1      -0.802   0.170   2.599  1.00  0.00     0.225 C 
ATOM      6  O   UNL     1      -1.460   1.105   3.070  1.00  0.00    -0.275 OA
ATOM      7  H   UNL     1      -0.415  -0.497   4.420  1.00  0.00     0.163 HD
BRANCH   5   8
ATOM      8  C   UNL     1      -0.588   0.084   1.093  1.00  0.00     0.100 C 
BRANCH   8   9
ATOM      9  C   UNL     1       0.915   0.257   0.721  1.00  0.00    -0.003 C 
ATOM     10  C   UNL     1       1.166   0.301  -0.787  1.00  0.00     0.008 C 
ATOM     11  C   UNL     1       1.476   1.550   1.348  1.00  0.00     0.008 C 
ENDBRANCH   8   9
BRANCH   8  12
ATOM     12  C   UNL     1      -1.433  -1.019   0.403  1.00  0.00     0.129 C 
BRANCH  12  13
ATOM     13  N   UNL     1      -1.476  -2.332   1.019  1.00  0.00    -0.350 N 
ATOM     14  C   UNL     1      -2.416  -3.085   1.646  1.00  0.00     0.278 C 
ATOM     15  H   UNL     1      -0.606  -2.791   0.971  1.00  0.00     0.163 HD
ATOM     16  O   UNL     1      -1.980  -4.160   2.094  1.00  0.00    -0.268 OA
BRANCH  14  17
ATOM     17  C   UNL     1      -3.949  -2.800   1.773  1.00  0.00     0.272 C 
ATOM     18  C   UNL     1      -4.546  -1.401   1.726  1.00  0.00     0.076 C 
ATOM     19  N   UNL     1      -4.498  -3.526   2.965  1.00  0.00    -0.333 N 
ATOM     20  C   UNL     1      -4.303  -0.633   3.012  1.00  0.00     0.016 C 
ATOM     21  C   UNL     1      -4.409  -2.823   4.260  1.00  0.00     0.186 C 
ATOM     22  H   UNL     1      -3.990  -4.405   3.054  1.00  0.00     0.347 HD
ATOM     23  H   UNL     1      -5.496  -3.631   2.782  1.00  0.00     0.347 HD
ATOM     24  C   UNL     1      -4.940  -1.378   4.186  1.00  0.00     0.048 C 
ATOM     25  C   UNL     1      -3.011  -2.910   4.884  1.00  0.00     0.065 C 
ATOM     26  C   UNL     1      -4.744  -0.616   5.507  1.00  0.00     0.010 C 
ATOM     27  C   UNL     1      -2.878  -2.131   6.192  1.00  0.00     0.006 C 
ATOM     28  C   UNL     1      -3.318  -0.685   6.034  1.00  0.00     0.001 C 
ENDBRANCH  14  17
ENDBRANCH  12  13
ENDBRANCH   8  12
ENDBRANCH   5   8
ENDBRANCH   3   4
ENDBRANCH   2   3
ENDBRANCH   1   2
BRANCH   1  29
ATOM     29  C   UNL     1       0.382  -3.593   5.864  1.00  0.00     0.002 C 
BRANCH  29  30
ATOM     30  C   UNL     1       1.042  -4.895   5.436  1.00  0.00     0.021 C 
BRANCH  30  31
ATOM     31  C   UNL     1       2.333  -5.194   6.172  1.00  0.00     0.116 C 
BRANCH  31  32
ATOM     32  N   UNL     1       2.151  -5.259   7.621  1.00  0.00    -0.352 N 
ATOM     33  C   UNL     1       2.544  -6.246   8.489  1.00  0.00     0.251 C 
ATOM     34  H   UNL     1       1.686  -4.493   8.028  1.00  0.00     0.163 HD
ATOM     35  O   UNL     1       2.191  -6.234   9.664  1.00  0.00    -0.269 OA
BRANCH  33  36
ATOM     36  C   UNL     1       3.379  -7.343   7.964  1.00  0.00     0.039 A 
ATOM     37  C   UNL     1       2.981  -8.665   8.168  1.00  0.00     0.014 A 
ATOM     38  C   UNL     1       4.485  -7.041   7.166  1.00  0.00     0.014 A 
ATOM     39  C   UNL     1       3.645  -9.686   7.489  1.00  0.00     0.010 A 
ATOM     40  C   UNL     1       5.071  -8.046   6.412  1.00  0.00     0.010 A 
ATOM     41  C   UNL     1       4.658  -9.379   6.566  1.00  0.00    -0.014 A 
BRANCH  41  42
ATOM     42  C   UNL     1       5.291 -10.423   5.723  1.00  0.00     0.031 A 
ATOM     43  C   UNL     1       6.778 -10.640   5.794  1.00  0.00     0.074 A 
ATOM     44  C   UNL     1       4.550 -11.082   4.809  1.00  0.00     0.049 A 
ATOM     45  N   UNL     1       7.531 -11.424   5.069  1.00  0.00    -0.248 NA
ATOM     46  C   UNL     1       7.523  -9.838   6.781  1.00  0.00     0.031 C 
ATOM     47  C   UNL     1       3.118 -10.881   4.573  1.00  0.00     0.029 A 
ATOM     48  N   UNL     1       4.906 -12.030   3.884  1.00  0.00    -0.354 N 
ATOM     49  C   UNL     1       8.836 -11.176   5.477  1.00  0.00     0.074 A 
ATOM     50  C   UNL     1       8.778 -10.139   6.482  1.00  0.00     0.031 C 
ATOM     51  C   UNL     1       2.717 -11.687   3.577  1.00  0.00     0.029 A 
ATOM     52  C   UNL     1       3.865 -12.438   3.081  1.00  0.00     0.049 A 
ATOM     53  H   UNL     1       5.821 -12.386   3.802  1.00  0.00     0.167 HD
ATOM     54  C   UNL     1       9.977 -11.785   5.080  1.00  0.00     0.034 A 
ATOM     55  C   UNL     1       3.842 -13.311   2.055  1.00  0.00     0.034 A 
ATOM     56  C   UNL     1      10.019 -12.863   4.132  1.00  0.00     0.049 A 
ATOM     57  C   UNL     1       5.115 -14.016   1.672  1.00  0.00     0.074 A 
ATOM     58  C   UNL     1      11.102 -13.636   3.757  1.00  0.00     0.029 A 
ATOM     59  N   UNL     1       8.929 -13.317   3.406  1.00  0.00    -0.354 N 
ATOM     60  N   UNL     1       6.310 -13.903   2.200  1.00  0.00    -0.248 NA
ATOM     61  C   UNL     1       5.032 -14.988   0.573  1.00  0.00     0.031 C 
ATOM     62  C   UNL     1      10.670 -14.546   2.786  1.00  0.00     0.029 A 
ATOM     63  C   UNL     1       9.315 -14.348   2.569  1.00  0.00     0.049 A 
ATOM     64  H   UNL     1       8.014 -12.959   3.476  1.00  0.00     0.167 HD
ATOM     65  C   UNL     1       7.117 -14.801   1.512  1.00  0.00     0.074 A 
ATOM     66  C   UNL     1       6.267 -15.473   0.549  1.00  0.00     0.031 C 
ATOM     67  C   UNL     1       8.446 -15.033   1.647  1.00  0.00     0.034 A 
BRANCH  54  68
ATOM     68  C   UNL     1      11.265 -11.343   5.724  1.00  0.00     0.023 A 
ATOM     69  C   UNL     1      11.513 -11.670   7.073  1.00  0.00     0.012 A 
ATOM     70  C   UNL     1      12.245 -10.649   4.989  1.00  0.00     0.148 A 
ATOM     71  C   UNL     1      12.699 -11.281   7.692  1.00  0.00     0.002 A 
ATOM     72  C   UNL     1      13.445 -10.304   5.601  1.00  0.00     0.091 A 
ATOM     73  F   UNL     1      11.981 -10.325   3.715  1.00  0.00    -0.205 F 
ATOM     74  C   UNL     1      13.668 -10.608   6.954  1.00  0.00     0.022 A 
BRANCH  72  75
ATOM     75  S   UNL     1      14.787  -9.502   4.717  1.00  0.00     0.127 S 
ATOM     76  O   UNL     1      14.747  -8.153   5.280  1.00  0.00    -0.237 OA
ATOM     77  O   UNL     1      15.944 -10.299   5.125  1.00  0.00    -0.237 OA
ATOM     78  O   UNL     1      14.451  -9.600   3.303  1.00  0.00    -0.744 OA
ENDBRANCH  72  75
ENDBRANCH  54  68
BRANCH  55  79
ATOM     79  C   UNL     1       2.557 -13.614   1.364  1.00  0.00     0.023 A 
ATOM     80  C   UNL     1       1.950 -14.870   1.558  1.00  0.00     0.012 A 
ATOM     81  C   UNL     1       1.915 -12.660   0.550  1.00  0.00     0.148 A 
ATOM     82  C   UNL     1       0.741 -15.181   0.934  1.00  0.00     0.002 A 
ATOM     83  C   UNL     1       0.686 -12.957  -0.028  1.00  0.00     0.091 A 
ATOM     84  F   UNL     1       2.515 -11.475   0.366  1.00  0.00    -0.205 F 
ATOM     85  C   UNL     1       0.104 -14.222   0.151  1.00  0.00     0.022 A 
BRANCH  83  86
ATOM     86  S   UNL     1      -0.265 -11.742  -0.948  1.00  0.00     0.127 S 
ATOM     87  O   UNL     1      -0.136 -12.236  -2.317  1.00  0.00    -0.237 OA
ATOM     88  O   UNL     1      -1.598 -11.893  -0.362  1.00  0.00    -0.237 OA
ATOM     89  O   UNL     1       0.369 -10.460  -0.674  1.00  0.00    -0.744 OA
ENDBRANCH  83  86
ENDBRANCH  55  79
BRANCH  67  90
ATOM     90  C   UNL     1       9.071 -16.055   0.736  1.00  0.00     0.023 A 
ATOM     91  C   UNL     1       9.286 -15.733  -0.619  1.00  0.00     0.012 A 
ATOM     92  C   UNL     1       9.526 -17.290   1.237  1.00  0.00     0.148 A 
ATOM     93  C   UNL     1       9.923 -16.636  -1.468  1.00  0.00     0.002 A 
ATOM     94  C   UNL     1      10.203 -18.165   0.396  1.00  0.00     0.091 A 
ATOM     95  F   UNL     1       9.298 -17.580   2.526  1.00  0.00    -0.205 F 
ATOM     96  C   UNL     1      10.392 -17.844  -0.959  1.00  0.00     0.022 A 
BRANCH  94  97
ATOM     97  S   UNL     1      10.925 -19.702   0.981  1.00  0.00     0.127 S 
ATOM     98  O   UNL     1      10.058 -20.697   0.352  1.00  0.00    -0.237 OA
ATOM     99  O   UNL     1      12.279 -19.637   0.429  1.00  0.00    -0.237 OA
ATOM    100  O   UNL     1      10.861 -19.650   2.435  1.00  0.00    -0.744 OA
ENDBRANCH  94  97
ENDBRANCH  67  90
ENDBRANCH  41  42
ENDBRANCH  33  36
ENDBRANCH  31  32
ENDBRANCH  30  31
ENDBRANCH  29  30
ENDBRANCH   1  29
TORSDOF 20
