REMARK SMILES CCN1C(=O)[C@H](CC(=O)Nc2ccc(C(=O)NCCCCCCNC(=O)c3ccc(-c4c5nc(c(-c6cccc(S(=O)(=O)[O-])c6F)c6ccc([nH]6)c(-c6cccc(S(=O)(=O)[O-])c6F)c6nc(c(-c7cccc(S(=O)(=O)[O-])c7F)c7ccc4[nH]7)C=C6)C=C5)cc3)cc2)S/C1=[NH+]\c1ccc(Cl)cc1
REMARK SMILES IDX 20 1 19 2 18 3 17 4 15 5 16 6 14 8 11 9 12 10 91 11 13 12
REMARK SMILES IDX 90 13 10 14 8 15 9 16 7 18 6 19 3 20 4 21 93 22 5 23 92 24
REMARK SMILES IDX 94 25 2 27 1 28 95 29 96 30 101 31 97 32 100 33 98 34 99 35
REMARK SMILES IDX 21 36 22 37 23 38 24 39 25 40 26 42 27 43 28 44 89 45 29 46
REMARK SMILES IDX 88 47 30 48 31 49 32 50 82 51 33 52 87 53 81 54 83 55 34 56
REMARK SMILES IDX 86 57 80 58 79 59 35 61 67 62 47 63 66 64 48 65 51 66 65 67
REMARK SMILES IDX 84 68 49 69 50 70 64 72 85 73 52 74 36 75 37 76 45 77 38 78
REMARK SMILES IDX 40 79 46 80 39 81 41 82 42 83 43 84 44 85 68 86 69 87 77 88
REMARK SMILES IDX 70 89 72 90 78 91 71 92 73 93 74 94 75 95 76 96 53 97 54 98
REMARK SMILES IDX 62 99 55 100 57 101 63 102 56 103 58 104 59 105 60 106
REMARK SMILES IDX 61 107
REMARK H PARENT 17 7 10 17 94 26 24 41 83 60 51 71
REMARK Flexibility Score: inf
ROOT
ATOM      1  C   UNL     1      -1.854   3.696   2.041  1.00  0.00     0.002 C 
ENDROOT
BRANCH   1   2
ATOM      2  C   UNL     1      -1.040   2.733   1.172  1.00  0.00     0.021 C 
BRANCH   2   3
ATOM      3  C   UNL     1       0.485   2.883   1.287  1.00  0.00     0.116 C 
BRANCH   3   4
ATOM      4  N   UNL     1       1.078   1.947   2.234  1.00  0.00    -0.352 N 
ATOM      5  C   UNL     1       1.948   0.890   2.114  1.00  0.00     0.251 C 
ATOM      6  O   UNL     1       2.247   0.280   3.143  1.00  0.00    -0.269 OA
ATOM      7  H   UNL     1       0.794   2.108   3.163  1.00  0.00     0.163 HD
BRANCH   5   8
ATOM      8  C   UNL     1       2.484   0.385   0.818  1.00  0.00     0.039 A 
ATOM      9  C   UNL     1       3.213  -0.792  -1.661  1.00  0.00     0.041 A 
ATOM     10  C   UNL     1       3.053  -1.576  -0.511  1.00  0.00     0.027 A 
ATOM     11  C   UNL     1       3.186   0.592  -1.506  1.00  0.00     0.027 A 
ATOM     12  C   UNL     1       2.681  -0.998   0.709  1.00  0.00     0.016 A 
ATOM     13  C   UNL     1       2.835   1.178  -0.272  1.00  0.00     0.016 A 
BRANCH   9  14
ATOM     14  N   UNL     1       3.318  -1.504  -2.869  1.00  0.00    -0.326 N 
ATOM     15  C   UNL     1       3.208  -1.211  -4.194  1.00  0.00     0.226 C 
ATOM     16  O   UNL     1       3.284  -2.160  -4.984  1.00  0.00    -0.275 OA
ATOM     17  H   UNL     1       3.525  -2.455  -2.719  1.00  0.00     0.169 HD
BRANCH  15  18
ATOM     18  C   UNL     1       2.993   0.178  -4.735  1.00  0.00     0.128 C 
BRANCH  18  19
ATOM     19  C   UNL     1       1.538   0.633  -4.811  1.00  0.00     0.183 C 
ATOM     20  N   UNL     1       0.247   1.027  -2.826  1.00  0.00    -0.190 N 
ATOM     21  C   UNL     1       0.610   0.075  -3.755  1.00  0.00     0.324 C 
ATOM     22  C   UNL     1       0.564   2.337  -3.125  1.00  0.00     0.319 C 
ATOM     23  O   UNL     1       0.244  -1.095  -3.760  1.00  0.00    -0.245 OA
ATOM     24  S   UNL     1       1.448   2.434  -4.622  1.00  0.00    -0.022 SA
ATOM     25  N   UNL     1       0.234   3.321  -2.349  1.00  0.00    -0.235 N 
ATOM     26  H   UNL     1      -0.194   3.130  -1.483  1.00  0.00     0.313 HD
BRANCH  20  27
ATOM     27  C   UNL     1      -0.555   0.725  -1.648  1.00  0.00     0.243 C 
ATOM     28  C   UNL     1      -0.627  -0.710  -1.151  1.00  0.00     0.054 C 
ENDBRANCH  20  27
BRANCH  25  29
ATOM     29  C   UNL     1       0.474   4.658  -2.720  1.00  0.00     0.125 A 
ATOM     30  C   UNL     1       1.368   5.446  -1.987  1.00  0.00     0.053 A 
ATOM     31  C   UNL     1      -0.258   5.258  -3.754  1.00  0.00     0.053 A 
ATOM     32  C   UNL     1       1.538   6.803  -2.294  1.00  0.00     0.025 A 
ATOM     33  C   UNL     1      -0.076   6.607  -4.078  1.00  0.00     0.025 A 
ATOM     34  C   UNL     1       0.813   7.378  -3.337  1.00  0.00     0.041 A 
ATOM     35  Cl  UNL     1       0.985   9.057  -3.670  1.00  0.00    -0.084 Cl
ENDBRANCH  25  29
ENDBRANCH  18  19
ENDBRANCH  15  18
ENDBRANCH   9  14
ENDBRANCH   5   8
ENDBRANCH   3   4
ENDBRANCH   2   3
ENDBRANCH   1   2
BRANCH   1  36
ATOM     36  C   UNL     1      -1.688   5.183   1.697  1.00  0.00     0.002 C 
BRANCH  36  37
ATOM     37  C   UNL     1      -2.105   5.596   0.280  1.00  0.00     0.021 C 
BRANCH  37  38
ATOM     38  C   UNL     1      -3.586   5.409  -0.047  1.00  0.00     0.116 C 
BRANCH  38  39
ATOM     39  N   UNL     1      -4.443   6.183   0.842  1.00  0.00    -0.352 N 
ATOM     40  C   UNL     1      -5.271   7.244   0.570  1.00  0.00     0.251 C 
ATOM     41  H   UNL     1      -4.425   5.901   1.785  1.00  0.00     0.163 HD
ATOM     42  O   UNL     1      -5.725   7.915   1.492  1.00  0.00    -0.269 OA
BRANCH  40  43
ATOM     43  C   UNL     1      -5.620   7.581  -0.828  1.00  0.00     0.039 A 
ATOM     44  C   UNL     1      -5.619   8.921  -1.227  1.00  0.00     0.014 A 
ATOM     45  C   UNL     1      -5.985   6.581  -1.733  1.00  0.00     0.014 A 
ATOM     46  C   UNL     1      -5.920   9.252  -2.551  1.00  0.00     0.010 A 
ATOM     47  C   UNL     1      -6.220   6.906  -3.067  1.00  0.00     0.010 A 
ATOM     48  C   UNL     1      -6.191   8.243  -3.491  1.00  0.00    -0.014 A 
BRANCH  48  49
ATOM     49  C   UNL     1      -6.418   8.557  -4.925  1.00  0.00     0.031 A 
ATOM     50  C   UNL     1      -7.738   8.239  -5.574  1.00  0.00     0.074 A 
ATOM     51  C   UNL     1      -5.398   9.030  -5.668  1.00  0.00     0.049 A 
ATOM     52  N   UNL     1      -8.088   8.350  -6.829  1.00  0.00    -0.248 NA
ATOM     53  C   UNL     1      -8.796   7.700  -4.703  1.00  0.00     0.031 C 
ATOM     54  C   UNL     1      -4.049   9.310  -5.172  1.00  0.00     0.029 A 
ATOM     55  N   UNL     1      -5.326   9.325  -7.007  1.00  0.00    -0.354 N 
ATOM     56  C   UNL     1      -9.387   7.861  -6.907  1.00  0.00     0.074 A 
ATOM     57  C   UNL     1      -9.754   7.426  -5.577  1.00  0.00     0.031 C 
ATOM     58  C   UNL     1      -3.284   9.732  -6.191  1.00  0.00     0.029 A 
ATOM     59  C   UNL     1      -4.074   9.719  -7.418  1.00  0.00     0.049 A 
ATOM     60  H   UNL     1      -6.098   9.261  -7.616  1.00  0.00     0.167 HD
ATOM     61  C   UNL     1     -10.209   7.800  -7.983  1.00  0.00     0.034 A 
ATOM     62  C   UNL     1      -3.609  10.020  -8.647  1.00  0.00     0.034 A 
ATOM     63  C   UNL     1      -9.854   8.270  -9.295  1.00  0.00     0.049 A 
ATOM     64  C   UNL     1      -4.551   9.972  -9.819  1.00  0.00     0.074 A 
ATOM     65  C   UNL     1     -10.646   8.337 -10.428  1.00  0.00     0.029 A 
ATOM     66  N   UNL     1      -8.602   8.744  -9.655  1.00  0.00    -0.354 N 
ATOM     67  N   UNL     1      -5.822   9.654  -9.844  1.00  0.00    -0.248 NA
ATOM     68  C   UNL     1      -4.003  10.355 -11.129  1.00  0.00     0.031 C 
ATOM     69  C   UNL     1      -9.864   8.824 -11.480  1.00  0.00     0.029 A 
ATOM     70  C   UNL     1      -8.594   9.091 -10.995  1.00  0.00     0.049 A 
ATOM     71  H   UNL     1      -7.831   8.822  -9.047  1.00  0.00     0.167 HD
ATOM     72  C   UNL     1      -6.235   9.831 -11.159  1.00  0.00     0.074 A 
ATOM     73  C   UNL     1      -5.082  10.303 -11.899  1.00  0.00     0.031 C 
ATOM     74  C   UNL     1      -7.454   9.608 -11.709  1.00  0.00     0.034 A 
BRANCH  61  75
ATOM     75  C   UNL     1     -11.595   7.246  -7.778  1.00  0.00     0.023 A 
ATOM     76  C   UNL     1     -12.545   7.996  -7.054  1.00  0.00     0.012 A 
ATOM     77  C   UNL     1     -11.979   6.019  -8.353  1.00  0.00     0.148 A 
ATOM     78  C   UNL     1     -13.842   7.518  -6.874  1.00  0.00     0.002 A 
ATOM     79  C   UNL     1     -13.287   5.570  -8.208  1.00  0.00     0.091 A 
ATOM     80  F   UNL     1     -11.059   5.310  -9.022  1.00  0.00    -0.205 F 
ATOM     81  C   UNL     1     -14.216   6.312  -7.459  1.00  0.00     0.022 A 
BRANCH  79  82
ATOM     82  S   UNL     1     -13.891   4.069  -8.989  1.00  0.00     0.127 S 
ATOM     83  O   UNL     1     -14.069   3.188  -7.837  1.00  0.00    -0.237 OA
ATOM     84  O   UNL     1     -15.136   4.523  -9.608  1.00  0.00    -0.237 OA
ATOM     85  O   UNL     1     -12.857   3.663  -9.932  1.00  0.00    -0.744 OA
ENDBRANCH  79  82
ENDBRANCH  61  75
BRANCH  62  86
ATOM     86  C   UNL     1      -2.190  10.440  -8.820  1.00  0.00     0.023 A 
ATOM     87  C   UNL     1      -1.898  11.776  -9.152  1.00  0.00     0.012 A 
ATOM     88  C   UNL     1      -1.131   9.532  -8.629  1.00  0.00     0.148 A 
ATOM     89  C   UNL     1      -0.577  12.195  -9.321  1.00  0.00     0.002 A 
ATOM     90  C   UNL     1       0.184   9.968  -8.744  1.00  0.00     0.091 A 
ATOM     91  F   UNL     1      -1.429   8.260  -8.328  1.00  0.00    -0.205 F 
ATOM     92  C   UNL     1       0.464  11.295  -9.106  1.00  0.00     0.022 A 
BRANCH  90  93
ATOM     93  S   UNL     1       1.576   8.900  -8.358  1.00  0.00     0.127 S 
ATOM     94  O   UNL     1       2.066   8.555  -9.689  1.00  0.00    -0.237 OA
ATOM     95  O   UNL     1       2.447   9.793  -7.593  1.00  0.00    -0.237 OA
ATOM     96  O   UNL     1       1.014   7.801  -7.581  1.00  0.00    -0.744 OA
ENDBRANCH  90  93
ENDBRANCH  62  86
BRANCH  74  97
ATOM     97  C   UNL     1      -7.628   9.903 -13.176  1.00  0.00     0.023 A 
ATOM     98  C   UNL     1      -7.051   9.049 -14.136  1.00  0.00     0.012 A 
ATOM     99  C   UNL     1      -8.434  10.977 -13.601  1.00  0.00     0.148 A 
ATOM    100  C   UNL     1      -7.250   9.276 -15.498  1.00  0.00     0.002 A 
ATOM    101  C   UNL     1      -8.670  11.168 -14.957  1.00  0.00     0.091 A 
ATOM    102  F   UNL     1      -8.960  11.789 -12.672  1.00  0.00    -0.205 F 
ATOM    103  C   UNL     1      -8.069  10.326 -15.907  1.00  0.00     0.022 A 
BRANCH 101 104
ATOM    104  S   UNL     1      -9.787  12.431 -15.575  1.00  0.00     0.127 S 
ATOM    105  O   UNL     1      -8.858  13.368 -16.206  1.00  0.00    -0.237 OA
ATOM    106  O   UNL     1     -10.622  11.676 -16.510  1.00  0.00    -0.237 OA
ATOM    107  O   UNL     1     -10.496  12.947 -14.411  1.00  0.00    -0.744 OA
ENDBRANCH 101 104
ENDBRANCH  74  97
ENDBRANCH  48  49
ENDBRANCH  40  43
ENDBRANCH  38  39
ENDBRANCH  37  38
ENDBRANCH  36  37
ENDBRANCH   1  36
TORSDOF 21
