REMARK SMILES C[C@]12C(=O)N(c3ccc(C(=O)NCCCCCCNC(=O)c4ccc(-c5c6nc(c(-c7cccc(S(=O)(=O)[O-])c7F)c7ccc([nH]7)c(-c7cccc(S(=O)(=O)[O-])c7F)c7nc(c(-c8cccc(S(=O)(=O)[O-])c8F)c8ccc5[nH]8)C=C7)C=C6)cc4)cc3)C(=O)[C@H]1[C@H]1c3ccccc3[C@@H]2c2ccccc21
REMARK SMILES IDX 16 1 15 2 14 3 13 4 12 5 10 6 11 7 9 9 6 10 7 11 86 12 8 13
REMARK SMILES IDX 85 14 5 15 1 16 2 17 3 18 89 19 97 20 4 21 87 22 90 23 96 24
REMARK SMILES IDX 98 25 88 26 91 27 103 28 95 29 99 30 92 31 102 32 94 33
REMARK SMILES IDX 100 34 93 35 101 36 17 37 18 38 19 39 20 40 21 42 22 43
REMARK SMILES IDX 23 44 84 45 24 46 83 47 25 48 26 49 27 50 77 51 28 52 82 53
REMARK SMILES IDX 76 54 78 55 29 56 81 57 75 58 74 59 30 61 62 62 42 63 61 64
REMARK SMILES IDX 43 65 46 66 60 67 79 68 44 69 45 70 59 72 80 73 47 74 31 75
REMARK SMILES IDX 32 76 40 77 33 78 35 79 41 80 34 81 36 82 37 83 38 84 39 85
REMARK SMILES IDX 63 86 64 87 72 88 65 89 67 90 73 91 66 92 68 93 69 94 70 95
REMARK SMILES IDX 71 96 48 97 49 98 57 99 50 100 52 101 58 102 51 103 53 104
REMARK SMILES IDX 54 105 55 106 56 107
REMARK H PARENT 12 8 19 41 78 60 46 71
REMARK Flexibility Score: inf
ROOT
ATOM      1  C   UNL     1       3.668  12.772   1.786  1.00  0.00     0.002 C 
ENDROOT
BRANCH   1   2
ATOM      2  C   UNL     1       4.586  11.876   0.949  1.00  0.00     0.002 C 
BRANCH   2   3
ATOM      3  C   UNL     1       4.479  10.366   1.172  1.00  0.00     0.021 C 
BRANCH   3   4
ATOM      4  C   UNL     1       3.080   9.767   1.117  1.00  0.00     0.116 C 
BRANCH   4   5
ATOM      5  N   UNL     1       2.459   9.899  -0.185  1.00  0.00    -0.352 N 
ATOM      6  C   UNL     1       1.926   8.939  -1.004  1.00  0.00     0.251 C 
ATOM      7  O   UNL     1       1.533   9.250  -2.127  1.00  0.00    -0.269 OA
ATOM      8  H   UNL     1       2.413  10.818  -0.534  1.00  0.00     0.163 HD
BRANCH   6   9
ATOM      9  C   UNL     1       1.837   7.523  -0.575  1.00  0.00     0.039 A 
ATOM     10  C   UNL     1       1.556   4.774   0.088  1.00  0.00     0.052 A 
ATOM     11  C   UNL     1       2.008   5.187  -1.179  1.00  0.00     0.027 A 
ATOM     12  C   UNL     1       1.275   5.783   1.022  1.00  0.00     0.027 A 
ATOM     13  C   UNL     1       2.143   6.540  -1.511  1.00  0.00     0.016 A 
ATOM     14  C   UNL     1       1.382   7.140   0.687  1.00  0.00     0.016 A 
BRANCH  10  15
ATOM     15  N   UNL     1       1.203   3.410   0.338  1.00  0.00    -0.250 N 
ATOM     16  C   UNL     1       0.862  -0.022  -0.446  1.00  0.00     0.024 C 
ATOM     17  C   UNL     1       0.244   1.377  -0.309  1.00  0.00     0.071 C 
ATOM     18  C   UNL     1       1.295   2.414  -0.609  1.00  0.00     0.241 C 
ATOM     19  C   UNL     1      -0.175   1.677   1.156  1.00  0.00     0.107 C 
ATOM     20  C   UNL     1      -0.972   1.628  -1.274  1.00  0.00     0.066 C 
ATOM     21  O   UNL     1       2.046   2.321  -1.567  1.00  0.00    -0.273 OA
ATOM     22  C   UNL     1       0.599   2.937   1.486  1.00  0.00     0.238 C 
ATOM     23  C   UNL     1      -1.716   1.935   1.239  1.00  0.00     0.063 C 
ATOM     24  C   UNL     1      -1.558   3.018  -0.970  1.00  0.00    -0.036 A 
ATOM     25  C   UNL     1      -2.029   0.621  -0.833  1.00  0.00    -0.036 A 
ATOM     26  O   UNL     1       0.620   3.404   2.619  1.00  0.00    -0.274 OA
ATOM     27  C   UNL     1      -1.984   3.171   0.378  1.00  0.00    -0.036 A 
ATOM     28  C   UNL     1      -2.407   0.763   0.531  1.00  0.00    -0.036 A 
ATOM     29  C   UNL     1      -1.616   4.094  -1.845  1.00  0.00     0.005 A 
ATOM     30  C   UNL     1      -2.599  -0.349  -1.643  1.00  0.00     0.005 A 
ATOM     31  C   UNL     1      -2.478   4.382   0.842  1.00  0.00     0.004 A 
ATOM     32  C   UNL     1      -3.368  -0.075   1.075  1.00  0.00     0.004 A 
ATOM     33  C   UNL     1      -2.102   5.317  -1.371  1.00  0.00     0.000 A 
ATOM     34  C   UNL     1      -3.560  -1.190  -1.088  1.00  0.00     0.000 A 
ATOM     35  C   UNL     1      -2.533   5.458  -0.042  1.00  0.00     0.000 A 
ATOM     36  C   UNL     1      -3.940  -1.055   0.257  1.00  0.00     0.000 A 
ENDBRANCH  10  15
ENDBRANCH   6   9
ENDBRANCH   4   5
ENDBRANCH   3   4
ENDBRANCH   2   3
ENDBRANCH   1   2
BRANCH   1  37
ATOM     37  C   UNL     1       3.609  12.494   3.287  1.00  0.00     0.021 C 
BRANCH  37  38
ATOM     38  C   UNL     1       4.945  12.419   4.013  1.00  0.00     0.116 C 
BRANCH  38  39
ATOM     39  N   UNL     1       5.656  13.684   4.053  1.00  0.00    -0.352 N 
ATOM     40  C   UNL     1       6.212  14.331   5.134  1.00  0.00     0.251 C 
ATOM     41  H   UNL     1       5.754  14.143   3.187  1.00  0.00     0.163 HD
ATOM     42  O   UNL     1       6.697  15.449   4.993  1.00  0.00    -0.269 OA
BRANCH  40  43
ATOM     43  C   UNL     1       6.177  13.694   6.472  1.00  0.00     0.039 A 
ATOM     44  C   UNL     1       6.523  12.352   6.642  1.00  0.00     0.014 A 
ATOM     45  C   UNL     1       5.751  14.449   7.569  1.00  0.00     0.014 A 
ATOM     46  C   UNL     1       6.274  11.723   7.860  1.00  0.00     0.010 A 
ATOM     47  C   UNL     1       5.580  13.833   8.814  1.00  0.00     0.010 A 
ATOM     48  C   UNL     1       5.787  12.453   8.957  1.00  0.00    -0.014 A 
BRANCH  48  49
ATOM     49  C   UNL     1       5.501  11.752  10.237  1.00  0.00     0.031 A 
ATOM     50  C   UNL     1       4.099  11.668  10.783  1.00  0.00     0.074 A 
ATOM     51  C   UNL     1       6.510  11.155  10.901  1.00  0.00     0.049 A 
ATOM     52  N   UNL     1       3.674  11.060  11.861  1.00  0.00    -0.248 NA
ATOM     53  C   UNL     1       3.037  12.356  10.030  1.00  0.00     0.031 C 
ATOM     54  C   UNL     1       7.917  11.188  10.496  1.00  0.00     0.029 A 
ATOM     55  N   UNL     1       6.509  10.397  12.044  1.00  0.00    -0.354 N 
ATOM     56  C   UNL     1       2.313  11.328  11.942  1.00  0.00     0.074 A 
ATOM     57  C   UNL     1       1.978  12.155  10.803  1.00  0.00     0.031 C 
ATOM     58  C   UNL     1       8.637  10.450  11.354  1.00  0.00     0.029 A 
ATOM     59  C   UNL     1       7.753   9.927  12.392  1.00  0.00     0.049 A 
ATOM     60  H   UNL     1       5.696  10.207  12.566  1.00  0.00     0.167 HD
ATOM     61  C   UNL     1       1.419  10.907  12.867  1.00  0.00     0.034 A 
ATOM     62  C   UNL     1       8.148   9.163  13.429  1.00  0.00     0.034 A 
ATOM     63  C   UNL     1       1.733  10.032  13.963  1.00  0.00     0.049 A 
ATOM     64  C   UNL     1       7.133   8.680  14.422  1.00  0.00     0.074 A 
ATOM     65  C   UNL     1       0.871   9.493  14.903  1.00  0.00     0.029 A 
ATOM     66  N   UNL     1       3.001   9.566  14.268  1.00  0.00    -0.354 N 
ATOM     67  N   UNL     1       5.835   8.861  14.420  1.00  0.00    -0.248 NA
ATOM     68  C   UNL     1       7.628   7.879  15.550  1.00  0.00     0.031 C 
ATOM     69  C   UNL     1       1.620   8.703  15.781  1.00  0.00     0.029 A 
ATOM     70  C   UNL     1       2.947   8.750  15.385  1.00  0.00     0.049 A 
ATOM     71  H   UNL     1       3.819   9.782  13.765  1.00  0.00     0.167 HD
ATOM     72  C   UNL     1       5.356   8.194  15.540  1.00  0.00     0.074 A 
ATOM     73  C   UNL     1       6.501   7.584  16.186  1.00  0.00     0.031 C 
ATOM     74  C   UNL     1       4.084   8.115  15.999  1.00  0.00     0.034 A 
BRANCH  61  75
ATOM     75  C   UNL     1      -0.013  11.339  12.711  1.00  0.00     0.023 A 
ATOM     76  C   UNL     1      -0.839  10.661  11.793  1.00  0.00     0.012 A 
ATOM     77  C   UNL     1      -0.562  12.344  13.531  1.00  0.00     0.148 A 
ATOM     78  C   UNL     1      -2.190  10.986  11.684  1.00  0.00     0.002 A 
ATOM     79  C   UNL     1      -1.916  12.643  13.435  1.00  0.00     0.091 A 
ATOM     80  F   UNL     1       0.249  12.986  14.384  1.00  0.00    -0.205 F 
ATOM     81  C   UNL     1      -2.730  11.968  12.511  1.00  0.00     0.022 A 
BRANCH  79  82
ATOM     82  S   UNL     1      -2.720  13.853  14.492  1.00  0.00     0.127 S 
ATOM     83  O   UNL     1      -3.007  14.928  13.542  1.00  0.00    -0.237 OA
ATOM     84  O   UNL     1      -3.899  13.122  14.958  1.00  0.00    -0.237 OA
ATOM     85  O   UNL     1      -1.757  14.181  15.533  1.00  0.00    -0.744 OA
ENDBRANCH  79  82
ENDBRANCH  61  75
BRANCH  62  86
ATOM     86  C   UNL     1       9.579   8.769  13.523  1.00  0.00     0.023 A 
ATOM     87  C   UNL     1       9.957   7.466  13.152  1.00  0.00     0.012 A 
ATOM     88  C   UNL     1      10.570   9.710  13.863  1.00  0.00     0.148 A 
ATOM     89  C   UNL     1      11.304   7.106  13.113  1.00  0.00     0.002 A 
ATOM     90  C   UNL     1      11.911   9.358  13.778  1.00  0.00     0.091 A 
ATOM     91  F   UNL     1      10.178  10.943  14.212  1.00  0.00    -0.205 F 
ATOM     92  C   UNL     1      12.280   8.053  13.412  1.00  0.00     0.022 A 
BRANCH  90  93
ATOM     93  S   UNL     1      13.242  10.539  14.023  1.00  0.00     0.127 S 
ATOM     94  O   UNL     1      13.946   9.963  15.166  1.00  0.00    -0.237 OA
ATOM     95  O   UNL     1      13.955  10.448  12.749  1.00  0.00    -0.237 OA
ATOM     96  O   UNL     1      12.596  11.821  14.269  1.00  0.00    -0.744 OA
ENDBRANCH  90  93
ENDBRANCH  62  86
BRANCH  74  97
ATOM     97  C   UNL     1       3.838   7.352  17.270  1.00  0.00     0.023 A 
ATOM     98  C   UNL     1       4.097   7.978  18.504  1.00  0.00     0.012 A 
ATOM     99  C   UNL     1       3.238   6.078  17.246  1.00  0.00     0.148 A 
ATOM    100  C   UNL     1       3.765   7.345  19.701  1.00  0.00     0.002 A 
ATOM    101  C   UNL     1       2.881   5.466  18.442  1.00  0.00     0.091 A 
ATOM    102  F   UNL     1       3.012   5.501  16.057  1.00  0.00    -0.205 F 
ATOM    103  C   UNL     1       3.147   6.097  19.670  1.00  0.00     0.022 A 
BRANCH 101 104
ATOM    104  S   UNL     1       2.016   3.893  18.505  1.00  0.00     0.127 S 
ATOM    105  O   UNL     1       3.032   3.018  19.088  1.00  0.00    -0.237 OA
ATOM    106  O   UNL     1       0.890   4.194  19.389  1.00  0.00    -0.237 OA
ATOM    107  O   UNL     1       1.643   3.582  17.132  1.00  0.00    -0.744 OA
ENDBRANCH 101 104
ENDBRANCH  74  97
ENDBRANCH  48  49
ENDBRANCH  40  43
ENDBRANCH  38  39
ENDBRANCH  37  38
ENDBRANCH   1  37
TORSDOF 17
