REMARK SMILES COc1cccc(-c2ccc(=O)n(CC(=O)N[C@@H](C(=O)NCCCCCCNC(=O)c3ccc(-c4c5nc(c(-c6cccc(S(=O)(=O)[O-])c6F)c6ccc([nH]6)c(-c6cccc(S(=O)(=O)[O-])c6F)c6nc(c(-c7cccc(S(=O)(=O)[O-])c7F)c7ccc4[nH]7)C=C6)C=C5)cc3)C(C)C)n2)c1
REMARK SMILES IDX 23 1 22 2 21 3 19 4 20 5 18 7 17 8 15 9 16 10 14 12 13 13
REMARK SMILES IDX 8 14 9 15 97 16 10 17 11 18 12 19 7 20 3 21 4 22 98 23 5 24
REMARK SMILES IDX 6 25 2 26 1 27 94 28 95 29 96 30 24 31 25 32 26 33 27 34
REMARK SMILES IDX 28 35 29 36 30 38 31 39 32 40 93 41 33 42 92 43 34 44 35 45
REMARK SMILES IDX 36 46 86 47 37 48 91 49 85 50 87 51 38 52 90 53 84 54 83 55
REMARK SMILES IDX 39 57 71 58 51 59 70 60 52 61 55 62 69 63 88 64 53 65 54 66
REMARK SMILES IDX 68 68 89 69 56 70 40 71 41 72 49 73 42 74 44 75 50 76 43 77
REMARK SMILES IDX 45 78 46 79 47 80 48 81 72 82 73 83 81 84 74 85 76 86 82 87
REMARK SMILES IDX 75 88 77 89 78 90 79 91 80 92 57 93 58 94 66 95 59 96 61 97
REMARK SMILES IDX 67 98 60 99 62 100 63 101 64 102 65 103
REMARK H PARENT 21 6 17 11 28 37 87 56 55 67
REMARK Flexibility Score: inf
ROOT
ATOM      1  C   UNL     1       7.233   3.653   6.960  1.00  0.00     0.021 C 
ENDROOT
BRANCH   1   2
ATOM      2  C   UNL     1       6.209   3.938   5.869  1.00  0.00     0.116 C 
BRANCH   2   3
ATOM      3  N   UNL     1       5.594   5.240   5.999  1.00  0.00    -0.354 N 
ATOM      4  C   UNL     1       5.330   6.176   5.037  1.00  0.00     0.242 C 
ATOM      5  O   UNL     1       4.650   7.144   5.393  1.00  0.00    -0.273 OA
ATOM      6  H   UNL     1       5.325   5.489   6.913  1.00  0.00     0.163 HD
BRANCH   4   7
ATOM      7  C   UNL     1       5.758   5.953   3.549  1.00  0.00     0.173 C 
BRANCH   7   8
ATOM      8  N   UNL     1       7.191   5.652   3.485  1.00  0.00    -0.342 N 
ATOM      9  C   UNL     1       7.866   4.645   2.852  1.00  0.00     0.242 C 
ATOM     10  O   UNL     1       9.099   4.707   2.905  1.00  0.00    -0.273 OA
ATOM     11  H   UNL     1       7.764   6.280   3.981  1.00  0.00     0.164 HD
BRANCH   9  12
ATOM     12  C   UNL     1       7.160   3.574   2.003  1.00  0.00     0.248 C 
BRANCH  12  13
ATOM     13  N   UNL     1       6.206   2.713   2.703  1.00  0.00    -0.220 N 
ATOM     14  C   UNL     1       4.015   2.219   3.113  1.00  0.00     0.091 A 
ATOM     15  C   UNL     1       4.345   1.075   3.976  1.00  0.00     0.036 A 
ATOM     16  N   UNL     1       4.867   2.978   2.506  1.00  0.00    -0.169 NA
ATOM     17  C   UNL     1       5.640   0.774   4.067  1.00  0.00     0.075 A 
ATOM     18  C   UNL     1       6.673   1.630   3.441  1.00  0.00     0.267 A 
ATOM     19  O   UNL     1       7.856   1.392   3.663  1.00  0.00    -0.268 OA
BRANCH  14  20
ATOM     20  C   UNL     1       2.582   2.419   2.871  1.00  0.00     0.006 A 
ATOM     21  C   UNL     1       0.681   1.854   1.507  1.00  0.00     0.119 A 
ATOM     22  C   UNL     1      -0.102   2.709   2.289  1.00  0.00     0.046 A 
ATOM     23  C   UNL     1       2.034   1.722   1.793  1.00  0.00     0.056 A 
ATOM     24  C   UNL     1       0.457   3.412   3.365  1.00  0.00     0.005 A 
ATOM     25  C   UNL     1       1.811   3.269   3.663  1.00  0.00     0.011 A 
BRANCH  21  26
ATOM     26  O   UNL     1       0.036   1.219   0.481  1.00  0.00    -0.497 OA
ATOM     27  C   UNL     1       0.689   0.059  -0.035  1.00  0.00     0.278 C 
ENDBRANCH  21  26
ENDBRANCH  14  20
ENDBRANCH  12  13
ENDBRANCH   9  12
ENDBRANCH   7   8
BRANCH   7  28
ATOM     28  C   UNL     1       5.400   7.187   2.670  1.00  0.00     0.015 C 
ATOM     29  C   UNL     1       6.138   7.213   1.325  1.00  0.00     0.010 C 
ATOM     30  C   UNL     1       3.891   7.241   2.386  1.00  0.00     0.010 C 
ENDBRANCH   7  28
ENDBRANCH   4   7
ENDBRANCH   2   3
ENDBRANCH   1   2
BRANCH   1  31
ATOM     31  C   UNL     1       6.618   3.134   8.261  1.00  0.00     0.002 C 
BRANCH  31  32
ATOM     32  C   UNL     1       5.871   1.800   8.140  1.00  0.00     0.002 C 
BRANCH  32  33
ATOM     33  C   UNL     1       6.688   0.641   7.564  1.00  0.00     0.021 C 
BRANCH  33  34
ATOM     34  C   UNL     1       7.956   0.289   8.331  1.00  0.00     0.116 C 
BRANCH  34  35
ATOM     35  N   UNL     1       7.677  -0.085   9.709  1.00  0.00    -0.352 N 
ATOM     36  C   UNL     1       7.951  -1.251  10.380  1.00  0.00     0.251 C 
ATOM     37  H   UNL     1       7.221   0.605  10.243  1.00  0.00     0.163 HD
ATOM     38  O   UNL     1       7.455  -1.445  11.486  1.00  0.00    -0.269 OA
BRANCH  36  39
ATOM     39  C   UNL     1       8.819  -2.281   9.766  1.00  0.00     0.039 A 
ATOM     40  C   UNL     1       8.450  -3.624   9.877  1.00  0.00     0.014 A 
ATOM     41  C   UNL     1       9.992  -1.933   9.090  1.00  0.00     0.014 A 
ATOM     42  C   UNL     1       9.215  -4.609   9.247  1.00  0.00     0.010 A 
ATOM     43  C   UNL     1      10.708  -2.905   8.396  1.00  0.00     0.010 A 
ATOM     44  C   UNL     1      10.326  -4.253   8.463  1.00  0.00    -0.014 A 
BRANCH  44  45
ATOM     45  C   UNL     1      11.064  -5.270   7.670  1.00  0.00     0.031 A 
ATOM     46  C   UNL     1      12.520  -5.541   7.934  1.00  0.00     0.074 A 
ATOM     47  C   UNL     1      10.440  -5.884   6.645  1.00  0.00     0.049 A 
ATOM     48  N   UNL     1      13.332  -6.354   7.308  1.00  0.00    -0.248 NA
ATOM     49  C   UNL     1      13.153  -4.788   9.029  1.00  0.00     0.031 C 
ATOM     50  C   UNL     1       9.053  -5.647   6.238  1.00  0.00     0.029 A 
ATOM     51  N   UNL     1      10.896  -6.809   5.739  1.00  0.00    -0.354 N 
ATOM     52  C   UNL     1      14.575  -6.186   7.907  1.00  0.00     0.074 A 
ATOM     53  C   UNL     1      14.417  -5.174   8.928  1.00  0.00     0.031 C 
ATOM     54  C   UNL     1       8.771  -6.407   5.169  1.00  0.00     0.029 A 
ATOM     55  C   UNL     1       9.964  -7.154   4.787  1.00  0.00     0.049 A 
ATOM     56  H   UNL     1      11.803  -7.190   5.768  1.00  0.00     0.167 HD
ATOM     57  C   UNL     1      15.736  -6.834   7.647  1.00  0.00     0.034 A 
ATOM     58  C   UNL     1      10.061  -7.965   3.716  1.00  0.00     0.034 A 
ATOM     59  C   UNL     1      15.880  -7.859   6.648  1.00  0.00     0.049 A 
ATOM     60  C   UNL     1      11.360  -8.681   3.457  1.00  0.00     0.074 A 
ATOM     61  C   UNL     1      16.988  -8.644   6.376  1.00  0.00     0.029 A 
ATOM     62  N   UNL     1      14.898  -8.229   5.743  1.00  0.00    -0.354 N 
ATOM     63  N   UNL     1      12.473  -8.643   4.147  1.00  0.00    -0.248 NA
ATOM     64  C   UNL     1      11.407  -9.572   2.289  1.00  0.00     0.031 C 
ATOM     65  C   UNL     1      16.687  -9.459   5.280  1.00  0.00     0.029 A 
ATOM     66  C   UNL     1      15.381  -9.209   4.892  1.00  0.00     0.049 A 
ATOM     67  H   UNL     1      13.990  -7.850   5.710  1.00  0.00     0.167 HD
ATOM     68  C   UNL     1      13.346  -9.519   3.512  1.00  0.00     0.074 A 
ATOM     69  C   UNL     1      12.620 -10.098   2.400  1.00  0.00     0.031 C 
ATOM     70  C   UNL     1      14.638  -9.804   3.811  1.00  0.00     0.034 A 
BRANCH  57  71
ATOM     71  C   UNL     1      16.940  -6.482   8.483  1.00  0.00     0.023 A 
ATOM     72  C   UNL     1      16.983  -6.866   9.840  1.00  0.00     0.012 A 
ATOM     73  C   UNL     1      18.054  -5.833   7.915  1.00  0.00     0.148 A 
ATOM     74  C   UNL     1      18.098  -6.578  10.626  1.00  0.00     0.002 A 
ATOM     75  C   UNL     1      19.180  -5.591   8.693  1.00  0.00     0.091 A 
ATOM     76  F   UNL     1      17.989  -5.460   6.629  1.00  0.00    -0.205 F 
ATOM     77  C   UNL     1      19.199  -5.951  10.050  1.00  0.00     0.022 A 
BRANCH  75  78
ATOM     78  S   UNL     1      20.682  -4.863   8.028  1.00  0.00     0.127 S 
ATOM     79  O   UNL     1      20.687  -3.553   8.679  1.00  0.00    -0.237 OA
ATOM     80  O   UNL     1      21.709  -5.786   8.510  1.00  0.00    -0.237 OA
ATOM     81  O   UNL     1      20.513  -4.841   6.582  1.00  0.00    -0.744 OA
ENDBRANCH  75  78
ENDBRANCH  57  71
BRANCH  58  82
ATOM     82  C   UNL     1       8.879  -8.177   2.832  1.00  0.00     0.023 A 
ATOM     83  C   UNL     1       8.239  -9.431   2.819  1.00  0.00     0.012 A 
ATOM     84  C   UNL     1       8.364  -7.136   2.033  1.00  0.00     0.148 A 
ATOM     85  C   UNL     1       7.130  -9.656   2.003  1.00  0.00     0.002 A 
ATOM     86  C   UNL     1       7.223  -7.348   1.269  1.00  0.00     0.091 A 
ATOM     87  F   UNL     1       8.992  -5.952   2.051  1.00  0.00    -0.205 F 
ATOM     88  C   UNL     1       6.615  -8.613   1.237  1.00  0.00     0.022 A 
BRANCH  86  89
ATOM     89  S   UNL     1       6.407  -6.028   0.363  1.00  0.00     0.127 S 
ATOM     90  O   UNL     1       6.653  -6.417  -1.023  1.00  0.00    -0.237 OA
ATOM     91  O   UNL     1       5.019  -6.169   0.806  1.00  0.00    -0.237 OA
ATOM     92  O   UNL     1       7.048  -4.794   0.797  1.00  0.00    -0.744 OA
ENDBRANCH  86  89
ENDBRANCH  58  82
BRANCH  70  93
ATOM     93  C   UNL     1      15.356 -10.796   2.931  1.00  0.00     0.023 A 
ATOM     94  C   UNL     1      15.727 -10.427   1.623  1.00  0.00     0.012 A 
ATOM     95  C   UNL     1      15.730 -12.061   3.425  1.00  0.00     0.148 A 
ATOM     96  C   UNL     1      16.433 -11.312   0.809  1.00  0.00     0.002 A 
ATOM     97  C   UNL     1      16.477 -12.919   2.627  1.00  0.00     0.091 A 
ATOM     98  F   UNL     1      15.355 -12.399   4.667  1.00  0.00    -0.205 F 
ATOM     99  C   UNL     1      16.818 -12.552   1.315  1.00  0.00     0.022 A 
BRANCH  97 100
ATOM    100  S   UNL     1      17.099 -14.497   3.218  1.00  0.00     0.127 S 
ATOM    101  O   UNL     1      16.326 -15.442   2.413  1.00  0.00    -0.237 OA
ATOM    102  O   UNL     1      18.518 -14.418   2.871  1.00  0.00    -0.237 OA
ATOM    103  O   UNL     1      16.824 -14.530   4.648  1.00  0.00    -0.744 OA
ENDBRANCH  97 100
ENDBRANCH  70  93
ENDBRANCH  44  45
ENDBRANCH  36  39
ENDBRANCH  34  35
ENDBRANCH  33  34
ENDBRANCH  32  33
ENDBRANCH  31  32
ENDBRANCH   1  31
TORSDOF 22
