REMARK SMILES CC(=O)Nc1cccc(-c2cc(F)ccc2C(=O)NCCCCCCNC(=O)c2ccc(-c3c4nc(c(-c5cccc(S(=O)(=O)[O-])c5F)c5ccc([nH]5)c(-c5cccc(S(=O)(=O)[O-])c5F)c5nc(c(-c6cccc(S(=O)(=O)[O-])c6F)c6ccc3[nH]6)C=C5)C=C4)cc2)c1
REMARK SMILES IDX 23 1 22 2 21 3 20 4 19 5 17 6 18 7 16 9 10 10 11 11 12 12
REMARK SMILES IDX 15 13 13 14 14 15 9 16 5 17 6 18 92 19 7 20 8 21 4 22 1 23
REMARK SMILES IDX 2 24 3 25 24 27 25 28 26 29 27 30 28 32 29 33 30 34 91 35
REMARK SMILES IDX 31 36 90 37 32 38 33 39 34 40 84 41 35 42 89 43 83 44 85 45
REMARK SMILES IDX 36 46 88 47 82 48 81 49 37 51 69 52 49 53 68 54 50 55 53 56
REMARK SMILES IDX 67 57 86 58 51 59 52 60 66 62 87 63 54 64 38 65 39 66 47 67
REMARK SMILES IDX 40 68 42 69 48 70 41 71 43 72 44 73 45 74 46 75 70 76 71 77
REMARK SMILES IDX 79 78 72 79 74 80 80 81 73 82 75 83 76 84 77 85 78 86 55 87
REMARK SMILES IDX 56 88 64 89 57 90 59 91 65 92 58 93 60 94 61 95 62 96 63 97
REMARK H PARENT 19 8 4 26 26 31 85 50 53 61
REMARK Flexibility Score: inf
ROOT
ATOM      1  C   UNL     1       1.258   4.357   2.514  1.00  0.00     0.002 C 
ENDROOT
BRANCH   1   2
ATOM      2  C   UNL     1       2.580   4.747   3.188  1.00  0.00     0.002 C 
BRANCH   2   3
ATOM      3  C   UNL     1       3.426   3.662   3.865  1.00  0.00     0.021 C 
BRANCH   3   4
ATOM      4  C   UNL     1       3.731   2.385   3.090  1.00  0.00     0.116 C 
BRANCH   4   5
ATOM      5  N   UNL     1       4.647   2.491   1.985  1.00  0.00    -0.352 N 
ATOM      6  C   UNL     1       5.468   1.562   1.388  1.00  0.00     0.251 C 
ATOM      7  O   UNL     1       6.004   1.933   0.336  1.00  0.00    -0.269 OA
ATOM      8  H   UNL     1       4.695   3.389   1.585  1.00  0.00     0.163 HD
BRANCH   6   9
ATOM      9  C   UNL     1       5.848   0.194   1.907  1.00  0.00     0.047 A 
ATOM     10  C   UNL     1       5.067  -0.792   2.566  1.00  0.00    -0.003 A 
ATOM     11  C   UNL     1       5.673  -2.043   2.869  1.00  0.00     0.048 A 
ATOM     12  C   UNL     1       6.988  -2.326   2.532  1.00  0.00     0.123 A 
ATOM     13  C   UNL     1       7.192  -0.144   1.579  1.00  0.00     0.017 A 
ATOM     14  F   UNL     1       7.507  -3.525   2.826  1.00  0.00    -0.207 F 
ATOM     15  C   UNL     1       7.758  -1.385   1.884  1.00  0.00     0.040 A 
BRANCH  10  16
ATOM     16  C   UNL     1       3.655  -0.679   2.960  1.00  0.00    -0.015 A 
ATOM     17  C   UNL     1       1.317  -0.257   2.418  1.00  0.00     0.041 A 
ATOM     18  C   UNL     1       1.002  -0.332   3.783  1.00  0.00     0.026 A 
ATOM     19  C   UNL     1       2.639  -0.468   2.013  1.00  0.00     0.034 A 
ATOM     20  C   UNL     1       1.985  -0.599   4.732  1.00  0.00     0.003 A 
ATOM     21  C   UNL     1       3.302  -0.773   4.321  1.00  0.00     0.009 A 
BRANCH  17  22
ATOM     22  N   UNL     1       0.294   0.203   1.569  1.00  0.00    -0.326 N 
ATOM     23  C   UNL     1       1.077  -0.483  -0.693  1.00  0.00     0.114 C 
ATOM     24  C   UNL     1       0.202   0.328   0.216  1.00  0.00     0.221 C 
ATOM     25  O   UNL     1      -0.643   1.096  -0.250  1.00  0.00    -0.275 OA
ATOM     26  H   UNL     1      -0.516   0.491   2.048  1.00  0.00     0.169 HD
ENDBRANCH  17  22
ENDBRANCH  10  16
ENDBRANCH   6   9
ENDBRANCH   4   5
ENDBRANCH   3   4
ENDBRANCH   2   3
ENDBRANCH   1   2
BRANCH   1  27
ATOM     27  C   UNL     1       0.307   3.420   3.260  1.00  0.00     0.021 C 
BRANCH  27  28
ATOM     28  C   UNL     1      -0.143   3.823   4.658  1.00  0.00     0.116 C 
BRANCH  28  29
ATOM     29  N   UNL     1      -0.991   4.997   4.666  1.00  0.00    -0.352 N 
ATOM     30  C   UNL     1      -2.244   5.199   5.192  1.00  0.00     0.251 C 
ATOM     31  H   UNL     1      -0.605   5.783   4.218  1.00  0.00     0.163 HD
ATOM     32  O   UNL     1      -2.813   6.263   4.948  1.00  0.00    -0.269 OA
BRANCH  30  33
ATOM     33  C   UNL     1      -2.935   4.186   6.037  1.00  0.00     0.039 A 
ATOM     34  C   UNL     1      -4.333   4.112   5.964  1.00  0.00     0.014 A 
ATOM     35  C   UNL     1      -2.264   3.389   6.969  1.00  0.00     0.014 A 
ATOM     36  C   UNL     1      -5.047   3.256   6.812  1.00  0.00     0.010 A 
ATOM     37  C   UNL     1      -2.972   2.479   7.763  1.00  0.00     0.010 A 
ATOM     38  C   UNL     1      -4.374   2.432   7.726  1.00  0.00    -0.014 A 
BRANCH  38  39
ATOM     39  C   UNL     1      -5.128   1.584   8.691  1.00  0.00     0.031 A 
ATOM     40  C   UNL     1      -5.037   1.852  10.173  1.00  0.00     0.074 A 
ATOM     41  C   UNL     1      -5.861   0.541   8.254  1.00  0.00     0.049 A 
ATOM     42  N   UNL     1      -5.621   1.227  11.165  1.00  0.00    -0.248 NA
ATOM     43  C   UNL     1      -4.150   2.945  10.599  1.00  0.00     0.031 C 
ATOM     44  C   UNL     1      -5.969   0.111   6.860  1.00  0.00     0.029 A 
ATOM     45  N   UNL     1      -6.633  -0.362   8.944  1.00  0.00    -0.354 N 
ATOM     46  C   UNL     1      -5.138   1.819  12.327  1.00  0.00     0.074 A 
ATOM     47  C   UNL     1      -4.186   2.828  11.918  1.00  0.00     0.031 C 
ATOM     48  C   UNL     1      -6.757  -0.975   6.797  1.00  0.00     0.029 A 
ATOM     49  C   UNL     1      -7.203  -1.325   8.144  1.00  0.00     0.049 A 
ATOM     50  H   UNL     1      -6.766  -0.324   9.918  1.00  0.00     0.167 HD
ATOM     51  C   UNL     1      -5.477   1.576  13.616  1.00  0.00     0.034 A 
ATOM     52  C   UNL     1      -8.000  -2.368   8.456  1.00  0.00     0.034 A 
ATOM     53  C   UNL     1      -6.471   0.619  14.023  1.00  0.00     0.049 A 
ATOM     54  C   UNL     1      -8.444  -2.559   9.880  1.00  0.00     0.074 A 
ATOM     55  C   UNL     1      -6.966   0.377  15.293  1.00  0.00     0.029 A 
ATOM     56  N   UNL     1      -7.123  -0.256  13.168  1.00  0.00    -0.354 N 
ATOM     57  N   UNL     1      -8.116  -1.870  10.946  1.00  0.00    -0.248 NA
ATOM     58  C   UNL     1      -9.410  -3.638  10.139  1.00  0.00     0.031 C 
ATOM     59  C   UNL     1      -7.908  -0.655  15.207  1.00  0.00     0.029 A 
ATOM     60  C   UNL     1      -8.013  -1.042  13.880  1.00  0.00     0.049 A 
ATOM     61  H   UNL     1      -6.975  -0.310  12.197  1.00  0.00     0.167 HD
ATOM     62  C   UNL     1      -8.857  -2.407  11.993  1.00  0.00     0.074 A 
ATOM     63  C   UNL     1      -9.667  -3.467  11.429  1.00  0.00     0.031 C 
ATOM     64  C   UNL     1      -8.856  -2.060  13.305  1.00  0.00     0.034 A 
BRANCH  51  65
ATOM     65  C   UNL     1      -4.801   2.405  14.680  1.00  0.00     0.023 A 
ATOM     66  C   UNL     1      -5.119   3.774  14.802  1.00  0.00     0.012 A 
ATOM     67  C   UNL     1      -3.873   1.831  15.570  1.00  0.00     0.148 A 
ATOM     68  C   UNL     1      -4.487   4.569  15.758  1.00  0.00     0.002 A 
ATOM     69  C   UNL     1      -3.282   2.621  16.551  1.00  0.00     0.091 A 
ATOM     70  F   UNL     1      -3.562   0.535  15.428  1.00  0.00    -0.205 F 
ATOM     71  C   UNL     1      -3.576   3.991  16.638  1.00  0.00     0.022 A 
BRANCH  69  72
ATOM     72  S   UNL     1      -2.157   1.941  17.776  1.00  0.00     0.127 S 
ATOM     73  O   UNL     1      -0.856   2.324  17.229  1.00  0.00    -0.237 OA
ATOM     74  O   UNL     1      -2.542   2.661  18.991  1.00  0.00    -0.237 OA
ATOM     75  O   UNL     1      -2.433   0.511  17.813  1.00  0.00    -0.744 OA
ENDBRANCH  69  72
ENDBRANCH  51  65
BRANCH  52  76
ATOM     76  C   UNL     1      -8.496  -3.254   7.366  1.00  0.00     0.023 A 
ATOM     77  C   UNL     1      -9.840  -3.161   6.954  1.00  0.00     0.012 A 
ATOM     78  C   UNL     1      -7.628  -4.133   6.691  1.00  0.00     0.148 A 
ATOM     79  C   UNL     1     -10.315  -3.942   5.900  1.00  0.00     0.002 A 
ATOM     80  C   UNL     1      -8.094  -4.868   5.607  1.00  0.00     0.091 A 
ATOM     81  F   UNL     1      -6.356  -4.211   7.106  1.00  0.00    -0.205 F 
ATOM     82  C   UNL     1      -9.440  -4.785   5.219  1.00  0.00     0.022 A 
BRANCH  80  83
ATOM     83  S   UNL     1      -7.012  -5.873   4.584  1.00  0.00     0.127 S 
ATOM     84  O   UNL     1      -7.485  -7.222   4.883  1.00  0.00    -0.237 OA
ATOM     85  O   UNL     1      -7.332  -5.389   3.242  1.00  0.00    -0.237 OA
ATOM     86  O   UNL     1      -5.656  -5.569   5.026  1.00  0.00    -0.744 OA
ENDBRANCH  80  83
ENDBRANCH  52  76
BRANCH  64  87
ATOM     87  C   UNL     1      -9.780  -2.809  14.230  1.00  0.00     0.023 A 
ATOM     88  C   UNL     1      -9.483  -4.138  14.592  1.00  0.00     0.012 A 
ATOM     89  C   UNL     1     -10.900  -2.173  14.800  1.00  0.00     0.148 A 
ATOM     90  C   UNL     1     -10.305  -4.832  15.480  1.00  0.00     0.002 A 
ATOM     91  C   UNL     1     -11.689  -2.856  15.720  1.00  0.00     0.091 A 
ATOM     92  F   UNL     1     -11.182  -0.915  14.429  1.00  0.00    -0.205 F 
ATOM     93  C   UNL     1     -11.399  -4.189  16.052  1.00  0.00     0.022 A 
BRANCH  91  94
ATOM     94  S   UNL     1     -13.059  -2.066  16.573  1.00  0.00     0.127 S 
ATOM     95  O   UNL     1     -14.208  -2.567  15.821  1.00  0.00    -0.237 OA
ATOM     96  O   UNL     1     -12.938  -2.602  17.929  1.00  0.00    -0.237 OA
ATOM     97  O   UNL     1     -12.813  -0.634  16.471  1.00  0.00    -0.744 OA
ENDBRANCH  91  94
ENDBRANCH  64  87
ENDBRANCH  38  39
ENDBRANCH  30  33
ENDBRANCH  28  29
ENDBRANCH  27  28
ENDBRANCH   1  27
TORSDOF 18
