REMARK SMILES O=C(COc1cc(-c2ccccc2)nc(Nc2ccccc2Br)n1)NCCCCCCNC(=O)c1ccc(-c2c3nc(c(-c4cccc(S(=O)(=O)[O-])c4F)c4ccc([nH]4)c(-c4cccc(S(=O)(=O)[O-])c4F)c4nc(c(-c5cccc(S(=O)(=O)[O-])c5F)c5ccc2[nH]5)C=C4)C=C3)cc1
REMARK SMILES IDX 28 1 27 2 26 3 25 4 1 5 2 6 3 8 4 9 5 10 6 11 24 12 7 13
REMARK SMILES IDX 15 14 14 15 8 16 9 17 13 18 10 19 12 20 11 21 16 22 17 24
REMARK SMILES IDX 18 25 22 26 19 27 21 28 23 29 20 30 29 31 30 32 31 33 32 34
REMARK SMILES IDX 33 35 34 37 35 38 36 39 97 40 37 41 96 42 38 43 39 44 40 45
REMARK SMILES IDX 90 46 41 47 95 48 89 49 91 50 42 51 94 52 88 53 87 54 43 56
REMARK SMILES IDX 75 57 55 58 74 59 56 60 59 61 73 62 92 63 57 64 58 65 72 67
REMARK SMILES IDX 93 68 60 69 44 70 45 71 53 72 46 73 48 74 54 75 47 76 49 77
REMARK SMILES IDX 50 78 51 79 52 80 76 81 77 82 85 83 78 84 80 85 86 86 79 87
REMARK SMILES IDX 81 88 82 89 83 90 84 91 61 92 62 93 70 94 63 95 65 96 71 97
REMARK SMILES IDX 64 98 66 99 67 100 68 101 69 102
REMARK H PARENT 25 7 16 23 32 36 91 55 59 66
REMARK Flexibility Score: inf
ROOT
ATOM      1  C   UNL     1       4.304   3.492   1.382  1.00  0.00     0.002 C 
ENDROOT
BRANCH   1   2
ATOM      2  C   UNL     1       2.808   3.177   1.501  1.00  0.00     0.021 C 
BRANCH   2   3
ATOM      3  C   UNL     1       2.236   2.393   0.327  1.00  0.00     0.116 C 
BRANCH   3   4
ATOM      4  N   UNL     1       2.909   1.124   0.137  1.00  0.00    -0.353 N 
ATOM      5  O   UNL     1       1.179  -0.230   0.828  1.00  0.00    -0.271 OA
ATOM      6  C   UNL     1       2.287  -0.094   0.321  1.00  0.00     0.258 C 
ATOM      7  H   UNL     1       3.855   1.131  -0.135  1.00  0.00     0.163 HD
BRANCH   6   8
ATOM      8  C   UNL     1       3.101  -1.282  -0.203  1.00  0.00     0.331 C 
BRANCH   8   9
ATOM      9  O   UNL     1       3.941  -0.965  -1.313  1.00  0.00    -0.467 OA
BRANCH   9  10
ATOM     10  C   UNL     1       3.267  -1.000  -2.510  1.00  0.00     0.219 A 
ATOM     11  C   UNL     1       2.305  -0.076  -2.813  1.00  0.00     0.097 A 
ATOM     12  N   UNL     1       3.720  -1.894  -3.393  1.00  0.00    -0.177 NA
ATOM     13  C   UNL     1       1.792  -0.117  -4.087  1.00  0.00     0.080 A 
ATOM     14  C   UNL     1       3.157  -1.887  -4.612  1.00  0.00     0.231 A 
ATOM     15  N   UNL     1       2.205  -1.020  -4.997  1.00  0.00    -0.212 NA
BRANCH  13  16
ATOM     16  C   UNL     1       0.764   0.852  -4.491  1.00  0.00     0.000 A 
ATOM     17  C   UNL     1      -0.479   0.428  -4.982  1.00  0.00     0.010 A 
ATOM     18  C   UNL     1       0.967   2.233  -4.301  1.00  0.00     0.010 A 
ATOM     19  C   UNL     1      -1.496   1.352  -5.243  1.00  0.00     0.001 A 
ATOM     20  C   UNL     1      -0.046   3.156  -4.566  1.00  0.00     0.001 A 
ATOM     21  C   UNL     1      -1.280   2.713  -5.029  1.00  0.00     0.000 A 
ENDBRANCH  13  16
BRANCH  14  22
ATOM     22  N   UNL     1       3.608  -2.765  -5.594  1.00  0.00    -0.323 N 
ATOM     23  H   UNL     1       3.241  -2.611  -6.495  1.00  0.00     0.170 HD
BRANCH  22  24
ATOM     24  C   UNL     1       4.505  -3.833  -5.489  1.00  0.00     0.055 A 
ATOM     25  C   UNL     1       5.641  -3.823  -6.316  1.00  0.00     0.027 A 
ATOM     26  C   UNL     1       4.373  -4.889  -4.566  1.00  0.00     0.041 A 
ATOM     27  C   UNL     1       6.621  -4.816  -6.219  1.00  0.00     0.002 A 
ATOM     28  C   UNL     1       5.354  -5.885  -4.472  1.00  0.00     0.018 A 
ATOM     29  Br  UNL     1       2.815  -5.129  -3.497  1.00  0.00    -0.049 Br
ATOM     30  C   UNL     1       6.479  -5.845  -5.293  1.00  0.00     0.001 A 
ENDBRANCH  22  24
ENDBRANCH  14  22
ENDBRANCH   9  10
ENDBRANCH   8   9
ENDBRANCH   6   8
ENDBRANCH   3   4
ENDBRANCH   2   3
ENDBRANCH   1   2
BRANCH   1  31
ATOM     31  C   UNL     1       4.711   4.312   0.154  1.00  0.00     0.002 C 
BRANCH  31  32
ATOM     32  C   UNL     1       4.018   5.668   0.011  1.00  0.00     0.021 C 
BRANCH  32  33
ATOM     33  C   UNL     1       4.170   6.600   1.210  1.00  0.00     0.116 C 
BRANCH  33  34
ATOM     34  N   UNL     1       5.557   6.960   1.464  1.00  0.00    -0.352 N 
ATOM     35  C   UNL     1       6.109   8.203   1.656  1.00  0.00     0.251 C 
ATOM     36  H   UNL     1       6.189   6.207   1.504  1.00  0.00     0.163 HD
ATOM     37  O   UNL     1       7.331   8.333   1.696  1.00  0.00    -0.269 OA
BRANCH  35  38
ATOM     38  C   UNL     1       5.233   9.387   1.791  1.00  0.00     0.039 A 
ATOM     39  C   UNL     1       5.553  10.551   1.086  1.00  0.00     0.014 A 
ATOM     40  C   UNL     1       4.095   9.350   2.602  1.00  0.00     0.014 A 
ATOM     41  C   UNL     1       4.698  11.654   1.146  1.00  0.00     0.010 A 
ATOM     42  C   UNL     1       3.205  10.421   2.597  1.00  0.00     0.010 A 
ATOM     43  C   UNL     1       3.498  11.586   1.874  1.00  0.00    -0.014 A 
BRANCH  43  44
ATOM     44  C   UNL     1       2.532  12.716   1.876  1.00  0.00     0.031 A 
ATOM     45  C   UNL     1       2.185  13.421   3.160  1.00  0.00     0.074 A 
ATOM     46  C   UNL     1       1.901  13.053   0.734  1.00  0.00     0.049 A 
ATOM     47  N   UNL     1       1.330  14.389   3.363  1.00  0.00    -0.248 NA
ATOM     48  C   UNL     1       2.868  12.959   4.380  1.00  0.00     0.031 C 
ATOM     49  C   UNL     1       2.089  12.397  -0.562  1.00  0.00     0.029 A 
ATOM     50  N   UNL     1       0.952  14.014   0.483  1.00  0.00    -0.354 N 
ATOM     51  C   UNL     1       1.345  14.629   4.732  1.00  0.00     0.074 A 
ATOM     52  C   UNL     1       2.267  13.679   5.316  1.00  0.00     0.031 C 
ATOM     53  C   UNL     1       1.288  12.976  -1.470  1.00  0.00     0.029 A 
ATOM     54  C   UNL     1       0.502  14.019  -0.817  1.00  0.00     0.049 A 
ATOM     55  H   UNL     1       0.624  14.639   1.169  1.00  0.00     0.167 HD
ATOM     56  C   UNL     1       0.673  15.569   5.439  1.00  0.00     0.034 A 
ATOM     57  C   UNL     1      -0.444  14.769  -1.416  1.00  0.00     0.034 A 
ATOM     58  C   UNL     1      -0.220  16.532   4.852  1.00  0.00     0.049 A 
ATOM     59  C   UNL     1      -1.156  15.825  -0.617  1.00  0.00     0.074 A 
ATOM     60  C   UNL     1      -0.880  17.581   5.468  1.00  0.00     0.029 A 
ATOM     61  N   UNL     1      -0.594  16.555   3.517  1.00  0.00    -0.354 N 
ATOM     62  N   UNL     1      -1.011  16.141   0.647  1.00  0.00    -0.248 NA
ATOM     63  C   UNL     1      -2.136  16.654  -1.333  1.00  0.00     0.031 C 
ATOM     64  C   UNL     1      -1.681  18.215   4.513  1.00  0.00     0.029 A 
ATOM     65  C   UNL     1      -1.487  17.590   3.292  1.00  0.00     0.049 A 
ATOM     66  H   UNL     1      -0.271  15.929   2.829  1.00  0.00     0.167 HD
ATOM     67  C   UNL     1      -1.851  17.227   0.869  1.00  0.00     0.074 A 
ATOM     68  C   UNL     1      -2.488  17.526  -0.398  1.00  0.00     0.031 C 
ATOM     69  C   UNL     1      -2.080  17.908   2.018  1.00  0.00     0.034 A 
BRANCH  56  70
ATOM     70  C   UNL     1       0.908  15.627   6.927  1.00  0.00     0.023 A 
ATOM     71  C   UNL     1       2.156  16.058   7.423  1.00  0.00     0.012 A 
ATOM     72  C   UNL     1      -0.119  15.303   7.835  1.00  0.00     0.148 A 
ATOM     73  C   UNL     1       2.393  16.124   8.795  1.00  0.00     0.002 A 
ATOM     74  C   UNL     1       0.109  15.419   9.202  1.00  0.00     0.091 A 
ATOM     75  F   UNL     1      -1.293  14.877   7.349  1.00  0.00    -0.205 F 
ATOM     76  C   UNL     1       1.367  15.815   9.683  1.00  0.00     0.022 A 
BRANCH  74  77
ATOM     77  S   UNL     1      -1.172  15.126  10.426  1.00  0.00     0.127 S 
ATOM     78  O   UNL     1      -0.714  13.880  11.039  1.00  0.00    -0.237 OA
ATOM     79  O   UNL     1      -1.055  16.306  11.283  1.00  0.00    -0.237 OA
ATOM     80  O   UNL     1      -2.423  15.034   9.686  1.00  0.00    -0.744 OA
ENDBRANCH  74  77
ENDBRANCH  56  70
BRANCH  57  81
ATOM     81  C   UNL     1      -0.730  14.582  -2.867  1.00  0.00     0.023 A 
ATOM     82  C   UNL     1      -0.356  15.584  -3.783  1.00  0.00     0.012 A 
ATOM     83  C   UNL     1      -1.341  13.407  -3.346  1.00  0.00     0.148 A 
ATOM     84  C   UNL     1      -0.614  15.434  -5.146  1.00  0.00     0.002 A 
ATOM     85  C   UNL     1      -1.542  13.238  -4.710  1.00  0.00     0.091 A 
ATOM     86  F   UNL     1      -1.696  12.469  -2.456  1.00  0.00    -0.205 F 
ATOM     87  C   UNL     1      -1.196  14.258  -5.611  1.00  0.00     0.022 A 
BRANCH  85  88
ATOM     88  S   UNL     1      -2.161  11.705  -5.412  1.00  0.00     0.127 S 
ATOM     89  O   UNL     1      -3.467  12.115  -5.922  1.00  0.00    -0.237 OA
ATOM     90  O   UNL     1      -1.159  11.419  -6.439  1.00  0.00    -0.237 OA
ATOM     91  O   UNL     1      -2.185  10.748  -4.314  1.00  0.00    -0.744 OA
ENDBRANCH  85  88
ENDBRANCH  57  81
BRANCH  69  92
ATOM     92  C   UNL     1      -3.029  19.078   1.963  1.00  0.00     0.023 A 
ATOM     93  C   UNL     1      -4.412  18.860   1.802  1.00  0.00     0.012 A 
ATOM     94  C   UNL     1      -2.553  20.392   2.145  1.00  0.00     0.148 A 
ATOM     95  C   UNL     1      -5.301  19.934   1.789  1.00  0.00     0.002 A 
ATOM     96  C   UNL     1      -3.450  21.452   2.184  1.00  0.00     0.091 A 
ATOM     97  F   UNL     1      -1.232  20.580   2.279  1.00  0.00    -0.205 F 
ATOM     98  C   UNL     1      -4.823  21.227   1.992  1.00  0.00     0.022 A 
BRANCH  96  99
ATOM     99  S   UNL     1      -2.938  23.136   2.540  1.00  0.00     0.127 S 
ATOM    100  O   UNL     1      -3.128  23.785   1.243  1.00  0.00    -0.237 OA
ATOM    101  O   UNL     1      -3.895  23.539   3.570  1.00  0.00    -0.237 OA
ATOM    102  O   UNL     1      -1.558  23.050   2.997  1.00  0.00    -0.744 OA
ENDBRANCH  96  99
ENDBRANCH  69  92
ENDBRANCH  43  44
ENDBRANCH  35  38
ENDBRANCH  33  34
ENDBRANCH  32  33
ENDBRANCH  31  32
ENDBRANCH   1  31
TORSDOF 21
