REMARK SMILES CS(=O)(=O)c1ccc(-c2cc(Cl)cnc2-c2ccc(C(=O)NCCCCCCNC(=O)c3ccc(-c4c5nc(c(-c6cccc(S(=O)(=O)[O-])c6F)c6ccc([nH]6)c(-c6cccc(S(=O)(=O)[O-])c6F)c6nc(c(-c7cccc(S(=O)(=O)[O-])c7F)c7ccc4[nH]7)C=C6)C=C5)cc3)nc2)cc1
REMARK SMILES IDX 25 1 24 2 23 3 22 4 20 5 21 6 19 8 16 9 17 10 96 11 18 12
REMARK SMILES IDX 95 13 15 14 9 15 10 16 11 17 14 18 12 19 13 20 8 21 5 22
REMARK SMILES IDX 6 23 98 24 7 25 97 26 2 27 1 28 3 29 4 30 26 31 27 32 28 33
REMARK SMILES IDX 29 34 30 35 31 37 32 38 33 39 94 40 34 41 93 42 35 43 36 44
REMARK SMILES IDX 37 45 87 46 38 47 92 48 86 49 88 50 39 51 91 52 85 53 84 54
REMARK SMILES IDX 40 56 72 57 52 58 71 59 53 60 56 61 70 62 89 63 54 64 55 65
REMARK SMILES IDX 69 67 90 68 57 69 41 70 42 71 50 72 43 73 45 74 51 75 44 76
REMARK SMILES IDX 46 77 47 78 48 79 49 80 73 81 74 82 82 83 75 84 77 85 83 86
REMARK SMILES IDX 76 87 78 88 79 89 80 90 81 91 58 92 59 93 67 94 60 95 62 96
REMARK SMILES IDX 68 97 61 98 63 99 64 100 65 101 66 102
REMARK H PARENT 22 7 29 36 88 55 56 66
REMARK Flexibility Score: inf
ROOT
ATOM      1  C   UNL     1       8.593  -0.409   0.211  1.00  0.00     0.002 C 
ENDROOT
BRANCH   1   2
ATOM      2  C   UNL     1       7.681  -0.006   1.379  1.00  0.00     0.021 C 
BRANCH   2   3
ATOM      3  C   UNL     1       6.281  -0.619   1.304  1.00  0.00     0.116 C 
BRANCH   3   4
ATOM      4  N   UNL     1       6.316  -2.005   1.733  1.00  0.00    -0.351 N 
ATOM      5  C   UNL     1       5.955  -2.636   2.903  1.00  0.00     0.269 C 
ATOM      6  O   UNL     1       6.118  -3.858   2.936  1.00  0.00    -0.268 OA
ATOM      7  H   UNL     1       6.669  -2.618   1.049  1.00  0.00     0.163 HD
BRANCH   5   8
ATOM      8  C   UNL     1       5.338  -1.929   4.080  1.00  0.00     0.128 A 
ATOM      9  C   UNL     1       3.936  -0.783   6.180  1.00  0.00     0.019 A 
ATOM     10  C   UNL     1       4.835  -0.015   5.435  1.00  0.00     0.014 A 
ATOM     11  C   UNL     1       3.865  -2.134   5.868  1.00  0.00     0.122 A 
ATOM     12  C   UNL     1       5.567  -0.597   4.397  1.00  0.00     0.035 A 
ATOM     13  N   UNL     1       4.515  -2.712   4.830  1.00  0.00    -0.250 NA
BRANCH   9  14
ATOM     14  C   UNL     1       3.063  -0.184   7.190  1.00  0.00     0.080 A 
ATOM     15  C   UNL     1       1.919   0.571   6.848  1.00  0.00     0.010 A 
ATOM     16  C   UNL     1       1.200   1.158   7.901  1.00  0.00     0.033 A 
ATOM     17  C   UNL     1       1.612   0.970   9.215  1.00  0.00     0.060 A 
ATOM     18  N   UNL     1       3.462  -0.395   8.473  1.00  0.00    -0.254 NA
ATOM     19  Cl  UNL     1       0.745   1.679  10.515  1.00  0.00    -0.083 Cl
ATOM     20  C   UNL     1       2.732   0.191   9.451  1.00  0.00     0.132 A 
BRANCH  15  21
ATOM     21  C   UNL     1       1.466   0.745   5.455  1.00  0.00    -0.016 A 
ATOM     22  C   UNL     1       0.667   1.054   2.778  1.00  0.00     0.067 A 
ATOM     23  C   UNL     1       0.631  -0.209   3.366  1.00  0.00     0.021 A 
ATOM     24  C   UNL     1       1.078   2.168   3.513  1.00  0.00     0.021 A 
ATOM     25  C   UNL     1       1.026  -0.357   4.698  1.00  0.00     0.010 A 
ATOM     26  C   UNL     1       1.471   2.011   4.846  1.00  0.00     0.010 A 
BRANCH  22  27
ATOM     27  S   UNL     1       0.169   1.254   1.083  1.00  0.00     0.175 S 
ATOM     28  C   UNL     1       1.044  -0.001   0.188  1.00  0.00     0.163 C 
ATOM     29  O   UNL     1       0.680   2.528   0.631  1.00  0.00    -0.224 OA
ATOM     30  O   UNL     1      -1.249   0.938   1.033  1.00  0.00    -0.224 OA
ENDBRANCH  22  27
ENDBRANCH  15  21
ENDBRANCH   9  14
ENDBRANCH   5   8
ENDBRANCH   3   4
ENDBRANCH   2   3
ENDBRANCH   1   2
BRANCH   1  31
ATOM     31  C   UNL     1       8.125   0.060  -1.172  1.00  0.00     0.002 C 
BRANCH  31  32
ATOM     32  C   UNL     1       7.852   1.562  -1.297  1.00  0.00     0.021 C 
BRANCH  32  33
ATOM     33  C   UNL     1       9.055   2.458  -1.008  1.00  0.00     0.116 C 
BRANCH  33  34
ATOM     34  N   UNL     1      10.127   2.252  -1.968  1.00  0.00    -0.352 N 
ATOM     35  C   UNL     1      10.785   3.169  -2.749  1.00  0.00     0.251 C 
ATOM     36  H   UNL     1      10.423   1.319  -2.074  1.00  0.00     0.163 HD
ATOM     37  O   UNL     1      11.517   2.780  -3.656  1.00  0.00    -0.269 OA
BRANCH  35  38
ATOM     38  C   UNL     1      10.610   4.618  -2.509  1.00  0.00     0.039 A 
ATOM     39  C   UNL     1      10.450   5.470  -3.606  1.00  0.00     0.014 A 
ATOM     40  C   UNL     1      10.640   5.143  -1.213  1.00  0.00     0.014 A 
ATOM     41  C   UNL     1      10.277   6.841  -3.401  1.00  0.00     0.010 A 
ATOM     42  C   UNL     1      10.405   6.501  -1.007  1.00  0.00     0.010 A 
ATOM     43  C   UNL     1      10.232   7.365  -2.099  1.00  0.00    -0.014 A 
BRANCH  43  44
ATOM     44  C   UNL     1       9.997   8.813  -1.865  1.00  0.00     0.031 A 
ATOM     45  C   UNL     1      11.064   9.670  -1.240  1.00  0.00     0.074 A 
ATOM     46  C   UNL     1       8.790   9.342  -2.149  1.00  0.00     0.049 A 
ATOM     47  N   UNL     1      11.030  10.945  -0.948  1.00  0.00    -0.248 NA
ATOM     48  C   UNL     1      12.325   9.005  -0.870  1.00  0.00     0.031 C 
ATOM     49  C   UNL     1       7.644   8.596  -2.674  1.00  0.00     0.029 A 
ATOM     50  N   UNL     1       8.319  10.623  -2.015  1.00  0.00    -0.354 N 
ATOM     51  C   UNL     1      12.244  11.228  -0.333  1.00  0.00     0.074 A 
ATOM     52  C   UNL     1      12.981   9.985  -0.264  1.00  0.00     0.031 C 
ATOM     53  C   UNL     1       6.605   9.434  -2.820  1.00  0.00     0.029 A 
ATOM     54  C   UNL     1       7.003  10.769  -2.387  1.00  0.00     0.049 A 
ATOM     55  H   UNL     1       8.871  11.368  -1.682  1.00  0.00     0.167 HD
ATOM     56  C   UNL     1      12.717  12.419   0.103  1.00  0.00     0.034 A 
ATOM     57  C   UNL     1       6.209  11.858  -2.386  1.00  0.00     0.034 A 
ATOM     58  C   UNL     1      12.005  13.663  -0.017  1.00  0.00     0.049 A 
ATOM     59  C   UNL     1       6.782  13.182  -1.960  1.00  0.00     0.074 A 
ATOM     60  C   UNL     1      12.438  14.938   0.304  1.00  0.00     0.029 A 
ATOM     61  N   UNL     1      10.710  13.789  -0.495  1.00  0.00    -0.354 N 
ATOM     62  N   UNL     1       7.994  13.460  -1.546  1.00  0.00    -0.248 NA
ATOM     63  C   UNL     1       5.891  14.349  -2.039  1.00  0.00     0.031 C 
ATOM     64  C   UNL     1      11.399  15.834   0.029  1.00  0.00     0.029 A 
ATOM     65  C   UNL     1      10.325  15.118  -0.475  1.00  0.00     0.049 A 
ATOM     66  H   UNL     1      10.147  13.043  -0.804  1.00  0.00     0.167 HD
ATOM     67  C   UNL     1       8.023  14.835  -1.347  1.00  0.00     0.074 A 
ATOM     68  C   UNL     1       6.712  15.337  -1.708  1.00  0.00     0.031 C 
ATOM     69  C   UNL     1       9.036  15.611  -0.890  1.00  0.00     0.034 A 
BRANCH  56  70
ATOM     70  C   UNL     1      14.104  12.449   0.690  1.00  0.00     0.023 A 
ATOM     71  C   UNL     1      15.217  12.308  -0.164  1.00  0.00     0.012 A 
ATOM     72  C   UNL     1      14.313  12.674   2.065  1.00  0.00     0.148 A 
ATOM     73  C   UNL     1      16.515  12.359   0.344  1.00  0.00     0.002 A 
ATOM     74  C   UNL     1      15.610  12.764   2.558  1.00  0.00     0.091 A 
ATOM     75  F   UNL     1      13.243  12.783   2.866  1.00  0.00    -0.205 F 
ATOM     76  C   UNL     1      16.711  12.597   1.701  1.00  0.00     0.022 A 
BRANCH  74  77
ATOM     77  S   UNL     1      15.966  13.141   4.278  1.00  0.00     0.127 S 
ATOM     78  O   UNL     1      16.397  11.838   4.782  1.00  0.00    -0.237 OA
ATOM     79  O   UNL     1      17.035  14.134   4.164  1.00  0.00    -0.237 OA
ATOM     80  O   UNL     1      14.724  13.653   4.839  1.00  0.00    -0.744 OA
ENDBRANCH  74  77
ENDBRANCH  56  70
BRANCH  57  81
ATOM     81  C   UNL     1       4.811  11.753  -2.889  1.00  0.00     0.023 A 
ATOM     82  C   UNL     1       4.482  12.329  -4.132  1.00  0.00     0.012 A 
ATOM     83  C   UNL     1       3.822  11.055  -2.171  1.00  0.00     0.148 A 
ATOM     84  C   UNL     1       3.185  12.234  -4.638  1.00  0.00     0.002 A 
ATOM     85  C   UNL     1       2.546  10.920  -2.705  1.00  0.00     0.091 A 
ATOM     86  F   UNL     1       4.152  10.528  -0.983  1.00  0.00    -0.205 F 
ATOM     87  C   UNL     1       2.221  11.521  -3.932  1.00  0.00     0.022 A 
BRANCH  85  88
ATOM     88  S   UNL     1       1.285   9.907  -1.925  1.00  0.00     0.127 S 
ATOM     89  O   UNL     1       0.400  10.918  -1.355  1.00  0.00    -0.237 OA
ATOM     90  O   UNL     1       0.733   9.175  -3.066  1.00  0.00    -0.237 OA
ATOM     91  O   UNL     1       1.999   9.071  -0.968  1.00  0.00    -0.744 OA
ENDBRANCH  85  88
ENDBRANCH  57  81
BRANCH  69  92
ATOM     92  C   UNL     1       8.785  17.090  -0.773  1.00  0.00     0.023 A 
ATOM     93  C   UNL     1       7.973  17.577   0.270  1.00  0.00     0.012 A 
ATOM     94  C   UNL     1       9.410  18.001  -1.647  1.00  0.00     0.148 A 
ATOM     95  C   UNL     1       7.765  18.947   0.426  1.00  0.00     0.002 A 
ATOM     96  C   UNL     1       9.234  19.367  -1.458  1.00  0.00     0.091 A 
ATOM     97  F   UNL     1      10.162  17.517  -2.647  1.00  0.00    -0.205 F 
ATOM     98  C   UNL     1       8.404  19.841  -0.430  1.00  0.00     0.022 A 
BRANCH  96  99
ATOM     99  S   UNL     1      10.092  20.589  -2.457  1.00  0.00     0.127 S 
ATOM    100  O   UNL     1       9.032  21.037  -3.358  1.00  0.00    -0.237 OA
ATOM    101  O   UNL     1      10.502  21.578  -1.459  1.00  0.00    -0.237 OA
ATOM    102  O   UNL     1      11.198  19.880  -3.088  1.00  0.00    -0.744 OA
ENDBRANCH  96  99
ENDBRANCH  69  92
ENDBRANCH  43  44
ENDBRANCH  35  38
ENDBRANCH  33  34
ENDBRANCH  32  33
ENDBRANCH  31  32
ENDBRANCH   1  31
TORSDOF 19
