REMARK SMILES CC(C)CN(C)c1cc2c(cc1Cl)C=C(C(=O)NCCCCCCNC(=O)c1ccc(-c3c4nc(c(-c5cccc(S(=O)(=O)[O-])c5F)c5ccc([nH]5)c(-c5cccc(S(=O)(=O)[O-])c5F)c5nc(c(-c6cccc(S(=O)(=O)[O-])c6F)c6ccc3[nH]6)C=C5)C=C4)cc1)[C@@H](C(F)(F)F)O2
REMARK SMILES IDX 21 1 20 2 19 3 18 4 16 5 17 6 15 8 7 9 8 10 12 11 9 12 11 13
REMARK SMILES IDX 13 14 10 15 96 16 14 17 91 18 5 19 6 20 4 21 2 22 1 23 3 24
REMARK SMILES IDX 92 25 93 26 94 27 95 28 22 29 23 30 24 31 25 32 26 33 27 35
REMARK SMILES IDX 28 36 29 37 90 38 30 39 89 40 31 41 32 42 33 43 83 44 34 45
REMARK SMILES IDX 88 46 82 47 84 48 35 49 87 50 81 51 80 52 36 54 68 55 48 56
REMARK SMILES IDX 67 57 49 58 52 59 66 60 85 61 50 62 51 63 65 65 86 66 53 67
REMARK SMILES IDX 37 68 38 69 46 70 39 71 41 72 47 73 40 74 42 75 43 76 44 77
REMARK SMILES IDX 45 78 69 79 70 80 78 81 71 82 73 83 79 84 72 85 74 86 75 87
REMARK SMILES IDX 76 88 77 89 54 90 55 91 63 92 56 93 58 94 64 95 57 96 59 97
REMARK SMILES IDX 60 98 61 99 62 100
REMARK H PARENT 18 7 25 34 84 53 52 64
REMARK Flexibility Score: inf
ROOT
ATOM      1  C   UNL     1      -3.693  -2.013  10.352  1.00  0.00     0.002 C 
ENDROOT
BRANCH   1   2
ATOM      2  C   UNL     1      -3.830  -1.654   8.869  1.00  0.00     0.021 C 
BRANCH   2   3
ATOM      3  C   UNL     1      -3.067  -0.396   8.465  1.00  0.00     0.116 C 
BRANCH   3   4
ATOM      4  N   UNL     1      -1.664  -0.686   8.231  1.00  0.00    -0.352 N 
ATOM      5  C   UNL     1      -0.774  -0.519   7.228  1.00  0.00     0.251 C 
ATOM      6  O   UNL     1       0.376  -0.896   7.477  1.00  0.00    -0.270 OA
ATOM      7  H   UNL     1      -1.250  -1.119   9.012  1.00  0.00     0.163 HD
BRANCH   5   8
ATOM      8  C   UNL     1      -1.082   0.060   5.891  1.00  0.00     0.067 C 
ATOM      9  C   UNL     1      -0.796   1.595   1.087  1.00  0.00     0.059 A 
ATOM     10  C   UNL     1      -1.818   1.077   1.899  1.00  0.00     0.074 A 
ATOM     11  C   UNL     1       0.470   1.800   1.681  1.00  0.00     0.065 A 
ATOM     12  C   UNL     1      -1.564   0.728   3.222  1.00  0.00     0.130 A 
ATOM     13  C   UNL     1       0.741   1.362   2.983  1.00  0.00     0.034 A 
ATOM     14  Cl  UNL     1       1.756   2.604   0.846  1.00  0.00    -0.082 Cl
ATOM     15  C   UNL     1      -0.276   0.802   3.749  1.00  0.00     0.019 A 
ATOM     16  O   UNL     1      -2.623   0.285   3.966  1.00  0.00    -0.475 OA
ATOM     17  C   UNL     1      -0.027   0.255   5.077  1.00  0.00     0.025 C 
ATOM     18  C   UNL     1      -2.453   0.444   5.405  1.00  0.00     0.314 C 
BRANCH   9  19
ATOM     19  N   UNL     1      -1.035   1.841  -0.276  1.00  0.00    -0.373 N 
ATOM     20  C   UNL     1      -2.117   2.786  -0.553  1.00  0.00     0.143 C 
BRANCH  19  21
ATOM     21  C   UNL     1      -0.958   0.660  -1.163  1.00  0.00     0.119 C 
BRANCH  21  22
ATOM     22  C   UNL     1       0.496   0.242  -1.472  1.00  0.00     0.002 C 
ATOM     23  C   UNL     1       1.006  -0.848  -0.523  1.00  0.00     0.009 C 
ATOM     24  C   UNL     1       0.631  -0.262  -2.912  1.00  0.00     0.009 C 
ENDBRANCH  21  22
ENDBRANCH  19  21
ENDBRANCH   9  19
BRANCH  18  25
ATOM     25  C   UNL     1      -2.835   1.872   5.853  1.00  0.00     0.429 C 
ATOM     26  F   UNL     1      -4.163   2.087   5.697  1.00  0.00    -0.167 F 
ATOM     27  F   UNL     1      -2.561   2.084   7.164  1.00  0.00    -0.167 F 
ATOM     28  F   UNL     1      -2.182   2.834   5.162  1.00  0.00    -0.167 F 
ENDBRANCH  18  25
ENDBRANCH   5   8
ENDBRANCH   3   4
ENDBRANCH   2   3
ENDBRANCH   1   2
BRANCH   1  29
ATOM     29  C   UNL     1      -4.128  -0.917  11.334  1.00  0.00     0.002 C 
BRANCH  29  30
ATOM     30  C   UNL     1      -5.494  -0.288  11.054  1.00  0.00     0.021 C 
BRANCH  30  31
ATOM     31  C   UNL     1      -6.652  -1.277  11.008  1.00  0.00     0.116 C 
BRANCH  31  32
ATOM     32  N   UNL     1      -6.861  -1.944  12.283  1.00  0.00    -0.352 N 
ATOM     33  C   UNL     1      -8.017  -2.052  13.018  1.00  0.00     0.251 C 
ATOM     34  H   UNL     1      -6.067  -2.377  12.672  1.00  0.00     0.163 HD
ATOM     35  O   UNL     1      -7.983  -2.505  14.158  1.00  0.00    -0.269 OA
BRANCH  33  36
ATOM     36  C   UNL     1      -9.289  -1.585  12.429  1.00  0.00     0.039 A 
ATOM     37  C   UNL     1      -9.636  -1.950  11.126  1.00  0.00     0.014 A 
ATOM     38  C   UNL     1     -10.117  -0.740  13.171  1.00  0.00     0.014 A 
ATOM     39  C   UNL     1     -10.725  -1.344  10.511  1.00  0.00     0.010 A 
ATOM     40  C   UNL     1     -11.259  -0.197  12.576  1.00  0.00     0.010 A 
ATOM     41  C   UNL     1     -11.548  -0.459  11.227  1.00  0.00    -0.014 A 
BRANCH  41  42
ATOM     42  C   UNL     1     -12.714   0.165  10.552  1.00  0.00     0.031 A 
ATOM     43  C   UNL     1     -12.788   1.654  10.350  1.00  0.00     0.074 A 
ATOM     44  C   UNL     1     -13.700  -0.629  10.090  1.00  0.00     0.049 A 
ATOM     45  N   UNL     1     -13.734   2.357   9.781  1.00  0.00    -0.248 NA
ATOM     46  C   UNL     1     -11.663   2.463  10.848  1.00  0.00     0.031 C 
ATOM     47  C   UNL     1     -13.746  -2.086  10.238  1.00  0.00     0.029 A 
ATOM     48  N   UNL     1     -14.845  -0.330   9.397  1.00  0.00    -0.354 N 
ATOM     49  C   UNL     1     -13.343   3.685   9.889  1.00  0.00     0.074 A 
ATOM     50  C   UNL     1     -12.071   3.697  10.577  1.00  0.00     0.031 C 
ATOM     51  C   UNL     1     -14.839  -2.557   9.620  1.00  0.00     0.029 A 
ATOM     52  C   UNL     1     -15.600  -1.434   9.082  1.00  0.00     0.049 A 
ATOM     53  H   UNL     1     -15.101   0.588   9.149  1.00  0.00     0.167 HD
ATOM     54  C   UNL     1     -13.979   4.793   9.440  1.00  0.00     0.034 A 
ATOM     55  C   UNL     1     -16.781  -1.538   8.443  1.00  0.00     0.034 A 
ATOM     56  C   UNL     1     -15.217   4.776   8.710  1.00  0.00     0.049 A 
ATOM     57  C   UNL     1     -17.457  -0.295   7.947  1.00  0.00     0.074 A 
ATOM     58  C   UNL     1     -15.913   5.849   8.179  1.00  0.00     0.029 A 
ATOM     59  N   UNL     1     -15.941   3.636   8.401  1.00  0.00    -0.354 N 
ATOM     60  N   UNL     1     -17.037   0.944   8.005  1.00  0.00    -0.248 NA
ATOM     61  C   UNL     1     -18.759  -0.463   7.287  1.00  0.00     0.031 C 
ATOM     62  C   UNL     1     -17.061   5.357   7.552  1.00  0.00     0.029 A 
ATOM     63  C   UNL     1     -17.075   3.978   7.685  1.00  0.00     0.049 A 
ATOM     64  H   UNL     1     -15.687   2.719   8.654  1.00  0.00     0.167 HD
ATOM     65  C   UNL     1     -18.015   1.705   7.378  1.00  0.00     0.074 A 
ATOM     66  C   UNL     1     -19.040   0.785   6.930  1.00  0.00     0.031 C 
ATOM     67  C   UNL     1     -18.062   3.047   7.205  1.00  0.00     0.034 A 
BRANCH  54  68
ATOM     68  C   UNL     1     -13.331   6.130   9.673  1.00  0.00     0.023 A 
ATOM     69  C   UNL     1     -12.287   6.545   8.823  1.00  0.00     0.012 A 
ATOM     70  C   UNL     1     -13.830   7.017  10.647  1.00  0.00     0.148 A 
ATOM     71  C   UNL     1     -11.743   7.823   8.943  1.00  0.00     0.002 A 
ATOM     72  C   UNL     1     -13.302   8.299  10.741  1.00  0.00     0.091 A 
ATOM     73  F   UNL     1     -14.816   6.593  11.449  1.00  0.00    -0.205 F 
ATOM     74  C   UNL     1     -12.257   8.702   9.893  1.00  0.00     0.022 A 
BRANCH  72  75
ATOM     75  S   UNL     1     -13.929   9.530  11.890  1.00  0.00     0.127 S 
ATOM     76  O   UNL     1     -12.778   9.721  12.773  1.00  0.00    -0.237 OA
ATOM     77  O   UNL     1     -14.213  10.659  11.005  1.00  0.00    -0.237 OA
ATOM     78  O   UNL     1     -15.099   8.935  12.521  1.00  0.00    -0.744 OA
ENDBRANCH  72  75
ENDBRANCH  54  68
BRANCH  55  79
ATOM     79  C   UNL     1     -17.358  -2.887   8.204  1.00  0.00     0.023 A 
ATOM     80  C   UNL     1     -17.296  -3.442   6.912  1.00  0.00     0.012 A 
ATOM     81  C   UNL     1     -17.877  -3.655   9.264  1.00  0.00     0.148 A 
ATOM     82  C   UNL     1     -17.744  -4.742   6.678  1.00  0.00     0.002 A 
ATOM     83  C   UNL     1     -18.280  -4.964   9.034  1.00  0.00     0.091 A 
ATOM     84  F   UNL     1     -17.926  -3.099  10.483  1.00  0.00    -0.205 F 
ATOM     85  C   UNL     1     -18.224  -5.506   7.740  1.00  0.00     0.022 A 
BRANCH  83  86
ATOM     86  S   UNL     1     -18.799  -6.064  10.355  1.00  0.00     0.127 S 
ATOM     87  O   UNL     1     -20.198  -6.305  10.010  1.00  0.00    -0.237 OA
ATOM     88  O   UNL     1     -17.908  -7.208  10.156  1.00  0.00    -0.237 OA
ATOM     89  O   UNL     1     -18.576  -5.331  11.593  1.00  0.00    -0.744 OA
ENDBRANCH  83  86
ENDBRANCH  55  79
BRANCH  67  90
ATOM     90  C   UNL     1     -19.251   3.622   6.489  1.00  0.00     0.023 A 
ATOM     91  C   UNL     1     -20.459   3.798   7.189  1.00  0.00     0.012 A 
ATOM     92  C   UNL     1     -19.132   4.097   5.168  1.00  0.00     0.148 A 
ATOM     93  C   UNL     1     -21.540   4.434   6.580  1.00  0.00     0.002 A 
ATOM     94  C   UNL     1     -20.202   4.760   4.580  1.00  0.00     0.091 A 
ATOM     95  F   UNL     1     -17.972   3.906   4.524  1.00  0.00    -0.205 F 
ATOM     96  C   UNL     1     -21.407   4.925   5.283  1.00  0.00     0.022 A 
BRANCH  94  97
ATOM     97  S   UNL     1     -20.104   5.492   2.943  1.00  0.00     0.127 S 
ATOM     98  O   UNL     1     -21.029   4.651   2.185  1.00  0.00    -0.237 OA
ATOM     99  O   UNL     1     -20.576   6.855   3.186  1.00  0.00    -0.237 OA
ATOM    100  O   UNL     1     -18.707   5.396   2.540  1.00  0.00    -0.744 OA
ENDBRANCH  94  97
ENDBRANCH  67  90
ENDBRANCH  41  42
ENDBRANCH  33  36
ENDBRANCH  31  32
ENDBRANCH  30  31
ENDBRANCH  29  30
ENDBRANCH   1  29
TORSDOF 20
