REMARK SMILES C[C@@H](CCC(=O)Nc1ccccn1)C(=O)NCCCCCCNC(=O)c1ccc(-c2c3nc(c(-c4cccc(S(=O)(=O)[O-])c4F)c4ccc([nH]4)c(-c4cccc(S(=O)(=O)[O-])c4F)c4nc(c(-c5cccc(S(=O)(=O)[O-])c5F)c5ccc2[nH]5)C=C4)C=C3)cc1
REMARK SMILES IDX 19 1 18 2 17 3 16 4 14 5 15 6 2 8 1 9 3 10 4 11 5 12 6 13
REMARK SMILES IDX 7 14 8 16 9 17 13 18 10 19 12 20 11 21 20 22 21 23 22 24
REMARK SMILES IDX 23 25 24 26 25 28 26 29 27 30 88 31 28 32 87 33 29 34 30 35
REMARK SMILES IDX 31 36 81 37 32 38 86 39 80 40 82 41 33 42 85 43 79 44 78 45
REMARK SMILES IDX 34 47 66 48 46 49 65 50 47 51 50 52 64 53 83 54 48 55 49 56
REMARK SMILES IDX 63 58 84 59 51 60 35 61 36 62 44 63 37 64 39 65 45 66 38 67
REMARK SMILES IDX 40 68 41 69 42 70 43 71 67 72 68 73 76 74 69 75 71 76 77 77
REMARK SMILES IDX 70 78 72 79 73 80 74 81 75 82 52 83 53 84 61 85 54 86 56 87
REMARK SMILES IDX 62 88 55 89 57 90 58 91 59 92 60 93
REMARK H PARENT 16 7 7 15 23 27 82 46 50 57
REMARK Flexibility Score: inf
ROOT
ATOM      1  C   UNL     1      -3.986   2.292   1.114  1.00  0.00     0.002 C 
ENDROOT
BRANCH   1   2
ATOM      2  C   UNL     1      -2.693   1.492   0.878  1.00  0.00     0.021 C 
BRANCH   2   3
ATOM      3  C   UNL     1      -2.262   0.498   1.984  1.00  0.00     0.116 C 
BRANCH   3   4
ATOM      4  N   UNL     1      -1.901  -0.813   1.427  1.00  0.00    -0.356 N 
ATOM      5  C   UNL     1      -1.015  -1.812   1.634  1.00  0.00     0.222 C 
ATOM      6  O   UNL     1      -1.320  -2.867   1.051  1.00  0.00    -0.275 OA
ATOM      7  H   UNL     1      -2.487  -1.032   0.667  1.00  0.00     0.163 HD
BRANCH   5   8
ATOM      8  C   UNL     1       0.309  -1.808   2.425  1.00  0.00     0.076 C 
ATOM      9  C   UNL     1       1.502  -2.348   1.591  1.00  0.00     0.018 C 
BRANCH   8  10
ATOM     10  C   UNL     1       0.720  -0.624   3.287  1.00  0.00     0.023 C 
BRANCH  10  11
ATOM     11  C   UNL     1       1.597   0.444   2.631  1.00  0.00     0.101 C 
BRANCH  11  12
ATOM     12  C   UNL     1       0.881   1.595   1.979  1.00  0.00     0.225 C 
ATOM     13  O   UNL     1       0.469   2.504   2.715  1.00  0.00    -0.275 OA
ATOM     14  N   UNL     1       0.703   1.793   0.659  1.00  0.00    -0.311 N 
ATOM     15  H   UNL     1       0.562   2.756   0.510  1.00  0.00     0.171 HD
BRANCH  14  16
ATOM     16  C   UNL     1       0.641   1.152  -0.573  1.00  0.00     0.132 A 
ATOM     17  C   UNL     1       0.514  -0.195  -0.837  1.00  0.00     0.047 A 
ATOM     18  N   UNL     1       0.544   2.051  -1.573  1.00  0.00    -0.239 NA
ATOM     19  C   UNL     1       0.310  -0.642  -2.150  1.00  0.00     0.005 A 
ATOM     20  C   UNL     1       0.359   1.610  -2.837  1.00  0.00     0.113 A 
ATOM     21  C   UNL     1       0.238   0.280  -3.178  1.00  0.00     0.020 A 
ENDBRANCH  14  16
ENDBRANCH  11  12
ENDBRANCH  10  11
ENDBRANCH   8  10
ENDBRANCH   5   8
ENDBRANCH   3   4
ENDBRANCH   2   3
ENDBRANCH   1   2
BRANCH   1  22
ATOM     22  C   UNL     1      -4.145   3.006   2.457  1.00  0.00     0.002 C 
BRANCH  22  23
ATOM     23  C   UNL     1      -3.133   4.110   2.772  1.00  0.00     0.021 C 
BRANCH  23  24
ATOM     24  C   UNL     1      -3.156   5.342   1.864  1.00  0.00     0.116 C 
BRANCH  24  25
ATOM     25  N   UNL     1      -4.467   5.972   1.784  1.00  0.00    -0.352 N 
ATOM     26  C   UNL     1      -4.878   7.246   2.094  1.00  0.00     0.251 C 
ATOM     27  H   UNL     1      -5.182   5.384   1.449  1.00  0.00     0.163 HD
ATOM     28  O   UNL     1      -6.081   7.502   2.094  1.00  0.00    -0.269 OA
BRANCH  26  29
ATOM     29  C   UNL     1      -3.908   8.315   2.429  1.00  0.00     0.039 A 
ATOM     30  C   UNL     1      -4.227   9.216   3.453  1.00  0.00     0.014 A 
ATOM     31  C   UNL     1      -2.730   8.490   1.700  1.00  0.00     0.014 A 
ATOM     32  C   UNL     1      -3.347  10.256   3.774  1.00  0.00     0.010 A 
ATOM     33  C   UNL     1      -1.826   9.491   2.059  1.00  0.00     0.010 A 
ATOM     34  C   UNL     1      -2.128  10.391   3.092  1.00  0.00    -0.014 A 
BRANCH  34  35
ATOM     35  C   UNL     1      -1.167  11.473   3.434  1.00  0.00     0.031 A 
ATOM     36  C   UNL     1      -0.853  12.552   2.430  1.00  0.00     0.074 A 
ATOM     37  C   UNL     1      -0.518  11.441   4.615  1.00  0.00     0.049 A 
ATOM     38  N   UNL     1       0.007  13.535   2.515  1.00  0.00    -0.248 NA
ATOM     39  C   UNL     1      -1.585  12.508   1.153  1.00  0.00     0.031 C 
ATOM     40  C   UNL     1      -0.680  10.409   5.641  1.00  0.00     0.029 A 
ATOM     41  N   UNL     1       0.431  12.283   5.141  1.00  0.00    -0.354 N 
ATOM     42  C   UNL     1      -0.057  14.204   1.298  1.00  0.00     0.074 A 
ATOM     43  C   UNL     1      -1.017  13.498   0.478  1.00  0.00     0.031 C 
ATOM     44  C   UNL     1       0.147  10.672   6.666  1.00  0.00     0.029 A 
ATOM     45  C   UNL     1       0.913  11.877   6.364  1.00  0.00     0.049 A 
ATOM     46  H   UNL     1       0.739  13.100   4.685  1.00  0.00     0.167 HD
ATOM     47  C   UNL     1       0.599  15.324   0.909  1.00  0.00     0.034 A 
ATOM     48  C   UNL     1       1.869  12.412   7.150  1.00  0.00     0.034 A 
ATOM     49  C   UNL     1       1.517  16.051   1.744  1.00  0.00     0.049 A 
ATOM     50  C   UNL     1       2.543  13.686   6.714  1.00  0.00     0.074 A 
ATOM     51  C   UNL     1       2.184  17.232   1.467  1.00  0.00     0.029 A 
ATOM     52  N   UNL     1       1.893  15.670   3.023  1.00  0.00    -0.354 N 
ATOM     53  N   UNL     1       2.360  14.384   5.619  1.00  0.00    -0.248 NA
ATOM     54  C   UNL     1       3.523  14.272   7.640  1.00  0.00     0.031 C 
ATOM     55  C   UNL     1       2.968  17.562   2.577  1.00  0.00     0.029 A 
ATOM     56  C   UNL     1       2.776  16.596   3.551  1.00  0.00     0.049 A 
ATOM     57  H   UNL     1       1.578  14.861   3.487  1.00  0.00     0.167 HD
ATOM     58  C   UNL     1       3.170  15.507   5.742  1.00  0.00     0.074 A 
ATOM     59  C   UNL     1       3.828  15.409   7.028  1.00  0.00     0.031 C 
ATOM     60  C   UNL     1       3.367  16.519   4.862  1.00  0.00     0.034 A 
BRANCH  47  61
ATOM     61  C   UNL     1       0.293  15.880  -0.458  1.00  0.00     0.023 A 
ATOM     62  C   UNL     1      -0.945  16.516  -0.680  1.00  0.00     0.012 A 
ATOM     63  C   UNL     1       1.248  15.847  -1.494  1.00  0.00     0.148 A 
ATOM     64  C   UNL     1      -1.242  17.085  -1.917  1.00  0.00     0.002 A 
ATOM     65  C   UNL     1       0.960  16.453  -2.713  1.00  0.00     0.091 A 
ATOM     66  F   UNL     1       2.414  15.226  -1.270  1.00  0.00    -0.205 F 
ATOM     67  C   UNL     1      -0.287  17.063  -2.929  1.00  0.00     0.022 A 
BRANCH  65  68
ATOM     68  S   UNL     1       2.147  16.547  -4.059  1.00  0.00     0.127 S 
ATOM     69  O   UNL     1       1.532  15.671  -5.057  1.00  0.00    -0.237 OA
ATOM     70  O   UNL     1       2.117  17.970  -4.397  1.00  0.00    -0.237 OA
ATOM     71  O   UNL     1       3.413  16.076  -3.515  1.00  0.00    -0.744 OA
ENDBRANCH  65  68
ENDBRANCH  47  61
BRANCH  48  72
ATOM     72  C   UNL     1       2.200  11.785   8.462  1.00  0.00     0.023 A 
ATOM     73  C   UNL     1       1.842  12.447   9.654  1.00  0.00     0.012 A 
ATOM     74  C   UNL     1       2.853  10.540   8.540  1.00  0.00     0.148 A 
ATOM     75  C   UNL     1       2.164  11.900  10.897  1.00  0.00     0.002 A 
ATOM     76  C   UNL     1       3.122   9.975   9.783  1.00  0.00     0.091 A 
ATOM     77  F   UNL     1       3.201   9.930   7.399  1.00  0.00    -0.205 F 
ATOM     78  C   UNL     1       2.794  10.661  10.962  1.00  0.00     0.022 A 
BRANCH  76  79
ATOM     79  S   UNL     1       3.814   8.326   9.952  1.00  0.00     0.127 S 
ATOM     80  O   UNL     1       5.210   8.615  10.258  1.00  0.00    -0.237 OA
ATOM     81  O   UNL     1       3.039   7.777  11.064  1.00  0.00    -0.237 OA
ATOM     82  O   UNL     1       3.562   7.671   8.671  1.00  0.00    -0.744 OA
ENDBRANCH  76  79
ENDBRANCH  48  72
BRANCH  60  83
ATOM     83  C   UNL     1       4.298  17.630   5.270  1.00  0.00     0.023 A 
ATOM     84  C   UNL     1       5.688  17.405   5.290  1.00  0.00     0.012 A 
ATOM     85  C   UNL     1       3.799  18.916   5.555  1.00  0.00     0.148 A 
ATOM     86  C   UNL     1       6.567  18.436   5.618  1.00  0.00     0.002 A 
ATOM     87  C   UNL     1       4.683  19.950   5.835  1.00  0.00     0.091 A 
ATOM     88  F   UNL     1       2.471  19.104   5.549  1.00  0.00    -0.205 F 
ATOM     89  C   UNL     1       6.066  19.710   5.878  1.00  0.00     0.022 A 
BRANCH  87  90
ATOM     90  S   UNL     1       4.134  21.642   6.088  1.00  0.00     0.127 S 
ATOM     91  O   UNL     1       4.284  21.791   7.535  1.00  0.00    -0.237 OA
ATOM     92  O   UNL     1       5.096  22.405   5.293  1.00  0.00    -0.237 OA
ATOM     93  O   UNL     1       2.765  21.696   5.591  1.00  0.00    -0.744 OA
ENDBRANCH  87  90
ENDBRANCH  60  83
ENDBRANCH  34  35
ENDBRANCH  26  29
ENDBRANCH  24  25
ENDBRANCH  23  24
ENDBRANCH  22  23
ENDBRANCH   1  22
TORSDOF 20
