REMARK SMILES COc1ccccc1OC1CCN(c2cccc(C(=O)NCCCCCCNC(=O)c3ccc(-c4c5nc(c(-c6cccc(S(=O)(=O)[O-])c6F)c6ccc([nH]6)c(-c6cccc(S(=O)(=O)[O-])c6F)c6nc(c(-c7cccc(S(=O)(=O)[O-])c7F)c7ccc4[nH]7)C=C6)C=C5)cc3)n2)CC1
REMARK SMILES IDX 24 1 23 2 22 3 21 4 19 5 20 6 18 8 14 9 15 10 94 11 16 12
REMARK SMILES IDX 17 13 13 14 10 15 11 16 96 17 12 18 95 19 9 20 8 21 3 22
REMARK SMILES IDX 4 23 5 24 7 25 6 26 2 27 1 28 25 29 26 30 27 31 28 32 29 33
REMARK SMILES IDX 30 35 31 36 32 37 93 38 33 39 92 40 34 41 35 42 36 43 86 44
REMARK SMILES IDX 37 45 91 46 85 47 87 48 38 49 90 50 84 51 83 52 39 54 71 55
REMARK SMILES IDX 51 56 70 57 52 58 55 59 69 60 88 61 53 62 54 63 68 65 89 66
REMARK SMILES IDX 56 67 40 68 41 69 49 70 42 71 44 72 50 73 43 74 45 75 46 76
REMARK SMILES IDX 47 77 48 78 72 79 73 80 81 81 74 82 76 83 82 84 75 85 77 86
REMARK SMILES IDX 78 87 79 88 80 89 57 90 58 91 66 92 59 93 61 94 67 95 60 96
REMARK SMILES IDX 62 97 63 98 64 99 65 100
REMARK H PARENT 21 7 28 34 87 53 55 64
REMARK Flexibility Score: inf
ROOT
ATOM      1  C   UNL     1      -6.041  -3.319   6.114  1.00  0.00     0.002 C 
ENDROOT
BRANCH   1   2
ATOM      2  C   UNL     1      -5.795  -3.207   4.610  1.00  0.00     0.021 C 
BRANCH   2   3
ATOM      3  C   UNL     1      -5.242  -1.871   4.138  1.00  0.00     0.116 C 
BRANCH   3   4
ATOM      4  N   UNL     1      -3.830  -1.725   4.410  1.00  0.00    -0.351 N 
ATOM      5  C   UNL     1      -2.761  -1.481   3.580  1.00  0.00     0.269 C 
ATOM      6  O   UNL     1      -1.644  -1.500   4.105  1.00  0.00    -0.268 OA
ATOM      7  H   UNL     1      -3.591  -1.818   5.360  1.00  0.00     0.163 HD
BRANCH   5   8
ATOM      8  C   UNL     1      -2.896  -1.203   2.105  1.00  0.00     0.130 A 
ATOM      9  C   UNL     1      -1.713  -1.102   0.116  1.00  0.00     0.129 A 
ATOM     10  C   UNL     1      -2.826  -0.627  -0.562  1.00  0.00     0.047 A 
ATOM     11  N   UNL     1      -1.764  -1.464   1.407  1.00  0.00    -0.226 NA
ATOM     12  C   UNL     1      -3.998  -0.399   0.139  1.00  0.00     0.006 A 
ATOM     13  C   UNL     1      -4.007  -0.616   1.511  1.00  0.00     0.034 A 
BRANCH   9  14
ATOM     14  N   UNL     1      -0.473  -1.044  -0.483  1.00  0.00    -0.356 N 
ATOM     15  C   UNL     1       3.208  -0.158  -0.725  1.00  0.00     0.177 C 
ATOM     16  C   UNL     1       2.640  -1.853   0.043  1.00  0.00     0.066 C 
ATOM     17  C   UNL     1       1.836   1.175  -1.078  1.00  0.00     0.066 C 
ATOM     18  C   UNL     1       0.757  -2.337  -0.033  1.00  0.00     0.122 C 
ATOM     19  C   UNL     1      -0.021   0.614  -1.152  1.00  0.00     0.122 C 
BRANCH  15  20
ATOM     20  O   UNL     1       3.786  -0.481  -2.025  1.00  0.00    -0.486 OA
BRANCH  20  21
ATOM     21  C   UNL     1       2.792  -1.015  -2.822  1.00  0.00     0.161 A 
ATOM     22  C   UNL     1       1.501  -1.190  -2.299  1.00  0.00     0.160 A 
ATOM     23  C   UNL     1       0.499  -1.720  -3.107  1.00  0.00     0.050 A 
ATOM     24  C   UNL     1       0.782  -2.044  -4.436  1.00  0.00     0.004 A 
ATOM     25  C   UNL     1       3.083  -1.345  -4.139  1.00  0.00     0.050 A 
ATOM     26  C   UNL     1       2.068  -1.855  -4.950  1.00  0.00     0.004 A 
BRANCH  22  27
ATOM     27  O   UNL     1       1.424  -0.735  -0.997  1.00  0.00    -0.493 OA
ATOM     28  C   UNL     1       1.197  -0.152   0.745  1.00  0.00     0.278 C 
ENDBRANCH  22  27
ENDBRANCH  20  21
ENDBRANCH  15  20
ENDBRANCH   9  14
ENDBRANCH   5   8
ENDBRANCH   3   4
ENDBRANCH   2   3
ENDBRANCH   1   2
BRANCH   1  29
ATOM     29  C   UNL     1      -6.874  -2.193   6.736  1.00  0.00     0.002 C 
BRANCH  29  30
ATOM     30  C   UNL     1      -8.171  -1.839   6.002  1.00  0.00     0.021 C 
BRANCH  30  31
ATOM     31  C   UNL     1      -9.132  -3.004   5.799  1.00  0.00     0.116 C 
BRANCH  31  32
ATOM     32  N   UNL     1      -9.554  -3.582   7.063  1.00  0.00    -0.352 N 
ATOM     33  C   UNL     1     -10.822  -3.734   7.564  1.00  0.00     0.251 C 
ATOM     34  H   UNL     1      -8.829  -3.910   7.641  1.00  0.00     0.163 HD
ATOM     35  O   UNL     1     -10.984  -4.029   8.745  1.00  0.00    -0.269 OA
BRANCH  33  36
ATOM     36  C   UNL     1     -11.988  -3.533   6.679  1.00  0.00     0.039 A 
ATOM     37  C   UNL     1     -13.080  -2.802   7.153  1.00  0.00     0.014 A 
ATOM     38  C   UNL     1     -12.007  -4.071   5.389  1.00  0.00     0.014 A 
ATOM     39  C   UNL     1     -14.171  -2.571   6.314  1.00  0.00     0.010 A 
ATOM     40  C   UNL     1     -13.059  -3.772   4.529  1.00  0.00     0.010 A 
ATOM     41  C   UNL     1     -14.157  -3.028   4.985  1.00  0.00    -0.014 A 
BRANCH  41  42
ATOM     42  C   UNL     1     -15.278  -2.733   4.058  1.00  0.00     0.031 A 
ATOM     43  C   UNL     1     -16.091  -3.854   3.469  1.00  0.00     0.074 A 
ATOM     44  C   UNL     1     -15.515  -1.459   3.688  1.00  0.00     0.049 A 
ATOM     45  N   UNL     1     -17.070  -3.795   2.605  1.00  0.00    -0.248 NA
ATOM     46  C   UNL     1     -15.741  -5.223   3.883  1.00  0.00     0.031 C 
ATOM     47  C   UNL     1     -14.751  -0.292   4.137  1.00  0.00     0.029 A 
ATOM     48  N   UNL     1     -16.450  -0.933   2.833  1.00  0.00    -0.354 N 
ATOM     49  C   UNL     1     -17.433  -5.112   2.349  1.00  0.00     0.074 A 
ATOM     50  C   UNL     1     -16.542  -5.951   3.119  1.00  0.00     0.031 C 
ATOM     51  C   UNL     1     -15.253   0.811   3.560  1.00  0.00     0.029 A 
ATOM     52  C   UNL     1     -16.347   0.429   2.674  1.00  0.00     0.049 A 
ATOM     53  H   UNL     1     -17.130  -1.479   2.376  1.00  0.00     0.167 HD
ATOM     54  C   UNL     1     -18.434  -5.580   1.568  1.00  0.00     0.034 A 
ATOM     55  C   UNL     1     -17.047   1.275   1.892  1.00  0.00     0.034 A 
ATOM     56  C   UNL     1     -19.336  -4.740   0.827  1.00  0.00     0.049 A 
ATOM     57  C   UNL     1     -18.164   0.730   1.045  1.00  0.00     0.074 A 
ATOM     58  C   UNL     1     -20.429  -5.113   0.066  1.00  0.00     0.029 A 
ATOM     59  N   UNL     1     -19.242  -3.360   0.741  1.00  0.00    -0.354 N 
ATOM     60  N   UNL     1     -18.584  -0.506   0.929  1.00  0.00    -0.248 NA
ATOM     61  C   UNL     1     -18.925   1.701   0.246  1.00  0.00     0.031 C 
ATOM     62  C   UNL     1     -20.975  -3.961  -0.509  1.00  0.00     0.029 A 
ATOM     63  C   UNL     1     -20.248  -2.866  -0.071  1.00  0.00     0.049 A 
ATOM     64  H   UNL     1     -18.560  -2.811   1.192  1.00  0.00     0.167 HD
ATOM     65  C   UNL     1     -19.681  -0.457   0.077  1.00  0.00     0.074 A 
ATOM     66  C   UNL     1     -19.872   0.934  -0.279  1.00  0.00     0.031 C 
ATOM     67  C   UNL     1     -20.455  -1.474  -0.379  1.00  0.00     0.034 A 
BRANCH  54  68
ATOM     68  C   UNL     1     -18.635  -7.073   1.506  1.00  0.00     0.023 A 
ATOM     69  C   UNL     1     -19.122  -7.760   2.638  1.00  0.00     0.012 A 
ATOM     70  C   UNL     1     -18.398  -7.788   0.316  1.00  0.00     0.148 A 
ATOM     71  C   UNL     1     -19.331  -9.138   2.599  1.00  0.00     0.002 A 
ATOM     72  C   UNL     1     -18.657  -9.153   0.269  1.00  0.00     0.091 A 
ATOM     73  F   UNL     1     -17.919  -7.123  -0.745  1.00  0.00    -0.205 F 
ATOM     74  C   UNL     1     -19.110  -9.832   1.412  1.00  0.00     0.022 A 
BRANCH  72  75
ATOM     75  S   UNL     1     -18.483 -10.123  -1.233  1.00  0.00     0.127 S 
ATOM     76  O   UNL     1     -17.338 -10.972  -0.903  1.00  0.00    -0.237 OA
ATOM     77  O   UNL     1     -19.765 -10.825  -1.294  1.00  0.00    -0.237 OA
ATOM     78  O   UNL     1     -18.260  -9.167  -2.307  1.00  0.00    -0.744 OA
ENDBRANCH  72  75
ENDBRANCH  54  68
BRANCH  55  79
ATOM     79  C   UNL     1     -16.745   2.735   1.917  1.00  0.00     0.023 A 
ATOM     80  C   UNL     1     -17.678   3.626   2.481  1.00  0.00     0.012 A 
ATOM     81  C   UNL     1     -15.534   3.240   1.406  1.00  0.00     0.148 A 
ATOM     82  C   UNL     1     -17.426   4.998   2.505  1.00  0.00     0.002 A 
ATOM     83  C   UNL     1     -15.264   4.600   1.485  1.00  0.00     0.091 A 
ATOM     84  F   UNL     1     -14.663   2.375   0.868  1.00  0.00    -0.205 F 
ATOM     85  C   UNL     1     -16.216   5.484   2.016  1.00  0.00     0.022 A 
BRANCH  83  86
ATOM     86  S   UNL     1     -13.681   5.298   1.001  1.00  0.00     0.127 S 
ATOM     87  O   UNL     1     -14.047   6.083  -0.175  1.00  0.00    -0.237 OA
ATOM     88  O   UNL     1     -13.326   6.085   2.183  1.00  0.00    -0.237 OA
ATOM     89  O   UNL     1     -12.806   4.161   0.752  1.00  0.00    -0.744 OA
ENDBRANCH  83  86
ENDBRANCH  55  79
BRANCH  67  90
ATOM     90  C   UNL     1     -21.611  -1.123  -1.279  1.00  0.00     0.023 A 
ATOM     91  C   UNL     1     -21.375  -0.694  -2.600  1.00  0.00     0.012 A 
ATOM     92  C   UNL     1     -22.938  -1.292  -0.834  1.00  0.00     0.148 A 
ATOM     93  C   UNL     1     -22.439  -0.404  -3.452  1.00  0.00     0.002 A 
ATOM     94  C   UNL     1     -23.993  -1.053  -1.706  1.00  0.00     0.091 A 
ATOM     95  F   UNL     1     -23.142  -1.685   0.431  1.00  0.00    -0.205 F 
ATOM     96  C   UNL     1     -23.747  -0.596  -3.010  1.00  0.00     0.022 A 
BRANCH  94  97
ATOM     97  S   UNL     1     -25.704  -1.368  -1.258  1.00  0.00     0.127 S 
ATOM     98  O   UNL     1     -26.246  -0.012  -1.184  1.00  0.00    -0.237 OA
ATOM     99  O   UNL     1     -26.181  -2.153  -2.397  1.00  0.00    -0.237 OA
ATOM    100  O   UNL     1     -25.665  -2.093   0.004  1.00  0.00    -0.744 OA
ENDBRANCH  94  97
ENDBRANCH  67  90
ENDBRANCH  41  42
ENDBRANCH  33  36
ENDBRANCH  31  32
ENDBRANCH  30  31
ENDBRANCH  29  30
ENDBRANCH   1  29
TORSDOF 20
