REMARK SMILES O=C(NCCCCCCNC(=O)c1cnc(Nc2ccccc2)nc1)c1ccc(-c2c3nc(c(-c4cccc(S(=O)(=O)[O-])c4F)c4ccc([nH]4)c(-c4cccc(S(=O)(=O)[O-])c4F)c4nc(c(-c5cccc(S(=O)(=O)[O-])c5F)c5ccc2[nH]5)C=C4)C=C3)cc1
REMARK SMILES IDX 6 1 5 2 4 3 3 4 1 5 2 6 26 8 27 9 88 10 28 11 87 12 29 13
REMARK SMILES IDX 30 14 31 15 81 16 32 17 86 18 80 19 82 20 33 21 85 22 79 23
REMARK SMILES IDX 78 24 34 26 66 27 46 28 65 29 47 30 50 31 64 32 83 33 48 34
REMARK SMILES IDX 49 35 63 37 84 38 51 39 35 40 36 41 44 42 37 43 39 44 45 45
REMARK SMILES IDX 38 46 40 47 41 48 42 49 43 50 67 51 68 52 76 53 69 54 71 55
REMARK SMILES IDX 77 56 70 57 72 58 73 59 74 60 75 61 52 62 53 63 61 64 54 65
REMARK SMILES IDX 56 66 62 67 55 68 57 69 58 70 59 71 60 72 7 73 8 74 9 75
REMARK SMILES IDX 10 76 11 77 12 79 13 80 14 81 25 82 15 83 24 84 16 85 17 86
REMARK SMILES IDX 18 88 19 89 23 90 20 91 22 92 21 93
REMARK H PARENT 3 7 82 25 50 36 10 78 17 87
REMARK Flexibility Score: inf
ROOT
ATOM      1  C   UNL     1       4.257  -2.293   3.060  1.00  0.00     0.002 C 
ENDROOT
BRANCH   1   2
ATOM      2  C   UNL     1       4.738  -0.995   2.408  1.00  0.00     0.021 C 
BRANCH   2   3
ATOM      3  C   UNL     1       4.475  -0.899   0.909  1.00  0.00     0.116 C 
BRANCH   3   4
ATOM      4  N   UNL     1       3.056  -0.939   0.600  1.00  0.00    -0.352 N 
ATOM      5  O   UNL     1       1.056  -0.120  -0.027  1.00  0.00    -0.269 OA
ATOM      6  C   UNL     1       2.278  -0.007  -0.041  1.00  0.00     0.251 C 
ATOM      7  H   UNL     1       2.584  -1.752   0.892  1.00  0.00     0.163 HD
BRANCH   6   8
ATOM      8  C   UNL     1       2.917   1.138  -0.724  1.00  0.00     0.039 A 
ATOM      9  C   UNL     1       4.034   0.949  -1.544  1.00  0.00     0.014 A 
ATOM     10  C   UNL     1       2.382   2.416  -0.548  1.00  0.00     0.014 A 
ATOM     11  C   UNL     1       4.692   2.050  -2.085  1.00  0.00     0.010 A 
ATOM     12  C   UNL     1       2.999   3.511  -1.155  1.00  0.00     0.010 A 
ATOM     13  C   UNL     1       4.176   3.341  -1.903  1.00  0.00    -0.014 A 
BRANCH  13  14
ATOM     14  C   UNL     1       4.833   4.508  -2.542  1.00  0.00     0.031 A 
ATOM     15  C   UNL     1       5.418   5.612  -1.707  1.00  0.00     0.074 A 
ATOM     16  C   UNL     1       4.848   4.596  -3.886  1.00  0.00     0.049 A 
ATOM     17  N   UNL     1       5.946   6.745  -2.092  1.00  0.00    -0.248 NA
ATOM     18  C   UNL     1       5.397   5.425  -0.248  1.00  0.00     0.031 C 
ATOM     19  C   UNL     1       4.285   3.599  -4.799  1.00  0.00     0.029 A 
ATOM     20  N   UNL     1       5.322   5.579  -4.716  1.00  0.00    -0.354 N 
ATOM     21  C   UNL     1       6.275   7.428  -0.927  1.00  0.00     0.074 A 
ATOM     22  C   UNL     1       5.883   6.582   0.180  1.00  0.00     0.031 C 
ATOM     23  C   UNL     1       4.434   4.027  -6.061  1.00  0.00     0.029 A 
ATOM     24  C   UNL     1       5.049   5.349  -6.043  1.00  0.00     0.049 A 
ATOM     25  H   UNL     1       5.811   6.371  -4.393  1.00  0.00     0.167 HD
ATOM     26  C   UNL     1       6.856   8.645  -0.794  1.00  0.00     0.034 A 
ATOM     27  C   UNL     1       5.232   6.130  -7.125  1.00  0.00     0.034 A 
ATOM     28  C   UNL     1       7.255   9.471  -1.903  1.00  0.00     0.049 A 
ATOM     29  C   UNL     1       5.872   7.476  -6.954  1.00  0.00     0.074 A 
ATOM     30  C   UNL     1       7.910  10.690  -1.876  1.00  0.00     0.029 A 
ATOM     31  N   UNL     1       7.018   9.176  -3.238  1.00  0.00    -0.354 N 
ATOM     32  N   UNL     1       6.284   8.057  -5.854  1.00  0.00    -0.248 NA
ATOM     33  C   UNL     1       6.104   8.264  -8.173  1.00  0.00     0.031 C 
ATOM     34  C   UNL     1       8.034  11.149  -3.192  1.00  0.00     0.029 A 
ATOM     35  C   UNL     1       7.499  10.194  -4.043  1.00  0.00     0.049 A 
ATOM     36  H   UNL     1       6.572   8.361  -3.565  1.00  0.00     0.167 HD
ATOM     37  C   UNL     1       6.860   9.258  -6.249  1.00  0.00     0.074 A 
ATOM     38  C   UNL     1       6.748   9.319  -7.692  1.00  0.00     0.031 C 
ATOM     39  C   UNL     1       7.428  10.221  -5.482  1.00  0.00     0.034 A 
BRANCH  26  40
ATOM     40  C   UNL     1       7.100   9.156   0.604  1.00  0.00     0.023 A 
ATOM     41  C   UNL     1       8.082   8.549   1.414  1.00  0.00     0.012 A 
ATOM     42  C   UNL     1       6.384  10.262   1.103  1.00  0.00     0.148 A 
ATOM     43  C   UNL     1       8.313   9.002   2.712  1.00  0.00     0.002 A 
ATOM     44  C   UNL     1       6.654  10.739   2.380  1.00  0.00     0.091 A 
ATOM     45  F   UNL     1       5.441  10.818   0.328  1.00  0.00    -0.205 F 
ATOM     46  C   UNL     1       7.606  10.102   3.192  1.00  0.00     0.022 A 
BRANCH  44  47
ATOM     47  S   UNL     1       5.854  12.200   3.053  1.00  0.00     0.127 S 
ATOM     48  O   UNL     1       4.924  11.611   4.015  1.00  0.00    -0.237 OA
ATOM     49  O   UNL     1       6.978  12.919   3.655  1.00  0.00    -0.237 OA
ATOM     50  O   UNL     1       5.242  12.878   1.920  1.00  0.00    -0.744 OA
ENDBRANCH  44  47
ENDBRANCH  26  40
BRANCH  27  51
ATOM     51  C   UNL     1       4.821   5.625  -8.464  1.00  0.00     0.023 A 
ATOM     52  C   UNL     1       5.805   5.252  -9.398  1.00  0.00     0.012 A 
ATOM     53  C   UNL     1       3.460   5.443  -8.784  1.00  0.00     0.148 A 
ATOM     54  C   UNL     1       5.441   4.722 -10.636  1.00  0.00     0.002 A 
ATOM     55  C   UNL     1       3.107   4.862  -9.995  1.00  0.00     0.091 A 
ATOM     56  F   UNL     1       2.542   5.809  -7.878  1.00  0.00    -0.205 F 
ATOM     57  C   UNL     1       4.095   4.516 -10.929  1.00  0.00     0.022 A 
BRANCH  55  58
ATOM     58  S   UNL     1       1.412   4.432 -10.404  1.00  0.00     0.127 S 
ATOM     59  O   UNL     1       1.146   5.314 -11.537  1.00  0.00    -0.237 OA
ATOM     60  O   UNL     1       1.539   3.014 -10.742  1.00  0.00    -0.237 OA
ATOM     61  O   UNL     1       0.633   4.699  -9.203  1.00  0.00    -0.744 OA
ENDBRANCH  55  58
ENDBRANCH  27  51
BRANCH  39  62
ATOM     62  C   UNL     1       8.039  11.407  -6.181  1.00  0.00     0.023 A 
ATOM     63  C   UNL     1       7.217  12.398  -6.750  1.00  0.00     0.012 A 
ATOM     64  C   UNL     1       9.437  11.584  -6.177  1.00  0.00     0.148 A 
ATOM     65  C   UNL     1       7.779  13.539  -7.323  1.00  0.00     0.002 A 
ATOM     66  C   UNL     1       9.987  12.746  -6.702  1.00  0.00     0.091 A 
ATOM     67  F   UNL     1      10.201  10.617  -5.648  1.00  0.00    -0.205 F 
ATOM     68  C   UNL     1       9.160  13.720  -7.286  1.00  0.00     0.022 A 
BRANCH  66  69
ATOM     69  S   UNL     1      11.743  13.111  -6.606  1.00  0.00     0.127 S 
ATOM     70  O   UNL     1      12.142  13.027  -8.010  1.00  0.00    -0.237 OA
ATOM     71  O   UNL     1      11.746  14.465  -6.050  1.00  0.00    -0.237 OA
ATOM     72  O   UNL     1      12.320  12.096  -5.734  1.00  0.00    -0.744 OA
ENDBRANCH  66  69
ENDBRANCH  39  62
ENDBRANCH  13  14
ENDBRANCH   6   8
ENDBRANCH   3   4
ENDBRANCH   2   3
ENDBRANCH   1   2
BRANCH   1  73
ATOM     73  C   UNL     1       4.803  -3.579   2.433  1.00  0.00     0.002 C 
BRANCH  73  74
ATOM     74  C   UNL     1       6.331  -3.667   2.352  1.00  0.00     0.021 C 
BRANCH  74  75
ATOM     75  C   UNL     1       7.047  -3.532   3.694  1.00  0.00     0.116 C 
BRANCH  75  76
ATOM     76  N   UNL     1       6.725  -4.638   4.588  1.00  0.00    -0.352 N 
ATOM     77  C   UNL     1       7.572  -5.551   5.161  1.00  0.00     0.254 C 
ATOM     78  H   UNL     1       5.772  -4.743   4.809  1.00  0.00     0.163 HD
ATOM     79  O   UNL     1       7.145  -6.561   5.711  1.00  0.00    -0.269 OA
BRANCH  77  80
ATOM     80  C   UNL     1       9.010  -5.315   5.110  1.00  0.00     0.076 A 
ATOM     81  C   UNL     1       9.573  -4.159   5.582  1.00  0.00     0.130 A 
ATOM     82  C   UNL     1       9.881  -6.231   4.577  1.00  0.00     0.130 A 
ATOM     83  N   UNL     1      10.883  -3.884   5.460  1.00  0.00    -0.221 NA
ATOM     84  N   UNL     1      11.203  -5.986   4.415  1.00  0.00    -0.221 NA
ATOM     85  C   UNL     1      11.661  -4.795   4.845  1.00  0.00     0.227 A 
BRANCH  85  86
ATOM     86  N   UNL     1      12.975  -4.479   4.518  1.00  0.00    -0.324 N 
ATOM     87  H   UNL     1      13.470  -5.177   4.032  1.00  0.00     0.170 HD
BRANCH  86  88
ATOM     88  C   UNL     1      13.693  -3.307   4.783  1.00  0.00     0.041 A 
ATOM     89  C   UNL     1      14.491  -2.744   3.780  1.00  0.00     0.026 A 
ATOM     90  C   UNL     1      13.546  -2.601   5.984  1.00  0.00     0.026 A 
ATOM     91  C   UNL     1      15.118  -1.508   3.971  1.00  0.00     0.002 A 
ATOM     92  C   UNL     1      14.183  -1.375   6.186  1.00  0.00     0.002 A 
ATOM     93  C   UNL     1      14.964  -0.825   5.175  1.00  0.00     0.000 A 
ENDBRANCH  86  88
ENDBRANCH  85  86
ENDBRANCH  77  80
ENDBRANCH  75  76
ENDBRANCH  74  75
ENDBRANCH  73  74
ENDBRANCH   1  73
TORSDOF 18
