REMARK SMILES O=C(/C=C/c1ccc(S(=O)(=O)Nc2ccc3c(c2)OCCO3)cc1)NCCCCCCNC(=O)c1ccc(-c2c3nc(c(-c4cccc(S(=O)(=O)[O-])c4F)c4ccc([nH]4)c(-c4cccc(S(=O)(=O)[O-])c4F)c4nc(c(-c5cccc(S(=O)(=O)[O-])c5F)c5ccc2[nH]5)C=C4)C=C3)cc1
REMARK SMILES IDX 28 1 27 2 26 3 25 4 1 5 2 6 3 8 4 9 5 10 6 11 24 12 7 13
REMARK SMILES IDX 23 14 8 15 9 16 10 17 11 18 12 19 13 21 14 22 18 23 15 24
REMARK SMILES IDX 17 25 16 26 19 27 22 28 20 29 21 30 29 31 30 32 31 33 32 34
REMARK SMILES IDX 33 35 34 37 35 38 36 39 97 40 37 41 96 42 38 43 39 44 40 45
REMARK SMILES IDX 90 46 41 47 95 48 89 49 91 50 42 51 94 52 88 53 87 54 43 56
REMARK SMILES IDX 75 57 55 58 74 59 56 60 59 61 73 62 92 63 57 64 58 65 72 67
REMARK SMILES IDX 93 68 60 69 44 70 45 71 53 72 46 73 48 74 54 75 47 76 49 77
REMARK SMILES IDX 50 78 51 79 52 80 76 81 77 82 85 83 78 84 80 85 86 86 79 87
REMARK SMILES IDX 81 88 82 89 83 90 84 91 61 92 62 93 70 94 63 95 65 96 71 97
REMARK SMILES IDX 64 98 66 99 67 100 68 101 69 102
REMARK H PARENT 25 7 12 20 32 36 91 55 59 66
REMARK Flexibility Score: inf
ROOT
ATOM      1  C   UNL     1       4.285   2.098  -3.041  1.00  0.00     0.002 C 
ENDROOT
BRANCH   1   2
ATOM      2  C   UNL     1       2.787   2.021  -2.720  1.00  0.00     0.021 C 
BRANCH   2   3
ATOM      3  C   UNL     1       2.306   0.642  -2.268  1.00  0.00     0.116 C 
BRANCH   3   4
ATOM      4  N   UNL     1       2.952   0.223  -1.035  1.00  0.00    -0.353 N 
ATOM      5  O   UNL     1       1.106   0.495   0.304  1.00  0.00    -0.270 OA
ATOM      6  C   UNL     1       2.293   0.223   0.163  1.00  0.00     0.243 C 
ATOM      7  H   UNL     1       3.892  -0.069  -1.064  1.00  0.00     0.163 HD
BRANCH   6   8
ATOM      8  C   UNL     1       3.075  -0.204   1.354  1.00  0.00     0.072 C 
ATOM      9  C   UNL     1       4.400  -0.065   1.532  1.00  0.00     0.014 C 
BRANCH   9  10
ATOM     10  C   UNL     1       5.141  -0.447   2.757  1.00  0.00    -0.025 A 
ATOM     11  C   UNL     1       6.540  -0.332   2.767  1.00  0.00     0.009 A 
ATOM     12  C   UNL     1       4.519  -0.909   3.928  1.00  0.00     0.009 A 
ATOM     13  C   UNL     1       7.294  -0.739   3.880  1.00  0.00     0.023 A 
ATOM     14  C   UNL     1       5.265  -1.266   5.062  1.00  0.00     0.023 A 
ATOM     15  C   UNL     1       6.656  -1.234   5.022  1.00  0.00     0.087 A 
BRANCH  15  16
ATOM     16  S   UNL     1       7.660  -1.820   6.378  1.00  0.00     0.261 S 
ATOM     17  O   UNL     1       8.849  -2.422   5.788  1.00  0.00    -0.201 OA
ATOM     18  O   UNL     1       7.787  -0.745   7.327  1.00  0.00    -0.201 OA
BRANCH  16  19
ATOM     19  N   UNL     1       6.871  -3.128   7.189  1.00  0.00    -0.279 N 
ATOM     20  H   UNL     1       6.947  -3.252   8.162  1.00  0.00     0.180 HD
BRANCH  19  21
ATOM     21  C   UNL     1       6.101  -4.022   6.374  1.00  0.00     0.053 A 
ATOM     22  C   UNL     1       4.735  -4.130   6.661  1.00  0.00     0.031 A 
ATOM     23  C   UNL     1       6.646  -4.635   5.251  1.00  0.00     0.077 A 
ATOM     24  C   UNL     1       3.871  -4.652   5.703  1.00  0.00     0.052 A 
ATOM     25  C   UNL     1       5.779  -5.088   4.267  1.00  0.00     0.163 A 
ATOM     26  C   UNL     1       4.395  -5.034   4.473  1.00  0.00     0.161 A 
ATOM     27  O   UNL     1       6.354  -5.430   3.072  1.00  0.00    -0.486 OA
ATOM     28  O   UNL     1       3.509  -5.223   3.442  1.00  0.00    -0.486 OA
ATOM     29  C   UNL     1       5.410  -5.543   1.997  1.00  0.00     0.271 C 
ATOM     30  C   UNL     1       4.139  -4.744   2.244  1.00  0.00     0.271 C 
ENDBRANCH  19  21
ENDBRANCH  16  19
ENDBRANCH  15  16
ENDBRANCH   9  10
ENDBRANCH   6   8
ENDBRANCH   3   4
ENDBRANCH   2   3
ENDBRANCH   1   2
BRANCH   1  31
ATOM     31  C   UNL     1       4.772   1.148  -4.140  1.00  0.00     0.002 C 
BRANCH  31  32
ATOM     32  C   UNL     1       4.083   1.305  -5.498  1.00  0.00     0.021 C 
BRANCH  32  33
ATOM     33  C   UNL     1       4.191   2.693  -6.125  1.00  0.00     0.116 C 
BRANCH  33  34
ATOM     34  N   UNL     1       5.567   3.070  -6.414  1.00  0.00    -0.352 N 
ATOM     35  C   UNL     1       6.108   3.567  -7.576  1.00  0.00     0.251 C 
ATOM     36  H   UNL     1       6.202   2.951  -5.671  1.00  0.00     0.163 HD
ATOM     37  O   UNL     1       7.326   3.680  -7.685  1.00  0.00    -0.269 OA
BRANCH  35  38
ATOM     38  C   UNL     1       5.224   3.943  -8.702  1.00  0.00     0.039 A 
ATOM     39  C   UNL     1       5.560   3.527  -9.994  1.00  0.00     0.014 A 
ATOM     40  C   UNL     1       4.069   4.699  -8.488  1.00  0.00     0.014 A 
ATOM     41  C   UNL     1       4.701   3.812 -11.060  1.00  0.00     0.010 A 
ATOM     42  C   UNL     1       3.183   4.924  -9.538  1.00  0.00     0.010 A 
ATOM     43  C   UNL     1       3.487   4.482 -10.835  1.00  0.00    -0.014 A 
BRANCH  43  44
ATOM     44  C   UNL     1       2.512   4.707 -11.933  1.00  0.00     0.031 A 
ATOM     45  C   UNL     1       2.153   6.105 -12.359  1.00  0.00     0.074 A 
ATOM     46  C   UNL     1       1.874   3.653 -12.482  1.00  0.00     0.049 A 
ATOM     47  N   UNL     1       1.273   6.497 -13.243  1.00  0.00    -0.248 NA
ATOM     48  C   UNL     1       2.857   7.208 -11.685  1.00  0.00     0.031 C 
ATOM     49  C   UNL     1       2.075   2.252 -12.103  1.00  0.00     0.029 A 
ATOM     50  N   UNL     1       0.905   3.597 -13.453  1.00  0.00    -0.354 N 
ATOM     51  C   UNL     1       1.289   7.886 -13.208  1.00  0.00     0.074 A 
ATOM     52  C   UNL     1       2.247   8.270 -12.193  1.00  0.00     0.031 C 
ATOM     53  C   UNL     1       1.258   1.477 -12.833  1.00  0.00     0.029 A 
ATOM     54  C   UNL     1       0.453   2.323 -13.709  1.00  0.00     0.049 A 
ATOM     55  H   UNL     1       0.566   4.393 -13.922  1.00  0.00     0.167 HD
ATOM     56  C   UNL     1       0.594   8.764 -13.971  1.00  0.00     0.034 A 
ATOM     57  C   UNL     1      -0.506   1.884 -14.549  1.00  0.00     0.034 A 
ATOM     58  C   UNL     1      -0.322   8.380 -15.011  1.00  0.00     0.049 A 
ATOM     59  C   UNL     1      -1.236   2.879 -15.411  1.00  0.00     0.074 A 
ATOM     60  C   UNL     1      -1.006   9.194 -15.897  1.00  0.00     0.029 A 
ATOM     61  N   UNL     1      -0.688   7.075 -15.303  1.00  0.00    -0.354 N 
ATOM     62  N   UNL     1      -1.088   4.180 -15.475  1.00  0.00    -0.248 NA
ATOM     63  C   UNL     1      -2.239   2.342 -16.342  1.00  0.00     0.031 C 
ATOM     64  C   UNL     1      -1.800   8.381 -16.714  1.00  0.00     0.029 A 
ATOM     65  C   UNL     1      -1.594   7.061 -16.350  1.00  0.00     0.049 A 
ATOM     66  H   UNL     1      -0.353   6.277 -14.834  1.00  0.00     0.167 HD
ATOM     67  C   UNL     1      -1.951   4.612 -16.475  1.00  0.00     0.074 A 
ATOM     68  C   UNL     1      -2.603   3.432 -17.004  1.00  0.00     0.031 C 
ATOM     69  C   UNL     1      -2.193   5.875 -16.906  1.00  0.00     0.034 A 
BRANCH  56  70
ATOM     70  C   UNL     1       0.843  10.233 -13.750  1.00  0.00     0.023 A 
ATOM     71  C   UNL     1       2.062  10.800 -14.174  1.00  0.00     0.012 A 
ATOM     72  C   UNL     1      -0.147  11.064 -13.189  1.00  0.00     0.148 A 
ATOM     73  C   UNL     1       2.308  12.162 -14.012  1.00  0.00     0.002 A 
ATOM     74  C   UNL     1       0.088  12.429 -13.070  1.00  0.00     0.091 A 
ATOM     75  F   UNL     1      -1.292  10.505 -12.774  1.00  0.00    -0.205 F 
ATOM     76  C   UNL     1       1.318  12.978 -13.471  1.00  0.00     0.022 A 
BRANCH  74  77
ATOM     77  S   UNL     1      -1.151  13.577 -12.458  1.00  0.00     0.127 S 
ATOM     78  O   UNL     1      -0.604  13.931 -11.150  1.00  0.00    -0.237 OA
ATOM     79  O   UNL     1      -1.097  14.649 -13.452  1.00  0.00    -0.237 OA
ATOM     80  O   UNL     1      -2.405  12.837 -12.432  1.00  0.00    -0.744 OA
ENDBRANCH  74  77
ENDBRANCH  56  70
BRANCH  57  81
ATOM     81  C   UNL     1      -0.781   0.424 -14.666  1.00  0.00     0.023 A 
ATOM     82  C   UNL     1      -0.407  -0.253 -15.844  1.00  0.00     0.012 A 
ATOM     83  C   UNL     1      -1.379  -0.301 -13.618  1.00  0.00     0.148 A 
ATOM     84  C   UNL     1      -0.653  -1.619 -15.987  1.00  0.00     0.002 A 
ATOM     85  C   UNL     1      -1.570  -1.672 -13.745  1.00  0.00     0.091 A 
ATOM     86  F   UNL     1      -1.739   0.364 -12.511  1.00  0.00    -0.205 F 
ATOM     87  C   UNL     1      -1.224  -2.330 -14.936  1.00  0.00     0.022 A 
BRANCH  85  88
ATOM     88  S   UNL     1      -2.176  -2.688 -12.394  1.00  0.00     0.127 S 
ATOM     89  O   UNL     1      -3.525  -3.017 -12.847  1.00  0.00    -0.237 OA
ATOM     90  O   UNL     1      -1.231  -3.806 -12.408  1.00  0.00    -0.237 OA
ATOM     91  O   UNL     1      -2.092  -1.850 -11.205  1.00  0.00    -0.744 OA
ENDBRANCH  85  88
ENDBRANCH  57  81
BRANCH  69  92
ATOM     92  C   UNL     1      -3.182   6.055 -18.028  1.00  0.00     0.023 A 
ATOM     93  C   UNL     1      -4.559   5.892 -17.780  1.00  0.00     0.012 A 
ATOM     94  C   UNL     1      -2.752   6.464 -19.306  1.00  0.00     0.148 A 
ATOM     95  C   UNL     1      -5.491   6.105 -18.795  1.00  0.00     0.002 A 
ATOM     96  C   UNL     1      -3.690   6.721 -20.299  1.00  0.00     0.091 A 
ATOM     97  F   UNL     1      -1.436   6.595 -19.528  1.00  0.00    -0.205 F 
ATOM     98  C   UNL     1      -5.059   6.531 -20.049  1.00  0.00     0.022 A 
BRANCH  96  99
ATOM     99  S   UNL     1      -3.232   7.363 -21.914  1.00  0.00     0.127 S 
ATOM    100  O   UNL     1      -3.434   6.193 -22.767  1.00  0.00    -0.237 OA
ATOM    101  O   UNL     1      -4.207   8.436 -22.109  1.00  0.00    -0.237 OA
ATOM    102  O   UNL     1      -1.853   7.816 -21.788  1.00  0.00    -0.744 OA
ENDBRANCH  96  99
ENDBRANCH  69  92
ENDBRANCH  43  44
ENDBRANCH  35  38
ENDBRANCH  33  34
ENDBRANCH  32  33
ENDBRANCH  31  32
ENDBRANCH   1  31
TORSDOF 20
