REMARK SMILES Cc1nsc(N(C)C(=O)[C@@H](C)CCC[C@H](C)[NH3+])c1C(=O)NCCCCCCNC(=O)c1ccc(-c2c3nc(c(-c4cccc(S(=O)(=O)[O-])c4F)c4ccc([nH]4)c(-c4cccc(S(=O)(=O)[O-])c4F)c4nc(c(-c5cccc(S(=O)(=O)[O-])c5F)c5ccc2[nH]5)C=C4)C=C3)cc1
REMARK SMILES IDX 22 1 21 2 19 3 20 4 18 6 1 7 2 8 3 9 4 10 5 11 6 12 7 13
REMARK SMILES IDX 8 14 9 15 10 16 11 17 12 18 13 19 14 20 15 21 16 22 17 23
REMARK SMILES IDX 23 27 24 28 25 29 26 30 27 31 28 32 29 33 30 35 31 36 32 37
REMARK SMILES IDX 93 38 33 39 92 40 34 41 35 42 36 43 86 44 37 45 91 46 85 47
REMARK SMILES IDX 87 48 38 49 90 50 84 51 83 52 39 54 71 55 51 56 70 57 52 58
REMARK SMILES IDX 55 59 69 60 88 61 53 62 54 63 68 65 89 66 56 67 40 68 41 69
REMARK SMILES IDX 49 70 42 71 44 72 50 73 43 74 45 75 46 76 47 77 48 78 72 79
REMARK SMILES IDX 73 80 81 81 74 82 76 83 82 84 75 85 77 86 78 87 79 88 80 89
REMARK SMILES IDX 57 90 58 91 66 92 59 93 61 94 67 95 60 96 62 97 63 98 64 99
REMARK SMILES IDX 65 100
REMARK H PARENT 21 5 17 24 17 25 17 26 28 34 87 53 55 64
REMARK Flexibility Score: inf
ROOT
ATOM      1  C   UNL     1      11.643   9.785   4.960  1.00  0.00     0.116 C 
ENDROOT
BRANCH   1   2
ATOM      2  N   UNL     1      10.467   9.634   4.135  1.00  0.00    -0.352 N 
ATOM      3  C   UNL     1       9.296   8.951   4.397  1.00  0.00     0.256 C 
ATOM      4  O   UNL     1       8.330   9.193   3.666  1.00  0.00    -0.269 OA
ATOM      5  H   UNL     1      10.507  10.082   3.259  1.00  0.00     0.163 HD
BRANCH   3   6
ATOM      6  C   UNL     1       9.178   7.994   5.503  1.00  0.00     0.097 A 
ATOM      7  C   UNL     1      10.072   9.423   7.582  1.00  0.00     0.069 C 
ATOM      8  C   UNL     1       9.479   8.227   6.919  1.00  0.00     0.066 A 
ATOM      9  N   UNL     1       9.129   7.261   7.765  1.00  0.00    -0.195 NA
ATOM     10  S   UNL     1       8.456   6.034   6.940  1.00  0.00    -0.017 S 
ATOM     11  C   UNL     1       8.568   6.732   5.372  1.00  0.00     0.131 A 
BRANCH  11  12
ATOM     12  N   UNL     1       8.031   5.962   4.297  1.00  0.00    -0.305 N 
ATOM     13  C   UNL     1       7.165   4.806   4.558  1.00  0.00     0.154 C 
BRANCH  12  14
ATOM     14  C   UNL     1       8.445   6.273   2.999  1.00  0.00     0.230 C 
ATOM     15  O   UNL     1       9.547   6.779   2.755  1.00  0.00    -0.274 OA
BRANCH  14  16
ATOM     16  C   UNL     1       7.562   5.912   1.780  1.00  0.00     0.076 C 
ATOM     17  C   UNL     1       7.911   4.532   1.212  1.00  0.00     0.018 C 
BRANCH  16  18
ATOM     18  C   UNL     1       6.039   6.116   1.907  1.00  0.00     0.013 C 
BRANCH  18  19
ATOM     19  C   UNL     1       5.562   7.576   1.930  1.00  0.00     0.007 C 
BRANCH  19  20
ATOM     20  C   UNL     1       5.887   8.414   0.688  1.00  0.00     0.064 C 
BRANCH  20  21
ATOM     21  C   UNL     1       5.050   8.196  -0.594  1.00  0.00     0.177 C 
ATOM     22  C   UNL     1       4.346   6.857  -0.776  1.00  0.00     0.075 C 
BRANCH  21  23
ATOM     23  N   UNL     1       5.898   8.422  -1.774  1.00  0.00    -0.355 N 
ATOM     24  H   UNL     1       6.628   7.710  -1.809  1.00  0.00     0.344 HD
ATOM     25  H   UNL     1       6.327   9.346  -1.712  1.00  0.00     0.344 HD
ATOM     26  H   UNL     1       5.328   8.368  -2.618  1.00  0.00     0.344 HD
ENDBRANCH  21  23
ENDBRANCH  20  21
ENDBRANCH  19  20
ENDBRANCH  18  19
ENDBRANCH  16  18
ENDBRANCH  14  16
ENDBRANCH  12  14
ENDBRANCH  11  12
ENDBRANCH   3   6
ENDBRANCH   1   2
BRANCH   1  27
ATOM     27  C   UNL     1      12.957  10.113   4.262  1.00  0.00     0.021 C 
BRANCH  27  28
ATOM     28  C   UNL     1      12.995  11.275   3.267  1.00  0.00     0.002 C 
BRANCH  28  29
ATOM     29  C   UNL     1      12.297  12.599   3.613  1.00  0.00     0.002 C 
BRANCH  29  30
ATOM     30  C   UNL     1      12.626  13.307   4.934  1.00  0.00     0.021 C 
BRANCH  30  31
ATOM     31  C   UNL     1      14.093  13.614   5.177  1.00  0.00     0.116 C 
BRANCH  31  32
ATOM     32  N   UNL     1      14.693  14.527   4.193  1.00  0.00    -0.352 N 
ATOM     33  C   UNL     1      16.024  14.922   4.083  1.00  0.00     0.251 C 
ATOM     34  H   UNL     1      14.076  14.909   3.527  1.00  0.00     0.163 HD
ATOM     35  O   UNL     1      16.338  15.939   3.484  1.00  0.00    -0.269 OA
BRANCH  33  36
ATOM     36  C   UNL     1      17.055  14.061   4.695  1.00  0.00     0.039 A 
ATOM     37  C   UNL     1      18.202  14.544   5.331  1.00  0.00     0.014 A 
ATOM     38  C   UNL     1      16.794  12.701   4.656  1.00  0.00     0.014 A 
ATOM     39  C   UNL     1      19.035  13.627   5.974  1.00  0.00     0.010 A 
ATOM     40  C   UNL     1      17.410  11.883   5.548  1.00  0.00     0.010 A 
ATOM     41  C   UNL     1      18.618  12.292   6.077  1.00  0.00    -0.014 A 
BRANCH  41  42
ATOM     42  C   UNL     1      19.377  11.262   6.767  1.00  0.00     0.031 A 
ATOM     43  C   UNL     1      19.596  11.559   8.199  1.00  0.00     0.074 A 
ATOM     44  C   UNL     1      19.596  10.044   6.215  1.00  0.00     0.049 A 
ATOM     45  N   UNL     1      20.677  12.000   8.753  1.00  0.00    -0.248 NA
ATOM     46  C   UNL     1      18.425  11.564   9.091  1.00  0.00     0.031 C 
ATOM     47  C   UNL     1      19.048   9.519   4.948  1.00  0.00     0.029 A 
ATOM     48  N   UNL     1      20.223   8.952   6.731  1.00  0.00    -0.354 N 
ATOM     49  C   UNL     1      20.389  12.015  10.115  1.00  0.00     0.074 A 
ATOM     50  C   UNL     1      18.956  12.038  10.221  1.00  0.00     0.031 C 
ATOM     51  C   UNL     1      19.133   8.172   4.936  1.00  0.00     0.029 A 
ATOM     52  C   UNL     1      19.925   7.760   6.074  1.00  0.00     0.049 A 
ATOM     53  H   UNL     1      20.834   9.001   7.501  1.00  0.00     0.167 HD
ATOM     54  C   UNL     1      21.325  11.609  11.018  1.00  0.00     0.034 A 
ATOM     55  C   UNL     1      20.291   6.513   6.452  1.00  0.00     0.034 A 
ATOM     56  C   UNL     1      22.598  11.414  10.370  1.00  0.00     0.049 A 
ATOM     57  C   UNL     1      21.461   6.657   7.341  1.00  0.00     0.074 A 
ATOM     58  C   UNL     1      23.602  12.200   9.853  1.00  0.00     0.029 A 
ATOM     59  N   UNL     1      22.736  10.158   9.837  1.00  0.00    -0.354 N 
ATOM     60  N   UNL     1      22.602   7.151   6.942  1.00  0.00    -0.248 NA
ATOM     61  C   UNL     1      21.272   6.597   8.785  1.00  0.00     0.031 C 
ATOM     62  C   UNL     1      24.254  11.404   8.863  1.00  0.00     0.029 A 
ATOM     63  C   UNL     1      23.663  10.142   8.833  1.00  0.00     0.049 A 
ATOM     64  H   UNL     1      22.231   9.368  10.139  1.00  0.00     0.167 HD
ATOM     65  C   UNL     1      23.047   7.872   8.035  1.00  0.00     0.074 A 
ATOM     66  C   UNL     1      22.310   7.342   9.175  1.00  0.00     0.031 C 
ATOM     67  C   UNL     1      23.704   9.056   7.876  1.00  0.00     0.034 A 
BRANCH  54  68
ATOM     68  C   UNL     1      21.052  10.905  12.334  1.00  0.00     0.023 A 
ATOM     69  C   UNL     1      22.159  10.713  13.193  1.00  0.00     0.012 A 
ATOM     70  C   UNL     1      19.877  10.183  12.643  1.00  0.00     0.148 A 
ATOM     71  C   UNL     1      22.109   9.826  14.275  1.00  0.00     0.002 A 
ATOM     72  C   UNL     1      19.807   9.363  13.764  1.00  0.00     0.091 A 
ATOM     73  F   UNL     1      18.856  10.162  11.785  1.00  0.00    -0.205 F 
ATOM     74  C   UNL     1      20.929   9.156  14.567  1.00  0.00     0.022 A 
BRANCH  72  75
ATOM     75  S   UNL     1      18.292   8.501  14.207  1.00  0.00     0.127 S 
ATOM     76  O   UNL     1      18.630   7.123  13.866  1.00  0.00    -0.237 OA
ATOM     77  O   UNL     1      18.198   8.784  15.639  1.00  0.00    -0.237 OA
ATOM     78  O   UNL     1      17.243   9.124  13.408  1.00  0.00    -0.744 OA
ENDBRANCH  72  75
ENDBRANCH  54  68
BRANCH  55  79
ATOM     79  C   UNL     1      19.585   5.226   6.278  1.00  0.00     0.023 A 
ATOM     80  C   UNL     1      20.309   4.018   6.263  1.00  0.00     0.012 A 
ATOM     81  C   UNL     1      18.181   5.166   6.421  1.00  0.00     0.148 A 
ATOM     82  C   UNL     1      19.660   2.789   6.429  1.00  0.00     0.002 A 
ATOM     83  C   UNL     1      17.540   3.942   6.589  1.00  0.00     0.091 A 
ATOM     84  F   UNL     1      17.494   6.315   6.477  1.00  0.00    -0.205 F 
ATOM     85  C   UNL     1      18.279   2.751   6.607  1.00  0.00     0.022 A 
BRANCH  83  86
ATOM     86  S   UNL     1      15.768   3.809   6.861  1.00  0.00     0.127 S 
ATOM     87  O   UNL     1      15.372   2.883   5.800  1.00  0.00    -0.237 OA
ATOM     88  O   UNL     1      15.711   3.253   8.210  1.00  0.00    -0.237 OA
ATOM     89  O   UNL     1      15.240   5.160   6.713  1.00  0.00    -0.744 OA
ENDBRANCH  83  86
ENDBRANCH  55  79
BRANCH  67  90
ATOM     90  C   UNL     1      24.382   9.310   6.562  1.00  0.00     0.023 A 
ATOM     91  C   UNL     1      23.684   9.547   5.362  1.00  0.00     0.012 A 
ATOM     92  C   UNL     1      25.781   9.417   6.574  1.00  0.00     0.148 A 
ATOM     93  C   UNL     1      24.378   9.874   4.192  1.00  0.00     0.002 A 
ATOM     94  C   UNL     1      26.462   9.784   5.423  1.00  0.00     0.091 A 
ATOM     95  F   UNL     1      26.423   9.177   7.727  1.00  0.00    -0.205 F 
ATOM     96  C   UNL     1      25.766  10.005   4.225  1.00  0.00     0.022 A 
BRANCH  94  97
ATOM     97  S   UNL     1      28.231  10.076   5.442  1.00  0.00     0.127 S 
ATOM     98  O   UNL     1      28.742   8.899   4.742  1.00  0.00    -0.237 OA
ATOM     99  O   UNL     1      28.349  11.331   4.699  1.00  0.00    -0.237 OA
ATOM    100  O   UNL     1      28.605  10.181   6.847  1.00  0.00    -0.744 OA
ENDBRANCH  94  97
ENDBRANCH  67  90
ENDBRANCH  41  42
ENDBRANCH  33  36
ENDBRANCH  31  32
ENDBRANCH  30  31
ENDBRANCH  29  30
ENDBRANCH  28  29
ENDBRANCH  27  28
ENDBRANCH   1  27
TORSDOF 24
