REMARK SMILES CCCc1c(C(=O)NCCCCCCNC(=O)c2ccc(-c3c4nc(c(-c5cccc(S(=O)(=O)[O-])c5F)c5ccc([nH]5)c(-c5cccc(S(=O)(=O)[O-])c5F)c5nc(c(-c6cccc(S(=O)(=O)[O-])c6F)c6ccc3[nH]6)C=C5)C=C4)cc2)nnn1-c1ccccc1[N+](=O)[O-]
REMARK SMILES IDX 12 1 11 2 10 3 9 4 8 5 6 6 7 7 5 9 4 10 83 11 81 12 82 13
REMARK SMILES IDX 3 14 2 15 1 16 84 17 85 18 89 19 86 20 88 21 87 22 90 23
REMARK SMILES IDX 91 24 92 25 13 26 14 27 15 28 16 29 17 31 18 32 19 33 80 34
REMARK SMILES IDX 20 35 79 36 21 37 22 38 23 39 73 40 24 41 78 42 72 43 74 44
REMARK SMILES IDX 25 45 77 46 71 47 70 48 26 50 58 51 38 52 57 53 39 54 42 55
REMARK SMILES IDX 56 56 75 57 40 58 41 59 55 61 76 62 43 63 27 64 28 65 36 66
REMARK SMILES IDX 29 67 31 68 37 69 30 70 32 71 33 72 34 73 35 74 59 75 60 76
REMARK SMILES IDX 68 77 61 78 63 79 69 80 62 81 64 82 65 83 66 84 67 85 44 86
REMARK SMILES IDX 45 87 53 88 46 89 48 90 54 91 47 92 49 93 50 94 51 95 52 96
REMARK H PARENT 8 8 15 30 74 49 42 60
REMARK Flexibility Score: inf
ROOT
ATOM      1  C   UNL     1       4.833  -0.599  -6.135  1.00  0.00     0.002 C 
ENDROOT
BRANCH   1   2
ATOM      2  C   UNL     1       5.099  -1.179  -4.737  1.00  0.00     0.002 C 
BRANCH   2   3
ATOM      3  C   UNL     1       3.882  -1.217  -3.809  1.00  0.00     0.021 C 
BRANCH   3   4
ATOM      4  C   UNL     1       2.714  -2.037  -4.363  1.00  0.00     0.116 C 
BRANCH   4   5
ATOM      5  N   UNL     1       2.763  -3.387  -3.872  1.00  0.00    -0.351 N 
ATOM      6  C   UNL     1       2.073  -4.081  -2.916  1.00  0.00     0.273 C 
ATOM      7  O   UNL     1       2.395  -5.275  -2.854  1.00  0.00    -0.267 OA
ATOM      8  H   UNL     1       3.445  -3.934  -4.325  1.00  0.00     0.163 HD
BRANCH   6   9
ATOM      9  C   UNL     1       0.996  -3.555  -2.060  1.00  0.00     0.174 A 
ATOM     10  C   UNL     1       0.507  -2.296  -1.667  1.00  0.00     0.078 A 
ATOM     11  N   UNL     1      -0.612  -2.623  -0.903  1.00  0.00    -0.210 N 
ATOM     12  N   UNL     1       0.266  -4.521  -1.388  1.00  0.00    -0.124 NA
ATOM     13  N   UNL     1      -0.639  -3.939  -0.634  1.00  0.00    -0.061 NA
BRANCH  10  14
ATOM     14  C   UNL     1       1.001  -0.898  -1.911  1.00  0.00     0.059 C 
BRANCH  14  15
ATOM     15  C   UNL     1       0.755   0.232  -0.913  1.00  0.00     0.003 C 
ATOM     16  C   UNL     1       1.393   0.034   0.449  1.00  0.00     0.004 C 
ENDBRANCH  14  15
ENDBRANCH  10  14
BRANCH  11  17
ATOM     17  C   UNL     1      -1.603  -1.812  -0.321  1.00  0.00     0.144 A 
ATOM     18  C   UNL     1      -1.731  -1.883   1.077  1.00  0.00     0.036 A 
ATOM     19  C   UNL     1      -2.406  -0.924  -1.049  1.00  0.00     0.294 A 
ATOM     20  C   UNL     1      -2.584  -1.006   1.744  1.00  0.00     0.003 A 
ATOM     21  C   UNL     1      -3.276  -0.055  -0.371  1.00  0.00     0.088 A 
ATOM     22  C   UNL     1      -3.345  -0.086   1.024  1.00  0.00     0.007 A 
BRANCH  19  23
ATOM     23  N   UNL     1      -2.420  -0.898  -2.511  1.00  0.00     0.065 N 
ATOM     24  O   UNL     1      -2.662   0.185  -3.062  1.00  0.00    -0.258 OA
ATOM     25  O   UNL     1      -2.220  -1.959  -3.116  1.00  0.00    -0.258 OA
ENDBRANCH  19  23
ENDBRANCH  11  17
ENDBRANCH   6   9
ENDBRANCH   4   5
ENDBRANCH   3   4
ENDBRANCH   2   3
ENDBRANCH   1   2
BRANCH   1  26
ATOM     26  C   UNL     1       4.128   0.766  -6.175  1.00  0.00     0.021 C 
BRANCH  26  27
ATOM     27  C   UNL     1       5.002   1.905  -5.672  1.00  0.00     0.116 C 
BRANCH  27  28
ATOM     28  N   UNL     1       6.157   2.112  -6.546  1.00  0.00    -0.352 N 
ATOM     29  C   UNL     1       7.224   2.974  -6.403  1.00  0.00     0.251 C 
ATOM     30  H   UNL     1       6.175   1.553  -7.356  1.00  0.00     0.163 HD
ATOM     31  O   UNL     1       7.915   3.269  -7.363  1.00  0.00    -0.269 OA
BRANCH  29  32
ATOM     32  C   UNL     1       7.516   3.530  -5.070  1.00  0.00     0.039 A 
ATOM     33  C   UNL     1       7.939   4.856  -4.925  1.00  0.00     0.014 A 
ATOM     34  C   UNL     1       7.359   2.705  -3.961  1.00  0.00     0.014 A 
ATOM     35  C   UNL     1       8.128   5.364  -3.643  1.00  0.00     0.010 A 
ATOM     36  C   UNL     1       7.393   3.246  -2.703  1.00  0.00     0.010 A 
ATOM     37  C   UNL     1       7.836   4.554  -2.537  1.00  0.00    -0.014 A 
BRANCH  37  38
ATOM     38  C   UNL     1       7.846   5.094  -1.182  1.00  0.00     0.031 A 
ATOM     39  C   UNL     1       6.900   6.223  -0.989  1.00  0.00     0.074 A 
ATOM     40  C   UNL     1       8.456   4.452  -0.161  1.00  0.00     0.049 A 
ATOM     41  N   UNL     1       7.186   7.469  -0.800  1.00  0.00    -0.248 NA
ATOM     42  C   UNL     1       5.466   5.975  -1.219  1.00  0.00     0.031 C 
ATOM     43  C   UNL     1       9.137   3.148  -0.220  1.00  0.00     0.029 A 
ATOM     44  N   UNL     1       8.465   4.732   1.173  1.00  0.00    -0.354 N 
ATOM     45  C   UNL     1       5.958   8.096  -0.592  1.00  0.00     0.074 A 
ATOM     46  C   UNL     1       4.964   7.209  -1.127  1.00  0.00     0.031 C 
ATOM     47  C   UNL     1       9.251   2.640   1.025  1.00  0.00     0.029 A 
ATOM     48  C   UNL     1       8.827   3.650   1.974  1.00  0.00     0.049 A 
ATOM     49  H   UNL     1       8.237   5.618   1.537  1.00  0.00     0.167 HD
ATOM     50  C   UNL     1       5.845   9.107   0.316  1.00  0.00     0.034 A 
ATOM     51  C   UNL     1       8.766   3.575   3.324  1.00  0.00     0.034 A 
ATOM     52  C   UNL     1       7.151   9.548   0.739  1.00  0.00     0.049 A 
ATOM     53  C   UNL     1       8.738   4.957   3.837  1.00  0.00     0.074 A 
ATOM     54  C   UNL     1       8.211  10.233   0.189  1.00  0.00     0.029 A 
ATOM     55  N   UNL     1       7.615   8.880   1.843  1.00  0.00    -0.354 N 
ATOM     56  N   UNL     1       9.749   5.772   3.728  1.00  0.00    -0.248 NA
ATOM     57  C   UNL     1       7.464   5.577   4.176  1.00  0.00     0.031 C 
ATOM     58  C   UNL     1       9.370   9.780   0.886  1.00  0.00     0.029 A 
ATOM     59  C   UNL     1       8.980   8.870   1.869  1.00  0.00     0.049 A 
ATOM     60  H   UNL     1       7.040   8.465   2.526  1.00  0.00     0.167 HD
ATOM     61  C   UNL     1       9.154   7.000   3.506  1.00  0.00     0.074 A 
ATOM     62  C   UNL     1       7.789   6.860   3.994  1.00  0.00     0.031 C 
ATOM     63  C   UNL     1       9.716   7.891   2.640  1.00  0.00     0.034 A 
BRANCH  50  64
ATOM     64  C   UNL     1       4.644   9.380   1.213  1.00  0.00     0.023 A 
ATOM     65  C   UNL     1       4.739  10.506   2.068  1.00  0.00     0.012 A 
ATOM     66  C   UNL     1       3.602   8.466   1.492  1.00  0.00     0.148 A 
ATOM     67  C   UNL     1       3.896  10.674   3.173  1.00  0.00     0.002 A 
ATOM     68  C   UNL     1       2.723   8.670   2.554  1.00  0.00     0.091 A 
ATOM     69  F   UNL     1       3.513   7.318   0.822  1.00  0.00    -0.205 F 
ATOM     70  C   UNL     1       2.886   9.754   3.417  1.00  0.00     0.022 A 
BRANCH  68  71
ATOM     71  S   UNL     1       1.381   7.522   2.900  1.00  0.00     0.127 S 
ATOM     72  O   UNL     1       1.849   6.886   4.127  1.00  0.00    -0.237 OA
ATOM     73  O   UNL     1       0.247   8.432   3.064  1.00  0.00    -0.237 OA
ATOM     74  O   UNL     1       1.286   6.657   1.730  1.00  0.00    -0.744 OA
ENDBRANCH  68  71
ENDBRANCH  50  64
BRANCH  51  75
ATOM     75  C   UNL     1       8.608   2.419   4.230  1.00  0.00     0.023 A 
ATOM     76  C   UNL     1       9.092   2.496   5.551  1.00  0.00     0.012 A 
ATOM     77  C   UNL     1       7.722   1.372   3.898  1.00  0.00     0.148 A 
ATOM     78  C   UNL     1       8.666   1.589   6.528  1.00  0.00     0.002 A 
ATOM     79  C   UNL     1       7.293   0.478   4.875  1.00  0.00     0.091 A 
ATOM     80  F   UNL     1       7.236   1.316   2.650  1.00  0.00    -0.205 F 
ATOM     81  C   UNL     1       7.754   0.592   6.194  1.00  0.00     0.022 A 
BRANCH  79  82
ATOM     82  S   UNL     1       6.071  -0.798   4.543  1.00  0.00     0.127 S 
ATOM     83  O   UNL     1       6.749  -1.997   5.034  1.00  0.00    -0.237 OA
ATOM     84  O   UNL     1       4.943  -0.353   5.358  1.00  0.00    -0.237 OA
ATOM     85  O   UNL     1       5.849  -0.773   3.103  1.00  0.00    -0.744 OA
ENDBRANCH  79  82
ENDBRANCH  51  75
BRANCH  63  86
ATOM     86  C   UNL     1      11.174   7.720   2.329  1.00  0.00     0.023 A 
ATOM     87  C   UNL     1      11.684   6.631   1.594  1.00  0.00     0.012 A 
ATOM     88  C   UNL     1      12.041   8.755   2.711  1.00  0.00     0.148 A 
ATOM     89  C   UNL     1      13.041   6.570   1.266  1.00  0.00     0.002 A 
ATOM     90  C   UNL     1      13.377   8.714   2.341  1.00  0.00     0.091 A 
ATOM     91  F   UNL     1      11.534   9.776   3.419  1.00  0.00    -0.205 F 
ATOM     92  C   UNL     1      13.885   7.618   1.627  1.00  0.00     0.022 A 
BRANCH  90  93
ATOM     93  S   UNL     1      14.472  10.093   2.676  1.00  0.00     0.127 S 
ATOM     94  O   UNL     1      15.260   9.591   3.799  1.00  0.00    -0.237 OA
ATOM     95  O   UNL     1      15.210  10.220   1.417  1.00  0.00    -0.237 OA
ATOM     96  O   UNL     1      13.606  11.228   2.971  1.00  0.00    -0.744 OA
ENDBRANCH  90  93
ENDBRANCH  63  86
ENDBRANCH  37  38
ENDBRANCH  29  32
ENDBRANCH  27  28
ENDBRANCH  26  27
ENDBRANCH   1  26
TORSDOF 20
