REMARK SMILES O=C(NCCCCCCNC(=O)c1ccccc1OCC[S@@](=O)c1cccc(F)c1)c1ccc(-c2c3nc(c(-c4cccc(S(=O)(=O)[O-])c4F)c4ccc([nH]4)c(-c4cccc(S(=O)(=O)[O-])c4F)c4nc(c(-c5cccc(S(=O)(=O)[O-])c5F)c5ccc2[nH]5)C=C4)C=C3)cc1
REMARK SMILES IDX 7 1 6 2 5 3 4 4 3 5 1 6 2 7 31 9 32 10 93 11 33 12 92 13
REMARK SMILES IDX 34 14 35 15 36 16 86 17 37 18 91 19 85 20 87 21 38 22 90 23
REMARK SMILES IDX 84 24 83 25 39 27 71 28 51 29 70 30 52 31 55 32 69 33 88 34
REMARK SMILES IDX 53 35 54 36 68 38 89 39 56 40 40 41 41 42 49 43 42 44 44 45
REMARK SMILES IDX 50 46 43 47 45 48 46 49 47 50 48 51 72 52 73 53 81 54 74 55
REMARK SMILES IDX 76 56 82 57 75 58 77 59 78 60 79 61 80 62 57 63 58 64 66 65
REMARK SMILES IDX 59 66 61 67 67 68 60 69 62 70 63 71 64 72 65 73 8 74 9 75
REMARK SMILES IDX 10 76 11 77 12 79 13 80 14 81 18 82 15 83 17 84 16 85 19 86
REMARK SMILES IDX 20 87 21 88 22 89 23 90 24 91 25 92 30 93 26 94 28 95 27 96
REMARK SMILES IDX 29 97
REMARK H PARENT 3 8 87 26 55 37 10 78
REMARK Flexibility Score: inf
ROOT
ATOM      1  C   UNL     1       6.127  -0.569   3.504  1.00  0.00     0.002 C 
ENDROOT
BRANCH   1   2
ATOM      2  C   UNL     1       4.925   0.382   3.589  1.00  0.00     0.002 C 
BRANCH   2   3
ATOM      3  C   UNL     1       4.716   1.229   2.333  1.00  0.00     0.021 C 
BRANCH   3   4
ATOM      4  C   UNL     1       4.412   0.425   1.075  1.00  0.00     0.116 C 
BRANCH   4   5
ATOM      5  N   UNL     1       3.030  -0.026   1.001  1.00  0.00    -0.352 N 
ATOM      6  O   UNL     1       1.045  -0.320  -0.067  1.00  0.00    -0.269 OA
ATOM      7  C   UNL     1       2.245  -0.058  -0.129  1.00  0.00     0.251 C 
ATOM      8  H   UNL     1       2.618  -0.337   1.839  1.00  0.00     0.163 HD
BRANCH   7   9
ATOM      9  C   UNL     1       2.888   0.267  -1.418  1.00  0.00     0.039 A 
ATOM     10  C   UNL     1       4.036  -0.434  -1.802  1.00  0.00     0.014 A 
ATOM     11  C   UNL     1       2.421   1.343  -2.173  1.00  0.00     0.014 A 
ATOM     12  C   UNL     1       4.789   0.023  -2.875  1.00  0.00     0.010 A 
ATOM     13  C   UNL     1       3.137   1.748  -3.301  1.00  0.00     0.010 A 
ATOM     14  C   UNL     1       4.339   1.107  -3.647  1.00  0.00    -0.014 A 
BRANCH  14  15
ATOM     15  C   UNL     1       5.080   1.484  -4.875  1.00  0.00     0.031 A 
ATOM     16  C   UNL     1       5.725   2.832  -5.027  1.00  0.00     0.074 A 
ATOM     17  C   UNL     1       5.126   0.589  -5.880  1.00  0.00     0.049 A 
ATOM     18  N   UNL     1       6.370   3.320  -6.055  1.00  0.00    -0.248 NA
ATOM     19  C   UNL     1       5.628   3.756  -3.886  1.00  0.00     0.031 C 
ATOM     20  C   UNL     1       4.485  -0.729  -5.856  1.00  0.00     0.029 A 
ATOM     21  N   UNL     1       5.712   0.651  -7.117  1.00  0.00    -0.354 N 
ATOM     22  C   UNL     1       6.714   4.622  -5.710  1.00  0.00     0.074 A 
ATOM     23  C   UNL     1       6.208   4.847  -4.372  1.00  0.00     0.031 C 
ATOM     24  C   UNL     1       4.713  -1.351  -7.019  1.00  0.00     0.029 A 
ATOM     25  C   UNL     1       5.462  -0.457  -7.892  1.00  0.00     0.049 A 
ATOM     26  H   UNL     1       6.257   1.413  -7.421  1.00  0.00     0.167 HD
ATOM     27  C   UNL     1       7.395   5.537  -6.441  1.00  0.00     0.034 A 
ATOM     28  C   UNL     1       5.768  -0.716  -9.177  1.00  0.00     0.034 A 
ATOM     29  C   UNL     1       7.920   5.285  -7.758  1.00  0.00     0.049 A 
ATOM     30  C   UNL     1       6.551   0.300  -9.950  1.00  0.00     0.074 A 
ATOM     31  C   UNL     1       8.697   6.114  -8.549  1.00  0.00     0.029 A 
ATOM     32  N   UNL     1       7.710   4.122  -8.487  1.00  0.00    -0.354 N 
ATOM     33  N   UNL     1       6.989   1.471  -9.556  1.00  0.00    -0.248 NA
ATOM     34  C   UNL     1       6.907  -0.047 -11.331  1.00  0.00     0.031 C 
ATOM     35  C   UNL     1       8.937   5.462  -9.764  1.00  0.00     0.029 A 
ATOM     36  C   UNL     1       8.329   4.217  -9.723  1.00  0.00     0.049 A 
ATOM     37  H   UNL     1       7.197   3.344  -8.171  1.00  0.00     0.167 HD
ATOM     38  C   UNL     1       7.688   1.997 -10.634  1.00  0.00     0.074 A 
ATOM     39  C   UNL     1       7.637   1.003 -11.688  1.00  0.00     0.031 C 
ATOM     40  C   UNL     1       8.300   3.202 -10.746  1.00  0.00     0.034 A 
BRANCH  27  41
ATOM     41  C   UNL     1       7.640   6.892  -5.825  1.00  0.00     0.023 A 
ATOM     42  C   UNL     1       8.587   7.027  -4.789  1.00  0.00     0.012 A 
ATOM     43  C   UNL     1       6.980   8.040  -6.307  1.00  0.00     0.148 A 
ATOM     44  C   UNL     1       8.849   8.274  -4.222  1.00  0.00     0.002 A 
ATOM     45  C   UNL     1       7.274   9.286  -5.763  1.00  0.00     0.091 A 
ATOM     46  F   UNL     1       6.066   7.894  -7.277  1.00  0.00    -0.205 F 
ATOM     47  C   UNL     1       8.200   9.403  -4.714  1.00  0.00     0.022 A 
BRANCH  45  48
ATOM     48  S   UNL     1       6.541  10.805  -6.384  1.00  0.00     0.127 S 
ATOM     49  O   UNL     1       5.529  11.082  -5.366  1.00  0.00    -0.237 OA
ATOM     50  O   UNL     1       7.678  11.726  -6.378  1.00  0.00    -0.237 OA
ATOM     51  O   UNL     1       6.033  10.485  -7.711  1.00  0.00    -0.744 OA
ENDBRANCH  45  48
ENDBRANCH  27  41
BRANCH  28  52
ATOM     52  C   UNL     1       5.341  -2.012  -9.772  1.00  0.00     0.023 A 
ATOM     53  C   UNL     1       6.301  -3.008 -10.028  1.00  0.00     0.012 A 
ATOM     54  C   UNL     1       3.977  -2.296  -9.981  1.00  0.00     0.148 A 
ATOM     55  C   UNL     1       5.908  -4.265 -10.492  1.00  0.00     0.002 A 
ATOM     56  C   UNL     1       3.589  -3.568 -10.383  1.00  0.00     0.091 A 
ATOM     57  F   UNL     1       3.082  -1.327  -9.740  1.00  0.00    -0.205 F 
ATOM     58  C   UNL     1       4.554  -4.550 -10.653  1.00  0.00     0.022 A 
BRANCH  56  59
ATOM     59  S   UNL     1       1.864  -4.064 -10.460  1.00  0.00     0.127 S 
ATOM     60  O   UNL     1       1.639  -4.139 -11.901  1.00  0.00    -0.237 OA
ATOM     61  O   UNL     1       1.889  -5.356  -9.773  1.00  0.00    -0.237 OA
ATOM     62  O   UNL     1       1.126  -3.026  -9.755  1.00  0.00    -0.744 OA
ENDBRANCH  56  59
ENDBRANCH  28  52
BRANCH  40  63
ATOM     63  C   UNL     1       8.979   3.510 -12.053  1.00  0.00     0.023 A 
ATOM     64  C   UNL     1       8.200   3.829 -13.183  1.00  0.00     0.012 A 
ATOM     65  C   UNL     1      10.383   3.554 -12.143  1.00  0.00     0.148 A 
ATOM     66  C   UNL     1       8.810   4.163 -14.391  1.00  0.00     0.002 A 
ATOM     67  C   UNL     1      10.984   3.932 -13.338  1.00  0.00     0.091 A 
ATOM     68  F   UNL     1      11.104   3.225 -11.061  1.00  0.00    -0.205 F 
ATOM     69  C   UNL     1      10.199   4.227 -14.465  1.00  0.00     0.022 A 
BRANCH  67  70
ATOM     70  S   UNL     1      12.762   4.128 -13.500  1.00  0.00     0.127 S 
ATOM     71  O   UNL     1      13.117   2.967 -14.314  1.00  0.00    -0.237 OA
ATOM     72  O   UNL     1      12.871   5.414 -14.190  1.00  0.00    -0.237 OA
ATOM     73  O   UNL     1      13.291   4.126 -12.142  1.00  0.00    -0.744 OA
ENDBRANCH  67  70
ENDBRANCH  40  63
ENDBRANCH  14  15
ENDBRANCH   7   9
ENDBRANCH   4   5
ENDBRANCH   3   4
ENDBRANCH   2   3
ENDBRANCH   1   2
BRANCH   1  74
ATOM     74  C   UNL     1       7.525   0.097   3.463  1.00  0.00     0.021 C 
BRANCH  74  75
ATOM     75  C   UNL     1       8.133   0.605   4.801  1.00  0.00     0.116 C 
BRANCH  75  76
ATOM     76  N   UNL     1       8.427  -0.514   5.709  1.00  0.00    -0.352 N 
ATOM     77  C   UNL     1       9.125  -0.723   6.896  1.00  0.00     0.255 C 
ATOM     78  H   UNL     1       8.015  -1.349   5.388  1.00  0.00     0.163 HD
ATOM     79  O   UNL     1       9.146  -1.725   7.608  1.00  0.00    -0.269 OA
BRANCH  77  80
ATOM     80  C   UNL     1       9.698   0.348   7.594  1.00  0.00     0.081 A 
ATOM     81  C   UNL     1      11.019   0.239   8.022  1.00  0.00     0.018 A 
ATOM     82  C   UNL     1       8.856   1.409   7.780  1.00  0.00     0.132 A 
ATOM     83  C   UNL     1      11.664   1.403   8.335  1.00  0.00     0.001 A 
ATOM     84  C   UNL     1       9.540   2.605   7.935  1.00  0.00     0.047 A 
ATOM     85  C   UNL     1      10.949   2.596   8.179  1.00  0.00     0.004 A 
BRANCH  82  86
ATOM     86  O   UNL     1       7.484   1.236   7.641  1.00  0.00    -0.492 OA
BRANCH  86  87
ATOM     87  C   UNL     1       6.870  -0.080   8.124  1.00  0.00     0.243 C 
BRANCH  87  88
ATOM     88  C   UNL     1       6.297  -1.200   7.107  1.00  0.00     0.152 C 
BRANCH  88  89
ATOM     89  S   UNL     1       6.893  -3.117   6.714  1.00  0.00     0.056 S 
ATOM     90  O   UNL     1       6.016  -3.519   5.559  1.00  0.00    -0.254 OA
BRANCH  89  91
ATOM     91  C   UNL     1       8.681  -3.509   5.977  1.00  0.00     0.042 A 
ATOM     92  C   UNL     1       9.436  -4.474   6.673  1.00  0.00     0.018 A 
ATOM     93  C   UNL     1       9.358  -2.886   4.907  1.00  0.00     0.057 A 
ATOM     94  C   UNL     1      10.830  -4.609   6.481  1.00  0.00     0.004 A 
ATOM     95  C   UNL     1      10.764  -2.898   4.840  1.00  0.00     0.124 A 
ATOM     96  C   UNL     1      11.512  -3.748   5.630  1.00  0.00     0.039 A 
ATOM     97  F   UNL     1      11.402  -2.018   4.050  1.00  0.00    -0.207 F 
ENDBRANCH  89  91
ENDBRANCH  88  89
ENDBRANCH  87  88
ENDBRANCH  86  87
ENDBRANCH  82  86
ENDBRANCH  77  80
ENDBRANCH  75  76
ENDBRANCH  74  75
ENDBRANCH   1  74
TORSDOF 21
