REMARK SMILES Cc1ccccc1NC(=O)C[NH+]1CCC(CC(=O)NCCCCCCNC(=O)c2ccc(-c3c4nc(c(-c5cccc(S(=O)(=O)[O-])c5F)c5ccc([nH]5)c(-c5cccc(S(=O)(=O)[O-])c5F)c5nc(c(-c6cccc(S(=O)(=O)[O-])c6F)c6ccc3[nH]6)C=C5)C=C4)cc2)CC1
REMARK SMILES IDX 22 1 21 2 20 3 19 4 17 5 18 6 16 8 15 9 12 10 13 11 93 12
REMARK SMILES IDX 14 14 92 15 11 16 9 17 8 18 10 20 7 21 1 22 2 23 3 24 4 25
REMARK SMILES IDX 6 26 5 27 23 28 24 29 25 30 26 31 27 32 28 34 29 35 30 36
REMARK SMILES IDX 91 37 31 38 90 39 32 40 33 41 34 42 84 43 35 44 89 45 83 46
REMARK SMILES IDX 85 47 36 48 88 49 82 50 81 51 37 53 69 54 49 55 68 56 50 57
REMARK SMILES IDX 53 58 67 59 86 60 51 61 52 62 66 64 87 65 54 66 38 67 39 68
REMARK SMILES IDX 47 69 40 70 42 71 48 72 41 73 43 74 44 75 45 76 46 77 70 78
REMARK SMILES IDX 71 79 79 80 72 81 74 82 80 83 73 84 75 85 76 86 77 87 78 88
REMARK SMILES IDX 55 89 56 90 64 91 57 92 59 93 65 94 58 95 60 96 61 97 62 98
REMARK SMILES IDX 63 99
REMARK H PARENT 19 7 12 13 8 19 26 33 85 52 53 63
REMARK Flexibility Score: inf
ROOT
ATOM      1  C   UNL     1      -0.922   5.805  -7.182  1.00  0.00     0.002 C 
ENDROOT
BRANCH   1   2
ATOM      2  C   UNL     1      -1.262   4.818  -6.070  1.00  0.00     0.021 C 
BRANCH   2   3
ATOM      3  C   UNL     1      -2.058   3.588  -6.520  1.00  0.00     0.116 C 
BRANCH   3   4
ATOM      4  N   UNL     1      -1.175   2.486  -6.856  1.00  0.00    -0.356 N 
ATOM      5  C   UNL     1      -0.975   1.302  -6.209  1.00  0.00     0.220 C 
ATOM      6  O   UNL     1      -0.111   0.533  -6.634  1.00  0.00    -0.275 OA
ATOM      7  H   UNL     1      -0.641   2.612  -7.674  1.00  0.00     0.163 HD
BRANCH   5   8
ATOM      8  C   UNL     1      -1.828   0.935  -5.009  1.00  0.00     0.104 C 
BRANCH   8   9
ATOM      9  C   UNL     1      -1.256   1.362  -3.647  1.00  0.00     0.009 C 
ATOM     10  N   UNL     1      -1.515   2.917  -1.151  1.00  0.00    -0.327 N 
ATOM     11  C   UNL     1      -0.532   3.324  -2.154  1.00  0.00     0.262 C 
ATOM     12  C   UNL     1      -1.758   1.480  -1.187  1.00  0.00     0.262 C 
ATOM     13  H   UNL     1      -2.405   3.352  -1.393  1.00  0.00     0.348 HD
ATOM     14  C   UNL     1      -0.957   2.857  -3.540  1.00  0.00     0.066 C 
ATOM     15  C   UNL     1      -2.247   0.984  -2.542  1.00  0.00     0.066 C 
BRANCH  10  16
ATOM     16  C   UNL     1      -1.179   3.439   0.203  1.00  0.00     0.363 C 
BRANCH  16  17
ATOM     17  C   UNL     1       0.304   3.357   0.610  1.00  0.00     0.279 C 
ATOM     18  N   UNL     1       0.929   2.208   1.012  1.00  0.00    -0.321 N 
ATOM     19  H   UNL     1       1.874   2.323   1.264  1.00  0.00     0.170 HD
ATOM     20  O   UNL     1       1.031   4.351   0.485  1.00  0.00    -0.268 OA
BRANCH  18  21
ATOM     21  C   UNL     1       0.451   0.897   1.125  1.00  0.00     0.044 A 
ATOM     22  C   UNL     1       2.610  -0.012   0.051  1.00  0.00     0.046 C 
ATOM     23  C   UNL     1       1.208  -0.161   0.579  1.00  0.00    -0.027 A 
ATOM     24  C   UNL     1       0.610  -1.430   0.469  1.00  0.00     0.005 A 
ATOM     25  C   UNL     1      -0.689  -1.655   0.922  1.00  0.00     0.000 A 
ATOM     26  C   UNL     1      -0.804   0.630   1.682  1.00  0.00     0.026 A 
ATOM     27  C   UNL     1      -1.383  -0.634   1.561  1.00  0.00     0.002 A 
ENDBRANCH  18  21
ENDBRANCH  16  17
ENDBRANCH  10  16
ENDBRANCH   8   9
ENDBRANCH   5   8
ENDBRANCH   3   4
ENDBRANCH   2   3
ENDBRANCH   1   2
BRANCH   1  28
ATOM     28  C   UNL     1      -2.128   6.397  -7.915  1.00  0.00     0.002 C 
BRANCH  28  29
ATOM     29  C   UNL     1      -3.285   6.840  -7.018  1.00  0.00     0.021 C 
BRANCH  29  30
ATOM     30  C   UNL     1      -2.925   7.978  -6.077  1.00  0.00     0.116 C 
BRANCH  30  31
ATOM     31  N   UNL     1      -2.976   9.250  -6.766  1.00  0.00    -0.352 N 
ATOM     32  C   UNL     1      -3.173  10.509  -6.245  1.00  0.00     0.251 C 
ATOM     33  H   UNL     1      -2.853   9.210  -7.742  1.00  0.00     0.163 HD
ATOM     34  O   UNL     1      -3.737  11.351  -6.940  1.00  0.00    -0.269 OA
BRANCH  32  35
ATOM     35  C   UNL     1      -2.483  10.884  -4.985  1.00  0.00     0.039 A 
ATOM     36  C   UNL     1      -1.802  12.111  -5.009  1.00  0.00     0.014 A 
ATOM     37  C   UNL     1      -2.192   9.943  -4.005  1.00  0.00     0.014 A 
ATOM     38  C   UNL     1      -0.645  12.270  -4.258  1.00  0.00     0.010 A 
ATOM     39  C   UNL     1      -1.006  10.059  -3.324  1.00  0.00     0.010 A 
ATOM     40  C   UNL     1      -0.198  11.183  -3.526  1.00  0.00    -0.014 A 
BRANCH  40  41
ATOM     41  C   UNL     1       1.087  11.094  -2.865  1.00  0.00     0.031 A 
ATOM     42  C   UNL     1       1.167  11.474  -1.449  1.00  0.00     0.074 A 
ATOM     43  C   UNL     1       2.033  10.337  -3.462  1.00  0.00     0.049 A 
ATOM     44  N   UNL     1       2.251  11.473  -0.760  1.00  0.00    -0.248 NA
ATOM     45  C   UNL     1      -0.001  11.928  -0.701  1.00  0.00     0.031 C 
ATOM     46  C   UNL     1       3.116   9.607  -2.820  1.00  0.00     0.029 A 
ATOM     47  N   UNL     1       2.317  10.238  -4.830  1.00  0.00    -0.354 N 
ATOM     48  C   UNL     1       1.881  11.577   0.563  1.00  0.00     0.074 A 
ATOM     49  C   UNL     1       0.509  12.013   0.529  1.00  0.00     0.031 C 
ATOM     50  C   UNL     1       4.076   9.376  -3.728  1.00  0.00     0.029 A 
ATOM     51  C   UNL     1       3.717  10.136  -4.912  1.00  0.00     0.049 A 
ATOM     52  H   UNL     1       1.673  10.239  -5.575  1.00  0.00     0.167 HD
ATOM     53  C   UNL     1       2.744  11.107   1.506  1.00  0.00     0.034 A 
ATOM     54  C   UNL     1       4.503  11.097  -5.483  1.00  0.00     0.034 A 
ATOM     55  C   UNL     1       4.058  10.826   0.895  1.00  0.00     0.049 A 
ATOM     56  C   UNL     1       5.512  11.698  -4.517  1.00  0.00     0.074 A 
ATOM     57  C   UNL     1       4.710   9.665   0.514  1.00  0.00     0.029 A 
ATOM     58  N   UNL     1       4.762  11.875   0.309  1.00  0.00    -0.354 N 
ATOM     59  N   UNL     1       5.539  11.481  -3.229  1.00  0.00    -0.248 NA
ATOM     60  C   UNL     1       6.576  12.599  -4.939  1.00  0.00     0.031 C 
ATOM     61  C   UNL     1       5.763  10.026  -0.378  1.00  0.00     0.029 A 
ATOM     62  C   UNL     1       5.778  11.406  -0.509  1.00  0.00     0.049 A 
ATOM     63  H   UNL     1       4.563  12.828   0.457  1.00  0.00     0.167 HD
ATOM     64  C   UNL     1       6.500  12.259  -2.630  1.00  0.00     0.074 A 
ATOM     65  C   UNL     1       7.170  12.878  -3.765  1.00  0.00     0.031 C 
ATOM     66  C   UNL     1       6.613  12.349  -1.261  1.00  0.00     0.034 A 
BRANCH  53  67
ATOM     67  C   UNL     1       2.373  10.664   2.920  1.00  0.00     0.023 A 
ATOM     68  C   UNL     1       3.371   9.982   3.656  1.00  0.00     0.012 A 
ATOM     69  C   UNL     1       1.112  10.765   3.562  1.00  0.00     0.148 A 
ATOM     70  C   UNL     1       3.128   9.400   4.908  1.00  0.00     0.002 A 
ATOM     71  C   UNL     1       0.868  10.195   4.818  1.00  0.00     0.091 A 
ATOM     72  F   UNL     1       0.103  11.399   2.974  1.00  0.00    -0.205 F 
ATOM     73  C   UNL     1       1.874   9.501   5.489  1.00  0.00     0.022 A 
BRANCH  71  74
ATOM     74  S   UNL     1      -0.740  10.288   5.636  1.00  0.00     0.127 S 
ATOM     75  O   UNL     1      -1.108   8.876   5.751  1.00  0.00    -0.237 OA
ATOM     76  O   UNL     1      -0.408  10.933   6.906  1.00  0.00    -0.237 OA
ATOM     77  O   UNL     1      -1.610  11.070   4.765  1.00  0.00    -0.744 OA
ENDBRANCH  71  74
ENDBRANCH  53  67
BRANCH  54  78
ATOM     78  C   UNL     1       3.842  11.810  -6.616  1.00  0.00     0.023 A 
ATOM     79  C   UNL     1       3.562  11.038  -7.770  1.00  0.00     0.012 A 
ATOM     80  C   UNL     1       3.130  13.006  -6.409  1.00  0.00     0.148 A 
ATOM     81  C   UNL     1       2.497  11.366  -8.610  1.00  0.00     0.002 A 
ATOM     82  C   UNL     1       2.063  13.322  -7.249  1.00  0.00     0.091 A 
ATOM     83  F   UNL     1       3.441  13.756  -5.345  1.00  0.00    -0.205 F 
ATOM     84  C   UNL     1       1.722  12.483  -8.324  1.00  0.00     0.022 A 
BRANCH  82  85
ATOM     85  S   UNL     1       0.969  14.713  -6.927  1.00  0.00     0.127 S 
ATOM     86  O   UNL     1       1.436  15.687  -7.909  1.00  0.00    -0.237 OA
ATOM     87  O   UNL     1      -0.348  14.142  -7.206  1.00  0.00    -0.237 OA
ATOM     88  O   UNL     1       1.189  15.055  -5.530  1.00  0.00    -0.744 OA
ENDBRANCH  82  85
ENDBRANCH  54  78
BRANCH  66  89
ATOM     89  C   UNL     1       7.493  13.332  -0.474  1.00  0.00     0.023 A 
ATOM     90  C   UNL     1       8.233  14.361  -1.085  1.00  0.00     0.012 A 
ATOM     91  C   UNL     1       7.540  13.313   0.951  1.00  0.00     0.148 A 
ATOM     92  C   UNL     1       8.996  15.285  -0.357  1.00  0.00     0.002 A 
ATOM     93  C   UNL     1       8.214  14.296   1.677  1.00  0.00     0.091 A 
ATOM     94  F   UNL     1       6.964  12.314   1.632  1.00  0.00    -0.205 F 
ATOM     95  C   UNL     1       8.967  15.270   1.026  1.00  0.00     0.022 A 
BRANCH  93  96
ATOM     96  S   UNL     1       8.047  14.435   3.465  1.00  0.00     0.127 S 
ATOM     97  O   UNL     1       9.270  13.786   3.932  1.00  0.00    -0.237 OA
ATOM     98  O   UNL     1       8.015  15.886   3.661  1.00  0.00    -0.237 OA
ATOM     99  O   UNL     1       6.797  13.763   3.790  1.00  0.00    -0.744 OA
ENDBRANCH  93  96
ENDBRANCH  66  89
ENDBRANCH  40  41
ENDBRANCH  32  35
ENDBRANCH  30  31
ENDBRANCH  29  30
ENDBRANCH  28  29
ENDBRANCH   1  28
TORSDOF 20
