REMARK SMILES C[NH+]1CCC([NH+]2CCC(Oc3ccc4ccccc4c3)(C(=O)NCCCCCCNC(=O)c3ccc(-c4c5nc(c(-c6cccc(S(=O)(=O)[O-])c6F)c6ccc([nH]6)c(-c6cccc(S(=O)(=O)[O-])c6F)c6nc(c(-c7cccc(S(=O)(=O)[O-])c7F)c7ccc4[nH]7)C=C6)C=C5)cc3)CC2)CC1
REMARK SMILES IDX 27 1 26 2 25 3 24 4 23 5 21 6 22 7 9 9 6 10 7 11 97 12 8 14
REMARK SMILES IDX 96 15 5 16 1 17 2 18 3 19 99 20 4 22 98 23 10 24 11 25 12 26
REMARK SMILES IDX 20 27 13 28 19 29 14 30 18 31 15 32 17 33 16 34 28 35 29 36
REMARK SMILES IDX 30 37 31 38 32 40 33 41 34 42 95 43 35 44 94 45 36 46 37 47
REMARK SMILES IDX 38 48 88 49 39 50 93 51 87 52 89 53 40 54 92 55 86 56 85 57
REMARK SMILES IDX 41 59 73 60 53 61 72 62 54 63 57 64 71 65 90 66 55 67 56 68
REMARK SMILES IDX 70 70 91 71 58 72 42 73 43 74 51 75 44 76 46 77 52 78 45 79
REMARK SMILES IDX 47 80 48 81 49 82 50 83 74 84 75 85 83 86 76 87 78 88 84 89
REMARK SMILES IDX 77 90 79 91 80 92 81 93 82 94 59 95 60 96 68 97 61 98 63 99
REMARK SMILES IDX 69 100 62 101 64 102 65 103 66 104 67 105
REMARK H PARENT 23 8 6 13 2 21 30 39 89 58 57 69
REMARK Flexibility Score: inf
ROOT
ATOM      1  C   UNL     1       5.014  -3.152   7.164  1.00  0.00     0.002 C 
ENDROOT
BRANCH   1   2
ATOM      2  C   UNL     1       3.971  -2.484   6.263  1.00  0.00     0.002 C 
BRANCH   2   3
ATOM      3  C   UNL     1       4.491  -1.298   5.441  1.00  0.00     0.021 C 
BRANCH   3   4
ATOM      4  C   UNL     1       5.695  -1.636   4.561  1.00  0.00     0.116 C 
BRANCH   4   5
ATOM      5  N   UNL     1       5.310  -2.536   3.491  1.00  0.00    -0.353 N 
ATOM      6  C   UNL     1       5.242  -2.333   2.143  1.00  0.00     0.264 C 
ATOM      7  O   UNL     1       4.911  -3.314   1.466  1.00  0.00    -0.270 OA
ATOM      8  H   UNL     1       5.055  -3.440   3.785  1.00  0.00     0.163 HD
BRANCH   6   9
ATOM      9  C   UNL     1       5.575  -0.949   1.508  1.00  0.00     0.197 C 
ATOM     10  N   UNL     1       3.082  -0.109   0.181  1.00  0.00    -0.332 N 
ATOM     11  C   UNL     1       3.198  -0.129   1.642  1.00  0.00     0.267 C 
ATOM     12  C   UNL     1       3.919  -1.153  -0.436  1.00  0.00     0.267 C 
ATOM     13  H   UNL     1       3.446   0.792  -0.128  1.00  0.00     0.348 HD
ATOM     14  C   UNL     1       4.641   0.149   2.026  1.00  0.00     0.120 C 
ATOM     15  C   UNL     1       5.400  -1.040  -0.024  1.00  0.00     0.120 C 
BRANCH  10  16
ATOM     16  C   UNL     1       1.679  -0.131  -0.301  1.00  0.00     0.195 C 
ATOM     17  C   UNL     1      -2.630   0.067  -0.238  1.00  0.00     0.332 C 
ATOM     18  N   UNL     1      -1.214   0.015   0.116  1.00  0.00    -0.337 N 
ATOM     19  C   UNL     1      -0.497   1.176  -0.426  1.00  0.00     0.268 C 
ATOM     20  C   UNL     1      -0.601  -1.236  -0.341  1.00  0.00     0.268 C 
ATOM     21  H   UNL     1      -1.146   0.045   1.133  1.00  0.00     0.347 HD
ATOM     22  C   UNL     1       0.952   1.182   0.056  1.00  0.00     0.126 C 
ATOM     23  C   UNL     1       0.843  -1.340   0.155  1.00  0.00     0.126 C 
ENDBRANCH  10  16
BRANCH   9  24
ATOM     24  O   UNL     1       6.966  -0.817   1.898  1.00  0.00    -0.477 OA
BRANCH  24  25
ATOM     25  C   UNL     1       7.680   0.265   1.483  1.00  0.00     0.121 A 
ATOM     26  C   UNL     1       7.449   1.546   1.971  1.00  0.00     0.047 A 
ATOM     27  C   UNL     1       8.787   0.022   0.671  1.00  0.00     0.055 A 
ATOM     28  C   UNL     1       8.247   2.610   1.551  1.00  0.00     0.012 A 
ATOM     29  C   UNL     1       9.627   1.074   0.271  1.00  0.00    -0.015 A 
ATOM     30  C   UNL     1       9.334   2.390   0.695  1.00  0.00    -0.018 A 
ATOM     31  C   UNL     1      10.759   0.850  -0.529  1.00  0.00     0.009 A 
ATOM     32  C   UNL     1      10.154   3.449   0.278  1.00  0.00     0.009 A 
ATOM     33  C   UNL     1      11.575   1.912  -0.922  1.00  0.00     0.001 A 
ATOM     34  C   UNL     1      11.267   3.211  -0.528  1.00  0.00     0.001 A 
ENDBRANCH  24  25
ENDBRANCH   9  24
ENDBRANCH   6   9
ENDBRANCH   4   5
ENDBRANCH   3   4
ENDBRANCH   2   3
ENDBRANCH   1   2
BRANCH   1  35
ATOM     35  C   UNL     1       5.758  -2.200   8.106  1.00  0.00     0.021 C 
BRANCH  35  36
ATOM     36  C   UNL     1       4.859  -1.435   9.070  1.00  0.00     0.116 C 
BRANCH  36  37
ATOM     37  N   UNL     1       4.168  -2.326   9.988  1.00  0.00    -0.352 N 
ATOM     38  C   UNL     1       4.078  -2.256  11.352  1.00  0.00     0.251 C 
ATOM     39  H   UNL     1       3.700  -3.085   9.570  1.00  0.00     0.163 HD
ATOM     40  O   UNL     1       3.626  -3.215  11.983  1.00  0.00    -0.269 OA
BRANCH  38  41
ATOM     41  C   UNL     1       4.526  -1.044  12.069  1.00  0.00     0.039 A 
ATOM     42  C   UNL     1       5.230  -1.189  13.268  1.00  0.00     0.014 A 
ATOM     43  C   UNL     1       4.224   0.232  11.584  1.00  0.00     0.014 A 
ATOM     44  C   UNL     1       5.646  -0.055  13.968  1.00  0.00     0.010 A 
ATOM     45  C   UNL     1       4.708   1.359  12.242  1.00  0.00     0.010 A 
ATOM     46  C   UNL     1       5.396   1.230  13.457  1.00  0.00    -0.014 A 
BRANCH  46  47
ATOM     47  C   UNL     1       5.807   2.444  14.206  1.00  0.00     0.031 A 
ATOM     48  C   UNL     1       4.763   3.402  14.721  1.00  0.00     0.074 A 
ATOM     49  C   UNL     1       7.115   2.718  14.377  1.00  0.00     0.049 A 
ATOM     50  N   UNL     1       4.922   4.519  15.382  1.00  0.00    -0.248 NA
ATOM     51  C   UNL     1       3.356   3.078  14.428  1.00  0.00     0.031 C 
ATOM     52  C   UNL     1       8.223   1.915  13.855  1.00  0.00     0.029 A 
ATOM     53  N   UNL     1       7.734   3.759  15.021  1.00  0.00    -0.354 N 
ATOM     54  C   UNL     1       3.647   5.047  15.551  1.00  0.00     0.074 A 
ATOM     55  C   UNL     1       2.728   4.150  14.886  1.00  0.00     0.031 C 
ATOM     56  C   UNL     1       9.385   2.488  14.209  1.00  0.00     0.029 A 
ATOM     57  C   UNL     1       9.107   3.706  14.963  1.00  0.00     0.049 A 
ATOM     58  H   UNL     1       7.241   4.476  15.482  1.00  0.00     0.167 HD
ATOM     59  C   UNL     1       3.268   6.157  16.228  1.00  0.00     0.034 A 
ATOM     60  C   UNL     1      10.035   4.543  15.467  1.00  0.00     0.034 A 
ATOM     61  C   UNL     1       4.178   7.018  16.933  1.00  0.00     0.049 A 
ATOM     62  C   UNL     1       9.585   5.731  16.274  1.00  0.00     0.074 A 
ATOM     63  C   UNL     1       3.889   8.120  17.718  1.00  0.00     0.029 A 
ATOM     64  N   UNL     1       5.557   6.875  16.937  1.00  0.00    -0.354 N 
ATOM     65  N   UNL     1       8.367   6.126  16.557  1.00  0.00    -0.248 NA
ATOM     66  C   UNL     1      10.639   6.564  16.871  1.00  0.00     0.031 C 
ATOM     67  C   UNL     1       5.096   8.653  18.184  1.00  0.00     0.029 A 
ATOM     68  C   UNL     1       6.135   7.867  17.711  1.00  0.00     0.049 A 
ATOM     69  H   UNL     1       6.053   6.171  16.459  1.00  0.00     0.167 HD
ATOM     70  C   UNL     1       8.507   7.225  17.397  1.00  0.00     0.074 A 
ATOM     71  C   UNL     1       9.929   7.418  17.595  1.00  0.00     0.031 C 
ATOM     72  C   UNL     1       7.548   8.013  17.944  1.00  0.00     0.034 A 
BRANCH  59  73
ATOM     73  C   UNL     1       1.794   6.469  16.287  1.00  0.00     0.023 A 
ATOM     74  C   UNL     1       0.938   5.647  17.051  1.00  0.00     0.012 A 
ATOM     75  C   UNL     1       1.261   7.594  15.629  1.00  0.00     0.148 A 
ATOM     76  C   UNL     1      -0.428   5.915  17.126  1.00  0.00     0.002 A 
ATOM     77  C   UNL     1      -0.095   7.883  15.748  1.00  0.00     0.091 A 
ATOM     78  F   UNL     1       2.083   8.352  14.890  1.00  0.00    -0.205 F 
ATOM     79  C   UNL     1      -0.942   7.038  16.483  1.00  0.00     0.022 A 
BRANCH  77  80
ATOM     80  S   UNL     1      -0.840   9.349  15.026  1.00  0.00     0.127 S 
ATOM     81  O   UNL     1      -1.639   8.772  13.944  1.00  0.00    -0.237 OA
ATOM     82  O   UNL     1      -1.622   9.879  16.144  1.00  0.00    -0.237 OA
ATOM     83  O   UNL     1       0.266  10.196  14.603  1.00  0.00    -0.744 OA
ENDBRANCH  77  80
ENDBRANCH  59  73
BRANCH  60  84
ATOM     84  C   UNL     1      11.484   4.239  15.297  1.00  0.00     0.023 A 
ATOM     85  C   UNL     1      12.242   3.838  16.415  1.00  0.00     0.012 A 
ATOM     86  C   UNL     1      12.109   4.325  14.039  1.00  0.00     0.148 A 
ATOM     87  C   UNL     1      13.605   3.566  16.291  1.00  0.00     0.002 A 
ATOM     88  C   UNL     1      13.455   3.999  13.912  1.00  0.00     0.091 A 
ATOM     89  F   UNL     1      11.373   4.716  12.989  1.00  0.00    -0.205 F 
ATOM     90  C   UNL     1      14.209   3.638  15.039  1.00  0.00     0.022 A 
BRANCH  88  91
ATOM     91  S   UNL     1      14.284   3.939  12.319  1.00  0.00     0.127 S 
ATOM     92  O   UNL     1      15.165   5.102  12.397  1.00  0.00    -0.237 OA
ATOM     93  O   UNL     1      14.965   2.645  12.382  1.00  0.00    -0.237 OA
ATOM     94  O   UNL     1      13.225   4.011  11.322  1.00  0.00    -0.744 OA
ENDBRANCH  88  91
ENDBRANCH  60  84
BRANCH  72  95
ATOM     95  C   UNL     1       8.000   9.131  18.847  1.00  0.00     0.023 A 
ATOM     96  C   UNL     1       8.652  10.256  18.304  1.00  0.00     0.012 A 
ATOM     97  C   UNL     1       7.732   9.089  20.230  1.00  0.00     0.148 A 
ATOM     98  C   UNL     1       9.071  11.300  19.128  1.00  0.00     0.002 A 
ATOM     99  C   UNL     1       8.107  10.157  21.037  1.00  0.00     0.091 A 
ATOM    100  F   UNL     1       7.129   8.003  20.734  1.00  0.00    -0.205 F 
ATOM    101  C   UNL     1       8.790  11.255  20.491  1.00  0.00     0.022 A 
BRANCH  99 102
ATOM    102  S   UNL     1       7.692  10.223  22.784  1.00  0.00     0.127 S 
ATOM    103  O   UNL     1       8.963   9.862  23.407  1.00  0.00    -0.237 OA
ATOM    104  O   UNL     1       7.302  11.623  22.961  1.00  0.00    -0.237 OA
ATOM    105  O   UNL     1       6.605   9.270  22.969  1.00  0.00    -0.744 OA
ENDBRANCH  99 102
ENDBRANCH  72  95
ENDBRANCH  46  47
ENDBRANCH  38  41
ENDBRANCH  36  37
ENDBRANCH  35  36
ENDBRANCH   1  35
TORSDOF 19
