REMARK SMILES O=C(NCCCCCCNC(=O)C1CCN(C2=[NH+]C(Cl)=[NH+]C3=[NH+]C=N[C@@H]32)CC1)c1ccc(-c2c3nc(c(-c4cccc(S(=O)(=O)[O-])c4F)c4ccc([nH]4)c(-c4cccc(S(=O)(=O)[O-])c4F)c4nc(c(-c5cccc(S(=O)(=O)[O-])c5F)c5ccc2[nH]5)C=C4)C=C3)cc1
REMARK SMILES IDX 5 1 4 2 3 3 1 4 2 5 29 7 30 8 91 9 31 10 90 11 32 12 33 13
REMARK SMILES IDX 34 14 84 15 35 16 89 17 83 18 85 19 36 20 88 21 82 22 81 23
REMARK SMILES IDX 37 25 69 26 49 27 68 28 50 29 53 30 67 31 86 32 51 33 52 34
REMARK SMILES IDX 66 36 87 37 54 38 38 39 39 40 47 41 40 42 42 43 48 44 41 45
REMARK SMILES IDX 43 46 44 47 45 48 46 49 70 50 71 51 79 52 72 53 74 54 80 55
REMARK SMILES IDX 73 56 75 57 76 58 77 59 78 60 55 61 56 62 64 63 57 64 59 65
REMARK SMILES IDX 65 66 58 67 60 68 61 69 62 70 63 71 6 72 7 73 8 74 9 75
REMARK SMILES IDX 10 76 11 77 12 79 13 80 14 81 28 82 15 83 27 84 16 85 17 86
REMARK SMILES IDX 18 87 26 88 19 89 22 91 25 92 20 93 21 94 23 95 24 96
REMARK H PARENT 3 6 85 24 53 35 10 78 18 90 21 97 23 98
REMARK Flexibility Score: inf
ROOT
ATOM      1  C   UNL     1       4.553   2.251  -0.321  1.00  0.00     0.021 C 
ENDROOT
BRANCH   1   2
ATOM      2  C   UNL     1       4.509   0.924   0.434  1.00  0.00     0.116 C 
BRANCH   2   3
ATOM      3  N   UNL     1       3.168   0.488   0.759  1.00  0.00    -0.352 N 
ATOM      4  O   UNL     1       1.111  -0.297   0.704  1.00  0.00    -0.269 OA
ATOM      5  C   UNL     1       2.142  -0.086   0.061  1.00  0.00     0.251 C 
ATOM      6  H   UNL     1       2.941   0.641   1.705  1.00  0.00     0.163 HD
BRANCH   5   7
ATOM      7  C   UNL     1       2.172  -0.420  -1.389  1.00  0.00     0.039 A 
ATOM      8  C   UNL     1       3.321  -0.516  -2.176  1.00  0.00     0.014 A 
ATOM      9  C   UNL     1       0.926  -0.690  -1.987  1.00  0.00     0.014 A 
ATOM     10  C   UNL     1       3.225  -0.812  -3.534  1.00  0.00     0.010 A 
ATOM     11  C   UNL     1       0.827  -1.011  -3.338  1.00  0.00     0.010 A 
ATOM     12  C   UNL     1       1.978  -1.048  -4.119  1.00  0.00    -0.014 A 
BRANCH  12  13
ATOM     13  C   UNL     1       1.948  -1.466  -5.520  1.00  0.00     0.031 A 
ATOM     14  C   UNL     1       2.626  -2.764  -5.820  1.00  0.00     0.074 A 
ATOM     15  C   UNL     1       1.244  -0.835  -6.480  1.00  0.00     0.049 A 
ATOM     16  N   UNL     1       3.623  -2.985  -6.617  1.00  0.00    -0.248 NA
ATOM     17  C   UNL     1       2.179  -3.950  -5.075  1.00  0.00     0.031 C 
ATOM     18  C   UNL     1       0.266   0.243  -6.317  1.00  0.00     0.029 A 
ATOM     19  N   UNL     1       1.163  -1.132  -7.809  1.00  0.00    -0.354 N 
ATOM     20  C   UNL     1       3.811  -4.369  -6.619  1.00  0.00     0.074 A 
ATOM     21  C   UNL     1       2.984  -4.894  -5.562  1.00  0.00     0.031 C 
ATOM     22  C   UNL     1      -0.479   0.337  -7.442  1.00  0.00     0.029 A 
ATOM     23  C   UNL     1       0.062  -0.567  -8.441  1.00  0.00     0.049 A 
ATOM     24  H   UNL     1       1.823  -1.693  -8.277  1.00  0.00     0.167 HD
ATOM     25  C   UNL     1       4.498  -5.017  -7.601  1.00  0.00     0.034 A 
ATOM     26  C   UNL     1      -0.412  -0.880  -9.671  1.00  0.00     0.034 A 
ATOM     27  C   UNL     1       5.301  -4.122  -8.384  1.00  0.00     0.049 A 
ATOM     28  C   UNL     1       0.674  -1.547 -10.421  1.00  0.00     0.074 A 
ATOM     29  C   UNL     1       6.354  -3.267  -8.128  1.00  0.00     0.029 A 
ATOM     30  N   UNL     1       4.835  -3.778  -9.628  1.00  0.00    -0.354 N 
ATOM     31  N   UNL     1       1.760  -0.946 -10.815  1.00  0.00    -0.248 NA
ATOM     32  C   UNL     1       0.724  -2.998 -10.422  1.00  0.00     0.031 C 
ATOM     33  C   UNL     1       6.142  -2.156  -8.997  1.00  0.00     0.029 A 
ATOM     34  C   UNL     1       4.996  -2.423  -9.749  1.00  0.00     0.049 A 
ATOM     35  H   UNL     1       4.457  -4.387 -10.303  1.00  0.00     0.167 HD
ATOM     36  C   UNL     1       2.754  -1.906 -10.687  1.00  0.00     0.074 A 
ATOM     37  C   UNL     1       2.039  -3.174 -10.565  1.00  0.00     0.031 C 
ATOM     38  C   UNL     1       4.044  -1.555 -10.407  1.00  0.00     0.034 A 
BRANCH  25  39
ATOM     39  C   UNL     1       4.236  -6.434  -8.052  1.00  0.00     0.023 A 
ATOM     40  C   UNL     1       5.186  -7.047  -8.900  1.00  0.00     0.012 A 
ATOM     41  C   UNL     1       2.995  -7.093  -7.899  1.00  0.00     0.148 A 
ATOM     42  C   UNL     1       4.905  -8.236  -9.584  1.00  0.00     0.002 A 
ATOM     43  C   UNL     1       2.750  -8.316  -8.517  1.00  0.00     0.091 A 
ATOM     44  F   UNL     1       1.991  -6.480  -7.263  1.00  0.00    -0.205 F 
ATOM     45  C   UNL     1       3.690  -8.878  -9.383  1.00  0.00     0.022 A 
BRANCH  43  46
ATOM     46  S   UNL     1       1.220  -9.213  -8.232  1.00  0.00     0.127 S 
ATOM     47  O   UNL     1       0.482  -8.930  -9.465  1.00  0.00    -0.237 OA
ATOM     48  O   UNL     1       1.700 -10.594  -8.109  1.00  0.00    -0.237 OA
ATOM     49  O   UNL     1       0.673  -8.662  -7.009  1.00  0.00    -0.744 OA
ENDBRANCH  43  46
ENDBRANCH  25  39
BRANCH  26  50
ATOM     50  C   UNL     1      -1.805  -0.871 -10.168  1.00  0.00     0.023 A 
ATOM     51  C   UNL     1      -2.055  -0.776 -11.551  1.00  0.00     0.012 A 
ATOM     52  C   UNL     1      -2.873  -1.234  -9.317  1.00  0.00     0.148 A 
ATOM     53  C   UNL     1      -3.322  -1.062 -12.073  1.00  0.00     0.002 A 
ATOM     54  C   UNL     1      -4.131  -1.511  -9.840  1.00  0.00     0.091 A 
ATOM     55  F   UNL     1      -2.627  -1.397  -8.010  1.00  0.00    -0.205 F 
ATOM     56  C   UNL     1      -4.357  -1.437 -11.220  1.00  0.00     0.022 A 
BRANCH  54  57
ATOM     57  S   UNL     1      -5.507  -2.027  -8.805  1.00  0.00     0.127 S 
ATOM     58  O   UNL     1      -6.580  -1.147  -9.268  1.00  0.00    -0.237 OA
ATOM     59  O   UNL     1      -5.659  -3.430  -9.183  1.00  0.00    -0.237 OA
ATOM     60  O   UNL     1      -5.084  -1.784  -7.432  1.00  0.00    -0.744 OA
ENDBRANCH  54  57
ENDBRANCH  26  50
BRANCH  38  61
ATOM     61  C   UNL     1       4.419  -0.095 -10.489  1.00  0.00     0.023 A 
ATOM     62  C   UNL     1       3.809   0.879  -9.669  1.00  0.00     0.012 A 
ATOM     63  C   UNL     1       5.526   0.278 -11.271  1.00  0.00     0.148 A 
ATOM     64  C   UNL     1       4.271   2.197  -9.652  1.00  0.00     0.002 A 
ATOM     65  C   UNL     1       6.015   1.578 -11.213  1.00  0.00     0.091 A 
ATOM     66  F   UNL     1       6.105  -0.657 -12.040  1.00  0.00    -0.205 F 
ATOM     67  C   UNL     1       5.383   2.544 -10.414  1.00  0.00     0.022 A 
BRANCH  65  68
ATOM     68  S   UNL     1       7.526   2.055 -12.057  1.00  0.00     0.127 S 
ATOM     69  O   UNL     1       7.014   2.813 -13.197  1.00  0.00    -0.237 OA
ATOM     70  O   UNL     1       8.212   2.861 -11.045  1.00  0.00    -0.237 OA
ATOM     71  O   UNL     1       8.209   0.809 -12.385  1.00  0.00    -0.744 OA
ENDBRANCH  65  68
ENDBRANCH  38  61
ENDBRANCH  12  13
ENDBRANCH   5   7
ENDBRANCH   2   3
ENDBRANCH   1   2
BRANCH   1  72
ATOM     72  C   UNL     1       3.860   3.415   0.401  1.00  0.00     0.002 C 
BRANCH  72  73
ATOM     73  C   UNL     1       4.348   3.707   1.828  1.00  0.00     0.002 C 
BRANCH  73  74
ATOM     74  C   UNL     1       5.861   3.881   1.976  1.00  0.00     0.021 C 
BRANCH  74  75
ATOM     75  C   UNL     1       6.429   5.046   1.171  1.00  0.00     0.116 C 
BRANCH  75  76
ATOM     76  N   UNL     1       6.453   6.277   1.925  1.00  0.00    -0.356 N 
ATOM     77  C   UNL     1       7.459   7.066   2.364  1.00  0.00     0.223 C 
ATOM     78  H   UNL     1       5.558   6.607   2.168  1.00  0.00     0.163 HD
ATOM     79  O   UNL     1       7.117   8.099   2.955  1.00  0.00    -0.275 OA
BRANCH  77  80
ATOM     80  C   UNL     1       8.951   6.778   2.183  1.00  0.00     0.087 C 
ATOM     81  C   UNL     1       9.502   6.946   0.772  1.00  0.00     0.068 C 
ATOM     82  C   UNL     1       9.493   5.553   2.908  1.00  0.00     0.068 C 
ATOM     83  C   UNL     1       9.627   5.675  -0.045  1.00  0.00     0.277 C 
ATOM     84  C   UNL     1       9.607   4.289   2.076  1.00  0.00     0.277 C 
ATOM     85  N   UNL     1      10.115   4.534   0.730  1.00  0.00    -0.230 N 
ATOM     86  C   UNL     1      10.732   3.483   0.063  1.00  0.00     0.383 C 
ATOM     87  N   UNL     1      10.308   2.254   0.181  1.00  0.00    -0.155 N 
ATOM     88  C   UNL     1      11.945   3.767  -0.798  1.00  0.00     0.523 C 
ATOM     89  C   UNL     1      10.987   1.262  -0.489  1.00  0.00     0.414 C 
ATOM     90  H   UNL     1       9.523   2.042   0.736  1.00  0.00     0.367 HD
ATOM     91  C   UNL     1      12.763   2.539  -0.687  1.00  0.00     0.389 C 
ATOM     92  N   UNL     1      12.855   4.771  -0.200  1.00  0.00     0.003 NA
ATOM     93  Cl  UNL     1      10.122  -0.194  -0.730  1.00  0.00     0.028 Cl
ATOM     94  N   UNL     1      12.205   1.332  -0.921  1.00  0.00    -0.155 N 
ATOM     95  N   UNL     1      13.943   2.746  -0.221  1.00  0.00    -0.169 N 
ATOM     96  C   UNL     1      13.935   4.091   0.055  1.00  0.00     0.532 C 
ATOM     97  H   UNL     1      12.671   0.590  -1.369  1.00  0.00     0.367 HD
ATOM     98  H   UNL     1      14.674   2.098  -0.094  1.00  0.00     0.365 HD
ENDBRANCH  77  80
ENDBRANCH  75  76
ENDBRANCH  74  75
ENDBRANCH  73  74
ENDBRANCH  72  73
ENDBRANCH   1  72
TORSDOF 16
