REMARK SMILES C[C@H](C(=O)NCCCCCCNC(=O)c1ccc(-c2c3nc(c(-c4cccc(S(=O)(=O)[O-])c4F)c4ccc([nH]4)c(-c4cccc(S(=O)(=O)[O-])c4F)c4nc(c(-c5cccc(S(=O)(=O)[O-])c5F)c5ccc2[nH]5)C=C4)C=C3)cc1)c1ccc2c(c1)OCCO2
REMARK SMILES IDX 9 1 8 2 7 3 6 4 5 5 3 6 4 7 2 9 1 10 78 11 79 12 83 13 80 14
REMARK SMILES IDX 82 15 81 16 84 17 87 18 85 19 86 20 10 21 11 22 12 23 13 24
REMARK SMILES IDX 14 26 15 27 16 28 77 29 17 30 76 31 18 32 19 33 20 34 70 35
REMARK SMILES IDX 21 36 75 37 69 38 71 39 22 40 74 41 68 42 67 43 23 45 55 46
REMARK SMILES IDX 35 47 54 48 36 49 39 50 53 51 72 52 37 53 38 54 52 56 73 57
REMARK SMILES IDX 40 58 24 59 25 60 33 61 26 62 28 63 34 64 27 65 29 66 30 67
REMARK SMILES IDX 31 68 32 69 56 70 57 71 65 72 58 73 60 74 66 75 59 76 61 77
REMARK SMILES IDX 62 78 63 79 64 80 41 81 42 82 50 83 43 84 45 85 51 86 44 87
REMARK SMILES IDX 46 88 47 89 48 90 49 91
REMARK H PARENT 5 8 12 25 71 44 39 55
REMARK Flexibility Score: inf
ROOT
ATOM      1  C   UNL     1       1.307  -4.523  -2.037  1.00  0.00     0.002 C 
ENDROOT
BRANCH   1   2
ATOM      2  C   UNL     1       0.217  -3.445  -2.038  1.00  0.00     0.002 C 
BRANCH   2   3
ATOM      3  C   UNL     1      -0.229  -2.955  -0.652  1.00  0.00     0.021 C 
BRANCH   3   4
ATOM      4  C   UNL     1       0.880  -2.291   0.171  1.00  0.00     0.116 C 
BRANCH   4   5
ATOM      5  N   UNL     1       1.202  -0.969  -0.342  1.00  0.00    -0.356 N 
ATOM      6  C   UNL     1       1.113   0.261   0.248  1.00  0.00     0.227 C 
ATOM      7  O   UNL     1       1.385   1.244  -0.448  1.00  0.00    -0.274 OA
ATOM      8  H   UNL     1       1.540  -0.958  -1.267  1.00  0.00     0.163 HD
BRANCH   6   9
ATOM      9  C   UNL     1       0.683   0.398   1.723  1.00  0.00     0.105 C 
ATOM     10  C   UNL     1       1.123   1.745   2.294  1.00  0.00     0.023 C 
BRANCH   9  11
ATOM     11  C   UNL     1      -0.816   0.182   1.869  1.00  0.00    -0.032 A 
ATOM     12  C   UNL     1      -1.748   0.983   1.183  1.00  0.00     0.008 A 
ATOM     13  C   UNL     1      -1.262  -0.966   2.536  1.00  0.00     0.055 A 
ATOM     14  C   UNL     1      -3.064   0.548   1.021  1.00  0.00     0.051 A 
ATOM     15  C   UNL     1      -2.530  -1.456   2.269  1.00  0.00     0.161 A 
ATOM     16  C   UNL     1      -3.412  -0.716   1.482  1.00  0.00     0.161 A 
ATOM     17  O   UNL     1      -2.778  -2.736   2.677  1.00  0.00    -0.486 OA
ATOM     18  O   UNL     1      -4.570  -1.281   1.010  1.00  0.00    -0.486 OA
ATOM     19  C   UNL     1      -3.782  -3.402   1.899  1.00  0.00     0.271 C 
ATOM     20  C   UNL     1      -4.233  -2.632   0.661  1.00  0.00     0.271 C 
ENDBRANCH   9  11
ENDBRANCH   6   9
ENDBRANCH   4   5
ENDBRANCH   3   4
ENDBRANCH   2   3
ENDBRANCH   1   2
BRANCH   1  21
ATOM     21  C   UNL     1       0.979  -5.795  -1.249  1.00  0.00     0.021 C 
BRANCH  21  22
ATOM     22  C   UNL     1      -0.270  -6.542  -1.714  1.00  0.00     0.116 C 
BRANCH  22  23
ATOM     23  N   UNL     1      -0.152  -7.019  -3.085  1.00  0.00    -0.352 N 
ATOM     24  C   UNL     1      -0.217  -8.298  -3.578  1.00  0.00     0.251 C 
ATOM     25  H   UNL     1      -0.004  -6.318  -3.760  1.00  0.00     0.163 HD
ATOM     26  O   UNL     1       0.101  -8.516  -4.749  1.00  0.00    -0.269 OA
BRANCH  24  27
ATOM     27  C   UNL     1      -0.647  -9.418  -2.713  1.00  0.00     0.039 A 
ATOM     28  C   UNL     1       0.077 -10.613  -2.744  1.00  0.00     0.014 A 
ATOM     29  C   UNL     1      -1.763  -9.300  -1.880  1.00  0.00     0.014 A 
ATOM     30  C   UNL     1      -0.271 -11.659  -1.885  1.00  0.00     0.010 A 
ATOM     31  C   UNL     1      -2.067 -10.318  -0.976  1.00  0.00     0.010 A 
ATOM     32  C   UNL     1      -1.319 -11.505  -0.962  1.00  0.00    -0.014 A 
BRANCH  32  33
ATOM     33  C   UNL     1      -1.600 -12.549   0.060  1.00  0.00     0.031 A 
ATOM     34  C   UNL     1      -2.925 -13.263   0.092  1.00  0.00     0.074 A 
ATOM     35  C   UNL     1      -0.685 -12.789   1.022  1.00  0.00     0.049 A 
ATOM     36  N   UNL     1      -3.353 -14.161   0.942  1.00  0.00    -0.248 NA
ATOM     37  C   UNL     1      -3.903 -12.913  -0.951  1.00  0.00     0.031 C 
ATOM     38  C   UNL     1       0.605 -12.106   1.151  1.00  0.00     0.029 A 
ATOM     39  N   UNL     1      -0.709 -13.650   2.093  1.00  0.00    -0.354 N 
ATOM     40  C   UNL     1      -4.657 -14.457   0.562  1.00  0.00     0.074 A 
ATOM     41  C   UNL     1      -4.958 -13.630  -0.586  1.00  0.00     0.031 C 
ATOM     42  C   UNL     1       1.244 -12.570   2.237  1.00  0.00     0.029 A 
ATOM     43  C   UNL     1       0.400 -13.555   2.903  1.00  0.00     0.049 A 
ATOM     44  H   UNL     1      -1.450 -14.275   2.264  1.00  0.00     0.167 HD
ATOM     45  C   UNL     1      -5.517 -15.350   1.107  1.00  0.00     0.034 A 
ATOM     46  C   UNL     1       0.697 -14.173   4.064  1.00  0.00     0.034 A 
ATOM     47  C   UNL     1      -5.202 -16.201   2.224  1.00  0.00     0.049 A 
ATOM     48  C   UNL     1      -0.271 -15.181   4.625  1.00  0.00     0.074 A 
ATOM     49  C   UNL     1      -5.972 -17.210   2.776  1.00  0.00     0.029 A 
ATOM     50  N   UNL     1      -4.037 -16.134   2.970  1.00  0.00    -0.354 N 
ATOM     51  N   UNL     1      -1.423 -15.576   4.143  1.00  0.00    -0.248 NA
ATOM     52  C   UNL     1       0.119 -15.852   5.874  1.00  0.00     0.031 C 
ATOM     53  C   UNL     1      -5.290 -17.726   3.882  1.00  0.00     0.029 A 
ATOM     54  C   UNL     1      -4.078 -17.066   3.994  1.00  0.00     0.049 A 
ATOM     55  H   UNL     1      -3.291 -15.515   2.799  1.00  0.00     0.167 HD
ATOM     56  C   UNL     1      -1.879 -16.564   5.009  1.00  0.00     0.074 A 
ATOM     57  C   UNL     1      -0.864 -16.728   6.028  1.00  0.00     0.031 C 
ATOM     58  C   UNL     1      -3.042 -17.258   4.974  1.00  0.00     0.034 A 
BRANCH  45  59
ATOM     59  C   UNL     1      -6.881 -15.498   0.486  1.00  0.00     0.023 A 
ATOM     60  C   UNL     1      -7.016 -16.154  -0.754  1.00  0.00     0.012 A 
ATOM     61  C   UNL     1      -8.036 -15.095   1.185  1.00  0.00     0.148 A 
ATOM     62  C   UNL     1      -8.278 -16.391  -1.298  1.00  0.00     0.002 A 
ATOM     63  C   UNL     1      -9.292 -15.375   0.659  1.00  0.00     0.091 A 
ATOM     64  F   UNL     1      -7.884 -14.460   2.356  1.00  0.00    -0.205 F 
ATOM     65  C   UNL     1      -9.414 -16.014  -0.586  1.00  0.00     0.022 A 
BRANCH  63  66
ATOM     66  S   UNL     1     -10.817 -15.007   1.534  1.00  0.00     0.127 S 
ATOM     67  O   UNL     1     -11.417 -13.994   0.666  1.00  0.00    -0.237 OA
ATOM     68  O   UNL     1     -11.497 -16.302   1.520  1.00  0.00    -0.237 OA
ATOM     69  O   UNL     1     -10.423 -14.535   2.854  1.00  0.00    -0.744 OA
ENDBRANCH  63  66
ENDBRANCH  45  59
BRANCH  46  70
ATOM     70  C   UNL     1       1.979 -13.882   4.767  1.00  0.00     0.023 A 
ATOM     71  C   UNL     1       2.963 -14.886   4.868  1.00  0.00     0.012 A 
ATOM     72  C   UNL     1       2.224 -12.622   5.346  1.00  0.00     0.148 A 
ATOM     73  C   UNL     1       4.144 -14.655   5.575  1.00  0.00     0.002 A 
ATOM     74  C   UNL     1       3.429 -12.379   5.993  1.00  0.00     0.091 A 
ATOM     75  F   UNL     1       1.272 -11.683   5.253  1.00  0.00    -0.205 F 
ATOM     76  C   UNL     1       4.381 -13.400   6.129  1.00  0.00     0.022 A 
BRANCH  74  77
ATOM     77  S   UNL     1       3.870 -10.752   6.613  1.00  0.00     0.127 S 
ATOM     78  O   UNL     1       3.720 -10.929   8.054  1.00  0.00    -0.237 OA
ATOM     79  O   UNL     1       5.251 -10.613   6.148  1.00  0.00    -0.237 OA
ATOM     80  O   UNL     1       2.934  -9.829   5.984  1.00  0.00    -0.744 OA
ENDBRANCH  74  77
ENDBRANCH  46  70
BRANCH  58  81
ATOM     81  C   UNL     1      -3.273 -18.290   6.048  1.00  0.00     0.023 A 
ATOM     82  C   UNL     1      -3.531 -17.880   7.372  1.00  0.00     0.012 A 
ATOM     83  C   UNL     1      -3.299 -19.662   5.732  1.00  0.00     0.148 A 
ATOM     84  C   UNL     1      -3.772 -18.822   8.371  1.00  0.00     0.002 A 
ATOM     85  C   UNL     1      -3.594 -20.592   6.722  1.00  0.00     0.091 A 
ATOM     86  F   UNL     1      -3.036 -20.033   4.470  1.00  0.00    -0.205 F 
ATOM     87  C   UNL     1      -3.815 -20.176   8.044  1.00  0.00     0.022 A 
BRANCH  85  88
ATOM     88  S   UNL     1      -3.767 -22.346   6.377  1.00  0.00     0.127 S 
ATOM     89  O   UNL     1      -2.582 -22.897   7.032  1.00  0.00    -0.237 OA
ATOM     90  O   UNL     1      -5.033 -22.667   7.036  1.00  0.00    -0.237 OA
ATOM     91  O   UNL     1      -3.791 -22.472   4.926  1.00  0.00    -0.744 OA
ENDBRANCH  85  88
ENDBRANCH  58  81
ENDBRANCH  32  33
ENDBRANCH  24  27
ENDBRANCH  22  23
ENDBRANCH  21  22
ENDBRANCH   1  21
TORSDOF 17
