REMARK SMILES O=C(C[C@H]1C[C@H]2CC[C@@H](C1)N2C(=O)c1c[nH]c(=O)[nH]1)NCCCCCCNC(=O)c1ccc(-c2c3nc(c(-c4cccc(S(=O)(=O)[O-])c4F)c4ccc([nH]4)c(-c4cccc(S(=O)(=O)[O-])c4F)c4nc(c(-c5cccc(S(=O)(=O)[O-])c5F)c5ccc2[nH]5)C=C4)C=C3)cc1
REMARK SMILES IDX 23 1 22 2 21 3 20 4 1 5 2 6 3 8 4 9 5 10 10 11 6 12 9 13
REMARK SMILES IDX 7 14 11 15 8 16 12 17 13 18 14 19 15 20 19 21 16 22 17 23
REMARK SMILES IDX 18 26 24 27 25 28 26 29 27 30 28 31 29 33 30 34 31 35 92 36
REMARK SMILES IDX 32 37 91 38 33 39 34 40 35 41 85 42 36 43 90 44 84 45 86 46
REMARK SMILES IDX 37 47 89 48 83 49 82 50 38 52 70 53 50 54 69 55 51 56 54 57
REMARK SMILES IDX 68 58 87 59 52 60 53 61 67 63 88 64 55 65 39 66 40 67 48 68
REMARK SMILES IDX 41 69 43 70 49 71 42 72 44 73 45 74 46 75 47 76 71 77 72 78
REMARK SMILES IDX 80 79 73 80 75 81 81 82 74 83 76 84 77 85 78 86 79 87 56 88
REMARK SMILES IDX 57 89 65 90 58 91 60 92 66 93 59 94 61 95 62 96 63 97 64 98
REMARK H PARENT 20 7 19 24 16 25 27 32 86 51 54 62
REMARK Flexibility Score: inf
ROOT
ATOM      1  C   UNL     1       3.593   2.928  -2.398  1.00  0.00     0.002 C 
ENDROOT
BRANCH   1   2
ATOM      2  C   UNL     1       2.075   2.819  -2.164  1.00  0.00     0.021 C 
BRANCH   2   3
ATOM      3  C   UNL     1       1.484   1.400  -2.126  1.00  0.00     0.116 C 
BRANCH   3   4
ATOM      4  N   UNL     1       2.180   0.583  -1.152  1.00  0.00    -0.356 N 
ATOM      5  O   UNL     1       0.419  -0.535  -0.224  1.00  0.00    -0.275 OA
ATOM      6  C   UNL     1       1.623  -0.304  -0.268  1.00  0.00     0.220 C 
ATOM      7  H   UNL     1       3.160   0.676  -1.121  1.00  0.00     0.163 HD
BRANCH   6   8
ATOM      8  C   UNL     1       2.581  -0.874   0.797  1.00  0.00     0.103 C 
BRANCH   8   9
ATOM      9  C   UNL     1       3.865  -1.654   0.404  1.00  0.00     0.002 C 
ATOM     10  C   UNL     1       4.630  -1.174  -0.832  1.00  0.00     0.029 C 
ATOM     11  C   UNL     1       4.887  -1.785   1.588  1.00  0.00     0.029 C 
ATOM     12  C   UNL     1       5.573   0.001  -0.530  1.00  0.00     0.086 C 
ATOM     13  C   UNL     1       6.020  -0.711   1.629  1.00  0.00     0.086 C 
ATOM     14  C   UNL     1       5.083   1.131   0.408  1.00  0.00     0.027 C 
ATOM     15  N   UNL     1       6.618  -0.558   0.302  1.00  0.00    -0.331 N 
ATOM     16  C   UNL     1       5.441   0.684   1.834  1.00  0.00     0.027 C 
BRANCH  15  17
ATOM     17  C   UNL     1       7.925  -0.367  -0.084  1.00  0.00     0.272 C 
ATOM     18  O   UNL     1       8.237   0.047  -1.201  1.00  0.00    -0.267 OA
BRANCH  17  19
ATOM     19  C   UNL     1       8.995  -0.547   0.911  1.00  0.00     0.125 A 
ATOM     20  C   UNL     1       9.241  -1.565   1.745  1.00  0.00     0.119 A 
ATOM     21  N   UNL     1      10.016   0.371   1.023  1.00  0.00    -0.302 N 
ATOM     22  N   UNL     1      10.405  -1.295   2.424  1.00  0.00    -0.312 N 
ATOM     23  C   UNL     1      10.923  -0.069   1.981  1.00  0.00     0.323 A 
ATOM     24  H   UNL     1      10.091   1.206   0.507  1.00  0.00     0.172 HD
ATOM     25  H   UNL     1      10.810  -1.870   3.112  1.00  0.00     0.171 HD
ATOM     26  O   UNL     1      11.948   0.479   2.355  1.00  0.00    -0.248 OA
ENDBRANCH  17  19
ENDBRANCH  15  17
ENDBRANCH   8   9
ENDBRANCH   6   8
ENDBRANCH   3   4
ENDBRANCH   2   3
ENDBRANCH   1   2
BRANCH   1  27
ATOM     27  C   UNL     1       4.144   2.284  -3.670  1.00  0.00     0.002 C 
BRANCH  27  28
ATOM     28  C   UNL     1       3.646   2.911  -4.968  1.00  0.00     0.021 C 
BRANCH  28  29
ATOM     29  C   UNL     1       3.895   4.410  -5.099  1.00  0.00     0.116 C 
BRANCH  29  30
ATOM     30  N   UNL     1       5.309   4.764  -5.141  1.00  0.00    -0.352 N 
ATOM     31  C   UNL     1       5.946   5.637  -5.994  1.00  0.00     0.251 C 
ATOM     32  H   UNL     1       5.881   4.322  -4.473  1.00  0.00     0.163 HD
ATOM     33  O   UNL     1       7.167   5.759  -5.970  1.00  0.00    -0.269 OA
BRANCH  31  34
ATOM     34  C   UNL     1       5.141   6.398  -6.973  1.00  0.00     0.039 A 
ATOM     35  C   UNL     1       5.487   6.343  -8.326  1.00  0.00     0.014 A 
ATOM     36  C   UNL     1       4.002   7.095  -6.562  1.00  0.00     0.014 A 
ATOM     37  C   UNL     1       4.637   6.911  -9.278  1.00  0.00     0.010 A 
ATOM     38  C   UNL     1       3.121   7.593  -7.516  1.00  0.00     0.010 A 
ATOM     39  C   UNL     1       3.422   7.497  -8.883  1.00  0.00    -0.014 A 
BRANCH  39  40
ATOM     40  C   UNL     1       2.428   7.969  -9.881  1.00  0.00     0.031 A 
ATOM     41  C   UNL     1       2.024   9.417  -9.924  1.00  0.00     0.074 A 
ATOM     42  C   UNL     1       1.796   7.072 -10.665  1.00  0.00     0.049 A 
ATOM     43  N   UNL     1       1.109   9.995 -10.658  1.00  0.00    -0.248 NA
ATOM     44  C   UNL     1       2.716  10.328  -8.998  1.00  0.00     0.031 C 
ATOM     45  C   UNL     1       2.025   5.625 -10.647  1.00  0.00     0.029 A 
ATOM     46  N   UNL     1       0.803   7.239 -11.598  1.00  0.00    -0.354 N 
ATOM     47  C   UNL     1       1.089  11.326 -10.260  1.00  0.00     0.074 A 
ATOM     48  C   UNL     1       2.058  11.461  -9.194  1.00  0.00     0.031 C 
ATOM     49  C   UNL     1       1.190   5.037 -11.518  1.00  0.00     0.029 A 
ATOM     50  C   UNL     1       0.349   6.058 -12.137  1.00  0.00     0.049 A 
ATOM     51  H   UNL     1       0.449   8.121 -11.857  1.00  0.00     0.167 HD
ATOM     52  C   UNL     1       0.356  12.351 -10.757  1.00  0.00     0.034 A 
ATOM     53  C   UNL     1      -0.641   5.818 -13.020  1.00  0.00     0.034 A 
ATOM     54  C   UNL     1      -0.573  12.223 -11.847  1.00  0.00     0.049 A 
ATOM     55  C   UNL     1      -1.404   6.978 -13.599  1.00  0.00     0.074 A 
ATOM     56  C   UNL     1      -1.283  13.219 -12.493  1.00  0.00     0.029 A 
ATOM     57  N   UNL     1      -0.927  11.025 -12.448  1.00  0.00    -0.354 N 
ATOM     58  N   UNL     1      -1.279   8.257 -13.339  1.00  0.00    -0.248 NA
ATOM     59  C   UNL     1      -2.418   6.668 -14.617  1.00  0.00     0.031 C 
ATOM     60  C   UNL     1      -2.081  12.620 -13.475  1.00  0.00     0.029 A 
ATOM     61  C   UNL     1      -1.855  11.253 -13.450  1.00  0.00     0.049 A 
ATOM     62  H   UNL     1      -0.572  10.141 -12.199  1.00  0.00     0.167 HD
ATOM     63  C   UNL     1      -2.178   8.906 -14.177  1.00  0.00     0.074 A 
ATOM     64  C   UNL     1      -2.823   7.880 -14.972  1.00  0.00     0.031 C 
ATOM     65  C   UNL     1      -2.457  10.230 -14.267  1.00  0.00     0.034 A 
BRANCH  52  66
ATOM     66  C   UNL     1       0.582  13.716 -10.163  1.00  0.00     0.023 A 
ATOM     67  C   UNL     1       1.788  14.395 -10.433  1.00  0.00     0.012 A 
ATOM     68  C   UNL     1      -0.403  14.344  -9.377  1.00  0.00     0.148 A 
ATOM     69  C   UNL     1       2.029  15.659  -9.897  1.00  0.00     0.002 A 
ATOM     70  C   UNL     1      -0.173  15.624  -8.881  1.00  0.00     0.091 A 
ATOM     71  F   UNL     1      -1.533  13.676  -9.109  1.00  0.00    -0.205 F 
ATOM     72  C   UNL     1       1.045  16.277  -9.130  1.00  0.00     0.022 A 
BRANCH  70  73
ATOM     73  S   UNL     1      -1.411  16.530  -7.946  1.00  0.00     0.127 S 
ATOM     74  O   UNL     1      -0.902  16.403  -6.582  1.00  0.00    -0.237 OA
ATOM     75  O   UNL     1      -1.306  17.875  -8.512  1.00  0.00    -0.237 OA
ATOM     76  O   UNL     1      -2.677  15.861  -8.213  1.00  0.00    -0.744 OA
ENDBRANCH  70  73
ENDBRANCH  52  66
BRANCH  53  77
ATOM     77  C   UNL     1      -0.918   4.419 -13.452  1.00  0.00     0.023 A 
ATOM     78  C   UNL     1      -0.557   4.011 -14.751  1.00  0.00     0.012 A 
ATOM     79  C   UNL     1      -1.482   3.478 -12.569  1.00  0.00     0.148 A 
ATOM     80  C   UNL     1      -0.773   2.698 -15.169  1.00  0.00     0.002 A 
ATOM     81  C   UNL     1      -1.644   2.158 -12.973  1.00  0.00     0.091 A 
ATOM     82  F   UNL     1      -1.831   3.890 -11.341  1.00  0.00    -0.205 F 
ATOM     83  C   UNL     1      -1.305   1.770 -14.278  1.00  0.00     0.022 A 
BRANCH  81  84
ATOM     84  S   UNL     1      -2.189   0.867 -11.849  1.00  0.00     0.127 S 
ATOM     85  O   UNL     1      -3.537   0.593 -12.339  1.00  0.00    -0.237 OA
ATOM     86  O   UNL     1      -1.212  -0.191 -12.106  1.00  0.00    -0.237 OA
ATOM     87  O   UNL     1      -2.104   1.448 -10.515  1.00  0.00    -0.744 OA
ENDBRANCH  81  84
ENDBRANCH  53  77
BRANCH  65  88
ATOM     88  C   UNL     1      -3.498  10.659 -15.268  1.00  0.00     0.023 A 
ATOM     89  C   UNL     1      -4.859  10.414 -15.002  1.00  0.00     0.012 A 
ATOM     90  C   UNL     1      -3.136  11.377 -16.425  1.00  0.00     0.148 A 
ATOM     91  C   UNL     1      -5.844  10.853 -15.886  1.00  0.00     0.002 A 
ATOM     92  C   UNL     1      -4.126  11.851 -17.278  1.00  0.00     0.091 A 
ATOM     93  F   UNL     1      -1.834  11.584 -16.669  1.00  0.00    -0.205 F 
ATOM     94  C   UNL     1      -5.479  11.582 -17.016  1.00  0.00     0.022 A 
BRANCH  92  95
ATOM     95  S   UNL     1      -3.756  12.875 -18.708  1.00  0.00     0.127 S 
ATOM     96  O   UNL     1      -3.994  11.944 -19.810  1.00  0.00    -0.237 OA
ATOM     97  O   UNL     1      -4.747  13.945 -18.589  1.00  0.00    -0.237 OA
ATOM     98  O   UNL     1      -2.376  13.310 -18.543  1.00  0.00    -0.744 OA
ENDBRANCH  92  95
ENDBRANCH  65  88
ENDBRANCH  39  40
ENDBRANCH  31  34
ENDBRANCH  29  30
ENDBRANCH  28  29
ENDBRANCH  27  28
ENDBRANCH   1  27
TORSDOF 19
