REMARK SMILES C[C@@H](Sc1nc(-c2ccc3c(c2)OCO3)ccc1C#N)C(=O)NCCCCCCNC(=O)c1ccc(-c2c3nc(c(-c4cccc(S(=O)(=O)[O-])c4F)c4ccc([nH]4)c(-c4cccc(S(=O)(=O)[O-])c4F)c4nc(c(-c5cccc(S(=O)(=O)[O-])c5F)c5ccc2[nH]5)C=C4)C=C3)cc1
REMARK SMILES IDX 26 1 25 2 24 3 23 4 21 5 22 6 2 8 1 9 3 10 4 11 5 12 18 13
REMARK SMILES IDX 6 14 17 15 16 16 19 17 20 18 7 19 8 20 12 21 9 22 11 23
REMARK SMILES IDX 10 24 13 25 15 26 14 27 27 28 28 29 29 30 30 31 31 32 32 34
REMARK SMILES IDX 33 35 34 36 95 37 35 38 94 39 36 40 37 41 38 42 88 43 39 44
REMARK SMILES IDX 93 45 87 46 89 47 40 48 92 49 86 50 85 51 41 53 73 54 53 55
REMARK SMILES IDX 72 56 54 57 57 58 71 59 90 60 55 61 56 62 70 64 91 65 58 66
REMARK SMILES IDX 42 67 43 68 51 69 44 70 46 71 52 72 45 73 47 74 48 75 49 76
REMARK SMILES IDX 50 77 74 78 75 79 83 80 76 81 78 82 84 83 77 84 79 85 80 86
REMARK SMILES IDX 81 87 82 88 59 89 60 90 68 91 61 92 63 93 69 94 62 95 64 96
REMARK SMILES IDX 65 97 66 98 67 99
REMARK H PARENT 23 7 30 33 89 52 57 63
REMARK Flexibility Score: inf
ROOT
ATOM      1  C   UNL     1      -3.026  -0.030   2.883  1.00  0.00     0.002 C 
ENDROOT
BRANCH   1   2
ATOM      2  C   UNL     1      -1.524   0.018   2.591  1.00  0.00     0.021 C 
BRANCH   2   3
ATOM      3  C   UNL     1      -1.016  -1.208   1.842  1.00  0.00     0.116 C 
BRANCH   3   4
ATOM      4  N   UNL     1      -1.482  -1.203   0.464  1.00  0.00    -0.355 N 
ATOM      5  C   UNL     1      -0.773  -1.177  -0.704  1.00  0.00     0.233 C 
ATOM      6  O   UNL     1      -1.409  -1.155  -1.763  1.00  0.00    -0.274 OA
ATOM      7  H   UNL     1      -2.461  -1.220   0.356  1.00  0.00     0.163 HD
BRANCH   5   8
ATOM      8  C   UNL     1       0.765  -1.167  -0.703  1.00  0.00     0.139 C 
ATOM      9  C   UNL     1       1.273   0.146  -0.113  1.00  0.00     0.030 C 
BRANCH   8  10
ATOM     10  S   UNL     1       1.278  -2.782   0.037  1.00  0.00    -0.092 SA
BRANCH  10  11
ATOM     11  C   UNL     1       3.055  -2.789   0.049  1.00  0.00     0.115 A 
ATOM     12  N   UNL     1       3.685  -1.591   0.053  1.00  0.00    -0.240 NA
ATOM     13  C   UNL     1       3.747  -3.999   0.153  1.00  0.00     0.084 A 
ATOM     14  C   UNL     1       5.036  -1.573   0.163  1.00  0.00     0.072 A 
ATOM     15  C   UNL     1       5.136  -3.963   0.279  1.00  0.00     0.024 A 
ATOM     16  C   UNL     1       5.789  -2.737   0.287  1.00  0.00     0.030 A 
BRANCH  13  17
ATOM     17  C   UNL     1       3.089  -5.273   0.118  1.00  0.00     0.102 C 
ATOM     18  N   UNL     1       2.595  -6.319   0.055  1.00  0.00    -0.192 NA
ENDBRANCH  13  17
BRANCH  14  19
ATOM     19  C   UNL     1       5.676  -0.255   0.121  1.00  0.00     0.004 A 
ATOM     20  C   UNL     1       6.610   0.050  -0.904  1.00  0.00     0.014 A 
ATOM     21  C   UNL     1       5.406   0.715   1.102  1.00  0.00     0.061 A 
ATOM     22  C   UNL     1       7.277   1.277  -0.945  1.00  0.00     0.051 A 
ATOM     23  C   UNL     1       6.091   1.913   1.046  1.00  0.00     0.166 A 
ATOM     24  C   UNL     1       7.002   2.184   0.053  1.00  0.00     0.165 A 
ATOM     25  O   UNL     1       5.975   2.939   1.931  1.00  0.00    -0.454 OA
ATOM     26  O   UNL     1       7.573   3.411   0.188  1.00  0.00    -0.454 OA
ATOM     27  C   UNL     1       6.955   3.862   1.412  1.00  0.00     0.468 C 
ENDBRANCH  14  19
ENDBRANCH  10  11
ENDBRANCH   8  10
ENDBRANCH   5   8
ENDBRANCH   3   4
ENDBRANCH   2   3
ENDBRANCH   1   2
BRANCH   1  28
ATOM     28  C   UNL     1      -3.475  -1.245   3.704  1.00  0.00     0.002 C 
BRANCH  28  29
ATOM     29  C   UNL     1      -2.736  -1.429   5.031  1.00  0.00     0.021 C 
BRANCH  29  30
ATOM     30  C   UNL     1      -2.844  -0.236   5.973  1.00  0.00     0.116 C 
BRANCH  30  31
ATOM     31  N   UNL     1      -4.224   0.021   6.358  1.00  0.00    -0.352 N 
ATOM     32  C   UNL     1      -4.775   0.084   7.613  1.00  0.00     0.251 C 
ATOM     33  H   UNL     1      -4.850   0.170   5.613  1.00  0.00     0.163 HD
ATOM     34  O   UNL     1      -5.994   0.081   7.751  1.00  0.00    -0.269 OA
BRANCH  32  35
ATOM     35  C   UNL     1      -3.889   0.141   8.794  1.00  0.00     0.039 A 
ATOM     36  C   UNL     1      -4.188  -0.652   9.903  1.00  0.00     0.014 A 
ATOM     37  C   UNL     1      -2.764   0.970   8.801  1.00  0.00     0.014 A 
ATOM     38  C   UNL     1      -3.324  -0.653  11.000  1.00  0.00     0.010 A 
ATOM     39  C   UNL     1      -1.859   0.898   9.854  1.00  0.00     0.010 A 
ATOM     40  C   UNL     1      -2.135   0.095  10.971  1.00  0.00    -0.014 A 
BRANCH  40  41
ATOM     41  C   UNL     1      -1.167   0.040  12.095  1.00  0.00     0.031 A 
ATOM     42  C   UNL     1      -0.829   1.284  12.871  1.00  0.00     0.074 A 
ATOM     43  C   UNL     1      -0.541  -1.120  12.376  1.00  0.00     0.049 A 
ATOM     44  N   UNL     1       0.012   1.435  13.861  1.00  0.00    -0.248 NA
ATOM     45  C   UNL     1      -1.506   2.528  12.467  1.00  0.00     0.031 C 
ATOM     46  C   UNL     1      -0.733  -2.381  11.656  1.00  0.00     0.029 A 
ATOM     47  N   UNL     1       0.398  -1.424  13.330  1.00  0.00    -0.354 N 
ATOM     48  C   UNL     1      -0.010   2.788  14.177  1.00  0.00     0.074 A 
ATOM     49  C   UNL     1      -0.917   3.423  13.247  1.00  0.00     0.031 C 
ATOM     50  C   UNL     1       0.047  -3.325  12.205  1.00  0.00     0.029 A 
ATOM     51  C   UNL     1       0.830  -2.729  13.283  1.00  0.00     0.049 A 
ATOM     52  H   UNL     1       0.731  -0.770  13.986  1.00  0.00     0.167 HD
ATOM     53  C   UNL     1       0.647   3.440  15.165  1.00  0.00     0.034 A 
ATOM     54  C   UNL     1       1.762  -3.371  14.013  1.00  0.00     0.034 A 
ATOM     55  C   UNL     1       1.538   2.801  16.096  1.00  0.00     0.049 A 
ATOM     56  C   UNL     1       2.483  -2.621  15.100  1.00  0.00     0.074 A 
ATOM     57  C   UNL     1       2.194   3.360  17.178  1.00  0.00     0.029 A 
ATOM     58  N   UNL     1       1.920   1.470  16.041  1.00  0.00    -0.354 N 
ATOM     59  N   UNL     1       2.343  -1.373  15.475  1.00  0.00    -0.248 NA
ATOM     60  C   UNL     1       3.470  -3.377  15.884  1.00  0.00     0.031 C 
ATOM     61  C   UNL     1       3.017   2.381  17.743  1.00  0.00     0.029 A 
ATOM     62  C   UNL     1       2.823   1.195  17.055  1.00  0.00     0.049 A 
ATOM     63  H   UNL     1       1.597   0.816  15.380  1.00  0.00     0.167 HD
ATOM     64  C   UNL     1       3.188  -1.206  16.566  1.00  0.00     0.074 A 
ATOM     65  C   UNL     1       3.824  -2.486  16.800  1.00  0.00     0.031 C 
ATOM     66  C   UNL     1       3.421  -0.092  17.303  1.00  0.00     0.034 A 
BRANCH  53  67
ATOM     67  C   UNL     1       0.416   4.924  15.299  1.00  0.00     0.023 A 
ATOM     68  C   UNL     1      -0.843   5.409  15.710  1.00  0.00     0.012 A 
ATOM     69  C   UNL     1       1.461   5.838  15.060  1.00  0.00     0.148 A 
ATOM     70  C   UNL     1      -1.072   6.779  15.836  1.00  0.00     0.002 A 
ATOM     71  C   UNL     1       1.242   7.198  15.241  1.00  0.00     0.091 A 
ATOM     72  F   UNL     1       2.647   5.362  14.654  1.00  0.00    -0.205 F 
ATOM     73  C   UNL     1      -0.028   7.671  15.612  1.00  0.00     0.022 A 
BRANCH  71  74
ATOM     74  S   UNL     1       2.542   8.422  15.058  1.00  0.00     0.127 S 
ATOM     75  O   UNL     1       2.101   9.146  13.866  1.00  0.00    -0.237 OA
ATOM     76  O   UNL     1       2.429   9.177  16.306  1.00  0.00    -0.237 OA
ATOM     77  O   UNL     1       3.783   7.675  14.908  1.00  0.00    -0.744 OA
ENDBRANCH  71  74
ENDBRANCH  53  67
BRANCH  54  78
ATOM     78  C   UNL     1       2.043  -4.814  13.768  1.00  0.00     0.023 A 
ATOM     79  C   UNL     1       1.701  -5.767  14.748  1.00  0.00     0.012 A 
ATOM     80  C   UNL     1       2.644  -5.246  12.571  1.00  0.00     0.148 A 
ATOM     81  C   UNL     1       1.991  -7.118  14.557  1.00  0.00     0.002 A 
ATOM     82  C   UNL     1       2.877  -6.599  12.362  1.00  0.00     0.091 A 
ATOM     83  F   UNL     1       2.966  -4.323  11.654  1.00  0.00    -0.205 F 
ATOM     84  C   UNL     1       2.570  -7.535  13.362  1.00  0.00     0.022 A 
BRANCH  82  85
ATOM     85  S   UNL     1       3.508  -7.241  10.808  1.00  0.00     0.127 S 
ATOM     86  O   UNL     1       4.812  -7.764  11.209  1.00  0.00    -0.237 OA
ATOM     87  O   UNL     1       2.510  -8.258  10.478  1.00  0.00    -0.237 OA
ATOM     88  O   UNL     1       3.540  -6.107   9.894  1.00  0.00    -0.744 OA
ENDBRANCH  82  85
ENDBRANCH  54  78
BRANCH  66  89
ATOM     89  C   UNL     1       4.362  -0.212  18.475  1.00  0.00     0.023 A 
ATOM     90  C   UNL     1       5.742  -0.405  18.267  1.00  0.00     0.012 A 
ATOM     91  C   UNL     1       3.876  -0.068  19.791  1.00  0.00     0.148 A 
ATOM     92  C   UNL     1       6.616  -0.494  19.350  1.00  0.00     0.002 A 
ATOM     93  C   UNL     1       4.760  -0.098  20.861  1.00  0.00     0.091 A 
ATOM     94  F   UNL     1       2.558   0.100  19.970  1.00  0.00    -0.205 F 
ATOM     95  C   UNL     1       6.128  -0.329  20.644  1.00  0.00     0.022 A 
BRANCH  93  96
ATOM     96  S   UNL     1       4.239   0.205  22.552  1.00  0.00     0.127 S 
ATOM     97  O   UNL     1       4.441  -1.107  23.165  1.00  0.00    -0.237 OA
ATOM     98  O   UNL     1       5.186   1.233  22.985  1.00  0.00    -0.237 OA
ATOM     99  O   UNL     1       2.854   0.649  22.476  1.00  0.00    -0.744 OA
ENDBRANCH  93  96
ENDBRANCH  66  89
ENDBRANCH  40  41
ENDBRANCH  32  35
ENDBRANCH  30  31
ENDBRANCH  29  30
ENDBRANCH  28  29
ENDBRANCH   1  28
TORSDOF 20
