REMARK SMILES O=C(NCCCCCCNC(=O)[C@@]1(Cc2ccnc3ccccc23)CCC[NH2+]C1)c1ccc(-c2c3nc(c(-c4cccc(S(=O)(=O)[O-])c4F)c4ccc([nH]4)c(-c4cccc(S(=O)(=O)[O-])c4F)c4nc(c(-c5cccc(S(=O)(=O)[O-])c5F)c5ccc2[nH]5)C=C4)C=C3)cc1
REMARK SMILES IDX 6 1 5 2 4 3 3 4 1 5 2 6 30 8 31 9 92 10 32 11 91 12 33 13
REMARK SMILES IDX 34 14 35 15 85 16 36 17 90 18 84 19 86 20 37 21 89 22 83 23
REMARK SMILES IDX 82 24 38 26 70 27 50 28 69 29 51 30 54 31 68 32 87 33 52 34
REMARK SMILES IDX 53 35 67 37 88 38 55 39 39 40 40 41 48 42 41 43 43 44 49 45
REMARK SMILES IDX 42 46 44 47 45 48 46 49 47 50 71 51 72 52 80 53 73 54 75 55
REMARK SMILES IDX 81 56 74 57 76 58 77 59 78 60 79 61 56 62 57 63 65 64 58 65
REMARK SMILES IDX 60 66 66 67 59 68 61 69 62 70 63 71 64 72 7 73 8 74 9 75
REMARK SMILES IDX 10 76 11 77 12 79 13 80 25 81 29 82 26 83 28 84 27 85 14 88
REMARK SMILES IDX 15 89 16 90 24 91 17 92 19 93 23 94 18 95 20 96 22 97 21 98
REMARK H PARENT 3 7 86 25 54 36 10 78 28 86 28 87
REMARK Flexibility Score: inf
ROOT
ATOM      1  C   UNL     1       5.346  -2.078   2.932  1.00  0.00     0.002 C 
ENDROOT
BRANCH   1   2
ATOM      2  C   UNL     1       4.079  -2.316   3.756  1.00  0.00     0.021 C 
BRANCH   2   3
ATOM      3  C   UNL     1       2.913  -1.424   3.355  1.00  0.00     0.116 C 
BRANCH   3   4
ATOM      4  N   UNL     1       2.495  -1.687   1.989  1.00  0.00    -0.352 N 
ATOM      5  O   UNL     1       1.195  -2.606   0.397  1.00  0.00    -0.269 OA
ATOM      6  C   UNL     1       1.294  -2.176   1.537  1.00  0.00     0.251 C 
ATOM      7  H   UNL     1       3.163  -1.489   1.293  1.00  0.00     0.163 HD
BRANCH   6   8
ATOM      8  C   UNL     1       0.134  -2.178   2.454  1.00  0.00     0.039 A 
ATOM      9  C   UNL     1      -0.121  -1.063   3.258  1.00  0.00     0.014 A 
ATOM     10  C   UNL     1      -0.703  -3.293   2.504  1.00  0.00     0.014 A 
ATOM     11  C   UNL     1      -1.134  -1.114   4.205  1.00  0.00     0.010 A 
ATOM     12  C   UNL     1      -1.783  -3.302   3.390  1.00  0.00     0.010 A 
ATOM     13  C   UNL     1      -1.995  -2.221   4.260  1.00  0.00    -0.014 A 
BRANCH  13  14
ATOM     14  C   UNL     1      -3.171  -2.172   5.161  1.00  0.00     0.031 A 
ATOM     15  C   UNL     1      -3.340  -3.153   6.285  1.00  0.00     0.074 A 
ATOM     16  C   UNL     1      -4.104  -1.226   4.936  1.00  0.00     0.049 A 
ATOM     17  N   UNL     1      -4.311  -3.239   7.157  1.00  0.00    -0.248 NA
ATOM     18  C   UNL     1      -2.295  -4.176   6.448  1.00  0.00     0.031 C 
ATOM     19  C   UNL     1      -4.064  -0.252   3.840  1.00  0.00     0.029 A 
ATOM     20  N   UNL     1      -5.265  -0.929   5.600  1.00  0.00    -0.354 N 
ATOM     21  C   UNL     1      -4.021  -4.345   7.946  1.00  0.00     0.074 A 
ATOM     22  C   UNL     1      -2.783  -4.904   7.445  1.00  0.00     0.031 C 
ATOM     23  C   UNL     1      -5.139   0.543   3.917  1.00  0.00     0.029 A 
ATOM     24  C   UNL     1      -5.975   0.098   5.024  1.00  0.00     0.049 A 
ATOM     25  H   UNL     1      -5.562  -1.404   6.409  1.00  0.00     0.167 HD
ATOM     26  C   UNL     1      -4.720  -4.841   8.995  1.00  0.00     0.034 A 
ATOM     27  C   UNL     1      -7.182   0.608   5.330  1.00  0.00     0.034 A 
ATOM     28  C   UNL     1      -5.940  -4.262   9.495  1.00  0.00     0.049 A 
ATOM     29  C   UNL     1      -7.925   0.047   6.505  1.00  0.00     0.074 A 
ATOM     30  C   UNL     1      -6.685  -4.646  10.596  1.00  0.00     0.029 A 
ATOM     31  N   UNL     1      -6.607  -3.192   8.917  1.00  0.00    -0.354 N 
ATOM     32  N   UNL     1      -7.567  -0.912   7.323  1.00  0.00    -0.248 NA
ATOM     33  C   UNL     1      -9.223   0.656   6.819  1.00  0.00     0.031 C 
ATOM     34  C   UNL     1      -7.821  -3.831  10.663  1.00  0.00     0.029 A 
ATOM     35  C   UNL     1      -7.763  -2.913   9.626  1.00  0.00     0.049 A 
ATOM     36  H   UNL     1      -6.302  -2.702   8.119  1.00  0.00     0.167 HD
ATOM     37  C   UNL     1      -8.582  -1.007   8.265  1.00  0.00     0.074 A 
ATOM     38  C   UNL     1      -9.556   0.013   7.930  1.00  0.00     0.031 C 
ATOM     39  C   UNL     1      -8.704  -1.869   9.304  1.00  0.00     0.034 A 
BRANCH  26  40
ATOM     40  C   UNL     1      -4.175  -6.063   9.691  1.00  0.00     0.023 A 
ATOM     41  C   UNL     1      -3.017  -5.958  10.489  1.00  0.00     0.012 A 
ATOM     42  C   UNL     1      -4.845  -7.300   9.607  1.00  0.00     0.148 A 
ATOM     43  C   UNL     1      -2.515  -7.071  11.163  1.00  0.00     0.002 A 
ATOM     44  C   UNL     1      -4.364  -8.394  10.318  1.00  0.00     0.091 A 
ATOM     45  F   UNL     1      -5.933  -7.387   8.829  1.00  0.00    -0.205 F 
ATOM     46  C   UNL     1      -3.193  -8.285  11.086  1.00  0.00     0.022 A 
BRANCH  44  47
ATOM     47  S   UNL     1      -5.210  -9.978  10.348  1.00  0.00     0.127 S 
ATOM     48  O   UNL     1      -4.309 -10.808   9.550  1.00  0.00    -0.237 OA
ATOM     49  O   UNL     1      -5.223 -10.293  11.777  1.00  0.00    -0.237 OA
ATOM     50  O   UNL     1      -6.524  -9.743   9.766  1.00  0.00    -0.744 OA
ENDBRANCH  44  47
ENDBRANCH  26  40
BRANCH  27  51
ATOM     51  C   UNL     1      -7.737   1.723   4.514  1.00  0.00     0.023 A 
ATOM     52  C   UNL     1      -7.849   3.009   5.075  1.00  0.00     0.012 A 
ATOM     53  C   UNL     1      -8.102   1.524   3.168  1.00  0.00     0.148 A 
ATOM     54  C   UNL     1      -8.341   4.072   4.316  1.00  0.00     0.002 A 
ATOM     55  C   UNL     1      -8.531   2.598   2.401  1.00  0.00     0.091 A 
ATOM     56  F   UNL     1      -7.995   0.289   2.658  1.00  0.00    -0.205 F 
ATOM     57  C   UNL     1      -8.669   3.870   2.977  1.00  0.00     0.022 A 
BRANCH  55  58
ATOM     58  S   UNL     1      -8.835   2.459   0.636  1.00  0.00     0.127 S 
ATOM     59  O   UNL     1     -10.287   2.593   0.572  1.00  0.00    -0.237 OA
ATOM     60  O   UNL     1      -8.086   3.601   0.111  1.00  0.00    -0.237 OA
ATOM     61  O   UNL     1      -8.300   1.161   0.246  1.00  0.00    -0.744 OA
ENDBRANCH  55  58
ENDBRANCH  27  51
BRANCH  39  62
ATOM     62  C   UNL     1      -9.921  -1.728  10.179  1.00  0.00     0.023 A 
ATOM     63  C   UNL     1     -11.187  -2.112   9.693  1.00  0.00     0.012 A 
ATOM     64  C   UNL     1      -9.800  -1.269  11.505  1.00  0.00     0.148 A 
ATOM     65  C   UNL     1     -12.318  -2.008  10.502  1.00  0.00     0.002 A 
ATOM     66  C   UNL     1     -10.922  -1.218  12.322  1.00  0.00     0.091 A 
ATOM     67  F   UNL     1      -8.590  -0.888  11.942  1.00  0.00    -0.205 F 
ATOM     68  C   UNL     1     -12.184  -1.573  11.818  1.00  0.00     0.022 A 
BRANCH  66  69
ATOM     69  S   UNL     1     -10.830  -0.764  14.057  1.00  0.00     0.127 S 
ATOM     70  O   UNL     1     -11.474   0.548  14.057  1.00  0.00    -0.237 OA
ATOM     71  O   UNL     1     -11.608  -1.826  14.696  1.00  0.00    -0.237 OA
ATOM     72  O   UNL     1      -9.413  -0.764  14.399  1.00  0.00    -0.744 OA
ENDBRANCH  66  69
ENDBRANCH  39  62
ENDBRANCH  13  14
ENDBRANCH   6   8
ENDBRANCH   3   4
ENDBRANCH   2   3
ENDBRANCH   1   2
BRANCH   1  73
ATOM     73  C   UNL     1       5.900  -0.648   3.002  1.00  0.00     0.002 C 
BRANCH  73  74
ATOM     74  C   UNL     1       6.034  -0.080   4.419  1.00  0.00     0.021 C 
BRANCH  74  75
ATOM     75  C   UNL     1       6.856  -0.971   5.348  1.00  0.00     0.116 C 
BRANCH  75  76
ATOM     76  N   UNL     1       8.273  -0.698   5.209  1.00  0.00    -0.355 N 
ATOM     77  C   UNL     1       9.204   0.021   5.877  1.00  0.00     0.232 C 
ATOM     78  H   UNL     1       8.657  -1.154   4.426  1.00  0.00     0.163 HD
ATOM     79  O   UNL     1      10.276   0.114   5.258  1.00  0.00    -0.274 OA
BRANCH  77  80
ATOM     80  C   UNL     1       9.089   0.589   7.326  1.00  0.00     0.102 C 
ATOM     81  C   UNL     1       9.760  -0.463   8.250  1.00  0.00     0.029 C 
ATOM     82  C   UNL     1      10.007   1.843   7.330  1.00  0.00     0.277 C 
ATOM     83  C   UNL     1      10.167   0.089   9.618  1.00  0.00     0.063 C 
ATOM     84  N   UNL     1      10.274   2.382   8.660  1.00  0.00    -0.345 N 
ATOM     85  C   UNL     1      10.922   1.414   9.532  1.00  0.00     0.260 C 
ATOM     86  H   UNL     1      10.881   3.197   8.567  1.00  0.00     0.346 HD
ATOM     87  H   UNL     1       9.379   2.628   9.081  1.00  0.00     0.346 HD
BRANCH  80  88
ATOM     88  C   UNL     1       7.612   0.883   7.741  1.00  0.00     0.059 C 
BRANCH  88  89
ATOM     89  C   UNL     1       7.187   1.478   9.072  1.00  0.00    -0.036 A 
ATOM     90  C   UNL     1       6.652   0.610  10.040  1.00  0.00     0.024 A 
ATOM     91  C   UNL     1       7.293   2.849   9.398  1.00  0.00     0.003 A 
ATOM     92  C   UNL     1       6.372   1.095  11.300  1.00  0.00     0.112 A 
ATOM     93  C   UNL     1       7.074   3.215  10.747  1.00  0.00     0.070 A 
ATOM     94  C   UNL     1       7.622   3.862   8.469  1.00  0.00     0.010 A 
ATOM     95  N   UNL     1       6.620   2.361  11.678  1.00  0.00    -0.256 NA
ATOM     96  C   UNL     1       7.351   4.517  11.137  1.00  0.00     0.029 A 
ATOM     97  C   UNL     1       7.884   5.166   8.883  1.00  0.00     0.001 A 
ATOM     98  C   UNL     1       7.781   5.486  10.228  1.00  0.00     0.002 A 
ENDBRANCH  88  89
ENDBRANCH  80  88
ENDBRANCH  77  80
ENDBRANCH  75  76
ENDBRANCH  74  75
ENDBRANCH  73  74
ENDBRANCH   1  73
TORSDOF 18
