REMARK SMILES Cc1ccc(NC(=O)c2ccccc2NC(=O)[C@H]2CCCC[C@H]2C(=O)NCCCCCCNC(=O)c2ccc(-c3c4nc(c(-c5cccc(S(=O)(=O)[O-])c5F)c5ccc([nH]5)c(-c5cccc(S(=O)(=O)[O-])c5F)c5nc(c(-c6cccc(S(=O)(=O)[O-])c6F)c6ccc3[nH]6)C=C5)C=C4)cc2)cc1
REMARK SMILES IDX 29 1 28 2 27 3 26 4 24 5 25 6 23 8 18 9 19 10 20 11 22 12
REMARK SMILES IDX 21 13 16 14 15 15 17 17 14 18 9 19 10 20 11 21 13 22 12 23
REMARK SMILES IDX 7 24 6 25 8 27 5 28 1 29 2 30 3 31 100 32 4 33 99 34 30 35
REMARK SMILES IDX 31 36 32 37 33 38 34 39 35 41 36 42 37 43 98 44 38 45 97 46
REMARK SMILES IDX 39 47 40 48 41 49 91 50 42 51 96 52 90 53 92 54 43 55 95 56
REMARK SMILES IDX 89 57 88 58 44 60 76 61 56 62 75 63 57 64 60 65 74 66 93 67
REMARK SMILES IDX 58 68 59 69 73 71 94 72 61 73 45 74 46 75 54 76 47 77 49 78
REMARK SMILES IDX 55 79 48 80 50 81 51 82 52 83 53 84 77 85 78 86 86 87 79 88
REMARK SMILES IDX 81 89 87 90 80 91 82 92 83 93 84 94 85 95 62 96 63 97 71 98
REMARK SMILES IDX 64 99 66 100 72 101 65 102 67 103 68 104 69 105 70 106
REMARK H PARENT 26 7 15 16 6 26 33 40 92 59 60 70
REMARK Flexibility Score: inf
ROOT
ATOM      1  C   UNL     1       2.127   1.123   7.634  1.00  0.00     0.002 C 
ENDROOT
BRANCH   1   2
ATOM      2  C   UNL     1       1.663   0.054   6.640  1.00  0.00     0.021 C 
BRANCH   2   3
ATOM      3  C   UNL     1       0.459  -0.789   7.079  1.00  0.00     0.116 C 
BRANCH   3   4
ATOM      4  N   UNL     1      -0.790  -0.276   6.545  1.00  0.00    -0.356 N 
ATOM      5  C   UNL     1      -1.716  -0.772   5.692  1.00  0.00     0.223 C 
ATOM      6  O   UNL     1      -2.684  -0.036   5.456  1.00  0.00    -0.275 OA
ATOM      7  H   UNL     1      -1.010   0.625   6.875  1.00  0.00     0.163 HD
BRANCH   5   8
ATOM      8  C   UNL     1      -1.638  -2.122   4.971  1.00  0.00     0.091 C 
ATOM      9  C   UNL     1      -0.822  -2.060   3.664  1.00  0.00     0.091 C 
ATOM     10  C   UNL     1      -0.882  -3.390   2.890  1.00  0.00     0.014 C 
ATOM     11  C   UNL     1      -0.658  -4.626   3.768  1.00  0.00     0.001 C 
ATOM     12  C   UNL     1      -1.423  -3.371   5.826  1.00  0.00     0.014 C 
ATOM     13  C   UNL     1      -1.575  -4.641   4.986  1.00  0.00     0.001 C 
BRANCH   9  14
ATOM     14  C   UNL     1       0.625  -1.714   3.910  1.00  0.00     0.228 C 
ATOM     15  N   UNL     1       1.263  -0.654   3.365  1.00  0.00    -0.325 N 
ATOM     16  H   UNL     1       2.099  -0.468   3.850  1.00  0.00     0.169 HD
ATOM     17  O   UNL     1       1.291  -2.414   4.682  1.00  0.00    -0.274 OA
BRANCH  15  18
ATOM     18  C   UNL     1       1.090   0.265   2.313  1.00  0.00     0.054 A 
ATOM     19  C   UNL     1       2.060   1.284   2.125  1.00  0.00     0.063 A 
ATOM     20  C   UNL     1       1.862   2.275   1.141  1.00  0.00     0.016 A 
ATOM     21  C   UNL     1       0.744   2.250   0.317  1.00  0.00     0.001 A 
ATOM     22  C   UNL     1       0.021   0.215   1.413  1.00  0.00     0.027 A 
ATOM     23  C   UNL     1      -0.166   1.211   0.443  1.00  0.00     0.002 A 
BRANCH  19  24
ATOM     24  C   UNL     1       3.234   1.544   2.999  1.00  0.00     0.257 C 
ATOM     25  N   UNL     1       4.125   0.594   3.443  1.00  0.00    -0.322 N 
ATOM     26  H   UNL     1       4.798   0.956   4.063  1.00  0.00     0.170 HD
ATOM     27  O   UNL     1       3.348   2.699   3.421  1.00  0.00    -0.269 OA
BRANCH  25  28
ATOM     28  C   UNL     1       4.280  -0.780   3.202  1.00  0.00     0.041 A 
ATOM     29  C   UNL     1       3.914  -5.071   3.165  1.00  0.00     0.044 C 
ATOM     30  C   UNL     1       4.149  -3.589   3.142  1.00  0.00    -0.051 A 
ATOM     31  C   UNL     1       3.828  -2.833   2.006  1.00  0.00     0.005 A 
ATOM     32  C   UNL     1       4.623  -2.933   4.278  1.00  0.00     0.005 A 
ATOM     33  C   UNL     1       3.901  -1.432   2.031  1.00  0.00     0.026 A 
ATOM     34  C   UNL     1       4.697  -1.540   4.300  1.00  0.00     0.026 A 
ENDBRANCH  25  28
ENDBRANCH  19  24
ENDBRANCH  15  18
ENDBRANCH   9  14
ENDBRANCH   5   8
ENDBRANCH   3   4
ENDBRANCH   2   3
ENDBRANCH   1   2
BRANCH   1  35
ATOM     35  C   UNL     1       2.445   0.646   9.058  1.00  0.00     0.002 C 
BRANCH  35  36
ATOM     36  C   UNL     1       3.222  -0.666   9.169  1.00  0.00     0.021 C 
BRANCH  36  37
ATOM     37  C   UNL     1       4.663  -0.589   8.682  1.00  0.00     0.116 C 
BRANCH  37  38
ATOM     38  N   UNL     1       5.609  -0.350   9.764  1.00  0.00    -0.352 N 
ATOM     39  C   UNL     1       6.985  -0.339   9.753  1.00  0.00     0.251 C 
ATOM     40  H   UNL     1       5.199  -0.169  10.641  1.00  0.00     0.163 HD
ATOM     41  O   UNL     1       7.590  -0.339  10.824  1.00  0.00    -0.269 OA
BRANCH  39  42
ATOM     42  C   UNL     1       7.713  -0.198   8.470  1.00  0.00     0.039 A 
ATOM     43  C   UNL     1       8.709   0.785   8.387  1.00  0.00     0.014 A 
ATOM     44  C   UNL     1       7.303  -0.869   7.322  1.00  0.00     0.014 A 
ATOM     45  C   UNL     1       9.099   1.275   7.142  1.00  0.00     0.010 A 
ATOM     46  C   UNL     1       7.652  -0.356   6.093  1.00  0.00     0.010 A 
ATOM     47  C   UNL     1       8.476   0.769   6.009  1.00  0.00    -0.014 A 
BRANCH  47  48
ATOM     48  C   UNL     1       8.546   1.365   4.686  1.00  0.00     0.031 A 
ATOM     49  C   UNL     1       9.529   0.888   3.702  1.00  0.00     0.074 A 
ATOM     50  C   UNL     1       7.552   2.201   4.312  1.00  0.00     0.049 A 
ATOM     51  N   UNL     1       9.894   1.557   2.663  1.00  0.00    -0.248 NA
ATOM     52  C   UNL     1      10.183  -0.407   3.831  1.00  0.00     0.031 C 
ATOM     53  C   UNL     1       7.183   2.590   2.957  1.00  0.00     0.029 A 
ATOM     54  N   UNL     1       6.780   3.030   5.130  1.00  0.00    -0.354 N 
ATOM     55  C   UNL     1      10.601   0.693   1.856  1.00  0.00     0.074 A 
ATOM     56  C   UNL     1      10.812  -0.493   2.655  1.00  0.00     0.031 C 
ATOM     57  C   UNL     1       6.496   3.741   3.015  1.00  0.00     0.029 A 
ATOM     58  C   UNL     1       6.563   4.206   4.389  1.00  0.00     0.049 A 
ATOM     59  H   UNL     1       6.454   2.833   6.038  1.00  0.00     0.167 HD
ATOM     60  C   UNL     1      10.787   0.998   0.541  1.00  0.00     0.034 A 
ATOM     61  C   UNL     1       6.998   5.440   4.784  1.00  0.00     0.034 A 
ATOM     62  C   UNL     1      10.170   2.284   0.201  1.00  0.00     0.049 A 
ATOM     63  C   UNL     1       7.920   6.095   3.772  1.00  0.00     0.074 A 
ATOM     64  C   UNL     1       8.931   2.612  -0.329  1.00  0.00     0.029 A 
ATOM     65  N   UNL     1      10.710   3.464   0.695  1.00  0.00    -0.354 N 
ATOM     66  N   UNL     1       8.431   5.477   2.742  1.00  0.00    -0.248 NA
ATOM     67  C   UNL     1       8.360   7.486   3.847  1.00  0.00     0.031 C 
ATOM     68  C   UNL     1       8.693   3.987  -0.073  1.00  0.00     0.029 A 
ATOM     69  C   UNL     1       9.797   4.502   0.586  1.00  0.00     0.049 A 
ATOM     70  H   UNL     1      11.616   3.552   1.071  1.00  0.00     0.167 HD
ATOM     71  C   UNL     1       9.320   6.295   2.095  1.00  0.00     0.074 A 
ATOM     72  C   UNL     1       9.184   7.566   2.786  1.00  0.00     0.031 C 
ATOM     73  C   UNL     1      10.122   5.834   1.084  1.00  0.00     0.034 A 
BRANCH  60  74
ATOM     74  C   UNL     1      11.195  -0.038  -0.486  1.00  0.00     0.023 A 
ATOM     75  C   UNL     1      10.638   0.063  -1.780  1.00  0.00     0.012 A 
ATOM     76  C   UNL     1      12.036  -1.148  -0.250  1.00  0.00     0.148 A 
ATOM     77  C   UNL     1      10.806  -0.932  -2.748  1.00  0.00     0.002 A 
ATOM     78  C   UNL     1      12.142  -2.181  -1.187  1.00  0.00     0.091 A 
ATOM     79  F   UNL     1      12.787  -1.181   0.860  1.00  0.00    -0.205 F 
ATOM     80  C   UNL     1      11.524  -2.076  -2.437  1.00  0.00     0.022 A 
BRANCH  78  81
ATOM     81  S   UNL     1      12.946  -3.747  -0.805  1.00  0.00     0.127 S 
ATOM     82  O   UNL     1      11.999  -4.726  -1.346  1.00  0.00    -0.237 OA
ATOM     83  O   UNL     1      14.202  -3.647  -1.544  1.00  0.00    -0.237 OA
ATOM     84  O   UNL     1      13.061  -3.784   0.648  1.00  0.00    -0.744 OA
ENDBRANCH  78  81
ENDBRANCH  60  74
BRANCH  61  85
ATOM     85  C   UNL     1       7.076   5.599   6.266  1.00  0.00     0.023 A 
ATOM     86  C   UNL     1       5.856   5.489   6.978  1.00  0.00     0.012 A 
ATOM     87  C   UNL     1       8.285   5.438   6.965  1.00  0.00     0.148 A 
ATOM     88  C   UNL     1       5.838   5.076   8.311  1.00  0.00     0.002 A 
ATOM     89  C   UNL     1       8.258   5.034   8.300  1.00  0.00     0.091 A 
ATOM     90  F   UNL     1       9.437   5.598   6.301  1.00  0.00    -0.205 F 
ATOM     91  C   UNL     1       7.038   4.810   8.960  1.00  0.00     0.022 A 
BRANCH  89  92
ATOM     92  S   UNL     1       9.771   4.654   9.195  1.00  0.00     0.127 S 
ATOM     93  O   UNL     1      10.066   5.935   9.829  1.00  0.00    -0.237 OA
ATOM     94  O   UNL     1       9.342   3.601  10.114  1.00  0.00    -0.237 OA
ATOM     95  O   UNL     1      10.703   4.207   8.171  1.00  0.00    -0.744 OA
ENDBRANCH  89  92
ENDBRANCH  61  85
BRANCH  73  96
ATOM     96  C   UNL     1      11.288   6.583   0.463  1.00  0.00     0.023 A 
ATOM     97  C   UNL     1      11.950   7.631   1.129  1.00  0.00     0.012 A 
ATOM     98  C   UNL     1      11.860   6.149  -0.764  1.00  0.00     0.148 A 
ATOM     99  C   UNL     1      13.081   8.256   0.589  1.00  0.00     0.002 A 
ATOM    100  C   UNL     1      13.049   6.697  -1.239  1.00  0.00     0.091 A 
ATOM    101  F   UNL     1      11.242   5.210  -1.496  1.00  0.00    -0.205 F 
ATOM    102  C   UNL     1      13.646   7.773  -0.583  1.00  0.00     0.022 A 
BRANCH 100 103
ATOM    103  S   UNL     1      13.935   5.938  -2.609  1.00  0.00     0.127 S 
ATOM    104  O   UNL     1      13.430   6.691  -3.755  1.00  0.00    -0.237 OA
ATOM    105  O   UNL     1      15.334   6.212  -2.272  1.00  0.00    -0.237 OA
ATOM    106  O   UNL     1      13.577   4.527  -2.555  1.00  0.00    -0.744 OA
ENDBRANCH 100 103
ENDBRANCH  73  96
ENDBRANCH  47  48
ENDBRANCH  39  42
ENDBRANCH  37  38
ENDBRANCH  36  37
ENDBRANCH  35  36
ENDBRANCH   1  35
TORSDOF 20
