REMARK SMILES C=C(C)COc1ccc2nc(C)n(-c3cccc(C(=O)NCCCCCCNC(=O)c4ccc(-c5c6nc(c(-c7cccc(S(=O)(=O)[O-])c7F)c7ccc([nH]7)c(-c7cccc(S(=O)(=O)[O-])c7F)c7nc(c(-c8cccc(S(=O)(=O)[O-])c8F)c8ccc5[nH]8)C=C7)C=C6)cc4)c3)c(=O)c2c1
REMARK SMILES IDX 24 1 23 2 22 3 21 4 19 5 20 6 18 8 14 9 15 10 94 11 16 12
REMARK SMILES IDX 17 13 13 14 6 15 7 16 98 17 8 18 97 19 9 20 95 21 10 22
REMARK SMILES IDX 96 23 11 24 12 25 5 26 4 27 2 28 1 29 3 30 25 31 26 32 27 33
REMARK SMILES IDX 28 34 29 35 30 37 31 38 32 39 93 40 33 41 92 42 34 43 35 44
REMARK SMILES IDX 36 45 86 46 37 47 91 48 85 49 87 50 38 51 90 52 84 53 83 54
REMARK SMILES IDX 39 56 71 57 51 58 70 59 52 60 55 61 69 62 88 63 53 64 54 65
REMARK SMILES IDX 68 67 89 68 56 69 40 70 41 71 49 72 42 73 44 74 50 75 43 76
REMARK SMILES IDX 45 77 46 78 47 79 48 80 72 81 73 82 81 83 74 84 76 85 82 86
REMARK SMILES IDX 75 87 77 88 78 89 79 90 80 91 57 92 58 93 66 94 59 95 61 96
REMARK SMILES IDX 67 97 60 98 62 99 63 100 64 101 65 102
REMARK H PARENT 21 7 28 36 87 55 55 66
REMARK Flexibility Score: inf
ROOT
ATOM      1  C   UNL     1      -2.553  10.719  -3.512  1.00  0.00     0.002 C 
ENDROOT
BRANCH   1   2
ATOM      2  C   UNL     1      -2.092  10.209  -2.148  1.00  0.00     0.021 C 
BRANCH   2   3
ATOM      3  C   UNL     1      -0.592  10.190  -1.877  1.00  0.00     0.116 C 
BRANCH   3   4
ATOM      4  N   UNL     1       0.065  11.483  -1.962  1.00  0.00    -0.352 N 
ATOM      5  C   UNL     1       1.112  12.016  -1.241  1.00  0.00     0.251 C 
ATOM      6  O   UNL     1       1.496  13.153  -1.514  1.00  0.00    -0.269 OA
ATOM      7  H   UNL     1      -0.300  12.081  -2.654  1.00  0.00     0.163 HD
BRANCH   5   8
ATOM      8  C   UNL     1       1.735  11.301  -0.091  1.00  0.00     0.041 A 
ATOM      9  C   UNL     1       2.106   9.278   1.198  1.00  0.00     0.051 A 
ATOM     10  C   UNL     1       2.580  10.049   2.266  1.00  0.00     0.027 A 
ATOM     11  C   UNL     1       1.814   9.911  -0.017  1.00  0.00     0.040 A 
ATOM     12  C   UNL     1       2.658  11.437   2.151  1.00  0.00     0.003 A 
ATOM     13  C   UNL     1       2.199  12.064   0.990  1.00  0.00     0.014 A 
BRANCH   9  14
ATOM     14  N   UNL     1       1.724   7.907   1.363  1.00  0.00    -0.264 N 
ATOM     15  C   UNL     1       1.423   3.324  -0.243  1.00  0.00     0.120 A 
ATOM     16  C   UNL     1       0.550   3.061   0.812  1.00  0.00     0.049 A 
ATOM     17  C   UNL     1       1.981   4.595  -0.382  1.00  0.00     0.062 A 
ATOM     18  C   UNL     1       0.209   4.072   1.709  1.00  0.00     0.033 A 
ATOM     19  C   UNL     1       1.628   5.605   0.524  1.00  0.00     0.070 A 
ATOM     20  C   UNL     1       0.750   5.348   1.572  1.00  0.00     0.078 A 
ATOM     21  C   UNL     1       2.151   6.979   0.397  1.00  0.00     0.266 A 
ATOM     22  N   UNL     1       0.361   6.327   2.482  1.00  0.00    -0.234 NA
ATOM     23  O   UNL     1       2.909   7.234  -0.538  1.00  0.00    -0.268 OA
ATOM     24  C   UNL     1       0.818   7.530   2.346  1.00  0.00     0.113 A 
ATOM     25  C   UNL     1       0.234   8.545   3.311  1.00  0.00     0.088 C 
BRANCH  15  26
ATOM     26  O   UNL     1       1.841   2.349  -1.109  1.00  0.00    -0.489 OA
BRANCH  26  27
ATOM     27  C   UNL     1       0.771   1.712  -1.833  1.00  0.00     0.260 C 
BRANCH  27  28
ATOM     28  C   UNL     1       0.191   0.511  -1.119  1.00  0.00    -0.043 C 
ATOM     29  C   UNL     1       0.923  -0.328  -0.366  1.00  0.00     0.011 C 
ATOM     30  C   UNL     1      -1.291   0.317  -1.289  1.00  0.00     0.042 C 
ENDBRANCH  27  28
ENDBRANCH  26  27
ENDBRANCH  15  26
ENDBRANCH   9  14
ENDBRANCH   5   8
ENDBRANCH   3   4
ENDBRANCH   2   3
ENDBRANCH   1   2
BRANCH   1  31
ATOM     31  C   UNL     1      -1.909  10.089  -4.749  1.00  0.00     0.002 C 
BRANCH  31  32
ATOM     32  C   UNL     1      -1.900   8.563  -4.826  1.00  0.00     0.021 C 
BRANCH  32  33
ATOM     33  C   UNL     1      -3.237   7.863  -4.614  1.00  0.00     0.116 C 
BRANCH  33  34
ATOM     34  N   UNL     1      -4.234   8.184  -5.619  1.00  0.00    -0.352 N 
ATOM     35  C   UNL     1      -5.030   7.339  -6.365  1.00  0.00     0.251 C 
ATOM     36  H   UNL     1      -4.361   9.145  -5.794  1.00  0.00     0.163 HD
ATOM     37  O   UNL     1      -5.760   7.796  -7.231  1.00  0.00    -0.269 OA
BRANCH  35  38
ATOM     38  C   UNL     1      -4.957   5.874  -6.142  1.00  0.00     0.039 A 
ATOM     39  C   UNL     1      -4.972   5.340  -4.853  1.00  0.00     0.014 A 
ATOM     40  C   UNL     1      -4.839   5.025  -7.247  1.00  0.00     0.014 A 
ATOM     41  C   UNL     1      -4.687   3.991  -4.661  1.00  0.00     0.010 A 
ATOM     42  C   UNL     1      -4.636   3.654  -7.054  1.00  0.00     0.010 A 
ATOM     43  C   UNL     1      -4.502   3.133  -5.758  1.00  0.00    -0.014 A 
BRANCH  43  44
ATOM     44  C   UNL     1      -4.172   1.702  -5.520  1.00  0.00     0.031 A 
ATOM     45  C   UNL     1      -2.849   1.125  -5.956  1.00  0.00     0.074 A 
ATOM     46  C   UNL     1      -5.055   0.925  -4.862  1.00  0.00     0.049 A 
ATOM     47  N   UNL     1      -2.383  -0.083  -5.769  1.00  0.00    -0.248 NA
ATOM     48  C   UNL     1      -1.931   2.010  -6.691  1.00  0.00     0.031 C 
ATOM     49  C   UNL     1      -6.379   1.356  -4.411  1.00  0.00     0.029 A 
ATOM     50  N   UNL     1      -4.970  -0.380  -4.445  1.00  0.00    -0.354 N 
ATOM     51  C   UNL     1      -1.145  -0.119  -6.401  1.00  0.00     0.074 A 
ATOM     52  C   UNL     1      -0.925   1.191  -6.972  1.00  0.00     0.031 C 
ATOM     53  C   UNL     1      -6.964   0.352  -3.741  1.00  0.00     0.029 A 
ATOM     54  C   UNL     1      -6.079  -0.809  -3.755  1.00  0.00     0.049 A 
ATOM     55  H   UNL     1      -4.190  -0.954  -4.623  1.00  0.00     0.167 HD
ATOM     56  C   UNL     1      -0.264  -1.144  -6.483  1.00  0.00     0.034 A 
ATOM     57  C   UNL     1      -6.362  -2.001  -3.196  1.00  0.00     0.034 A 
ATOM     58  C   UNL     1      -0.456  -2.431  -5.873  1.00  0.00     0.049 A 
ATOM     59  C   UNL     1      -5.356  -3.111  -3.278  1.00  0.00     0.074 A 
ATOM     60  C   UNL     1       0.414  -3.508  -5.856  1.00  0.00     0.029 A 
ATOM     61  N   UNL     1      -1.587  -2.818  -5.174  1.00  0.00    -0.354 N 
ATOM     62  N   UNL     1      -4.153  -3.088  -3.795  1.00  0.00    -0.248 NA
ATOM     63  C   UNL     1      -5.737  -4.404  -2.690  1.00  0.00     0.031 C 
ATOM     64  C   UNL     1      -0.193  -4.549  -5.149  1.00  0.00     0.029 A 
ATOM     65  C   UNL     1      -1.439  -4.117  -4.722  1.00  0.00     0.049 A 
ATOM     66  H   UNL     1      -2.378  -2.253  -5.022  1.00  0.00     0.167 HD
ATOM     67  C   UNL     1      -3.628  -4.358  -3.590  1.00  0.00     0.074 A 
ATOM     68  C   UNL     1      -4.635  -5.120  -2.880  1.00  0.00     0.031 C 
ATOM     69  C   UNL     1      -2.427  -4.850  -3.976  1.00  0.00     0.034 A 
BRANCH  56  70
ATOM     70  C   UNL     1       1.030  -0.913  -7.213  1.00  0.00     0.023 A 
ATOM     71  C   UNL     1       2.080  -0.247  -6.551  1.00  0.00     0.012 A 
ATOM     72  C   UNL     1       1.247  -1.453  -8.496  1.00  0.00     0.148 A 
ATOM     73  C   UNL     1       3.328  -0.115  -7.159  1.00  0.00     0.002 A 
ATOM     74  C   UNL     1       2.502  -1.342  -9.084  1.00  0.00     0.091 A 
ATOM     75  F   UNL     1       0.228  -2.073  -9.107  1.00  0.00    -0.205 F 
ATOM     76  C   UNL     1       3.541  -0.670  -8.418  1.00  0.00     0.022 A 
BRANCH  74  77
ATOM     77  S   UNL     1       2.901  -2.070 -10.677  1.00  0.00     0.127 S 
ATOM     78  O   UNL     1       3.135  -0.880 -11.494  1.00  0.00    -0.237 OA
ATOM     79  O   UNL     1       4.103  -2.844 -10.368  1.00  0.00    -0.237 OA
ATOM     80  O   UNL     1       1.742  -2.865 -11.059  1.00  0.00    -0.744 OA
ENDBRANCH  74  77
ENDBRANCH  56  70
BRANCH  57  81
ATOM     81  C   UNL     1      -7.641  -2.168  -2.456  1.00  0.00     0.023 A 
ATOM     82  C   UNL     1      -7.624  -2.184  -1.049  1.00  0.00     0.012 A 
ATOM     83  C   UNL     1      -8.874  -2.214  -3.135  1.00  0.00     0.148 A 
ATOM     84  C   UNL     1      -8.816  -2.243  -0.328  1.00  0.00     0.002 A 
ATOM     85  C   UNL     1     -10.059  -2.228  -2.410  1.00  0.00     0.091 A 
ATOM     86  F   UNL     1      -8.859  -2.204  -4.475  1.00  0.00    -0.205 F 
ATOM     87  C   UNL     1     -10.032  -2.252  -1.007  1.00  0.00     0.022 A 
BRANCH  85  88
ATOM     88  S   UNL     1     -11.672  -2.117  -3.191  1.00  0.00     0.127 S 
ATOM     89  O   UNL     1     -12.253  -3.416  -2.860  1.00  0.00    -0.237 OA
ATOM     90  O   UNL     1     -12.265  -0.978  -2.489  1.00  0.00    -0.237 OA
ATOM     91  O   UNL     1     -11.413  -1.887  -4.606  1.00  0.00    -0.744 OA
ENDBRANCH  85  88
ENDBRANCH  57  81
BRANCH  69  92
ATOM     92  C   UNL     1      -2.108  -6.279  -3.643  1.00  0.00     0.023 A 
ATOM     93  C   UNL     1      -2.622  -7.305  -4.459  1.00  0.00     0.012 A 
ATOM     94  C   UNL     1      -1.198  -6.593  -2.616  1.00  0.00     0.148 A 
ATOM     95  C   UNL     1      -2.235  -8.629  -4.254  1.00  0.00     0.002 A 
ATOM     96  C   UNL     1      -0.793  -7.910  -2.438  1.00  0.00     0.091 A 
ATOM     97  F   UNL     1      -0.732  -5.595  -1.851  1.00  0.00    -0.205 F 
ATOM     98  C   UNL     1      -1.313  -8.929  -3.254  1.00  0.00     0.022 A 
BRANCH  96  99
ATOM     99  S   UNL     1       0.443  -8.389  -1.226  1.00  0.00     0.127 S 
ATOM    100  O   UNL     1      -0.344  -9.213  -0.309  1.00  0.00    -0.237 OA
ATOM    101  O   UNL     1       1.404  -9.130  -2.042  1.00  0.00    -0.237 OA
ATOM    102  O   UNL     1       0.954  -7.149  -0.657  1.00  0.00    -0.744 OA
ENDBRANCH  96  99
ENDBRANCH  69  92
ENDBRANCH  43  44
ENDBRANCH  35  38
ENDBRANCH  33  34
ENDBRANCH  32  33
ENDBRANCH  31  32
ENDBRANCH   1  31
TORSDOF 20
