REMARK SMILES CCCCOC(=O)c1ccc(N2C[C@H](C(=O)NCCCCCCNC(=O)c3ccc(-c4c5nc(c(-c6cccc(S(=O)(=O)[O-])c6F)c6ccc([nH]6)c(-c6cccc(S(=O)(=O)[O-])c6F)c6nc(c(-c7cccc(S(=O)(=O)[O-])c7F)c7ccc4[nH]7)C=C6)C=C5)cc3)CC2=O)cc1
REMARK SMILES IDX 19 1 18 2 17 3 15 4 16 5 14 7 12 8 13 9 91 10 90 11 92 12
REMARK SMILES IDX 11 13 8 14 9 15 94 16 10 17 93 18 6 19 7 20 5 21 4 22 3 23
REMARK SMILES IDX 2 24 1 25 20 26 21 27 22 28 23 29 24 30 25 31 26 33 27 34
REMARK SMILES IDX 28 35 89 36 29 37 88 38 30 39 31 40 32 41 82 42 33 43 87 44
REMARK SMILES IDX 81 45 83 46 34 47 86 48 80 49 79 50 35 52 67 53 47 54 66 55
REMARK SMILES IDX 48 56 51 57 65 58 84 59 49 60 50 61 64 63 85 64 52 65 36 66
REMARK SMILES IDX 37 67 45 68 38 69 40 70 46 71 39 72 41 73 42 74 43 75 44 76
REMARK SMILES IDX 68 77 69 78 77 79 70 80 72 81 78 82 71 83 73 84 74 85 75 86
REMARK SMILES IDX 76 87 53 88 54 89 62 90 55 91 57 92 63 93 56 94 58 95 59 96
REMARK SMILES IDX 60 97 61 98
REMARK H PARENT 17 6 24 32 83 51 51 62
REMARK Flexibility Score: inf
ROOT
ATOM      1  C   UNL     1      -7.147  -1.056  -1.557  1.00  0.00     0.021 C 
ENDROOT
BRANCH   1   2
ATOM      2  C   UNL     1      -8.404  -0.190  -1.477  1.00  0.00     0.116 C 
BRANCH   2   3
ATOM      3  N   UNL     1      -9.460  -0.822  -0.705  1.00  0.00    -0.356 N 
ATOM      4  C   UNL     1     -10.046  -0.499   0.475  1.00  0.00     0.225 C 
ATOM      5  O   UNL     1     -10.955  -1.237   0.870  1.00  0.00    -0.275 OA
ATOM      6  H   UNL     1      -9.818  -1.642  -1.116  1.00  0.00     0.163 HD
BRANCH   4   7
ATOM      7  C   UNL     1      -9.618   0.677   1.340  1.00  0.00     0.107 C 
ATOM      8  N   UNL     1      -7.460   1.640   1.239  1.00  0.00    -0.312 N 
ATOM      9  C   UNL     1      -8.194   0.547   1.831  1.00  0.00     0.139 C 
ATOM     10  C   UNL     1      -8.321   2.577   0.651  1.00  0.00     0.227 C 
ATOM     11  C   UNL     1      -9.731   2.045   0.700  1.00  0.00     0.116 C 
ATOM     12  O   UNL     1      -8.054   3.640   0.113  1.00  0.00    -0.274 OA
BRANCH   8  13
ATOM     13  C   UNL     1      -6.036   1.691   1.222  1.00  0.00     0.044 A 
ATOM     14  C   UNL     1      -3.232   1.690   0.960  1.00  0.00     0.060 A 
ATOM     15  C   UNL     1      -3.880   0.546   1.416  1.00  0.00     0.018 A 
ATOM     16  C   UNL     1      -3.953   2.843   0.668  1.00  0.00     0.018 A 
ATOM     17  C   UNL     1      -5.272   0.558   1.565  1.00  0.00     0.027 A 
ATOM     18  C   UNL     1      -5.346   2.838   0.802  1.00  0.00     0.027 A 
BRANCH  14  19
ATOM     19  C   UNL     1      -1.796   1.651   0.674  1.00  0.00     0.338 C 
ATOM     20  O   UNL     1      -1.351   1.365  -0.421  1.00  0.00    -0.246 OA
BRANCH  19  21
ATOM     21  O   UNL     1      -1.125   1.970   1.804  1.00  0.00    -0.462 OA
BRANCH  21  22
ATOM     22  C   UNL     1       0.301   2.097   1.669  1.00  0.00     0.233 C 
BRANCH  22  23
ATOM     23  C   UNL     1       1.012   0.857   2.209  1.00  0.00     0.041 C 
BRANCH  23  24
ATOM     24  C   UNL     1       0.814  -0.414   1.379  1.00  0.00     0.000 C 
ATOM     25  C   UNL     1       1.489  -0.355   0.016  1.00  0.00     0.004 C 
ENDBRANCH  23  24
ENDBRANCH  22  23
ENDBRANCH  21  22
ENDBRANCH  19  21
ENDBRANCH  14  19
ENDBRANCH   8  13
ENDBRANCH   4   7
ENDBRANCH   2   3
ENDBRANCH   1   2
BRANCH   1  26
ATOM     26  C   UNL     1      -7.254  -2.253  -2.510  1.00  0.00     0.002 C 
BRANCH  26  27
ATOM     27  C   UNL     1      -7.608  -1.917  -3.964  1.00  0.00     0.002 C 
BRANCH  27  28
ATOM     28  C   UNL     1      -6.743  -0.844  -4.632  1.00  0.00     0.021 C 
BRANCH  28  29
ATOM     29  C   UNL     1      -5.246  -1.140  -4.671  1.00  0.00     0.116 C 
BRANCH  29  30
ATOM     30  N   UNL     1      -4.940  -2.335  -5.442  1.00  0.00    -0.352 N 
ATOM     31  C   UNL     1      -4.065  -2.501  -6.487  1.00  0.00     0.251 C 
ATOM     32  H   UNL     1      -5.433  -3.144  -5.175  1.00  0.00     0.163 HD
ATOM     33  O   UNL     1      -4.071  -3.552  -7.122  1.00  0.00    -0.269 OA
BRANCH  31  34
ATOM     34  C   UNL     1      -3.128  -1.416  -6.860  1.00  0.00     0.039 A 
ATOM     35  C   UNL     1      -2.962  -1.107  -8.214  1.00  0.00     0.014 A 
ATOM     36  C   UNL     1      -2.394  -0.728  -5.890  1.00  0.00     0.014 A 
ATOM     37  C   UNL     1      -2.099  -0.073  -8.591  1.00  0.00     0.010 A 
ATOM     38  C   UNL     1      -1.579   0.339  -6.263  1.00  0.00     0.010 A 
ATOM     39  C   UNL     1      -1.418   0.673  -7.617  1.00  0.00    -0.014 A 
BRANCH  39  40
ATOM     40  C   UNL     1      -0.527   1.802  -7.989  1.00  0.00     0.031 A 
ATOM     41  C   UNL     1       0.953   1.712  -7.732  1.00  0.00     0.074 A 
ATOM     42  C   UNL     1      -1.060   2.939  -8.480  1.00  0.00     0.049 A 
ATOM     43  N   UNL     1       1.879   2.617  -7.915  1.00  0.00    -0.248 NA
ATOM     44  C   UNL     1       1.455   0.444  -7.177  1.00  0.00     0.031 C 
ATOM     45  C   UNL     1      -2.486   3.173  -8.715  1.00  0.00     0.029 A 
ATOM     46  N   UNL     1      -0.466   4.122  -8.843  1.00  0.00    -0.354 N 
ATOM     47  C   UNL     1       3.064   2.045  -7.468  1.00  0.00     0.074 A 
ATOM     48  C   UNL     1       2.737   0.722  -6.981  1.00  0.00     0.031 C 
ATOM     49  C   UNL     1      -2.656   4.421  -9.181  1.00  0.00     0.029 A 
ATOM     50  C   UNL     1      -1.358   5.084  -9.257  1.00  0.00     0.049 A 
ATOM     51  H   UNL     1       0.507   4.269  -8.810  1.00  0.00     0.167 HD
ATOM     52  C   UNL     1       4.316   2.559  -7.490  1.00  0.00     0.034 A 
ATOM     53  C   UNL     1      -1.152   6.356  -9.651  1.00  0.00     0.034 A 
ATOM     54  C   UNL     1       4.648   3.853  -8.021  1.00  0.00     0.049 A 
ATOM     55  C   UNL     1       0.256   6.886  -9.705  1.00  0.00     0.074 A 
ATOM     56  C   UNL     1       5.896   4.439  -8.145  1.00  0.00     0.029 A 
ATOM     57  N   UNL     1       3.728   4.759  -8.524  1.00  0.00    -0.354 N 
ATOM     58  N   UNL     1       1.379   6.277  -9.411  1.00  0.00    -0.248 NA
ATOM     59  C   UNL     1       0.429   8.267 -10.181  1.00  0.00     0.031 C 
ATOM     60  C   UNL     1       5.729   5.701  -8.727  1.00  0.00     0.029 A 
ATOM     61  C   UNL     1       4.379   5.897  -8.968  1.00  0.00     0.049 A 
ATOM     62  H   UNL     1       2.755   4.615  -8.560  1.00  0.00     0.167 HD
ATOM     63  C   UNL     1       2.392   7.183  -9.703  1.00  0.00     0.074 A 
ATOM     64  C   UNL     1       1.751   8.377 -10.214  1.00  0.00     0.031 C 
ATOM     65  C   UNL     1       3.731   7.047  -9.543  1.00  0.00     0.034 A 
BRANCH  52  66
ATOM     66  C   UNL     1       5.438   1.686  -6.993  1.00  0.00     0.023 A 
ATOM     67  C   UNL     1       5.877   0.614  -7.797  1.00  0.00     0.012 A 
ATOM     68  C   UNL     1       6.096   1.953  -5.777  1.00  0.00     0.148 A 
ATOM     69  C   UNL     1       6.934  -0.197  -7.387  1.00  0.00     0.002 A 
ATOM     70  C   UNL     1       7.174   1.162  -5.391  1.00  0.00     0.091 A 
ATOM     71  F   UNL     1       5.652   2.963  -5.016  1.00  0.00    -0.205 F 
ATOM     72  C   UNL     1       7.588   0.083  -6.190  1.00  0.00     0.022 A 
BRANCH  70  73
ATOM     73  S   UNL     1       8.126   1.483  -3.901  1.00  0.00     0.127 S 
ATOM     74  O   UNL     1       7.677   0.403  -3.025  1.00  0.00    -0.237 OA
ATOM     75  O   UNL     1       9.503   1.349  -4.378  1.00  0.00    -0.237 OA
ATOM     76  O   UNL     1       7.762   2.828  -3.477  1.00  0.00    -0.744 OA
ENDBRANCH  70  73
ENDBRANCH  52  66
BRANCH  53  77
ATOM     77  C   UNL     1      -2.297   7.190 -10.114  1.00  0.00     0.023 A 
ATOM     78  C   UNL     1      -2.412   7.491 -11.485  1.00  0.00     0.012 A 
ATOM     79  C   UNL     1      -3.278   7.665  -9.223  1.00  0.00     0.148 A 
ATOM     80  C   UNL     1      -3.464   8.276 -11.957  1.00  0.00     0.002 A 
ATOM     81  C   UNL     1      -4.352   8.406  -9.707  1.00  0.00     0.091 A 
ATOM     82  F   UNL     1      -3.144   7.388  -7.919  1.00  0.00    -0.205 F 
ATOM     83  C   UNL     1      -4.439   8.725 -11.071  1.00  0.00     0.022 A 
BRANCH  81  84
ATOM     84  S   UNL     1      -5.711   8.910  -8.646  1.00  0.00     0.127 S 
ATOM     85  O   UNL     1      -5.366  10.298  -8.354  1.00  0.00    -0.237 OA
ATOM     86  O   UNL     1      -6.872   8.735  -9.522  1.00  0.00    -0.237 OA
ATOM     87  O   UNL     1      -5.676   7.987  -7.519  1.00  0.00    -0.744 OA
ENDBRANCH  81  84
ENDBRANCH  53  77
BRANCH  65  88
ATOM     88  C   UNL     1       4.606   8.199  -9.959  1.00  0.00     0.023 A 
ATOM     89  C   UNL     1       4.679   9.345  -9.143  1.00  0.00     0.012 A 
ATOM     90  C   UNL     1       5.415   8.113 -11.109  1.00  0.00     0.148 A 
ATOM     91  C   UNL     1       5.527  10.399  -9.478  1.00  0.00     0.002 A 
ATOM     92  C   UNL     1       6.288   9.151 -11.414  1.00  0.00     0.091 A 
ATOM     93  F   UNL     1       5.313   7.024 -11.884  1.00  0.00    -0.205 F 
ATOM     94  C   UNL     1       6.340  10.297 -10.605  1.00  0.00     0.022 A 
BRANCH  92  95
ATOM     95  S   UNL     1       7.432   9.061 -12.797  1.00  0.00     0.127 S 
ATOM     96  O   UNL     1       6.769   9.906 -13.789  1.00  0.00    -0.237 OA
ATOM     97  O   UNL     1       8.656   9.631 -12.232  1.00  0.00    -0.237 OA
ATOM     98  O   UNL     1       7.531   7.648 -13.138  1.00  0.00    -0.744 OA
ENDBRANCH  92  95
ENDBRANCH  65  88
ENDBRANCH  39  40
ENDBRANCH  31  34
ENDBRANCH  29  30
ENDBRANCH  28  29
ENDBRANCH  27  28
ENDBRANCH  26  27
ENDBRANCH   1  26
TORSDOF 22
