REMARK SMILES O=C(NCCCCCCNC(=O)c1cc(NC(=S)NC(=O)c2ccccc2F)ccc1Cl)c1ccc(-c2c3nc(c(-c4cccc(S(=O)(=O)[O-])c4F)c4ccc([nH]4)c(-c4cccc(S(=O)(=O)[O-])c4F)c4nc(c(-c5cccc(S(=O)(=O)[O-])c5F)c5ccc2[nH]5)C=C4)C=C3)cc1
REMARK SMILES IDX 7 1 6 2 5 3 4 4 3 5 1 6 2 7 33 9 34 10 95 11 35 12 94 13
REMARK SMILES IDX 36 14 37 15 38 16 88 17 39 18 93 19 87 20 89 21 40 22 92 23
REMARK SMILES IDX 86 24 85 25 41 27 73 28 53 29 72 30 54 31 57 32 71 33 90 34
REMARK SMILES IDX 55 35 56 36 70 38 91 39 58 40 42 41 43 42 51 43 44 44 46 45
REMARK SMILES IDX 52 46 45 47 47 48 48 49 49 50 50 51 74 52 75 53 83 54 76 55
REMARK SMILES IDX 78 56 84 57 77 58 79 59 80 60 81 61 82 62 59 63 60 64 68 65
REMARK SMILES IDX 61 66 63 67 69 68 62 69 64 70 65 71 66 72 67 73 8 74 9 75
REMARK SMILES IDX 10 76 11 77 12 79 13 80 14 81 31 82 15 83 30 84 32 85 29 86
REMARK SMILES IDX 16 87 17 89 18 90 19 91 20 92 21 94 22 95 23 96 27 97 24 98
REMARK SMILES IDX 26 99 28 100 25 101
REMARK H PARENT 3 8 89 26 57 37 10 78 16 88 19 93
REMARK Flexibility Score: inf
ROOT
ATOM      1  C   UNL     1       4.619  -3.641  -2.176  1.00  0.00     0.002 C 
ENDROOT
BRANCH   1   2
ATOM      2  C   UNL     1       4.136  -3.658  -0.723  1.00  0.00     0.002 C 
BRANCH   2   3
ATOM      3  C   UNL     1       4.579  -2.494   0.159  1.00  0.00     0.021 C 
BRANCH   3   4
ATOM      4  C   UNL     1       4.308  -1.108  -0.404  1.00  0.00     0.116 C 
BRANCH   4   5
ATOM      5  N   UNL     1       2.891  -0.820  -0.549  1.00  0.00    -0.352 N 
ATOM      6  O   UNL     1       0.941   0.241  -0.142  1.00  0.00    -0.269 OA
ATOM      7  C   UNL     1       2.163   0.231  -0.037  1.00  0.00     0.251 C 
ATOM      8  H   UNL     1       2.380  -1.466  -1.089  1.00  0.00     0.163 HD
BRANCH   7   9
ATOM      9  C   UNL     1       2.867   1.322   0.673  1.00  0.00     0.039 A 
ATOM     10  C   UNL     1       4.040   1.866   0.148  1.00  0.00     0.014 A 
ATOM     11  C   UNL     1       2.374   1.773   1.900  1.00  0.00     0.014 A 
ATOM     12  C   UNL     1       4.816   2.712   0.930  1.00  0.00     0.010 A 
ATOM     13  C   UNL     1       3.105   2.711   2.638  1.00  0.00     0.010 A 
ATOM     14  C   UNL     1       4.357   3.152   2.183  1.00  0.00    -0.014 A 
BRANCH  14  15
ATOM     15  C   UNL     1       5.191   4.099   2.971  1.00  0.00     0.031 A 
ATOM     16  C   UNL     1       5.713   3.737   4.337  1.00  0.00     0.074 A 
ATOM     17  C   UNL     1       5.499   5.295   2.429  1.00  0.00     0.049 A 
ATOM     18  N   UNL     1       6.474   4.442   5.135  1.00  0.00    -0.248 NA
ATOM     19  C   UNL     1       5.333   2.424   4.885  1.00  0.00     0.031 C 
ATOM     20  C   UNL     1       5.023   5.774   1.127  1.00  0.00     0.029 A 
ATOM     21  N   UNL     1       6.282   6.323   2.891  1.00  0.00    -0.354 N 
ATOM     22  C   UNL     1       6.631   3.683   6.289  1.00  0.00     0.074 A 
ATOM     23  C   UNL     1       5.879   2.463   6.095  1.00  0.00     0.031 C 
ATOM     24  C   UNL     1       5.550   6.981   0.881  1.00  0.00     0.029 A 
ATOM     25  C   UNL     1       6.346   7.395   2.031  1.00  0.00     0.049 A 
ATOM     26  H   UNL     1       6.752   6.295   3.755  1.00  0.00     0.167 HD
ATOM     27  C   UNL     1       7.352   3.970   7.399  1.00  0.00     0.034 A 
ATOM     28  C   UNL     1       6.954   8.590   2.156  1.00  0.00     0.034 A 
ATOM     29  C   UNL     1       8.136   5.165   7.566  1.00  0.00     0.049 A 
ATOM     30  C   UNL     1       7.747   8.876   3.399  1.00  0.00     0.074 A 
ATOM     31  C   UNL     1       8.959   5.505   8.626  1.00  0.00     0.029 A 
ATOM     32  N   UNL     1       8.190   6.215   6.664  1.00  0.00    -0.354 N 
ATOM     33  N   UNL     1       7.987   8.090   4.419  1.00  0.00    -0.248 NA
ATOM     34  C   UNL     1       8.371  10.203   3.502  1.00  0.00     0.031 C 
ATOM     35  C   UNL     1       9.483   6.776   8.381  1.00  0.00     0.029 A 
ATOM     36  C   UNL     1       9.015   7.213   7.153  1.00  0.00     0.049 A 
ATOM     37  H   UNL     1       7.713   6.247   5.803  1.00  0.00     0.167 HD
ATOM     38  C   UNL     1       8.800   8.818   5.278  1.00  0.00     0.074 A 
ATOM     39  C   UNL     1       9.039  10.098   4.644  1.00  0.00     0.031 C 
ATOM     40  C   UNL     1       9.285   8.465   6.492  1.00  0.00     0.034 A 
BRANCH  27  41
ATOM     41  C   UNL     1       7.381   2.963   8.521  1.00  0.00     0.023 A 
ATOM     42  C   UNL     1       8.140   1.785   8.377  1.00  0.00     0.012 A 
ATOM     43  C   UNL     1       6.775   3.249   9.761  1.00  0.00     0.148 A 
ATOM     44  C   UNL     1       8.286   0.900   9.445  1.00  0.00     0.002 A 
ATOM     45  C   UNL     1       6.962   2.385  10.834  1.00  0.00     0.091 A 
ATOM     46  F   UNL     1       6.048   4.370   9.873  1.00  0.00    -0.205 F 
ATOM     47  C   UNL     1       7.710   1.206  10.675  1.00  0.00     0.022 A 
BRANCH  45  48
ATOM     48  S   UNL     1       6.340   2.729  12.484  1.00  0.00     0.127 S 
ATOM     49  O   UNL     1       5.375   1.645  12.667  1.00  0.00    -0.237 OA
ATOM     50  O   UNL     1       7.550   2.611  13.297  1.00  0.00    -0.237 OA
ATOM     51  O   UNL     1       5.765   4.066  12.430  1.00  0.00    -0.744 OA
ENDBRANCH  45  48
ENDBRANCH  27  41
BRANCH  28  52
ATOM     52  C   UNL     1       6.850   9.588   1.054  1.00  0.00     0.023 A 
ATOM     53  C   UNL     1       7.993   9.911   0.298  1.00  0.00     0.012 A 
ATOM     54  C   UNL     1       5.614  10.173   0.715  1.00  0.00     0.148 A 
ATOM     55  C   UNL     1       7.910  10.814  -0.763  1.00  0.00     0.002 A 
ATOM     56  C   UNL     1       5.526  11.021  -0.382  1.00  0.00     0.091 A 
ATOM     57  F   UNL     1       4.541   9.863   1.457  1.00  0.00    -0.205 F 
ATOM     58  C   UNL     1       6.676  11.357  -1.111  1.00  0.00     0.022 A 
BRANCH  56  59
ATOM     59  S   UNL     1       3.956  11.645  -0.993  1.00  0.00     0.127 S 
ATOM     60  O   UNL     1       4.058  13.067  -0.678  1.00  0.00    -0.237 OA
ATOM     61  O   UNL     1       4.039  11.320  -2.417  1.00  0.00    -0.237 OA
ATOM     62  O   UNL     1       2.930  10.908  -0.268  1.00  0.00    -0.744 OA
ENDBRANCH  56  59
ENDBRANCH  28  52
BRANCH  40  63
ATOM     63  C   UNL     1      10.137   9.461   7.233  1.00  0.00     0.023 A 
ATOM     64  C   UNL     1       9.531  10.582   7.833  1.00  0.00     0.012 A 
ATOM     65  C   UNL     1      11.508   9.216   7.446  1.00  0.00     0.148 A 
ATOM     66  C   UNL     1      10.280  11.452   8.624  1.00  0.00     0.002 A 
ATOM     67  C   UNL     1      12.236  10.058   8.277  1.00  0.00     0.091 A 
ATOM     68  F   UNL     1      12.065   8.149   6.854  1.00  0.00    -0.205 F 
ATOM     69  C   UNL     1      11.626  11.182   8.859  1.00  0.00     0.022 A 
BRANCH  67  70
ATOM     70  S   UNL     1      13.946   9.736   8.725  1.00  0.00     0.127 S 
ATOM     71  O   UNL     1      14.634  10.867   8.104  1.00  0.00    -0.237 OA
ATOM     72  O   UNL     1      13.895   9.781  10.186  1.00  0.00    -0.237 OA
ATOM     73  O   UNL     1      14.273   8.432   8.166  1.00  0.00    -0.744 OA
ENDBRANCH  67  70
ENDBRANCH  40  63
ENDBRANCH  14  15
ENDBRANCH   7   9
ENDBRANCH   4   5
ENDBRANCH   3   4
ENDBRANCH   2   3
ENDBRANCH   1   2
BRANCH   1  74
ATOM     74  C   UNL     1       6.123  -3.474  -2.413  1.00  0.00     0.021 C 
BRANCH  74  75
ATOM     75  C   UNL     1       7.041  -4.356  -1.577  1.00  0.00     0.116 C 
BRANCH  75  76
ATOM     76  N   UNL     1       6.735  -5.776  -1.634  1.00  0.00    -0.352 N 
ATOM     77  C   UNL     1       7.564  -6.868  -1.484  1.00  0.00     0.252 C 
ATOM     78  H   UNL     1       5.790  -5.991  -1.805  1.00  0.00     0.163 HD
ATOM     79  O   UNL     1       7.048  -7.928  -1.138  1.00  0.00    -0.269 OA
BRANCH  77  80
ATOM     80  C   UNL     1       9.075  -6.711  -1.751  1.00  0.00     0.060 A 
ATOM     81  C   UNL     1      10.404  -7.371  -3.124  1.00  0.00     0.041 A 
ATOM     82  C   UNL     1       9.790  -5.672  -0.441  1.00  0.00     0.053 A 
ATOM     83  C   UNL     1      12.029  -6.851  -3.169  1.00  0.00     0.041 A 
ATOM     84  C   UNL     1      11.531  -5.282  -0.525  1.00  0.00     0.023 A 
ATOM     85  Cl  UNL     1       8.947  -5.236   0.994  1.00  0.00    -0.083 Cl
ATOM     86  C   UNL     1      12.599  -5.847  -1.854  1.00  0.00     0.028 A 
BRANCH  83  87
ATOM     87  N   UNL     1      12.500  -6.875  -4.493  1.00  0.00    -0.332 N 
ATOM     88  H   UNL     1      13.455  -6.659  -4.595  1.00  0.00     0.169 HD
BRANCH  87  89
ATOM     89  C   UNL     1      11.841  -7.154  -5.673  1.00  0.00     0.177 C 
ATOM     90  S   UNL     1      12.804  -7.204  -7.055  1.00  0.00    -0.040 S 
BRANCH  89  91
ATOM     91  N   UNL     1      10.442  -7.396  -5.896  1.00  0.00    -0.299 N 
ATOM     92  C   UNL     1       9.001  -7.543  -5.490  1.00  0.00     0.260 C 
ATOM     93  H   UNL     1      10.407  -7.559  -6.866  1.00  0.00     0.172 HD
ATOM     94  O   UNL     1       8.199  -8.007  -6.299  1.00  0.00    -0.269 OA
BRANCH  92  95
ATOM     95  C   UNL     1       8.523  -7.227  -4.077  1.00  0.00     0.075 A 
ATOM     96  C   UNL     1       8.700  -8.671  -3.007  1.00  0.00     0.017 A 
ATOM     97  C   UNL     1       9.273  -5.697  -3.743  1.00  0.00     0.135 A 
ATOM     98  C   UNL     1       9.861  -8.735  -1.645  1.00  0.00     0.001 A 
ATOM     99  C   UNL     1      10.466  -5.607  -2.439  1.00  0.00     0.040 A 
ATOM    100  F   UNL     1       9.241  -4.709  -4.648  1.00  0.00    -0.206 F 
ATOM    101  C   UNL     1      10.858  -7.256  -1.323  1.00  0.00     0.003 A 
ENDBRANCH  92  95
ENDBRANCH  89  91
ENDBRANCH  87  89
ENDBRANCH  83  87
ENDBRANCH  77  80
ENDBRANCH  75  76
ENDBRANCH  74  75
ENDBRANCH   1  74
TORSDOF 20
