REMARK SMILES CC(C)(Nc1ccc(Cl)cc1)C(=O)NCCCCCCNC(=O)c1ccc(-c2c3nc(c(-c4cccc(S(=O)(=O)[O-])c4F)c4ccc([nH]4)c(-c4cccc(S(=O)(=O)[O-])c4F)c4nc(c(-c5cccc(S(=O)(=O)[O-])c5F)c5ccc2[nH]5)C=C4)C=C3)cc1
REMARK SMILES IDX 18 1 17 2 16 3 15 4 14 5 12 6 13 7 2 9 1 10 3 11 4 12 5 14
REMARK SMILES IDX 6 15 11 16 7 17 10 18 8 19 9 20 19 21 20 22 21 23 22 24
REMARK SMILES IDX 23 26 24 27 25 28 86 29 26 30 85 31 27 32 28 33 29 34 79 35
REMARK SMILES IDX 30 36 84 37 78 38 80 39 31 40 83 41 77 42 76 43 32 45 64 46
REMARK SMILES IDX 44 47 63 48 45 49 48 50 62 51 81 52 46 53 47 54 61 56 82 57
REMARK SMILES IDX 49 58 33 59 34 60 42 61 35 62 37 63 43 64 36 65 38 66 39 67
REMARK SMILES IDX 40 68 41 69 65 70 66 71 74 72 67 73 69 74 75 75 68 76 70 77
REMARK SMILES IDX 71 78 72 79 73 80 50 81 51 82 59 83 52 84 54 85 60 86 53 87
REMARK SMILES IDX 55 88 56 89 57 90 58 91
REMARK H PARENT 14 8 4 13 21 25 80 44 48 55
REMARK Flexibility Score: inf
ROOT
ATOM      1  C   UNL     1      -0.102   7.028   2.652  1.00  0.00     0.002 C 
ENDROOT
BRANCH   1   2
ATOM      2  C   UNL     1      -0.788   5.673   2.835  1.00  0.00     0.002 C 
BRANCH   2   3
ATOM      3  C   UNL     1      -1.250   5.010   1.535  1.00  0.00     0.021 C 
BRANCH   3   4
ATOM      4  C   UNL     1      -0.137   4.583   0.580  1.00  0.00     0.116 C 
BRANCH   4   5
ATOM      5  N   UNL     1       0.914   3.801   1.208  1.00  0.00    -0.354 N 
ATOM      6  C   UNL     1       1.212   2.470   1.154  1.00  0.00     0.245 C 
ATOM      7  O   UNL     1       2.175   2.102   1.839  1.00  0.00    -0.272 OA
ATOM      8  H   UNL     1       1.522   4.327   1.777  1.00  0.00     0.163 HD
BRANCH   6   9
ATOM      9  C   UNL     1       0.413   1.466   0.277  1.00  0.00     0.111 C 
ATOM     10  C   UNL     1       0.941   0.032   0.490  1.00  0.00     0.045 C 
ATOM     11  C   UNL     1       0.674   1.806  -1.207  1.00  0.00     0.045 C 
BRANCH   9  12
ATOM     12  N   UNL     1      -1.047   1.431   0.520  1.00  0.00    -0.372 N 
ATOM     13  H   UNL     1      -1.603   1.397  -0.292  1.00  0.00     0.161 HD
BRANCH  12  14
ATOM     14  C   UNL     1      -1.752   1.440   1.711  1.00  0.00     0.035 A 
ATOM     15  C   UNL     1      -1.248   1.868   2.944  1.00  0.00     0.027 A 
ATOM     16  C   UNL     1      -3.117   1.105   1.671  1.00  0.00     0.027 A 
ATOM     17  C   UNL     1      -2.088   2.082   4.048  1.00  0.00     0.022 A 
ATOM     18  C   UNL     1      -3.955   1.264   2.782  1.00  0.00     0.022 A 
ATOM     19  C   UNL     1      -3.442   1.790   3.958  1.00  0.00     0.041 A 
ATOM     20  Cl  UNL     1      -4.480   2.101   5.293  1.00  0.00    -0.084 Cl
ENDBRANCH  12  14
ENDBRANCH   9  12
ENDBRANCH   6   9
ENDBRANCH   4   5
ENDBRANCH   3   4
ENDBRANCH   2   3
ENDBRANCH   1   2
BRANCH   1  21
ATOM     21  C   UNL     1      -0.901   8.047   1.837  1.00  0.00     0.021 C 
BRANCH  21  22
ATOM     22  C   UNL     1      -2.328   8.277   2.325  1.00  0.00     0.116 C 
BRANCH  22  23
ATOM     23  N   UNL     1      -2.362   8.922   3.629  1.00  0.00    -0.352 N 
ATOM     24  C   UNL     1      -2.919  10.132   3.967  1.00  0.00     0.251 C 
ATOM     25  H   UNL     1      -1.930   8.429   4.363  1.00  0.00     0.163 HD
ATOM     26  O   UNL     1      -2.692  10.644   5.060  1.00  0.00    -0.269 OA
BRANCH  24  27
ATOM     27  C   UNL     1      -3.781  10.820   2.984  1.00  0.00     0.039 A 
ATOM     28  C   UNL     1      -3.505  12.146   2.647  1.00  0.00     0.014 A 
ATOM     29  C   UNL     1      -4.824  10.130   2.361  1.00  0.00     0.014 A 
ATOM     30  C   UNL     1      -4.234  12.761   1.626  1.00  0.00     0.010 A 
ATOM     31  C   UNL     1      -5.500  10.721   1.298  1.00  0.00     0.010 A 
ATOM     32  C   UNL     1      -5.209  12.040   0.915  1.00  0.00    -0.014 A 
BRANCH  32  33
ATOM     33  C   UNL     1      -5.907  12.629  -0.257  1.00  0.00     0.031 A 
ATOM     34  C   UNL     1      -7.397  12.823  -0.234  1.00  0.00     0.074 A 
ATOM     35  C   UNL     1      -5.208  12.895  -1.379  1.00  0.00     0.049 A 
ATOM     36  N   UNL     1      -8.187  13.248  -1.187  1.00  0.00    -0.248 NA
ATOM     37  C   UNL     1      -8.097  12.471   1.012  1.00  0.00     0.031 C 
ATOM     38  C   UNL     1      -3.770  12.679  -1.551  1.00  0.00     0.029 A 
ATOM     39  N   UNL     1      -5.619  13.372  -2.600  1.00  0.00    -0.354 N 
ATOM     40  C   UNL     1      -9.475  13.182  -0.671  1.00  0.00     0.074 A 
ATOM     41  C   UNL     1      -9.366  12.649   0.670  1.00  0.00     0.031 C 
ATOM     42  C   UNL     1      -3.419  13.020  -2.801  1.00  0.00     0.029 A 
ATOM     43  C   UNL     1      -4.610  13.443  -3.532  1.00  0.00     0.049 A 
ATOM     44  H   UNL     1      -6.548  13.639  -2.789  1.00  0.00     0.167 HD
ATOM     45  C   UNL     1     -10.641  13.556  -1.250  1.00  0.00     0.034 A 
ATOM     46  C   UNL     1      -4.641  13.789  -4.835  1.00  0.00     0.034 A 
ATOM     47  C   UNL     1     -10.742  14.116  -2.570  1.00  0.00     0.049 A 
ATOM     48  C   UNL     1      -5.947  14.213  -5.449  1.00  0.00     0.074 A 
ATOM     49  C   UNL     1     -11.864  14.611  -3.210  1.00  0.00     0.029 A 
ATOM     50  N   UNL     1      -9.687  14.240  -3.461  1.00  0.00    -0.354 N 
ATOM     51  N   UNL     1      -7.130  14.300  -4.891  1.00  0.00    -0.248 NA
ATOM     52  C   UNL     1      -5.919  14.614  -6.863  1.00  0.00     0.031 C 
ATOM     53  C   UNL     1     -11.495  15.002  -4.501  1.00  0.00     0.029 A 
ATOM     54  C   UNL     1     -10.136  14.783  -4.653  1.00  0.00     0.049 A 
ATOM     55  H   UNL     1      -8.756  13.981  -3.274  1.00  0.00     0.167 HD
ATOM     56  C   UNL     1      -7.980  14.795  -5.874  1.00  0.00     0.074 A 
ATOM     57  C   UNL     1      -7.171  15.009  -7.056  1.00  0.00     0.031 C 
ATOM     58  C   UNL     1      -9.312  15.035  -5.808  1.00  0.00     0.034 A 
BRANCH  45  59
ATOM     59  C   UNL     1     -11.904  13.410  -0.441  1.00  0.00     0.023 A 
ATOM     60  C   UNL     1     -12.133  14.266   0.656  1.00  0.00     0.012 A 
ATOM     61  C   UNL     1     -12.893  12.475  -0.804  1.00  0.00     0.148 A 
ATOM     62  C   UNL     1     -13.308  14.170   1.400  1.00  0.00     0.002 A 
ATOM     63  C   UNL     1     -14.082  12.416  -0.087  1.00  0.00     0.091 A 
ATOM     64  F   UNL     1     -12.650  11.657  -1.838  1.00  0.00    -0.205 F 
ATOM     65  C   UNL     1     -14.285  13.254   1.022  1.00  0.00     0.022 A 
BRANCH  63  66
ATOM     66  S   UNL     1     -15.437  11.328  -0.541  1.00  0.00     0.127 S 
ATOM     67  O   UNL     1     -15.418  10.361   0.556  1.00  0.00    -0.237 OA
ATOM     68  O   UNL     1     -16.580  12.241  -0.529  1.00  0.00    -0.237 OA
ATOM     69  O   UNL     1     -15.100  10.792  -1.852  1.00  0.00    -0.744 OA
ENDBRANCH  63  66
ENDBRANCH  45  59
BRANCH  46  70
ATOM     70  C   UNL     1      -3.383  13.791  -5.635  1.00  0.00     0.023 A 
ATOM     71  C   UNL     1      -2.835  15.016  -6.062  1.00  0.00     0.012 A 
ATOM     72  C   UNL     1      -2.715  12.593  -5.952  1.00  0.00     0.148 A 
ATOM     73  C   UNL     1      -1.663  15.046  -6.818  1.00  0.00     0.002 A 
ATOM     74  C   UNL     1      -1.517  12.633  -6.656  1.00  0.00     0.091 A 
ATOM     75  F   UNL     1      -3.258  11.436  -5.547  1.00  0.00    -0.205 F 
ATOM     76  C   UNL     1      -0.998  13.857  -7.106  1.00  0.00     0.022 A 
BRANCH  74  77
ATOM     77  S   UNL     1      -0.526  11.165  -6.956  1.00  0.00     0.127 S 
ATOM     78  O   UNL     1      -0.668  10.997  -8.400  1.00  0.00    -0.237 OA
ATOM     79  O   UNL     1       0.799  11.600  -6.513  1.00  0.00    -0.237 OA
ATOM     80  O   UNL     1      -1.117  10.115  -6.137  1.00  0.00    -0.744 OA
ENDBRANCH  74  77
ENDBRANCH  46  70
BRANCH  58  81
ATOM     81  C   UNL     1      -9.988  15.586  -7.037  1.00  0.00     0.023 A 
ATOM     82  C   UNL     1     -10.197  14.755  -8.155  1.00  0.00     0.012 A 
ATOM     83  C   UNL     1     -10.492  16.903  -7.050  1.00  0.00     0.148 A 
ATOM     84  C   UNL     1     -10.873  15.233  -9.277  1.00  0.00     0.002 A 
ATOM     85  C   UNL     1     -11.208  17.356  -8.151  1.00  0.00     0.091 A 
ATOM     86  F   UNL     1     -10.268  17.682  -5.982  1.00  0.00    -0.205 F 
ATOM     87  C   UNL     1     -11.389  16.527  -9.270  1.00  0.00     0.022 A 
BRANCH  85  88
ATOM     88  S   UNL     1     -11.992  18.971  -8.197  1.00  0.00     0.127 S 
ATOM     89  O   UNL     1     -11.198  19.659  -9.213  1.00  0.00    -0.237 OA
ATOM     90  O   UNL     1     -13.356  18.639  -8.609  1.00  0.00    -0.237 OA
ATOM     91  O   UNL     1     -11.881  19.513  -6.849  1.00  0.00    -0.744 OA
ENDBRANCH  85  88
ENDBRANCH  58  81
ENDBRANCH  32  33
ENDBRANCH  24  27
ENDBRANCH  22  23
ENDBRANCH  21  22
ENDBRANCH   1  21
TORSDOF 18
