REMARK SMILES O=C(NCCCCCCNC(=O)[C@@H](CCC(F)(F)F)c1ccc(Cl)cc1)c1ccc(-c2c3nc(c(-c4cccc(S(=O)(=O)[O-])c4F)c4ccc([nH]4)c(-c4cccc(S(=O)(=O)[O-])c4F)c4nc(c(-c5cccc(S(=O)(=O)[O-])c5F)c5ccc2[nH]5)C=C4)C=C3)cc1
REMARK SMILES IDX 6 1 5 2 4 3 3 4 1 5 2 6 27 8 28 9 89 10 29 11 88 12 30 13
REMARK SMILES IDX 31 14 32 15 82 16 33 17 87 18 81 19 83 20 34 21 86 22 80 23
REMARK SMILES IDX 79 24 35 26 67 27 47 28 66 29 48 30 51 31 65 32 84 33 49 34
REMARK SMILES IDX 50 35 64 37 85 38 52 39 36 40 37 41 45 42 38 43 40 44 46 45
REMARK SMILES IDX 39 46 41 47 42 48 43 49 44 50 68 51 69 52 77 53 70 54 72 55
REMARK SMILES IDX 78 56 71 57 73 58 74 59 75 60 76 61 53 62 54 63 62 64 55 65
REMARK SMILES IDX 57 66 63 67 56 68 58 69 59 70 60 71 61 72 7 73 8 74 9 75
REMARK SMILES IDX 10 76 11 77 12 79 13 80 14 81 15 82 16 83 17 84 18 85 19 86
REMARK SMILES IDX 20 87 21 88 26 89 22 90 25 91 23 92 24 93
REMARK H PARENT 3 7 83 25 51 36 10 78
REMARK Flexibility Score: inf
ROOT
ATOM      1  C   UNL     1       3.794  -3.736  -1.168  1.00  0.00     0.002 C 
ENDROOT
BRANCH   1   2
ATOM      2  C   UNL     1       4.455  -2.709  -0.246  1.00  0.00     0.021 C 
BRANCH   2   3
ATOM      3  C   UNL     1       4.328  -1.262  -0.710  1.00  0.00     0.116 C 
BRANCH   3   4
ATOM      4  N   UNL     1       2.939  -0.840  -0.823  1.00  0.00    -0.352 N 
ATOM      5  O   UNL     1       1.014   0.143  -0.187  1.00  0.00    -0.269 OA
ATOM      6  C   UNL     1       2.238   0.083  -0.086  1.00  0.00     0.251 C 
ATOM      7  H   UNL     1       2.425  -1.283  -1.536  1.00  0.00     0.163 HD
BRANCH   6   8
ATOM      8  C   UNL     1       2.959   0.982   0.840  1.00  0.00     0.039 A 
ATOM      9  C   UNL     1       4.153   1.587   0.445  1.00  0.00     0.014 A 
ATOM     10  C   UNL     1       2.444   1.214   2.118  1.00  0.00     0.014 A 
ATOM     11  C   UNL     1       4.923   2.265   1.381  1.00  0.00     0.010 A 
ATOM     12  C   UNL     1       3.172   1.991   3.026  1.00  0.00     0.010 A 
ATOM     13  C   UNL     1       4.441   2.482   2.682  1.00  0.00    -0.014 A 
BRANCH  13  14
ATOM     14  C   UNL     1       5.274   3.255   3.640  1.00  0.00     0.031 A 
ATOM     15  C   UNL     1       5.774   2.637   4.919  1.00  0.00     0.074 A 
ATOM     16  C   UNL     1       5.603   4.526   3.332  1.00  0.00     0.049 A 
ATOM     17  N   UNL     1       6.558   3.156   5.830  1.00  0.00    -0.248 NA
ATOM     18  C   UNL     1       5.334   1.266   5.224  1.00  0.00     0.031 C 
ATOM     19  C   UNL     1       5.147   5.248   2.141  1.00  0.00     0.029 A 
ATOM     20  N   UNL     1       6.399   5.433   3.982  1.00  0.00    -0.354 N 
ATOM     21  C   UNL     1       6.667   2.202   6.834  1.00  0.00     0.074 A 
ATOM     22  C   UNL     1       5.862   1.071   6.425  1.00  0.00     0.031 C 
ATOM     23  C   UNL     1       5.701   6.468   2.124  1.00  0.00     0.029 A 
ATOM     24  C   UNL     1       6.502   6.639   3.330  1.00  0.00     0.049 A 
ATOM     25  H   UNL     1       6.853   5.239   4.834  1.00  0.00     0.167 HD
ATOM     26  C   UNL     1       7.380   2.257   7.985  1.00  0.00     0.034 A 
ATOM     27  C   UNL     1       7.156   7.766   3.669  1.00  0.00     0.034 A 
ATOM     28  C   UNL     1       8.206   3.372   8.370  1.00  0.00     0.049 A 
ATOM     29  C   UNL     1       7.957   7.787   4.938  1.00  0.00     0.074 A 
ATOM     30  C   UNL     1       9.023   3.494   9.481  1.00  0.00     0.029 A 
ATOM     31  N   UNL     1       8.312   4.562   7.666  1.00  0.00    -0.354 N 
ATOM     32  N   UNL     1       8.148   6.827   5.809  1.00  0.00    -0.248 NA
ATOM     33  C   UNL     1       8.660   9.037   5.255  1.00  0.00     0.031 C 
ATOM     34  C   UNL     1       9.592   4.772   9.469  1.00  0.00     0.029 A 
ATOM     35  C   UNL     1       9.168   5.429   8.325  1.00  0.00     0.049 A 
ATOM     36  H   UNL     1       7.847   4.761   6.822  1.00  0.00     0.167 HD
ATOM     37  C   UNL     1       9.025   7.341   6.756  1.00  0.00     0.074 A 
ATOM     38  C   UNL     1       9.343   8.692   6.338  1.00  0.00     0.031 C 
ATOM     39  C   UNL     1       9.516   6.752   7.874  1.00  0.00     0.034 A 
BRANCH  26  40
ATOM     40  C   UNL     1       7.316   1.070   8.915  1.00  0.00     0.023 A 
ATOM     41  C   UNL     1       7.946  -0.140   8.559  1.00  0.00     0.012 A 
ATOM     42  C   UNL     1       6.687   1.175  10.172  1.00  0.00     0.148 A 
ATOM     43  C   UNL     1       7.920  -1.236   9.422  1.00  0.00     0.002 A 
ATOM     44  C   UNL     1       6.706   0.094  11.046  1.00  0.00     0.091 A 
ATOM     45  F   UNL     1       6.077   2.326  10.487  1.00  0.00    -0.205 F 
ATOM     46  C   UNL     1       7.310  -1.116  10.668  1.00  0.00     0.022 A 
BRANCH  44  47
ATOM     47  S   UNL     1       6.023   0.178  12.706  1.00  0.00     0.127 S 
ATOM     48  O   UNL     1       4.846  -0.681  12.584  1.00  0.00    -0.237 OA
ATOM     49  O   UNL     1       7.106  -0.384  13.513  1.00  0.00    -0.237 OA
ATOM     50  O   UNL     1       5.746   1.585  12.957  1.00  0.00    -0.744 OA
ENDBRANCH  44  47
ENDBRANCH  26  40
BRANCH  27  51
ATOM     51  C   UNL     1       7.116   8.949   2.764  1.00  0.00     0.023 A 
ATOM     52  C   UNL     1       8.286   9.349   2.091  1.00  0.00     0.012 A 
ATOM     53  C   UNL     1       5.920   9.661   2.548  1.00  0.00     0.148 A 
ATOM     54  C   UNL     1       8.275  10.459   1.246  1.00  0.00     0.002 A 
ATOM     55  C   UNL     1       5.902  10.727   1.658  1.00  0.00     0.091 A 
ATOM     56  F   UNL     1       4.820   9.269   3.205  1.00  0.00    -0.205 F 
ATOM     57  C   UNL     1       7.082  11.141   1.021  1.00  0.00     0.022 A 
BRANCH  55  58
ATOM     58  S   UNL     1       4.386  11.576   1.205  1.00  0.00     0.127 S 
ATOM     59  O   UNL     1       4.579  12.884   1.827  1.00  0.00    -0.237 OA
ATOM     60  O   UNL     1       4.463  11.570  -0.256  1.00  0.00    -0.237 OA
ATOM     61  O   UNL     1       3.304  10.770   1.752  1.00  0.00    -0.744 OA
ENDBRANCH  55  58
ENDBRANCH  27  51
BRANCH  39  62
ATOM     62  C   UNL     1      10.499   7.542   8.699  1.00  0.00     0.023 A 
ATOM     63  C   UNL     1      10.068   8.659   9.442  1.00  0.00     0.012 A 
ATOM     64  C   UNL     1      11.848   7.141   8.773  1.00  0.00     0.148 A 
ATOM     65  C   UNL     1      10.974   9.391  10.209  1.00  0.00     0.002 A 
ATOM     66  C   UNL     1      12.732   7.841   9.584  1.00  0.00     0.091 A 
ATOM     67  F   UNL     1      12.244   6.088   8.042  1.00  0.00    -0.205 F 
ATOM     68  C   UNL     1      12.301   8.976  10.289  1.00  0.00     0.022 A 
BRANCH  66  69
ATOM     69  S   UNL     1      14.432   7.316   9.825  1.00  0.00     0.127 S 
ATOM     70  O   UNL     1      15.166   8.313   9.047  1.00  0.00    -0.237 OA
ATOM     71  O   UNL     1      14.592   7.436  11.274  1.00  0.00    -0.237 OA
ATOM     72  O   UNL     1      14.506   5.951   9.322  1.00  0.00    -0.744 OA
ENDBRANCH  66  69
ENDBRANCH  39  62
ENDBRANCH  13  14
ENDBRANCH   6   8
ENDBRANCH   3   4
ENDBRANCH   2   3
ENDBRANCH   1   2
BRANCH   1  73
ATOM     73  C   UNL     1       4.258  -3.699  -2.626  1.00  0.00     0.002 C 
BRANCH  73  74
ATOM     74  C   UNL     1       5.772  -3.777  -2.821  1.00  0.00     0.021 C 
BRANCH  74  75
ATOM     75  C   UNL     1       6.407  -5.087  -2.348  1.00  0.00     0.116 C 
BRANCH  75  76
ATOM     76  N   UNL     1       6.629  -5.981  -3.462  1.00  0.00    -0.356 N 
ATOM     77  C   UNL     1       7.780  -6.480  -3.983  1.00  0.00     0.227 C 
ATOM     78  H   UNL     1       5.809  -6.278  -3.920  1.00  0.00     0.163 HD
ATOM     79  O   UNL     1       7.658  -7.269  -4.928  1.00  0.00    -0.274 OA
BRANCH  77  80
ATOM     80  C   UNL     1       9.187  -6.114  -3.459  1.00  0.00     0.109 C 
BRANCH  80  81
ATOM     81  C   UNL     1       9.722  -4.755  -3.990  1.00  0.00     0.027 C 
BRANCH  81  82
ATOM     82  C   UNL     1       9.168  -3.390  -3.561  1.00  0.00     0.116 C 
BRANCH  82  83
ATOM     83  C   UNL     1       9.460  -2.859  -2.170  1.00  0.00     0.389 C 
ATOM     84  F   UNL     1      10.787  -2.797  -1.939  1.00  0.00    -0.171 F 
ATOM     85  F   UNL     1       8.964  -1.606  -2.049  1.00  0.00    -0.171 F 
ATOM     86  F   UNL     1       8.894  -3.593  -1.197  1.00  0.00    -0.171 F 
ENDBRANCH  82  83
ENDBRANCH  81  82
ENDBRANCH  80  81
BRANCH  80  87
ATOM     87  C   UNL     1       9.498  -6.561  -2.034  1.00  0.00    -0.035 A 
ATOM     88  C   UNL     1       8.925  -7.738  -1.517  1.00  0.00     0.006 A 
ATOM     89  C   UNL     1      10.447  -5.905  -1.237  1.00  0.00     0.006 A 
ATOM     90  C   UNL     1       9.206  -8.171  -0.216  1.00  0.00     0.021 A 
ATOM     91  C   UNL     1      10.701  -6.309   0.077  1.00  0.00     0.021 A 
ATOM     92  C   UNL     1      10.070  -7.435   0.587  1.00  0.00     0.041 A 
ATOM     93  Cl  UNL     1      10.376  -7.931   2.204  1.00  0.00    -0.084 Cl
ENDBRANCH  80  87
ENDBRANCH  77  80
ENDBRANCH  75  76
ENDBRANCH  74  75
ENDBRANCH  73  74
ENDBRANCH   1  73
TORSDOF 20
