REMARK SMILES CC(C)NC(=O)c1cccc(NC(=O)[C@@H]2[C@H](C(=O)NCCCCCCNC(=O)c3ccc(-c4c5nc(c(-c6cccc(S(=O)(=O)[O-])c6F)c6ccc([nH]6)c(-c6cccc(S(=O)(=O)[O-])c6F)c6nc(c(-c7cccc(S(=O)(=O)[O-])c7F)c7ccc4[nH]7)C=C6)C=C5)cc3)C2(C)C)c1
REMARK SMILES IDX 22 1 21 2 20 3 19 4 17 5 18 6 16 8 15 9 92 10 93 11 94 12
REMARK SMILES IDX 13 13 12 14 14 16 11 17 7 18 8 19 95 20 9 21 10 22 5 23 4 24
REMARK SMILES IDX 6 26 2 27 1 28 3 29 23 30 24 31 25 32 26 33 27 34 28 36
REMARK SMILES IDX 29 37 30 38 91 39 31 40 90 41 32 42 33 43 34 44 84 45 35 46
REMARK SMILES IDX 89 47 83 48 85 49 36 50 88 51 82 52 81 53 37 55 69 56 49 57
REMARK SMILES IDX 68 58 50 59 53 60 67 61 86 62 51 63 52 64 66 66 87 67 54 68
REMARK SMILES IDX 38 69 39 70 47 71 40 72 42 73 48 74 41 75 43 76 44 77 45 78
REMARK SMILES IDX 46 79 70 80 71 81 79 82 72 83 74 84 80 85 73 86 75 87 76 88
REMARK SMILES IDX 77 89 78 90 55 91 56 92 64 93 57 94 59 95 65 96 58 97 60 98
REMARK SMILES IDX 61 99 62 100 63 101
REMARK H PARENT 19 7 12 15 4 25 26 35 85 54 53 65
REMARK Flexibility Score: inf
ROOT
ATOM      1  C   UNL     1      -4.430  -7.071   2.397  1.00  0.00     0.002 C 
ENDROOT
BRANCH   1   2
ATOM      2  C   UNL     1      -3.209  -6.147   2.294  1.00  0.00     0.021 C 
BRANCH   2   3
ATOM      3  C   UNL     1      -2.257  -6.251   3.489  1.00  0.00     0.116 C 
BRANCH   3   4
ATOM      4  N   UNL     1      -1.625  -7.560   3.540  1.00  0.00    -0.356 N 
ATOM      5  C   UNL     1      -0.357  -7.932   3.178  1.00  0.00     0.224 C 
ATOM      6  O   UNL     1      -0.052  -9.122   3.170  1.00  0.00    -0.275 OA
ATOM      7  H   UNL     1      -2.192  -8.287   3.886  1.00  0.00     0.163 HD
BRANCH   5   8
ATOM      8  C   UNL     1       0.575  -6.861   2.760  1.00  0.00     0.098 C 
ATOM      9  C   UNL     1       1.861  -6.544   3.496  1.00  0.00     0.098 C 
ATOM     10  C   UNL     1       1.891  -7.024   2.036  1.00  0.00    -0.011 C 
ATOM     11  C   UNL     1       2.150  -6.004   0.948  1.00  0.00     0.013 C 
ATOM     12  C   UNL     1       2.450  -8.385   1.707  1.00  0.00     0.013 C 
BRANCH   9  13
ATOM     13  C   UNL     1       2.478  -7.360   4.572  1.00  0.00     0.228 C 
ATOM     14  N   UNL     1       3.842  -7.316   4.799  1.00  0.00    -0.326 N 
ATOM     15  H   UNL     1       4.130  -7.894   5.543  1.00  0.00     0.169 HD
ATOM     16  O   UNL     1       1.779  -8.041   5.317  1.00  0.00    -0.274 OA
BRANCH  14  17
ATOM     17  C   UNL     1       4.908  -6.619   4.189  1.00  0.00     0.041 A 
ATOM     18  C   UNL     1       7.325  -6.334   3.986  1.00  0.00     0.041 A 
ATOM     19  C   UNL     1       7.138  -5.430   2.936  1.00  0.00     0.014 A 
ATOM     20  C   UNL     1       6.212  -6.908   4.625  1.00  0.00     0.040 A 
ATOM     21  C   UNL     1       5.855  -5.089   2.545  1.00  0.00     0.003 A 
ATOM     22  C   UNL     1       4.758  -5.665   3.186  1.00  0.00     0.026 A 
BRANCH  18  23
ATOM     23  C   UNL     1       8.725  -6.555   4.415  1.00  0.00     0.251 C 
ATOM     24  N   UNL     1       9.207  -7.796   4.723  1.00  0.00    -0.350 N 
ATOM     25  H   UNL     1      10.132  -7.799   5.061  1.00  0.00     0.164 HD
ATOM     26  O   UNL     1       9.495  -5.597   4.460  1.00  0.00    -0.269 OA
BRANCH  24  27
ATOM     27  C   UNL     1       8.597  -9.116   4.641  1.00  0.00     0.076 C 
ATOM     28  C   UNL     1       9.398 -10.001   3.692  1.00  0.00     0.030 C 
ATOM     29  C   UNL     1       8.538  -9.720   6.039  1.00  0.00     0.030 C 
ENDBRANCH  24  27
ENDBRANCH  18  23
ENDBRANCH  14  17
ENDBRANCH   9  13
ENDBRANCH   5   8
ENDBRANCH   3   4
ENDBRANCH   2   3
ENDBRANCH   1   2
BRANCH   1  30
ATOM     30  C   UNL     1      -5.247  -6.914   3.684  1.00  0.00     0.002 C 
BRANCH  30  31
ATOM     31  C   UNL     1      -5.750  -5.494   3.957  1.00  0.00     0.021 C 
BRANCH  31  32
ATOM     32  C   UNL     1      -6.674  -4.937   2.881  1.00  0.00     0.116 C 
BRANCH  32  33
ATOM     33  N   UNL     1      -7.895  -5.719   2.756  1.00  0.00    -0.352 N 
ATOM     34  C   UNL     1      -9.201  -5.305   2.829  1.00  0.00     0.251 C 
ATOM     35  H   UNL     1      -7.765  -6.681   2.597  1.00  0.00     0.163 HD
ATOM     36  O   UNL     1     -10.104  -6.133   2.912  1.00  0.00    -0.269 OA
BRANCH  34  37
ATOM     37  C   UNL     1      -9.514  -3.861   2.822  1.00  0.00     0.039 A 
ATOM     38  C   UNL     1     -10.458  -3.368   3.726  1.00  0.00     0.014 A 
ATOM     39  C   UNL     1      -8.879  -2.997   1.926  1.00  0.00     0.014 A 
ATOM     40  C   UNL     1     -10.723  -1.997   3.768  1.00  0.00     0.010 A 
ATOM     41  C   UNL     1      -9.085  -1.624   2.025  1.00  0.00     0.010 A 
ATOM     42  C   UNL     1     -10.015  -1.110   2.940  1.00  0.00    -0.014 A 
BRANCH  42  43
ATOM     43  C   UNL     1     -10.227   0.358   3.027  1.00  0.00     0.031 A 
ATOM     44  C   UNL     1     -10.743   1.124   1.839  1.00  0.00     0.074 A 
ATOM     45  C   UNL     1      -9.879   1.014   4.153  1.00  0.00     0.049 A 
ATOM     46  N   UNL     1     -10.944   2.410   1.712  1.00  0.00    -0.248 NA
ATOM     47  C   UNL     1     -11.050   0.349   0.625  1.00  0.00     0.031 C 
ATOM     48  C   UNL     1      -9.297   0.396   5.346  1.00  0.00     0.029 A 
ATOM     49  N   UNL     1      -9.941   2.349   4.468  1.00  0.00    -0.354 N 
ATOM     50  C   UNL     1     -11.367   2.603   0.403  1.00  0.00     0.074 A 
ATOM     51  C   UNL     1     -11.358   1.306  -0.238  1.00  0.00     0.031 C 
ATOM     52  C   UNL     1      -9.063   1.347   6.264  1.00  0.00     0.029 A 
ATOM     53  C   UNL     1      -9.440   2.644   5.714  1.00  0.00     0.049 A 
ATOM     54  H   UNL     1     -10.308   3.030   3.859  1.00  0.00     0.167 HD
ATOM     55  C   UNL     1     -11.753   3.749  -0.206  1.00  0.00     0.034 A 
ATOM     56  C   UNL     1      -9.289   3.828   6.340  1.00  0.00     0.034 A 
ATOM     57  C   UNL     1     -11.789   5.032   0.443  1.00  0.00     0.049 A 
ATOM     58  C   UNL     1      -9.746   5.084   5.649  1.00  0.00     0.074 A 
ATOM     59  C   UNL     1     -12.243   6.238  -0.062  1.00  0.00     0.029 A 
ATOM     60  N   UNL     1     -11.342   5.282   1.731  1.00  0.00    -0.354 N 
ATOM     61  N   UNL     1     -10.286   5.224   4.463  1.00  0.00    -0.248 NA
ATOM     62  C   UNL     1      -9.605   6.342   6.397  1.00  0.00     0.031 C 
ATOM     63  C   UNL     1     -12.035   7.224   0.908  1.00  0.00     0.029 A 
ATOM     64  C   UNL     1     -11.493   6.624   2.033  1.00  0.00     0.049 A 
ATOM     65  H   UNL     1     -10.971   4.604   2.341  1.00  0.00     0.167 HD
ATOM     66  C   UNL     1     -10.585   6.576   4.338  1.00  0.00     0.074 A 
ATOM     67  C   UNL     1     -10.184   7.209   5.577  1.00  0.00     0.031 C 
ATOM     68  C   UNL     1     -11.133   7.236   3.287  1.00  0.00     0.034 A 
BRANCH  55  69
ATOM     69  C   UNL     1     -12.206   3.664  -1.641  1.00  0.00     0.023 A 
ATOM     70  C   UNL     1     -13.424   3.025  -1.954  1.00  0.00     0.012 A 
ATOM     71  C   UNL     1     -11.458   4.266  -2.672  1.00  0.00     0.148 A 
ATOM     72  C   UNL     1     -13.871   2.953  -3.273  1.00  0.00     0.002 A 
ATOM     73  C   UNL     1     -11.935   4.233  -3.978  1.00  0.00     0.091 A 
ATOM     74  F   UNL     1     -10.294   4.852  -2.360  1.00  0.00    -0.205 F 
ATOM     75  C   UNL     1     -13.133   3.566  -4.281  1.00  0.00     0.022 A 
BRANCH  73  76
ATOM     76  S   UNL     1     -11.103   5.063  -5.336  1.00  0.00     0.127 S 
ATOM     77  O   UNL     1     -10.628   3.928  -6.127  1.00  0.00    -0.237 OA
ATOM     78  O   UNL     1     -12.195   5.819  -5.949  1.00  0.00    -0.237 OA
ATOM     79  O   UNL     1     -10.060   5.880  -4.731  1.00  0.00    -0.744 OA
ENDBRANCH  73  76
ENDBRANCH  55  69
BRANCH  56  80
ATOM     80  C   UNL     1      -8.719   3.877   7.716  1.00  0.00     0.023 A 
ATOM     81  C   UNL     1      -9.547   4.233   8.800  1.00  0.00     0.012 A 
ATOM     82  C   UNL     1      -7.370   3.556   7.960  1.00  0.00     0.148 A 
ATOM     83  C   UNL     1      -9.031   4.305  10.094  1.00  0.00     0.002 A 
ATOM     84  C   UNL     1      -6.878   3.573   9.259  1.00  0.00     0.091 A 
ATOM     85  F   UNL     1      -6.598   3.228   6.914  1.00  0.00    -0.205 F 
ATOM     86  C   UNL     1      -7.701   3.966  10.325  1.00  0.00     0.022 A 
BRANCH  84  87
ATOM     87  S   UNL     1      -5.216   3.028   9.667  1.00  0.00     0.127 S 
ATOM     88  O   UNL     1      -4.582   4.278  10.076  1.00  0.00    -0.237 OA
ATOM     89  O   UNL     1      -5.469   2.079  10.752  1.00  0.00    -0.237 OA
ATOM     90  O   UNL     1      -4.689   2.422   8.451  1.00  0.00    -0.744 OA
ENDBRANCH  84  87
ENDBRANCH  56  80
BRANCH  68  91
ATOM     91  C   UNL     1     -11.379   8.715   3.440  1.00  0.00     0.023 A 
ATOM     92  C   UNL     1     -10.295   9.614   3.461  1.00  0.00     0.012 A 
ATOM     93  C   UNL     1     -12.695   9.217   3.491  1.00  0.00     0.148 A 
ATOM     94  C   UNL     1     -10.515  10.987   3.568  1.00  0.00     0.002 A 
ATOM     95  C   UNL     1     -12.908  10.589   3.543  1.00  0.00     0.091 A 
ATOM     96  F   UNL     1     -13.713   8.344   3.487  1.00  0.00    -0.205 F 
ATOM     97  C   UNL     1     -11.820  11.474   3.596  1.00  0.00     0.022 A 
BRANCH  95  98
ATOM     98  S   UNL     1     -14.551  11.312   3.481  1.00  0.00     0.127 S 
ATOM     99  O   UNL     1     -14.696  11.836   4.839  1.00  0.00    -0.237 OA
ATOM    100  O   UNL     1     -14.398  12.335   2.446  1.00  0.00    -0.237 OA
ATOM    101  O   UNL     1     -15.457  10.227   3.132  1.00  0.00    -0.744 OA
ENDBRANCH  95  98
ENDBRANCH  68  91
ENDBRANCH  42  43
ENDBRANCH  34  37
ENDBRANCH  32  33
ENDBRANCH  31  32
ENDBRANCH  30  31
ENDBRANCH   1  30
TORSDOF 20
