REMARK SMILES C[C@@H]1[C@@H](C(=O)NCCCCCCNC(=O)c2ccc(-c3c4nc(c(-c5cccc(S(=O)(=O)[O-])c5F)c5ccc([nH]5)c(-c5cccc(S(=O)(=O)[O-])c5F)c5nc(c(-c6cccc(S(=O)(=O)[O-])c6F)c6ccc3[nH]6)C=C5)C=C4)cc2)CCN1c1ccc(C(F)(F)F)cc1C#N
REMARK SMILES IDX 10 1 9 2 8 3 7 4 6 5 4 6 5 7 3 9 1 10 2 11 81 12 79 13 80 14
REMARK SMILES IDX 82 15 83 16 91 17 84 18 90 19 85 20 92 21 93 22 86 23 87 24
REMARK SMILES IDX 88 25 89 26 11 27 12 28 13 29 14 30 15 32 16 33 17 34 78 35
REMARK SMILES IDX 18 36 77 37 19 38 20 39 21 40 71 41 22 42 76 43 70 44 72 45
REMARK SMILES IDX 23 46 75 47 69 48 68 49 24 51 56 52 36 53 55 54 37 55 40 56
REMARK SMILES IDX 54 57 73 58 38 59 39 60 53 62 74 63 41 64 25 65 26 66 34 67
REMARK SMILES IDX 27 68 29 69 35 70 28 71 30 72 31 73 32 74 33 75 57 76 58 77
REMARK SMILES IDX 66 78 59 79 61 80 67 81 60 82 62 83 63 84 64 85 65 86 42 87
REMARK SMILES IDX 43 88 51 89 44 90 46 91 52 92 45 93 47 94 48 95 49 96 50 97
REMARK H PARENT 6 8 13 31 72 50 40 61
REMARK Flexibility Score: inf
ROOT
ATOM      1  C   UNL     1      -5.101   3.446  -2.534  1.00  0.00     0.002 C 
ENDROOT
BRANCH   1   2
ATOM      2  C   UNL     1      -3.825   4.282  -2.669  1.00  0.00     0.002 C 
BRANCH   2   3
ATOM      3  C   UNL     1      -2.895   4.281  -1.452  1.00  0.00     0.021 C 
BRANCH   3   4
ATOM      4  C   UNL     1      -2.491   2.904  -0.944  1.00  0.00     0.116 C 
BRANCH   4   5
ATOM      5  N   UNL     1      -1.808   2.108  -1.942  1.00  0.00    -0.356 N 
ATOM      6  C   UNL     1      -0.815   1.189  -1.780  1.00  0.00     0.225 C 
ATOM      7  O   UNL     1      -0.413   0.612  -2.791  1.00  0.00    -0.275 OA
ATOM      8  H   UNL     1      -2.103   2.251  -2.870  1.00  0.00     0.163 HD
BRANCH   6   9
ATOM      9  C   UNL     1      -0.189   0.989  -0.402  1.00  0.00     0.102 C 
ATOM     10  C   UNL     1       2.035   0.196   0.471  1.00  0.00     0.032 C 
ATOM     11  C   UNL     1       0.849  -0.168  -0.422  1.00  0.00     0.091 C 
ATOM     12  N   UNL     1       0.106  -1.325   0.132  1.00  0.00    -0.367 N 
ATOM     13  C   UNL     1      -1.164   0.544   0.693  1.00  0.00     0.037 C 
ATOM     14  C   UNL     1      -1.264  -0.951   0.474  1.00  0.00     0.118 C 
BRANCH  12  15
ATOM     15  C   UNL     1       0.345  -2.632  -0.255  1.00  0.00     0.055 A 
ATOM     16  C   UNL     1      -0.452  -3.242  -1.242  1.00  0.00     0.028 A 
ATOM     17  C   UNL     1       1.306  -3.438   0.383  1.00  0.00     0.076 A 
ATOM     18  C   UNL     1      -0.344  -4.604  -1.546  1.00  0.00     0.015 A 
ATOM     19  C   UNL     1       1.430  -4.803   0.061  1.00  0.00     0.034 A 
ATOM     20  C   UNL     1       0.594  -5.404  -0.888  1.00  0.00     0.057 A 
BRANCH  17  21
ATOM     21  C   UNL     1       2.146  -2.936   1.439  1.00  0.00     0.101 C 
ATOM     22  N   UNL     1       2.861  -2.601   2.284  1.00  0.00    -0.192 NA
ENDBRANCH  17  21
BRANCH  20  23
ATOM     23  C   UNL     1       0.669  -6.883  -1.169  1.00  0.00     0.416 C 
ATOM     24  F   UNL     1      -0.459  -7.543  -0.788  1.00  0.00    -0.166 F 
ATOM     25  F   UNL     1       0.837  -7.159  -2.491  1.00  0.00    -0.166 F 
ATOM     26  F   UNL     1       1.698  -7.505  -0.527  1.00  0.00    -0.166 F 
ENDBRANCH  20  23
ENDBRANCH  12  15
ENDBRANCH   6   9
ENDBRANCH   4   5
ENDBRANCH   3   4
ENDBRANCH   2   3
ENDBRANCH   1   2
BRANCH   1  27
ATOM     27  C   UNL     1      -5.972   3.759  -1.316  1.00  0.00     0.021 C 
BRANCH  27  28
ATOM     28  C   UNL     1      -6.333   5.229  -1.137  1.00  0.00     0.116 C 
BRANCH  28  29
ATOM     29  N   UNL     1      -7.036   5.771  -2.286  1.00  0.00    -0.352 N 
ATOM     30  C   UNL     1      -8.210   6.478  -2.338  1.00  0.00     0.251 C 
ATOM     31  H   UNL     1      -6.606   5.607  -3.157  1.00  0.00     0.163 HD
ATOM     32  O   UNL     1      -8.735   6.703  -3.425  1.00  0.00    -0.269 OA
BRANCH  30  33
ATOM     33  C   UNL     1      -8.852   6.950  -1.091  1.00  0.00     0.039 A 
ATOM     34  C   UNL     1     -10.240   6.845  -0.973  1.00  0.00     0.014 A 
ATOM     35  C   UNL     1      -8.103   7.511  -0.052  1.00  0.00     0.014 A 
ATOM     36  C   UNL     1     -10.869   7.265   0.199  1.00  0.00     0.010 A 
ATOM     37  C   UNL     1      -8.723   7.850   1.149  1.00  0.00     0.010 A 
ATOM     38  C   UNL     1     -10.115   7.748   1.282  1.00  0.00    -0.014 A 
BRANCH  38  39
ATOM     39  C   UNL     1     -10.778   8.149   2.550  1.00  0.00     0.031 A 
ATOM     40  C   UNL     1     -10.697   9.571   3.040  1.00  0.00     0.074 A 
ATOM     41  C   UNL     1     -11.421   7.220   3.285  1.00  0.00     0.049 A 
ATOM     42  N   UNL     1     -11.221  10.102   4.114  1.00  0.00    -0.248 NA
ATOM     43  C   UNL     1      -9.907  10.515   2.232  1.00  0.00     0.031 C 
ATOM     44  C   UNL     1     -11.509   5.795   2.958  1.00  0.00     0.029 A 
ATOM     45  N   UNL     1     -12.112   7.331   4.466  1.00  0.00    -0.354 N 
ATOM     46  C   UNL     1     -10.805  11.428   4.127  1.00  0.00     0.074 A 
ATOM     47  C   UNL     1      -9.950  11.612   2.975  1.00  0.00     0.031 C 
ATOM     48  C   UNL     1     -12.227   5.169   3.903  1.00  0.00     0.029 A 
ATOM     49  C   UNL     1     -12.619   6.137   4.922  1.00  0.00     0.049 A 
ATOM     50  H   UNL     1     -12.232   8.185   4.942  1.00  0.00     0.167 HD
ATOM     51  C   UNL     1     -11.126  12.412   5.001  1.00  0.00     0.034 A 
ATOM     52  C   UNL     1     -13.315   5.850   6.040  1.00  0.00     0.034 A 
ATOM     53  C   UNL     1     -11.997  12.232   6.131  1.00  0.00     0.049 A 
ATOM     54  C   UNL     1     -13.671   6.965   6.986  1.00  0.00     0.074 A 
ATOM     55  C   UNL     1     -12.447  13.184   7.029  1.00  0.00     0.029 A 
ATOM     56  N   UNL     1     -12.535  11.020   6.532  1.00  0.00    -0.354 N 
ATOM     57  N   UNL     1     -13.397   8.244   6.895  1.00  0.00    -0.248 NA
ATOM     58  C   UNL     1     -14.462   6.603   8.170  1.00  0.00     0.031 C 
ATOM     59  C   UNL     1     -13.222  12.540   7.998  1.00  0.00     0.029 A 
ATOM     60  C   UNL     1     -13.296  11.194   7.676  1.00  0.00     0.049 A 
ATOM     61  H   UNL     1     -12.396  10.161   6.072  1.00  0.00     0.167 HD
ATOM     62  C   UNL     1     -14.011   8.844   7.989  1.00  0.00     0.074 A 
ATOM     63  C   UNL     1     -14.693   7.790   8.713  1.00  0.00     0.031 C 
ATOM     64  C   UNL     1     -14.002  10.146   8.367  1.00  0.00     0.034 A 
BRANCH  51  65
ATOM     65  C   UNL     1     -10.559  13.786   4.750  1.00  0.00     0.023 A 
ATOM     66  C   UNL     1     -11.009  14.541   3.646  1.00  0.00     0.012 A 
ATOM     67  C   UNL     1      -9.625  14.355   5.638  1.00  0.00     0.148 A 
ATOM     68  C   UNL     1     -10.512  15.822   3.409  1.00  0.00     0.002 A 
ATOM     69  C   UNL     1      -9.172  15.652   5.423  1.00  0.00     0.091 A 
ATOM     70  F   UNL     1      -9.194  13.618   6.671  1.00  0.00    -0.205 F 
ATOM     71  C   UNL     1      -9.603  16.380   4.302  1.00  0.00     0.022 A 
BRANCH  69  72
ATOM     72  S   UNL     1      -8.063  16.493   6.558  1.00  0.00     0.127 S 
ATOM     73  O   UNL     1      -6.847  16.605   5.753  1.00  0.00    -0.237 OA
ATOM     74  O   UNL     1      -8.761  17.758   6.786  1.00  0.00    -0.237 OA
ATOM     75  O   UNL     1      -7.957  15.635   7.729  1.00  0.00    -0.744 OA
ENDBRANCH  69  72
ENDBRANCH  51  65
BRANCH  52  76
ATOM     76  C   UNL     1     -13.761   4.453   6.306  1.00  0.00     0.023 A 
ATOM     77  C   UNL     1     -15.133   4.137   6.265  1.00  0.00     0.012 A 
ATOM     78  C   UNL     1     -12.830   3.434   6.589  1.00  0.00     0.148 A 
ATOM     79  C   UNL     1     -15.573   2.842   6.542  1.00  0.00     0.002 A 
ATOM     80  C   UNL     1     -13.270   2.134   6.804  1.00  0.00     0.091 A 
ATOM     81  F   UNL     1     -11.530   3.757   6.631  1.00  0.00    -0.205 F 
ATOM     82  C   UNL     1     -14.642   1.840   6.802  1.00  0.00     0.022 A 
BRANCH  80  83
ATOM     83  S   UNL     1     -12.137   0.757   7.016  1.00  0.00     0.127 S 
ATOM     84  O   UNL     1     -12.369   0.392   8.411  1.00  0.00    -0.237 OA
ATOM     85  O   UNL     1     -12.644  -0.201   6.033  1.00  0.00    -0.237 OA
ATOM     86  O   UNL     1     -10.813   1.284   6.713  1.00  0.00    -0.744 OA
ENDBRANCH  80  83
ENDBRANCH  52  76
BRANCH  64  87
ATOM     87  C   UNL     1     -14.785  10.520   9.599  1.00  0.00     0.023 A 
ATOM     88  C   UNL     1     -14.340  10.110  10.872  1.00  0.00     0.012 A 
ATOM     89  C   UNL     1     -15.932  11.333   9.498  1.00  0.00     0.148 A 
ATOM     90  C   UNL     1     -15.049  10.466  12.020  1.00  0.00     0.002 A 
ATOM     91  C   UNL     1     -16.600  11.731  10.649  1.00  0.00     0.091 A 
ATOM     92  F   UNL     1     -16.348  11.701   8.277  1.00  0.00    -0.205 F 
ATOM     93  C   UNL     1     -16.170  11.285  11.909  1.00  0.00     0.022 A 
BRANCH  91  94
ATOM     94  S   UNL     1     -17.992  12.864  10.614  1.00  0.00     0.127 S 
ATOM     95  O   UNL     1     -19.099  11.988  10.995  1.00  0.00    -0.237 OA
ATOM     96  O   UNL     1     -17.615  13.848  11.629  1.00  0.00    -0.237 OA
ATOM     97  O   UNL     1     -18.053  13.387   9.255  1.00  0.00    -0.744 OA
ENDBRANCH  91  94
ENDBRANCH  64  87
ENDBRANCH  38  39
ENDBRANCH  30  33
ENDBRANCH  28  29
ENDBRANCH  27  28
ENDBRANCH   1  27
TORSDOF 19
