REMARK SMILES Cc1ccc(NC(=O)C[C@H]2SC[C@H](C(=O)NCCCCCCNC(=O)c3ccc(-c4c5nc(c(-c6cccc(S(=O)(=O)[O-])c6F)c6ccc([nH]6)c(-c6cccc(S(=O)(=O)[O-])c6F)c6nc(c(-c7cccc(S(=O)(=O)[O-])c7F)c7ccc4[nH]7)C=C6)C=C5)cc3)NC2=O)cc1
REMARK SMILES IDX 19 1 18 2 17 3 16 4 14 5 15 6 13 8 10 9 11 10 90 11 12 12
REMARK SMILES IDX 89 13 91 14 9 16 7 17 6 18 8 20 5 21 1 22 2 23 3 24 93 25
REMARK SMILES IDX 4 26 92 27 20 28 21 29 22 30 23 31 24 32 25 34 26 35 27 36
REMARK SMILES IDX 88 37 28 38 87 39 29 40 30 41 31 42 81 43 32 44 86 45 80 46
REMARK SMILES IDX 82 47 33 48 85 49 79 50 78 51 34 53 66 54 46 55 65 56 47 57
REMARK SMILES IDX 50 58 64 59 83 60 48 61 49 62 63 64 84 65 51 66 35 67 36 68
REMARK SMILES IDX 44 69 37 70 39 71 45 72 38 73 40 74 41 75 42 76 43 77 67 78
REMARK SMILES IDX 68 79 76 80 69 81 71 82 77 83 70 84 72 85 73 86 74 87 75 88
REMARK SMILES IDX 52 89 53 90 61 91 54 92 56 93 62 94 55 95 57 96 58 97 59 98
REMARK SMILES IDX 60 99
REMARK H PARENT 16 7 89 15 6 19 23 33 82 52 50 63
REMARK Flexibility Score: inf
ROOT
ATOM      1  C   UNL     1      -8.820  -3.645  -1.093  1.00  0.00     0.002 C 
ENDROOT
BRANCH   1   2
ATOM      2  C   UNL     1      -7.387  -3.099  -0.985  1.00  0.00     0.021 C 
BRANCH   2   3
ATOM      3  C   UNL     1      -6.291  -4.079  -1.408  1.00  0.00     0.116 C 
BRANCH   3   4
ATOM      4  N   UNL     1      -6.439  -4.449  -2.802  1.00  0.00    -0.354 N 
ATOM      5  C   UNL     1      -5.634  -4.223  -3.875  1.00  0.00     0.243 C 
ATOM      6  O   UNL     1      -6.029  -4.611  -4.978  1.00  0.00    -0.273 OA
ATOM      7  H   UNL     1      -7.262  -4.948  -3.007  1.00  0.00     0.163 HD
BRANCH   5   8
ATOM      8  C   UNL     1      -4.255  -3.567  -3.727  1.00  0.00     0.181 C 
ATOM      9  C   UNL     1      -2.019  -2.689  -1.878  1.00  0.00     0.145 C 
ATOM     10  S   UNL     1      -2.653  -1.410  -3.052  1.00  0.00    -0.145 SA
ATOM     11  C   UNL     1      -2.142  -4.080  -2.517  1.00  0.00     0.234 C 
ATOM     12  C   UNL     1      -4.323  -2.103  -3.300  1.00  0.00     0.105 C 
ATOM     13  N   UNL     1      -3.395  -4.447  -2.938  1.00  0.00    -0.343 N 
ATOM     14  O   UNL     1      -1.249  -4.919  -2.586  1.00  0.00    -0.274 OA
ATOM     15  H   UNL     1      -3.729  -5.342  -2.699  1.00  0.00     0.164 HD
BRANCH   9  16
ATOM     16  C   UNL     1      -0.657  -2.256  -1.323  1.00  0.00     0.124 C 
BRANCH  16  17
ATOM     17  C   UNL     1       0.381  -3.320  -1.032  1.00  0.00     0.226 C 
ATOM     18  N   UNL     1       0.157  -4.391  -0.226  1.00  0.00    -0.326 N 
ATOM     19  H   UNL     1       0.902  -5.034  -0.217  1.00  0.00     0.169 HD
ATOM     20  O   UNL     1       1.499  -3.235  -1.557  1.00  0.00    -0.275 OA
BRANCH  18  21
ATOM     21  C   UNL     1      -0.911  -4.771   0.595  1.00  0.00     0.041 A 
ATOM     22  C   UNL     1      -4.189  -6.247   2.982  1.00  0.00     0.044 C 
ATOM     23  C   UNL     1      -3.032  -5.743   2.172  1.00  0.00    -0.051 A 
ATOM     24  C   UNL     1      -2.826  -4.367   2.017  1.00  0.00     0.005 A 
ATOM     25  C   UNL     1      -2.155  -6.631   1.548  1.00  0.00     0.005 A 
ATOM     26  C   UNL     1      -1.767  -3.883   1.239  1.00  0.00     0.026 A 
ATOM     27  C   UNL     1      -1.093  -6.147   0.782  1.00  0.00     0.026 A 
ENDBRANCH  18  21
ENDBRANCH  16  17
ENDBRANCH   9  16
ENDBRANCH   5   8
ENDBRANCH   3   4
ENDBRANCH   2   3
ENDBRANCH   1   2
BRANCH   1  28
ATOM     28  C   UNL     1      -9.099  -4.980  -0.385  1.00  0.00     0.002 C 
BRANCH  28  29
ATOM     29  C   UNL     1      -8.592  -5.101   1.053  1.00  0.00     0.021 C 
BRANCH  29  30
ATOM     30  C   UNL     1      -9.160  -4.063   2.009  1.00  0.00     0.116 C 
BRANCH  30  31
ATOM     31  N   UNL     1     -10.336  -4.500   2.734  1.00  0.00    -0.352 N 
ATOM     32  C   UNL     1     -11.118  -3.810   3.641  1.00  0.00     0.251 C 
ATOM     33  H   UNL     1     -10.620  -5.425   2.553  1.00  0.00     0.163 HD
ATOM     34  O   UNL     1     -11.946  -4.451   4.287  1.00  0.00    -0.269 OA
BRANCH  32  35
ATOM     35  C   UNL     1     -11.046  -2.326   3.750  1.00  0.00     0.039 A 
ATOM     36  C   UNL     1     -12.244  -1.620   3.943  1.00  0.00     0.014 A 
ATOM     37  C   UNL     1      -9.874  -1.617   3.497  1.00  0.00     0.014 A 
ATOM     38  C   UNL     1     -12.312  -0.260   3.635  1.00  0.00     0.010 A 
ATOM     39  C   UNL     1      -9.948  -0.291   3.122  1.00  0.00     0.010 A 
ATOM     40  C   UNL     1     -11.181   0.363   3.118  1.00  0.00    -0.014 A 
BRANCH  40  41
ATOM     41  C   UNL     1     -11.194   1.624   2.392  1.00  0.00     0.031 A 
ATOM     42  C   UNL     1     -10.908   2.908   3.048  1.00  0.00     0.074 A 
ATOM     43  C   UNL     1     -11.263   1.557   1.044  1.00  0.00     0.049 A 
ATOM     44  N   UNL     1     -11.264   4.051   2.567  1.00  0.00    -0.248 NA
ATOM     45  C   UNL     1     -10.179   2.996   4.305  1.00  0.00     0.031 C 
ATOM     46  C   UNL     1     -10.888   2.582   0.079  1.00  0.00     0.029 A 
ATOM     47  N   UNL     1     -11.879   0.568   0.271  1.00  0.00    -0.354 N 
ATOM     48  C   UNL     1     -10.581   5.016   3.274  1.00  0.00     0.074 A 
ATOM     49  C   UNL     1      -9.985   4.317   4.392  1.00  0.00     0.031 C 
ATOM     50  C   UNL     1     -11.502   2.318  -1.086  1.00  0.00     0.029 A 
ATOM     51  C   UNL     1     -12.428   1.225  -0.841  1.00  0.00     0.049 A 
ATOM     52  H   UNL     1     -11.919  -0.396   0.468  1.00  0.00     0.167 HD
ATOM     53  C   UNL     1     -10.432   6.264   2.745  1.00  0.00     0.034 A 
ATOM     54  C   UNL     1     -13.761   1.226  -1.138  1.00  0.00     0.034 A 
ATOM     55  C   UNL     1     -11.066   6.369   1.426  1.00  0.00     0.049 A 
ATOM     56  C   UNL     1     -14.349   2.622  -1.244  1.00  0.00     0.074 A 
ATOM     57  C   UNL     1     -10.563   6.260   0.138  1.00  0.00     0.029 A 
ATOM     58  N   UNL     1     -12.449   6.331   1.310  1.00  0.00    -0.354 N 
ATOM     59  N   UNL     1     -13.708   3.713  -0.930  1.00  0.00    -0.248 NA
ATOM     60  C   UNL     1     -15.721   2.895  -1.664  1.00  0.00     0.031 C 
ATOM     61  C   UNL     1     -11.655   6.092  -0.750  1.00  0.00     0.029 A 
ATOM     62  C   UNL     1     -12.823   6.114  -0.009  1.00  0.00     0.049 A 
ATOM     63  H   UNL     1     -13.077   6.441   2.060  1.00  0.00     0.167 HD
ATOM     64  C   UNL     1     -14.577   4.774  -0.918  1.00  0.00     0.074 A 
ATOM     65  C   UNL     1     -15.797   4.226  -1.484  1.00  0.00     0.031 C 
ATOM     66  C   UNL     1     -14.231   5.981  -0.368  1.00  0.00     0.034 A 
BRANCH  53  67
ATOM     67  C   UNL     1      -9.396   7.250   3.249  1.00  0.00     0.023 A 
ATOM     68  C   UNL     1      -8.771   8.092   2.301  1.00  0.00     0.012 A 
ATOM     69  C   UNL     1      -8.944   7.366   4.581  1.00  0.00     0.148 A 
ATOM     70  C   UNL     1      -7.681   8.906   2.621  1.00  0.00     0.002 A 
ATOM     71  C   UNL     1      -7.807   8.122   4.889  1.00  0.00     0.091 A 
ATOM     72  F   UNL     1      -9.647   6.794   5.567  1.00  0.00    -0.205 F 
ATOM     73  C   UNL     1      -7.170   8.889   3.908  1.00  0.00     0.022 A 
BRANCH  71  74
ATOM     74  S   UNL     1      -7.013   8.047   6.504  1.00  0.00     0.127 S 
ATOM     75  O   UNL     1      -5.597   7.920   6.150  1.00  0.00    -0.237 OA
ATOM     76  O   UNL     1      -7.377   9.331   7.096  1.00  0.00    -0.237 OA
ATOM     77  O   UNL     1      -7.562   6.864   7.156  1.00  0.00    -0.744 OA
ENDBRANCH  71  74
ENDBRANCH  53  67
BRANCH  54  78
ATOM     78  C   UNL     1     -14.492   0.033  -0.613  1.00  0.00     0.023 A 
ATOM     79  C   UNL     1     -14.092  -1.236  -1.101  1.00  0.00     0.012 A 
ATOM     80  C   UNL     1     -15.228   0.096   0.582  1.00  0.00     0.148 A 
ATOM     81  C   UNL     1     -14.293  -2.391  -0.343  1.00  0.00     0.002 A 
ATOM     82  C   UNL     1     -15.432  -1.064   1.329  1.00  0.00     0.091 A 
ATOM     83  F   UNL     1     -15.650   1.290   1.017  1.00  0.00    -0.205 F 
ATOM     84  C   UNL     1     -14.931  -2.299   0.890  1.00  0.00     0.022 A 
BRANCH  82  85
ATOM     85  S   UNL     1     -16.228  -0.990   2.939  1.00  0.00     0.127 S 
ATOM     86  O   UNL     1     -17.635  -1.127   2.577  1.00  0.00    -0.237 OA
ATOM     87  O   UNL     1     -15.658  -2.144   3.634  1.00  0.00    -0.237 OA
ATOM     88  O   UNL     1     -15.816   0.294   3.486  1.00  0.00    -0.744 OA
ENDBRANCH  82  85
ENDBRANCH  54  78
BRANCH  66  89
ATOM     89  C   UNL     1     -15.175   7.139  -0.089  1.00  0.00     0.023 A 
ATOM     90  C   UNL     1     -16.569   6.974   0.015  1.00  0.00     0.012 A 
ATOM     91  C   UNL     1     -14.667   8.428   0.230  1.00  0.00     0.148 A 
ATOM     92  C   UNL     1     -17.419   8.031   0.362  1.00  0.00     0.002 A 
ATOM     93  C   UNL     1     -15.505   9.443   0.685  1.00  0.00     0.091 A 
ATOM     94  F   UNL     1     -13.361   8.691   0.074  1.00  0.00    -0.205 F 
ATOM     95  C   UNL     1     -16.887   9.259   0.725  1.00  0.00     0.022 A 
BRANCH  93  96
ATOM     96  S   UNL     1     -14.819  10.952   1.387  1.00  0.00     0.127 S 
ATOM     97  O   UNL     1     -14.706  11.813   0.212  1.00  0.00    -0.237 OA
ATOM     98  O   UNL     1     -15.853  11.360   2.341  1.00  0.00    -0.237 OA
ATOM     99  O   UNL     1     -13.569  10.534   2.008  1.00  0.00    -0.744 OA
ENDBRANCH  93  96
ENDBRANCH  66  89
ENDBRANCH  40  41
ENDBRANCH  32  35
ENDBRANCH  30  31
ENDBRANCH  29  30
ENDBRANCH  28  29
ENDBRANCH   1  28
TORSDOF 19
