REMARK SMILES O=C(CCCN1C(=O)/C(=C/c2ccccc2Cl)SC1=S)Nc1cccc(C(=O)NCCCCCCNC(=O)c2ccc(-c3c4nc(c(-c5cccc(S(=O)(=O)[O-])c5F)c5ccc([nH]5)c(-c5cccc(S(=O)(=O)[O-])c5F)c5nc(c(-c6cccc(S(=O)(=O)[O-])c6F)c6ccc3[nH]6)C=C5)C=C4)cc2)c1
REMARK SMILES IDX 31 1 30 2 29 3 27 4 28 5 26 7 22 8 23 9 102 10 24 11 25 12
REMARK SMILES IDX 21 13 1 14 2 15 3 17 4 18 5 19 6 20 7 21 19 22 8 23 9 24
REMARK SMILES IDX 18 25 20 26 10 27 11 28 12 29 16 30 13 31 15 32 17 33 14 34
REMARK SMILES IDX 32 35 33 36 34 37 35 38 36 39 37 40 38 42 39 43 40 44 101 45
REMARK SMILES IDX 41 46 100 47 42 48 43 49 44 50 94 51 45 52 99 53 93 54 95 55
REMARK SMILES IDX 46 56 98 57 92 58 91 59 47 61 79 62 59 63 78 64 60 65 63 66
REMARK SMILES IDX 77 67 96 68 61 69 62 70 76 72 97 73 64 74 48 75 49 76 57 77
REMARK SMILES IDX 50 78 52 79 58 80 51 81 53 82 54 83 55 84 56 85 80 86 81 87
REMARK SMILES IDX 89 88 82 89 84 90 90 91 83 92 85 93 86 94 87 95 88 96 65 97
REMARK SMILES IDX 66 98 74 99 67 100 69 101 75 102 68 103 70 104 71 105 72 106
REMARK SMILES IDX 73 107
REMARK H PARENT 29 6 21 16 36 41 95 60 63 71
REMARK Flexibility Score: inf
ROOT
ATOM      1  C   UNL     1       0.201  -4.486   1.559  1.00  0.00     0.021 C 
ENDROOT
BRANCH   1   2
ATOM      2  C   UNL     1      -0.095  -3.030   1.898  1.00  0.00     0.116 C 
BRANCH   2   3
ATOM      3  N   UNL     1      -0.829  -2.852   3.146  1.00  0.00    -0.352 N 
ATOM      4  C   UNL     1      -0.689  -1.886   4.118  1.00  0.00     0.251 C 
ATOM      5  O   UNL     1      -1.370  -1.946   5.140  1.00  0.00    -0.269 OA
ATOM      6  H   UNL     1      -1.528  -3.522   3.319  1.00  0.00     0.163 HD
BRANCH   4   7
ATOM      7  C   UNL     1       0.332  -0.817   3.983  1.00  0.00     0.041 A 
ATOM      8  C   UNL     1       1.746   0.551   2.579  1.00  0.00     0.041 A 
ATOM      9  C   UNL     1       2.527   0.863   3.701  1.00  0.00     0.026 A 
ATOM     10  C   UNL     1       0.595  -0.211   2.751  1.00  0.00     0.040 A 
ATOM     11  C   UNL     1       2.183   0.380   4.966  1.00  0.00     0.003 A 
ATOM     12  C   UNL     1       1.096  -0.479   5.105  1.00  0.00     0.014 A 
BRANCH   8  13
ATOM     13  N   UNL     1       2.269   0.884   1.308  1.00  0.00    -0.326 N 
ATOM     14  O   UNL     1       0.592   0.212  -0.125  1.00  0.00    -0.275 OA
ATOM     15  C   UNL     1       1.766   0.519   0.077  1.00  0.00     0.224 C 
ATOM     16  H   UNL     1       3.083   1.438   1.302  1.00  0.00     0.169 HD
BRANCH  15  17
ATOM     17  C   UNL     1       2.794   0.347  -1.051  1.00  0.00     0.102 C 
BRANCH  17  18
ATOM     18  C   UNL     1       4.039   1.232  -1.130  1.00  0.00     0.032 C 
BRANCH  18  19
ATOM     19  C   UNL     1       5.211   1.047  -0.142  1.00  0.00     0.128 C 
BRANCH  19  20
ATOM     20  N   UNL     1       6.008  -0.179  -0.243  1.00  0.00    -0.293 N 
ATOM     21  C   UNL     1       7.324  -0.065  -0.686  1.00  0.00     0.266 C 
ATOM     22  C   UNL     1       5.679  -1.406   0.300  1.00  0.00     0.148 C 
ATOM     23  O   UNL     1       7.910   0.974  -0.956  1.00  0.00    -0.268 OA
ATOM     24  C   UNL     1       8.000  -1.387  -0.656  1.00  0.00     0.081 C 
ATOM     25  S   UNL     1       6.930  -2.581  -0.046  1.00  0.00    -0.054 SA
ATOM     26  S   UNL     1       4.386  -1.834   1.258  1.00  0.00    -0.052 S 
ATOM     27  C   UNL     1       9.271  -1.572  -1.038  1.00  0.00     0.031 C 
BRANCH  27  28
ATOM     28  C   UNL     1       9.892  -2.904  -1.080  1.00  0.00    -0.006 A 
ATOM     29  C   UNL     1      10.733  -3.294  -0.028  1.00  0.00     0.010 A 
ATOM     30  C   UNL     1       9.586  -3.831  -2.093  1.00  0.00     0.048 A 
ATOM     31  C   UNL     1      11.236  -4.596   0.024  1.00  0.00     0.001 A 
ATOM     32  C   UNL     1      10.084  -5.132  -2.032  1.00  0.00     0.021 A 
ATOM     33  Cl  UNL     1       8.571  -3.414  -3.432  1.00  0.00    -0.084 Cl
ATOM     34  C   UNL     1      10.903  -5.516  -0.971  1.00  0.00     0.002 A 
ENDBRANCH  27  28
ENDBRANCH  19  20
ENDBRANCH  18  19
ENDBRANCH  17  18
ENDBRANCH  15  17
ENDBRANCH   8  13
ENDBRANCH   4   7
ENDBRANCH   2   3
ENDBRANCH   1   2
BRANCH   1  35
ATOM     35  C   UNL     1      -1.020  -5.372   1.310  1.00  0.00     0.002 C 
BRANCH  35  36
ATOM     36  C   UNL     1      -1.990  -4.888   0.230  1.00  0.00     0.002 C 
BRANCH  36  37
ATOM     37  C   UNL     1      -1.377  -4.600  -1.142  1.00  0.00     0.021 C 
BRANCH  37  38
ATOM     38  C   UNL     1      -0.580  -5.745  -1.758  1.00  0.00     0.116 C 
BRANCH  38  39
ATOM     39  N   UNL     1      -1.385  -6.938  -1.972  1.00  0.00    -0.352 N 
ATOM     40  C   UNL     1      -1.563  -7.678  -3.118  1.00  0.00     0.251 C 
ATOM     41  H   UNL     1      -1.874  -7.262  -1.182  1.00  0.00     0.163 HD
ATOM     42  O   UNL     1      -2.406  -8.565  -3.152  1.00  0.00    -0.269 OA
BRANCH  40  43
ATOM     43  C   UNL     1      -0.744  -7.386  -4.316  1.00  0.00     0.039 A 
ATOM     44  C   UNL     1      -1.373  -7.297  -5.561  1.00  0.00     0.014 A 
ATOM     45  C   UNL     1       0.637  -7.199  -4.212  1.00  0.00     0.014 A 
ATOM     46  C   UNL     1      -0.626  -6.958  -6.692  1.00  0.00     0.010 A 
ATOM     47  C   UNL     1       1.365  -6.790  -5.326  1.00  0.00     0.010 A 
ATOM     48  C   UNL     1       0.743  -6.668  -6.578  1.00  0.00    -0.014 A 
BRANCH  48  49
ATOM     49  C   UNL     1       1.544  -6.225  -7.749  1.00  0.00     0.031 A 
ATOM     50  C   UNL     1       2.706  -7.054  -8.227  1.00  0.00     0.074 A 
ATOM     51  C   UNL     1       1.290  -5.030  -8.319  1.00  0.00     0.049 A 
ATOM     52  N   UNL     1       3.578  -6.790  -9.166  1.00  0.00    -0.248 NA
ATOM     53  C   UNL     1       2.935  -8.337  -7.542  1.00  0.00     0.031 C 
ATOM     54  C   UNL     1       0.236  -4.102  -7.904  1.00  0.00     0.029 A 
ATOM     55  N   UNL     1       1.920  -4.376  -9.349  1.00  0.00    -0.354 N 
ATOM     56  C   UNL     1       4.479  -7.847  -9.157  1.00  0.00     0.074 A 
ATOM     57  C   UNL     1       4.066  -8.745  -8.100  1.00  0.00     0.031 C 
ATOM     58  C   UNL     1       0.295  -2.999  -8.667  1.00  0.00     0.029 A 
ATOM     59  C   UNL     1       1.411  -3.122  -9.599  1.00  0.00     0.049 A 
ATOM     60  H   UNL     1       2.666  -4.766  -9.860  1.00  0.00     0.167 HD
ATOM     61  C   UNL     1       5.541  -8.065  -9.969  1.00  0.00     0.034 A 
ATOM     62  C   UNL     1       1.810  -2.170 -10.466  1.00  0.00     0.034 A 
ATOM     63  C   UNL     1       5.926  -7.189 -11.043  1.00  0.00     0.049 A 
ATOM     64  C   UNL     1       2.977  -2.448 -11.374  1.00  0.00     0.074 A 
ATOM     65  C   UNL     1       6.930  -7.367 -11.977  1.00  0.00     0.029 A 
ATOM     66  N   UNL     1       5.333  -5.967 -11.319  1.00  0.00    -0.354 N 
ATOM     67  N   UNL     1       3.725  -3.522 -11.451  1.00  0.00    -0.248 NA
ATOM     68  C   UNL     1       3.336  -1.397 -12.338  1.00  0.00     0.031 C 
ATOM     69  C   UNL     1       6.968  -6.235 -12.798  1.00  0.00     0.029 A 
ATOM     70  C   UNL     1       5.960  -5.372 -12.400  1.00  0.00     0.049 A 
ATOM     71  H   UNL     1       4.578  -5.580 -10.820  1.00  0.00     0.167 HD
ATOM     72  C   UNL     1       4.614  -3.294 -12.495  1.00  0.00     0.074 A 
ATOM     73  C   UNL     1       4.303  -1.985 -13.031  1.00  0.00     0.031 C 
ATOM     74  C   UNL     1       5.606  -4.093 -12.960  1.00  0.00     0.034 A 
BRANCH  61  75
ATOM     75  C   UNL     1       6.345  -9.322  -9.754  1.00  0.00     0.023 A 
ATOM     76  C   UNL     1       5.785 -10.574 -10.082  1.00  0.00     0.012 A 
ATOM     77  C   UNL     1       7.673  -9.260  -9.288  1.00  0.00     0.148 A 
ATOM     78  C   UNL     1       6.520 -11.746  -9.914  1.00  0.00     0.002 A 
ATOM     79  C   UNL     1       8.415 -10.428  -9.168  1.00  0.00     0.091 A 
ATOM     80  F   UNL     1       8.182  -8.063  -8.963  1.00  0.00    -0.205 F 
ATOM     81  C   UNL     1       7.837 -11.673  -9.468  1.00  0.00     0.022 A 
BRANCH  79  82
ATOM     82  S   UNL     1      10.144 -10.433  -8.680  1.00  0.00     0.127 S 
ATOM     83  O   UNL     1      10.074 -11.045  -7.353  1.00  0.00    -0.237 OA
ATOM     84  O   UNL     1      10.752 -11.277  -9.709  1.00  0.00    -0.237 OA
ATOM     85  O   UNL     1      10.574  -9.042  -8.701  1.00  0.00    -0.744 OA
ENDBRANCH  79  82
ENDBRANCH  61  75
BRANCH  62  86
ATOM     86  C   UNL     1       1.067  -0.880 -10.550  1.00  0.00     0.023 A 
ATOM     87  C   UNL     1       0.297  -0.595 -11.694  1.00  0.00     0.012 A 
ATOM     88  C   UNL     1       1.104   0.054  -9.497  1.00  0.00     0.148 A 
ATOM     89  C   UNL     1      -0.395   0.611 -11.804  1.00  0.00     0.002 A 
ATOM     90  C   UNL     1       0.368   1.230  -9.588  1.00  0.00     0.091 A 
ATOM     91  F   UNL     1       1.850  -0.232  -8.420  1.00  0.00    -0.205 F 
ATOM     92  C   UNL     1      -0.367   1.519 -10.748  1.00  0.00     0.022 A 
BRANCH  90  93
ATOM     93  S   UNL     1       0.246   2.400  -8.231  1.00  0.00     0.127 S 
ATOM     94  O   UNL     1       0.974   3.550  -8.761  1.00  0.00    -0.237 OA
ATOM     95  O   UNL     1      -1.201   2.582  -8.121  1.00  0.00    -0.237 OA
ATOM     96  O   UNL     1       0.859   1.742  -7.085  1.00  0.00    -0.744 OA
ENDBRANCH  90  93
ENDBRANCH  62  86
BRANCH  74  97
ATOM     97  C   UNL     1       6.404  -3.609 -14.142  1.00  0.00     0.023 A 
ATOM     98  C   UNL     1       7.335  -2.563 -13.986  1.00  0.00     0.012 A 
ATOM     99  C   UNL     1       6.294  -4.257 -15.389  1.00  0.00     0.148 A 
ATOM    100  C   UNL     1       8.124  -2.152 -15.060  1.00  0.00     0.002 A 
ATOM    101  C   UNL     1       7.120  -3.878 -16.439  1.00  0.00     0.091 A 
ATOM    102  F   UNL     1       5.389  -5.239 -15.520  1.00  0.00    -0.205 F 
ATOM    103  C   UNL     1       8.027  -2.817 -16.281  1.00  0.00     0.022 A 
BRANCH 101 104
ATOM    104  S   UNL     1       7.138  -4.741 -18.014  1.00  0.00     0.127 S 
ATOM    105  O   UNL     1       6.562  -3.739 -18.909  1.00  0.00    -0.237 OA
ATOM    106  O   UNL     1       8.566  -4.989 -18.214  1.00  0.00    -0.237 OA
ATOM    107  O   UNL     1       6.335  -5.942 -17.826  1.00  0.00    -0.744 OA
ENDBRANCH 101 104
ENDBRANCH  74  97
ENDBRANCH  48  49
ENDBRANCH  40  43
ENDBRANCH  38  39
ENDBRANCH  37  38
ENDBRANCH  36  37
ENDBRANCH  35  36
ENDBRANCH   1  35
TORSDOF 22
