REMARK SMILES Cc1ccc(N(CC(=O)NCCCCCCNC(=O)c2ccc(-c3c4nc(c(-c5cccc(S(=O)(=O)[O-])c5F)c5ccc([nH]5)c(-c5cccc(S(=O)(=O)[O-])c5F)c5nc(c(-c6cccc(S(=O)(=O)[O-])c6F)c6ccc3[nH]6)C=C5)C=C4)cc2)C(=O)C[C@H]2C[NH2+]CCO2)cc1
REMARK SMILES IDX 13 1 12 2 11 3 10 4 8 5 9 6 7 8 6 9 5 10 1 11 2 12 3 13
REMARK SMILES IDX 93 14 4 15 92 16 83 17 84 18 85 19 86 20 87 21 91 22 88 23
REMARK SMILES IDX 90 24 89 25 14 28 15 29 16 30 17 31 18 32 19 34 20 35 21 36
REMARK SMILES IDX 82 37 22 38 81 39 23 40 24 41 25 42 75 43 26 44 80 45 74 46
REMARK SMILES IDX 76 47 27 48 79 49 73 50 72 51 28 53 60 54 40 55 59 56 41 57
REMARK SMILES IDX 44 58 58 59 77 60 42 61 43 62 57 64 78 65 45 66 29 67 30 68
REMARK SMILES IDX 38 69 31 70 33 71 39 72 32 73 34 74 35 75 36 76 37 77 61 78
REMARK SMILES IDX 62 79 70 80 63 81 65 82 71 83 64 84 66 85 67 86 68 87 69 88
REMARK SMILES IDX 46 89 47 90 55 91 48 92 50 93 56 94 49 95 51 96 52 97 53 98
REMARK SMILES IDX 54 99
REMARK H PARENT 10 7 88 26 88 27 17 33 76 52 44 63
REMARK Flexibility Score: inf
ROOT
ATOM      1  C   UNL     1      -1.001  -0.819  -6.419  1.00  0.00     0.002 C 
ENDROOT
BRANCH   1   2
ATOM      2  C   UNL     1      -2.501  -1.117  -6.317  1.00  0.00     0.021 C 
BRANCH   2   3
ATOM      3  C   UNL     1      -2.839  -2.240  -5.349  1.00  0.00     0.116 C 
BRANCH   3   4
ATOM      4  N   UNL     1      -2.483  -1.894  -3.998  1.00  0.00    -0.355 N 
ATOM      5  C   UNL     1      -3.306  -1.717  -2.938  1.00  0.00     0.240 C 
ATOM      6  O   UNL     1      -2.793  -1.505  -1.836  1.00  0.00    -0.273 OA
ATOM      7  H   UNL     1      -1.522  -1.771  -3.824  1.00  0.00     0.163 HD
BRANCH   5   8
ATOM      8  C   UNL     1      -4.817  -1.915  -3.092  1.00  0.00     0.225 C 
BRANCH   8   9
ATOM      9  N   UNL     1      -5.540  -0.954  -3.964  1.00  0.00    -0.303 N 
BRANCH   9  10
ATOM     10  C   UNL     1      -6.206  -1.428  -5.181  1.00  0.00     0.044 A 
ATOM     11  C   UNL     1      -8.178  -2.862  -8.813  1.00  0.00     0.044 C 
ATOM     12  C   UNL     1      -7.520  -2.364  -7.560  1.00  0.00    -0.051 A 
ATOM     13  C   UNL     1      -7.130  -3.251  -6.560  1.00  0.00     0.005 A 
ATOM     14  C   UNL     1      -7.257  -1.012  -7.373  1.00  0.00     0.005 A 
ATOM     15  C   UNL     1      -6.500  -2.789  -5.390  1.00  0.00     0.026 A 
ATOM     16  C   UNL     1      -6.605  -0.559  -6.212  1.00  0.00     0.026 A 
ENDBRANCH   9  10
BRANCH   9  17
ATOM     17  C   UNL     1      -5.705   0.379  -3.540  1.00  0.00     0.230 C 
ATOM     18  O   UNL     1      -6.181   1.286  -4.226  1.00  0.00    -0.274 OA
BRANCH  17  19
ATOM     19  C   UNL     1      -5.411   0.733  -2.097  1.00  0.00     0.138 C 
BRANCH  19  20
ATOM     20  C   UNL     1      -6.635   0.632  -1.172  1.00  0.00     0.182 C 
ATOM     21  C   UNL     1      -7.913   1.353  -1.650  1.00  0.00     0.293 C 
ATOM     22  O   UNL     1      -6.904  -0.703  -0.704  1.00  0.00    -0.366 OA
ATOM     23  N   UNL     1      -8.728   0.585  -2.598  1.00  0.00    -0.342 N 
ATOM     24  C   UNL     1      -7.800  -1.475  -1.510  1.00  0.00     0.222 C 
ATOM     25  C   UNL     1      -9.030  -0.723  -2.017  1.00  0.00     0.289 C 
ATOM     26  H   UNL     1      -8.213   0.461  -3.470  1.00  0.00     0.346 HD
ATOM     27  H   UNL     1      -9.596   1.085  -2.790  1.00  0.00     0.346 HD
ENDBRANCH  19  20
ENDBRANCH  17  19
ENDBRANCH   9  17
ENDBRANCH   8   9
ENDBRANCH   5   8
ENDBRANCH   3   4
ENDBRANCH   2   3
ENDBRANCH   1   2
BRANCH   1  28
ATOM     28  C   UNL     1      -0.082  -2.040  -6.590  1.00  0.00     0.002 C 
BRANCH  28  29
ATOM     29  C   UNL     1      -0.521  -3.088  -7.614  1.00  0.00     0.021 C 
BRANCH  29  30
ATOM     30  C   UNL     1      -0.633  -2.553  -9.026  1.00  0.00     0.116 C 
BRANCH  30  31
ATOM     31  N   UNL     1       0.415  -3.027  -9.909  1.00  0.00    -0.352 N 
ATOM     32  C   UNL     1       0.552  -2.788 -11.263  1.00  0.00     0.251 C 
ATOM     33  H   UNL     1       1.111  -3.585  -9.495  1.00  0.00     0.163 HD
ATOM     34  O   UNL     1       1.329  -3.464 -11.936  1.00  0.00    -0.269 OA
BRANCH  32  35
ATOM     35  C   UNL     1      -0.154  -1.623 -11.838  1.00  0.00     0.039 A 
ATOM     36  C   UNL     1       0.639  -0.628 -12.418  1.00  0.00     0.014 A 
ATOM     37  C   UNL     1      -1.488  -1.374 -11.517  1.00  0.00     0.014 A 
ATOM     38  C   UNL     1       0.177   0.682 -12.447  1.00  0.00     0.010 A 
ATOM     39  C   UNL     1      -1.910  -0.066 -11.447  1.00  0.00     0.010 A 
ATOM     40  C   UNL     1      -1.055   0.960 -11.863  1.00  0.00    -0.014 A 
BRANCH  40  41
ATOM     41  C   UNL     1      -1.595   2.295 -11.716  1.00  0.00     0.031 A 
ATOM     42  C   UNL     1      -2.338   2.867 -12.849  1.00  0.00     0.074 A 
ATOM     43  C   UNL     1      -1.525   2.927 -10.526  1.00  0.00     0.049 A 
ATOM     44  N   UNL     1      -2.462   4.128 -13.071  1.00  0.00    -0.248 NA
ATOM     45  C   UNL     1      -2.979   2.022 -13.852  1.00  0.00     0.031 C 
ATOM     46  C   UNL     1      -2.296   4.090 -10.108  1.00  0.00     0.029 A 
ATOM     47  N   UNL     1      -0.585   2.748  -9.506  1.00  0.00    -0.354 N 
ATOM     48  C   UNL     1      -3.409   4.265 -14.063  1.00  0.00     0.074 A 
ATOM     49  C   UNL     1      -3.635   2.934 -14.575  1.00  0.00     0.031 C 
ATOM     50  C   UNL     1      -1.658   4.684  -9.088  1.00  0.00     0.029 A 
ATOM     51  C   UNL     1      -0.377   4.016  -8.934  1.00  0.00     0.049 A 
ATOM     52  H   UNL     1      -0.155   1.903  -9.241  1.00  0.00     0.167 HD
ATOM     53  C   UNL     1      -4.043   5.459 -14.223  1.00  0.00     0.034 A 
ATOM     54  C   UNL     1       0.838   4.638  -8.886  1.00  0.00     0.034 A 
ATOM     55  C   UNL     1      -3.569   6.435 -13.238  1.00  0.00     0.049 A 
ATOM     56  C   UNL     1       0.845   5.964  -9.625  1.00  0.00     0.074 A 
ATOM     57  C   UNL     1      -4.036   6.780 -11.980  1.00  0.00     0.029 A 
ATOM     58  N   UNL     1      -2.281   6.946 -13.333  1.00  0.00    -0.354 N 
ATOM     59  N   UNL     1      -0.139   6.390 -10.368  1.00  0.00    -0.248 NA
ATOM     60  C   UNL     1       1.962   6.905  -9.607  1.00  0.00     0.031 C 
ATOM     61  C   UNL     1      -2.989   7.439 -11.287  1.00  0.00     0.029 A 
ATOM     62  C   UNL     1      -1.895   7.522 -12.131  1.00  0.00     0.049 A 
ATOM     63  H   UNL     1      -1.720   6.905 -14.141  1.00  0.00     0.167 HD
ATOM     64  C   UNL     1       0.218   7.549 -11.007  1.00  0.00     0.074 A 
ATOM     65  C   UNL     1       1.517   7.867 -10.437  1.00  0.00     0.031 C 
ATOM     66  C   UNL     1      -0.566   8.108 -11.983  1.00  0.00     0.034 A 
BRANCH  53  67
ATOM     67  C   UNL     1      -5.343   5.590 -14.989  1.00  0.00     0.023 A 
ATOM     68  C   UNL     1      -6.304   6.496 -14.489  1.00  0.00     0.012 A 
ATOM     69  C   UNL     1      -5.719   4.837 -16.124  1.00  0.00     0.148 A 
ATOM     70  C   UNL     1      -7.599   6.576 -15.007  1.00  0.00     0.002 A 
ATOM     71  C   UNL     1      -7.035   4.864 -16.598  1.00  0.00     0.091 A 
ATOM     72  F   UNL     1      -4.790   4.133 -16.785  1.00  0.00    -0.205 F 
ATOM     73  C   UNL     1      -7.978   5.731 -16.037  1.00  0.00     0.022 A 
BRANCH  71  74
ATOM     74  S   UNL     1      -7.635   3.712 -17.848  1.00  0.00     0.127 S 
ATOM     75  O   UNL     1      -8.921   3.285 -17.289  1.00  0.00    -0.237 OA
ATOM     76  O   UNL     1      -7.742   4.558 -19.034  1.00  0.00    -0.237 OA
ATOM     77  O   UNL     1      -6.641   2.647 -17.911  1.00  0.00    -0.744 OA
ENDBRANCH  71  74
ENDBRANCH  53  67
BRANCH  54  78
ATOM     78  C   UNL     1       1.984   3.691  -8.764  1.00  0.00     0.023 A 
ATOM     79  C   UNL     1       2.049   2.935  -7.568  1.00  0.00     0.012 A 
ATOM     80  C   UNL     1       2.680   3.235  -9.897  1.00  0.00     0.148 A 
ATOM     81  C   UNL     1       2.659   1.681  -7.545  1.00  0.00     0.002 A 
ATOM     82  C   UNL     1       3.280   1.977  -9.867  1.00  0.00     0.091 A 
ATOM     83  F   UNL     1       2.662   3.986 -11.005  1.00  0.00    -0.205 F 
ATOM     84  C   UNL     1       3.237   1.185  -8.706  1.00  0.00     0.022 A 
BRANCH  82  85
ATOM     85  S   UNL     1       3.986   1.225 -11.338  1.00  0.00     0.127 S 
ATOM     86  O   UNL     1       5.411   1.475 -11.140  1.00  0.00    -0.237 OA
ATOM     87  O   UNL     1       3.583  -0.173 -11.190  1.00  0.00    -0.237 OA
ATOM     88  O   UNL     1       3.359   1.917 -12.454  1.00  0.00    -0.744 OA
ENDBRANCH  82  85
ENDBRANCH  54  78
BRANCH  66  89
ATOM     89  C   UNL     1      -0.177   9.258 -12.898  1.00  0.00     0.023 A 
ATOM     90  C   UNL     1       1.161   9.619 -13.135  1.00  0.00     0.012 A 
ATOM     91  C   UNL     1      -1.160   9.927 -13.679  1.00  0.00     0.148 A 
ATOM     92  C   UNL     1       1.508  10.620 -14.051  1.00  0.00     0.002 A 
ATOM     93  C   UNL     1      -0.801  10.829 -14.676  1.00  0.00     0.091 A 
ATOM     94  F   UNL     1      -2.463   9.712 -13.446  1.00  0.00    -0.205 F 
ATOM     95  C   UNL     1       0.531  11.206 -14.843  1.00  0.00     0.022 A 
BRANCH  93  96
ATOM     96  S   UNL     1      -2.006  11.403 -15.883  1.00  0.00     0.127 S 
ATOM     97  O   UNL     1      -2.446  12.667 -15.297  1.00  0.00    -0.237 OA
ATOM     98  O   UNL     1      -1.195  11.543 -17.094  1.00  0.00    -0.237 OA
ATOM     99  O   UNL     1      -3.003  10.344 -15.954  1.00  0.00    -0.744 OA
ENDBRANCH  93  96
ENDBRANCH  66  89
ENDBRANCH  40  41
ENDBRANCH  32  35
ENDBRANCH  30  31
ENDBRANCH  29  30
ENDBRANCH  28  29
ENDBRANCH   1  28
TORSDOF 21
