REMARK SMILES O=C(NCCCCCCNC(=O)c1cc(-c2ccc(C(F)(F)F)cc2)cc([N+](=O)[O-])c1)c1ccc(-c2c3nc(c(-c4cccc(S(=O)(=O)[O-])c4F)c4ccc([nH]4)c(-c4cccc(S(=O)(=O)[O-])c4F)c4nc(c(-c5cccc(S(=O)(=O)[O-])c5F)c5ccc2[nH]5)C=C4)C=C3)cc1
REMARK SMILES IDX 6 1 5 2 4 3 3 4 1 5 2 6 32 8 33 9 94 10 34 11 93 12 35 13
REMARK SMILES IDX 36 14 37 15 87 16 38 17 92 18 86 19 88 20 39 21 91 22 85 23
REMARK SMILES IDX 84 24 40 26 72 27 52 28 71 29 53 30 56 31 70 32 89 33 54 34
REMARK SMILES IDX 55 35 69 37 90 38 57 39 41 40 42 41 50 42 43 43 45 44 51 45
REMARK SMILES IDX 44 46 46 47 47 48 48 49 49 50 73 51 74 52 82 53 75 54 77 55
REMARK SMILES IDX 83 56 76 57 78 58 79 59 80 60 81 61 58 62 59 63 67 64 60 65
REMARK SMILES IDX 62 66 68 67 61 68 63 69 64 70 65 71 66 72 7 73 8 74 9 75
REMARK SMILES IDX 10 76 11 77 12 79 13 80 14 81 31 82 15 83 27 84 26 85 16 86
REMARK SMILES IDX 17 87 25 88 18 89 24 90 19 91 20 92 21 93 22 94 23 95 28 96
REMARK SMILES IDX 29 97 30 98
REMARK H PARENT 3 7 88 25 56 36 10 78
REMARK Flexibility Score: inf
ROOT
ATOM      1  C   UNL     1       4.213  -0.319  -3.987  1.00  0.00     0.002 C 
ENDROOT
BRANCH   1   2
ATOM      2  C   UNL     1       4.680  -0.925  -2.664  1.00  0.00     0.021 C 
BRANCH   2   3
ATOM      3  C   UNL     1       4.442  -0.059  -1.435  1.00  0.00     0.116 C 
BRANCH   3   4
ATOM      4  N   UNL     1       3.031   0.165  -1.169  1.00  0.00    -0.352 N 
ATOM      5  O   UNL     1       1.111   0.078   0.011  1.00  0.00    -0.269 OA
ATOM      6  C   UNL     1       2.340  -0.014   0.004  1.00  0.00     0.251 C 
ATOM      7  H   UNL     1       2.500   0.489  -1.932  1.00  0.00     0.163 HD
BRANCH   6   8
ATOM      8  C   UNL     1       3.074  -0.347   1.244  1.00  0.00     0.039 A 
ATOM      9  C   UNL     1       4.242   0.341   1.582  1.00  0.00     0.014 A 
ATOM     10  C   UNL     1       2.597  -1.367   2.072  1.00  0.00     0.014 A 
ATOM     11  C   UNL     1       5.006  -0.085   2.662  1.00  0.00     0.010 A 
ATOM     12  C   UNL     1       3.322  -1.734   3.210  1.00  0.00     0.010 A 
ATOM     13  C   UNL     1       4.549  -1.117   3.498  1.00  0.00    -0.014 A 
BRANCH  13  14
ATOM     14  C   UNL     1       5.337  -1.471   4.707  1.00  0.00     0.031 A 
ATOM     15  C   UNL     1       5.956  -2.831   4.876  1.00  0.00     0.074 A 
ATOM     16  C   UNL     1       5.503  -0.530   5.659  1.00  0.00     0.049 A 
ATOM     17  N   UNL     1       6.703  -3.276   5.854  1.00  0.00    -0.248 NA
ATOM     18  C   UNL     1       5.702  -3.824   3.820  1.00  0.00     0.031 C 
ATOM     19  C   UNL     1       4.907   0.809   5.629  1.00  0.00     0.029 A 
ATOM     20  N   UNL     1       6.217  -0.547   6.829  1.00  0.00    -0.354 N 
ATOM     21  C   UNL     1       6.988  -4.602   5.550  1.00  0.00     0.074 A 
ATOM     22  C   UNL     1       6.318  -4.897   4.301  1.00  0.00     0.031 C 
ATOM     23  C   UNL     1       5.300   1.492   6.712  1.00  0.00     0.029 A 
ATOM     24  C   UNL     1       6.133   0.628   7.539  1.00  0.00     0.049 A 
ATOM     25  H   UNL     1       6.740  -1.325   7.131  1.00  0.00     0.167 HD
ATOM     26  C   UNL     1       7.754  -5.485   6.236  1.00  0.00     0.034 A 
ATOM     27  C   UNL     1       6.655   0.971   8.732  1.00  0.00     0.034 A 
ATOM     28  C   UNL     1       8.438  -5.177   7.466  1.00  0.00     0.049 A 
ATOM     29  C   UNL     1       7.519  -0.021   9.456  1.00  0.00     0.074 A 
ATOM     30  C   UNL     1       9.266  -5.993   8.218  1.00  0.00     0.029 A 
ATOM     31  N   UNL     1       8.374  -3.959   8.126  1.00  0.00    -0.354 N 
ATOM     32  N   UNL     1       7.872  -1.228   9.088  1.00  0.00    -0.248 NA
ATOM     33  C   UNL     1       8.083   0.407  10.742  1.00  0.00     0.031 C 
ATOM     34  C   UNL     1       9.694  -5.271   9.338  1.00  0.00     0.029 A 
ATOM     35  C   UNL     1       9.147  -4.000   9.275  1.00  0.00     0.049 A 
ATOM     36  H   UNL     1       7.855  -3.180   7.823  1.00  0.00     0.167 HD
ATOM     37  C   UNL     1       8.717  -1.697  10.086  1.00  0.00     0.074 A 
ATOM     38  C   UNL     1       8.850  -0.628  11.056  1.00  0.00     0.031 C 
ATOM     39  C   UNL     1       9.309  -2.911  10.203  1.00  0.00     0.034 A 
BRANCH  26  40
ATOM     40  C   UNL     1       7.944  -6.861   5.648  1.00  0.00     0.023 A 
ATOM     41  C   UNL     1       8.785  -7.021   4.528  1.00  0.00     0.012 A 
ATOM     42  C   UNL     1       7.363  -7.999   6.243  1.00  0.00     0.148 A 
ATOM     43  C   UNL     1       9.026  -8.287   3.994  1.00  0.00     0.002 A 
ATOM     44  C   UNL     1       7.638  -9.261   5.728  1.00  0.00     0.091 A 
ATOM     45  F   UNL     1       6.552  -7.826   7.296  1.00  0.00    -0.205 F 
ATOM     46  C   UNL     1       8.462  -9.406   4.599  1.00  0.00     0.022 A 
BRANCH  44  47
ATOM     47  S   UNL     1       7.021 -10.773   6.479  1.00  0.00     0.127 S 
ATOM     48  O   UNL     1       6.026 -11.204   5.497  1.00  0.00    -0.237 OA
ATOM     49  O   UNL     1       8.224 -11.605   6.532  1.00  0.00    -0.237 OA
ATOM     50  O   UNL     1       6.491 -10.388   7.779  1.00  0.00    -0.744 OA
ENDBRANCH  44  47
ENDBRANCH  26  40
BRANCH  27  51
ATOM     51  C   UNL     1       6.404   2.330   9.286  1.00  0.00     0.023 A 
ATOM     52  C   UNL     1       7.463   3.253   9.375  1.00  0.00     0.012 A 
ATOM     53  C   UNL     1       5.113   2.727   9.685  1.00  0.00     0.148 A 
ATOM     54  C   UNL     1       7.247   4.537   9.878  1.00  0.00     0.002 A 
ATOM     55  C   UNL     1       4.892   4.026  10.126  1.00  0.00     0.091 A 
ATOM     56  F   UNL     1       4.120   1.829   9.612  1.00  0.00    -0.205 F 
ATOM     57  C   UNL     1       5.960   4.927  10.240  1.00  0.00     0.022 A 
BRANCH  55  58
ATOM     58  S   UNL     1       3.239   4.642  10.462  1.00  0.00     0.127 S 
ATOM     59  O   UNL     1       3.188   4.584  11.919  1.00  0.00    -0.237 OA
ATOM     60  O   UNL     1       3.293   5.993   9.900  1.00  0.00    -0.237 OA
ATOM     61  O   UNL     1       2.342   3.740   9.751  1.00  0.00    -0.744 OA
ENDBRANCH  55  58
ENDBRANCH  27  51
BRANCH  39  62
ATOM     62  C   UNL     1      10.174  -3.139  11.414  1.00  0.00     0.023 A 
ATOM     63  C   UNL     1       9.574  -3.307  12.678  1.00  0.00     0.012 A 
ATOM     64  C   UNL     1      11.574  -3.234  11.294  1.00  0.00     0.148 A 
ATOM     65  C   UNL     1      10.356  -3.528  13.810  1.00  0.00     0.002 A 
ATOM     66  C   UNL     1      12.344  -3.501  12.419  1.00  0.00     0.091 A 
ATOM     67  F   UNL     1      12.128  -3.049  10.086  1.00  0.00    -0.205 F 
ATOM     68  C   UNL     1      11.739  -3.636  13.679  1.00  0.00     0.022 A 
BRANCH  66  69
ATOM     69  S   UNL     1      14.122  -3.742  12.329  1.00  0.00     0.127 S 
ATOM     70  O   UNL     1      14.622  -2.479  12.869  1.00  0.00    -0.237 OA
ATOM     71  O   UNL     1      14.325  -4.901  13.199  1.00  0.00    -0.237 OA
ATOM     72  O   UNL     1      14.419  -3.986  10.923  1.00  0.00    -0.744 OA
ENDBRANCH  66  69
ENDBRANCH  39  62
ENDBRANCH  13  14
ENDBRANCH   6   8
ENDBRANCH   3   4
ENDBRANCH   2   3
ENDBRANCH   1   2
BRANCH   1  73
ATOM     73  C   UNL     1       4.756   1.077  -4.304  1.00  0.00     0.002 C 
BRANCH  73  74
ATOM     74  C   UNL     1       6.278   1.234  -4.228  1.00  0.00     0.021 C 
BRANCH  74  75
ATOM     75  C   UNL     1       7.080   0.245  -5.068  1.00  0.00     0.116 C 
BRANCH  75  76
ATOM     76  N   UNL     1       6.794   0.376  -6.487  1.00  0.00    -0.352 N 
ATOM     77  C   UNL     1       7.656   0.513  -7.538  1.00  0.00     0.251 C 
ATOM     78  H   UNL     1       5.839   0.363  -6.725  1.00  0.00     0.163 HD
ATOM     79  O   UNL     1       7.227   0.785  -8.661  1.00  0.00    -0.269 OA
BRANCH  77  80
ATOM     80  C   UNL     1       9.111   0.341  -7.346  1.00  0.00     0.047 A 
ATOM     81  C   UNL     1       9.980   1.244  -7.973  1.00  0.00     0.023 A 
ATOM     82  C   UNL     1       9.619  -0.753  -6.640  1.00  0.00     0.099 A 
ATOM     83  C   UNL     1      11.371   1.086  -7.877  1.00  0.00    -0.011 A 
ATOM     84  C   UNL     1      11.002  -0.887  -6.498  1.00  0.00     0.270 A 
ATOM     85  C   UNL     1      11.875   0.028  -7.102  1.00  0.00     0.094 A 
BRANCH  83  86
ATOM     86  C   UNL     1      12.281   1.939  -8.651  1.00  0.00    -0.018 A 
ATOM     87  C   UNL     1      12.351   3.325  -8.460  1.00  0.00     0.009 A 
ATOM     88  C   UNL     1      13.096   1.360  -9.638  1.00  0.00     0.009 A 
ATOM     89  C   UNL     1      13.214   4.109  -9.236  1.00  0.00     0.014 A 
ATOM     90  C   UNL     1      13.954   2.139 -10.415  1.00  0.00     0.014 A 
ATOM     91  C   UNL     1      14.022   3.523 -10.224  1.00  0.00     0.056 A 
BRANCH  91  92
ATOM     92  C   UNL     1      14.938   4.375 -11.066  1.00  0.00     0.416 C 
ATOM     93  F   UNL     1      14.262   5.311 -11.790  1.00  0.00    -0.166 F 
ATOM     94  F   UNL     1      15.847   5.063 -10.322  1.00  0.00    -0.166 F 
ATOM     95  F   UNL     1      15.665   3.662 -11.973  1.00  0.00    -0.166 F 
ENDBRANCH  91  92
ENDBRANCH  83  86
BRANCH  84  96
ATOM     96  N   UNL     1      11.545  -2.017  -5.737  1.00  0.00     0.062 N 
ATOM     97  O   UNL     1      12.776  -2.147  -5.700  1.00  0.00    -0.258 OA
ATOM     98  O   UNL     1      10.737  -2.774  -5.183  1.00  0.00    -0.258 OA
ENDBRANCH  84  96
ENDBRANCH  77  80
ENDBRANCH  75  76
ENDBRANCH  74  75
ENDBRANCH  73  74
ENDBRANCH   1  73
TORSDOF 19
