REMARK SMILES C[C@H]1CCC[C@H](S[C@@H](C)[C@@H](C)C(=O)NCCCCCCNC(=O)c2ccc(-c3c4nc(c(-c5cccc(S(=O)(=O)[O-])c5F)c5ccc([nH]5)c(-c5cccc(S(=O)(=O)[O-])c5F)c5nc(c(-c6cccc(S(=O)(=O)[O-])c6F)c6ccc3[nH]6)C=C5)C=C4)cc2)C1
REMARK SMILES IDX 17 1 16 2 15 3 14 4 12 5 13 6 10 8 11 9 8 10 9 11 7 12 6 13
REMARK SMILES IDX 1 14 2 15 3 16 87 17 4 18 5 19 18 20 19 21 20 22 21 23 22 24
REMARK SMILES IDX 23 26 24 27 25 28 86 29 26 30 85 31 27 32 28 33 29 34 79 35
REMARK SMILES IDX 30 36 84 37 78 38 80 39 31 40 83 41 77 42 76 43 32 45 64 46
REMARK SMILES IDX 44 47 63 48 45 49 48 50 62 51 81 52 46 53 47 54 61 56 82 57
REMARK SMILES IDX 49 58 33 59 34 60 42 61 35 62 37 63 43 64 36 65 38 66 39 67
REMARK SMILES IDX 40 68 41 69 65 70 66 71 74 72 67 73 69 74 75 75 68 76 70 77
REMARK SMILES IDX 71 78 72 79 73 80 50 81 51 82 59 83 52 84 54 85 60 86 53 87
REMARK SMILES IDX 55 88 56 89 57 90 58 91
REMARK H PARENT 14 7 21 25 80 44 48 55
REMARK Flexibility Score: inf
ROOT
ATOM      1  C   UNL     1       0.673   2.857   6.985  1.00  0.00     0.002 C 
ENDROOT
BRANCH   1   2
ATOM      2  C   UNL     1      -0.015   1.675   6.293  1.00  0.00     0.021 C 
BRANCH   2   3
ATOM      3  C   UNL     1      -1.226   2.081   5.454  1.00  0.00     0.116 C 
BRANCH   3   4
ATOM      4  N   UNL     1      -0.834   3.016   4.420  1.00  0.00    -0.356 N 
ATOM      5  C   UNL     1      -0.690   2.862   3.084  1.00  0.00     0.223 C 
ATOM      6  O   UNL     1      -0.189   3.802   2.458  1.00  0.00    -0.275 OA
ATOM      7  H   UNL     1      -0.638   3.923   4.747  1.00  0.00     0.163 HD
BRANCH   5   8
ATOM      8  C   UNL     1      -1.181   1.622   2.346  1.00  0.00     0.088 C 
ATOM      9  C   UNL     1      -2.711   1.598   2.398  1.00  0.00     0.019 C 
BRANCH   8  10
ATOM     10  C   UNL     1      -0.475   0.308   2.716  1.00  0.00     0.056 C 
ATOM     11  C   UNL     1       1.052   0.438   2.791  1.00  0.00     0.020 C 
BRANCH  10  12
ATOM     12  S   UNL     1      -1.126  -1.270   1.959  1.00  0.00    -0.155 SA
BRANCH  12  13
ATOM     13  C   UNL     1      -0.965  -1.315   0.110  1.00  0.00     0.047 C 
ATOM     14  C   UNL     1       2.569  -0.202  -1.011  1.00  0.00     0.007 C 
ATOM     15  C   UNL     1       1.123  -0.084  -0.540  1.00  0.00    -0.013 C 
ATOM     16  C   UNL     1       0.331   0.954  -1.338  1.00  0.00     0.003 C 
ATOM     17  C   UNL     1       0.444  -1.437  -0.460  1.00  0.00     0.017 C 
ATOM     18  C   UNL     1      -1.190   0.941  -1.156  1.00  0.00     0.001 C 
ATOM     19  C   UNL     1      -1.823  -0.382  -0.745  1.00  0.00     0.014 C 
ENDBRANCH  12  13
ENDBRANCH  10  12
ENDBRANCH   8  10
ENDBRANCH   5   8
ENDBRANCH   3   4
ENDBRANCH   2   3
ENDBRANCH   1   2
BRANCH   1  20
ATOM     20  C   UNL     1      -0.272   3.717   7.828  1.00  0.00     0.002 C 
BRANCH  20  21
ATOM     21  C   UNL     1      -1.114   2.921   8.827  1.00  0.00     0.021 C 
BRANCH  21  22
ATOM     22  C   UNL     1      -0.290   2.053   9.764  1.00  0.00     0.116 C 
BRANCH  22  23
ATOM     23  N   UNL     1       0.587   2.860  10.594  1.00  0.00    -0.352 N 
ATOM     24  C   UNL     1       0.723   2.821  11.952  1.00  0.00     0.251 C 
ATOM     25  H   UNL     1       1.150   3.514  10.120  1.00  0.00     0.163 HD
ATOM     26  O   UNL     1       1.312   3.729  12.544  1.00  0.00    -0.269 OA
BRANCH  24  27
ATOM     27  C   UNL     1       0.154   1.683  12.697  1.00  0.00     0.039 A 
ATOM     28  C   UNL     1      -0.548   1.927  13.877  1.00  0.00     0.014 A 
ATOM     29  C   UNL     1       0.322   0.377  12.224  1.00  0.00     0.014 A 
ATOM     30  C   UNL     1      -1.086   0.853  14.585  1.00  0.00     0.010 A 
ATOM     31  C   UNL     1      -0.294  -0.680  12.881  1.00  0.00     0.010 A 
ATOM     32  C   UNL     1      -0.964  -0.457  14.091  1.00  0.00    -0.014 A 
BRANCH  32  33
ATOM     33  C   UNL     1      -1.467  -1.613  14.871  1.00  0.00     0.031 A 
ATOM     34  C   UNL     1      -0.497  -2.643  15.387  1.00  0.00     0.074 A 
ATOM     35  C   UNL     1      -2.790  -1.758  15.076  1.00  0.00     0.049 A 
ATOM     36  N   UNL     1      -0.735  -3.722  16.086  1.00  0.00    -0.248 NA
ATOM     37  C   UNL     1       0.925  -2.454  15.049  1.00  0.00     0.031 C 
ATOM     38  C   UNL     1      -3.831  -0.869  14.555  1.00  0.00     0.029 A 
ATOM     39  N   UNL     1      -3.485  -2.716  15.766  1.00  0.00    -0.354 N 
ATOM     40  C   UNL     1       0.494  -4.354  16.238  1.00  0.00     0.074 A 
ATOM     41  C   UNL     1       1.468  -3.567  15.518  1.00  0.00     0.031 C 
ATOM     42  C   UNL     1      -5.031  -1.317  14.957  1.00  0.00     0.029 A 
ATOM     43  C   UNL     1      -4.847  -2.532  15.744  1.00  0.00     0.049 A 
ATOM     44  H   UNL     1      -3.050  -3.465  16.234  1.00  0.00     0.167 HD
ATOM     45  C   UNL     1       0.794  -5.470  16.944  1.00  0.00     0.034 A 
ATOM     46  C   UNL     1      -5.833  -3.262  16.301  1.00  0.00     0.034 A 
ATOM     47  C   UNL     1      -0.172  -6.221  17.698  1.00  0.00     0.049 A 
ATOM     48  C   UNL     1      -5.466  -4.461  17.133  1.00  0.00     0.074 A 
ATOM     49  C   UNL     1       0.035  -7.319  18.512  1.00  0.00     0.029 A 
ATOM     50  N   UNL     1      -1.531  -5.950  17.728  1.00  0.00    -0.354 N 
ATOM     51  N   UNL     1      -4.280  -4.958  17.390  1.00  0.00    -0.248 NA
ATOM     52  C   UNL     1      -6.571  -5.171  17.792  1.00  0.00     0.031 C 
ATOM     53  C   UNL     1      -1.204  -7.726  19.017  1.00  0.00     0.029 A 
ATOM     54  C   UNL     1      -2.177  -6.859  18.547  1.00  0.00     0.049 A 
ATOM     55  H   UNL     1      -1.972  -5.218  17.239  1.00  0.00     0.167 HD
ATOM     56  C   UNL     1      -4.491  -6.009  18.276  1.00  0.00     0.074 A 
ATOM     57  C   UNL     1      -5.917  -6.061  18.525  1.00  0.00     0.031 C 
ATOM     58  C   UNL     1      -3.590  -6.861  18.825  1.00  0.00     0.034 A 
BRANCH  45  59
ATOM     59  C   UNL     1       2.235  -5.912  16.972  1.00  0.00     0.023 A 
ATOM     60  C   UNL     1       3.190  -5.139  17.664  1.00  0.00     0.012 A 
ATOM     61  C   UNL     1       2.638  -7.110  16.351  1.00  0.00     0.148 A 
ATOM     62  C   UNL     1       4.529  -5.527  17.702  1.00  0.00     0.002 A 
ATOM     63  C   UNL     1       3.964  -7.517  16.436  1.00  0.00     0.091 A 
ATOM     64  F   UNL     1       1.722  -7.821  15.678  1.00  0.00    -0.205 F 
ATOM     65  C   UNL     1       4.913  -6.720  17.098  1.00  0.00     0.022 A 
BRANCH  63  66
ATOM     66  S   UNL     1       4.544  -9.078  15.764  1.00  0.00     0.127 S 
ATOM     67  O   UNL     1       5.374  -8.629  14.647  1.00  0.00    -0.237 OA
ATOM     68  O   UNL     1       5.290  -9.638  16.892  1.00  0.00    -0.237 OA
ATOM     69  O   UNL     1       3.351  -9.825  15.394  1.00  0.00    -0.744 OA
ENDBRANCH  63  66
ENDBRANCH  45  59
BRANCH  46  70
ATOM     70  C   UNL     1      -7.252  -2.831  16.158  1.00  0.00     0.023 A 
ATOM     71  C   UNL     1      -7.943  -2.336  17.281  1.00  0.00     0.012 A 
ATOM     72  C   UNL     1      -7.913  -2.892  14.917  1.00  0.00     0.148 A 
ATOM     73  C   UNL     1      -9.280  -1.949  17.181  1.00  0.00     0.002 A 
ATOM     74  C   UNL     1      -9.227  -2.451  14.811  1.00  0.00     0.091 A 
ATOM     75  F   UNL     1      -7.239  -3.370  13.861  1.00  0.00    -0.205 F 
ATOM     76  C   UNL     1      -9.918  -1.998  15.945  1.00  0.00     0.022 A 
BRANCH  74  77
ATOM     77  S   UNL     1     -10.086  -2.356  13.237  1.00  0.00     0.127 S 
ATOM     78  O   UNL     1     -11.081  -3.416  13.375  1.00  0.00    -0.237 OA
ATOM     79  O   UNL     1     -10.625  -0.996  13.270  1.00  0.00    -0.237 OA
ATOM     80  O   UNL     1      -9.068  -2.573  12.218  1.00  0.00    -0.744 OA
ENDBRANCH  74  77
ENDBRANCH  46  70
BRANCH  58  81
ATOM     81  C   UNL     1      -4.111  -7.889  19.795  1.00  0.00     0.023 A 
ATOM     82  C   UNL     1      -4.899  -8.963  19.336  1.00  0.00     0.012 A 
ATOM     83  C   UNL     1      -3.775  -7.814  21.162  1.00  0.00     0.148 A 
ATOM     84  C   UNL     1      -5.386  -9.917  20.228  1.00  0.00     0.002 A 
ATOM     85  C   UNL     1      -4.218  -8.798  22.036  1.00  0.00     0.091 A 
ATOM     86  F   UNL     1      -3.040  -6.775  21.586  1.00  0.00    -0.205 F 
ATOM     87  C   UNL     1      -5.038  -9.841  21.575  1.00  0.00     0.022 A 
BRANCH  85  88
ATOM     88  S   UNL     1      -3.729  -8.832  23.764  1.00  0.00     0.127 S 
ATOM     89  O   UNL     1      -4.936  -8.341  24.425  1.00  0.00    -0.237 OA
ATOM     90  O   UNL     1      -3.448 -10.252  23.981  1.00  0.00    -0.237 OA
ATOM     91  O   UNL     1      -2.560  -7.967  23.862  1.00  0.00    -0.744 OA
ENDBRANCH  85  88
ENDBRANCH  58  81
ENDBRANCH  32  33
ENDBRANCH  24  27
ENDBRANCH  22  23
ENDBRANCH  21  22
ENDBRANCH  20  21
ENDBRANCH   1  20
TORSDOF 19
