REMARK SMILES C[C@@H](C(=O)NCCCCCCNC(=O)c1ccc(-c2c3nc(c(-c4cccc(S(=O)(=O)[O-])c4F)c4ccc([nH]4)c(-c4cccc(S(=O)(=O)[O-])c4F)c4nc(c(-c5cccc(S(=O)(=O)[O-])c5F)c5ccc2[nH]5)C=C4)C=C3)cc1)c1ccc2c3cc(Cl)ccc3n(C(=O)c3ccc(Cl)cc3)c2c1
REMARK SMILES IDX 8 1 7 2 6 3 5 4 3 5 4 6 2 8 1 9 78 10 79 11 100 12 80 13
REMARK SMILES IDX 99 14 81 15 89 16 82 17 88 18 83 19 87 20 84 21 86 22 85 23
REMARK SMILES IDX 90 24 91 25 92 26 93 27 98 28 94 29 97 30 95 31 96 32 9 33
REMARK SMILES IDX 10 34 11 35 12 36 13 37 14 39 15 40 16 41 77 42 17 43 76 44
REMARK SMILES IDX 18 45 19 46 20 47 70 48 21 49 75 50 69 51 71 52 22 53 74 54
REMARK SMILES IDX 68 55 67 56 23 58 55 59 35 60 54 61 36 62 39 63 53 64 72 65
REMARK SMILES IDX 37 66 38 67 52 69 73 70 40 71 24 72 25 73 33 74 26 75 28 76
REMARK SMILES IDX 34 77 27 78 29 79 30 80 31 81 32 82 56 83 57 84 65 85 58 86
REMARK SMILES IDX 60 87 66 88 59 89 61 90 62 91 63 92 64 93 41 94 42 95 50 96
REMARK SMILES IDX 43 97 45 98 51 99 44 100 46 101 47 102 48 103 49 104
REMARK H PARENT 5 7 12 38 71 57 39 68
REMARK Flexibility Score: inf
ROOT
ATOM      1  C   UNL     1       4.978   0.450   2.729  1.00  0.00     0.002 C 
ENDROOT
BRANCH   1   2
ATOM      2  C   UNL     1       4.236   0.143   1.422  1.00  0.00     0.021 C 
BRANCH   2   3
ATOM      3  C   UNL     1       3.436  -1.162   1.472  1.00  0.00     0.116 C 
BRANCH   3   4
ATOM      4  N   UNL     1       2.345  -1.022   2.413  1.00  0.00    -0.356 N 
ATOM      5  C   UNL     1       1.056  -0.645   2.173  1.00  0.00     0.227 C 
ATOM      6  O   UNL     1       0.385  -0.293   3.145  1.00  0.00    -0.274 OA
ATOM      7  H   UNL     1       2.563  -1.225   3.351  1.00  0.00     0.163 HD
BRANCH   5   8
ATOM      8  C   UNL     1       0.502  -0.730   0.741  1.00  0.00     0.105 C 
ATOM      9  C   UNL     1       1.052   0.358  -0.190  1.00  0.00     0.023 C 
BRANCH   8  10
ATOM     10  C   UNL     1      -1.024  -0.735   0.745  1.00  0.00    -0.034 A 
ATOM     11  C   UNL     1      -1.761   0.441   0.598  1.00  0.00     0.005 A 
ATOM     12  C   UNL     1      -1.698  -1.952   0.950  1.00  0.00     0.032 A 
ATOM     13  C   UNL     1      -3.150   0.409   0.525  1.00  0.00     0.011 A 
ATOM     14  C   UNL     1      -3.108  -1.965   0.982  1.00  0.00     0.057 A 
ATOM     15  C   UNL     1      -3.828  -0.813   0.695  1.00  0.00     0.008 A 
ATOM     16  N   UNL     1      -4.018  -3.000   1.266  1.00  0.00    -0.276 N 
ATOM     17  C   UNL     1      -5.197  -1.163   0.664  1.00  0.00     0.009 A 
ATOM     18  C   UNL     1      -5.317  -2.477   1.137  1.00  0.00     0.057 A 
ATOM     19  C   UNL     1      -6.344  -0.408   0.342  1.00  0.00     0.031 A 
ATOM     20  C   UNL     1      -6.593  -2.980   1.464  1.00  0.00     0.029 A 
ATOM     21  C   UNL     1      -7.599  -0.943   0.591  1.00  0.00     0.041 A 
ATOM     22  C   UNL     1      -7.724  -2.196   1.178  1.00  0.00     0.023 A 
ATOM     23  Cl  UNL     1      -9.000  -0.015   0.216  1.00  0.00    -0.084 Cl
BRANCH  16  24
ATOM     24  C   UNL     1      -3.601  -4.294   1.690  1.00  0.00     0.262 C 
ATOM     25  O   UNL     1      -2.502  -4.343   2.248  1.00  0.00    -0.268 OA
BRANCH  24  26
ATOM     26  C   UNL     1      -4.270  -5.620   1.532  1.00  0.00     0.040 A 
ATOM     27  C   UNL     1      -3.705  -6.701   2.246  1.00  0.00     0.015 A 
ATOM     28  C   UNL     1      -5.298  -5.891   0.626  1.00  0.00     0.015 A 
ATOM     29  C   UNL     1      -4.157  -8.010   2.072  1.00  0.00     0.021 A 
ATOM     30  C   UNL     1      -5.776  -7.205   0.476  1.00  0.00     0.021 A 
ATOM     31  C   UNL     1      -5.199  -8.256   1.190  1.00  0.00     0.041 A 
ATOM     32  Cl  UNL     1      -5.756  -9.867   0.961  1.00  0.00    -0.084 Cl
ENDBRANCH  24  26
ENDBRANCH  16  24
ENDBRANCH   8  10
ENDBRANCH   5   8
ENDBRANCH   3   4
ENDBRANCH   2   3
ENDBRANCH   1   2
BRANCH   1  33
ATOM     33  C   UNL     1       5.947  -0.647   3.180  1.00  0.00     0.002 C 
BRANCH  33  34
ATOM     34  C   UNL     1       6.983  -1.043   2.127  1.00  0.00     0.021 C 
BRANCH  34  35
ATOM     35  C   UNL     1       7.876   0.106   1.674  1.00  0.00     0.116 C 
BRANCH  35  36
ATOM     36  N   UNL     1       8.688   0.617   2.768  1.00  0.00    -0.352 N 
ATOM     37  C   UNL     1      10.053   0.744   2.843  1.00  0.00     0.251 C 
ATOM     38  H   UNL     1       8.189   0.911   3.564  1.00  0.00     0.163 HD
ATOM     39  O   UNL     1      10.594   0.977   3.916  1.00  0.00    -0.269 OA
BRANCH  37  40
ATOM     40  C   UNL     1      10.861   0.583   1.615  1.00  0.00     0.039 A 
ATOM     41  C   UNL     1      12.011  -0.206   1.660  1.00  0.00     0.014 A 
ATOM     42  C   UNL     1      10.471   1.201   0.423  1.00  0.00     0.014 A 
ATOM     43  C   UNL     1      12.743  -0.421   0.490  1.00  0.00     0.010 A 
ATOM     44  C   UNL     1      11.156   0.922  -0.754  1.00  0.00     0.010 A 
ATOM     45  C   UNL     1      12.303   0.114  -0.733  1.00  0.00    -0.014 A 
BRANCH  45  46
ATOM     46  C   UNL     1      13.020  -0.170  -2.001  1.00  0.00     0.031 A 
ATOM     47  C   UNL     1      13.637   0.952  -2.791  1.00  0.00     0.074 A 
ATOM     48  C   UNL     1      13.043  -1.428  -2.484  1.00  0.00     0.049 A 
ATOM     49  N   UNL     1      14.248   0.907  -3.946  1.00  0.00    -0.248 NA
ATOM     50  C   UNL     1      13.531   2.306  -2.222  1.00  0.00     0.031 C 
ATOM     51  C   UNL     1      12.417  -2.590  -1.847  1.00  0.00     0.029 A 
ATOM     52  N   UNL     1      13.590  -1.937  -3.635  1.00  0.00    -0.354 N 
ATOM     53  C   UNL     1      14.569   2.222  -4.258  1.00  0.00     0.074 A 
ATOM     54  C   UNL     1      14.053   3.048  -3.188  1.00  0.00     0.031 C 
ATOM     55  C   UNL     1      12.621  -3.674  -2.612  1.00  0.00     0.029 A 
ATOM     56  C   UNL     1      13.357  -3.281  -3.810  1.00  0.00     0.049 A 
ATOM     57  H   UNL     1      14.101  -1.391  -4.276  1.00  0.00     0.167 HD
ATOM     58  C   UNL     1      15.255   2.699  -5.324  1.00  0.00     0.034 A 
ATOM     59  C   UNL     1      13.685  -4.103  -4.826  1.00  0.00     0.034 A 
ATOM     60  C   UNL     1      15.793   1.871  -6.370  1.00  0.00     0.049 A 
ATOM     61  C   UNL     1      14.462  -3.551  -5.990  1.00  0.00     0.074 A 
ATOM     62  C   UNL     1      16.573   2.248  -7.449  1.00  0.00     0.029 A 
ATOM     63  N   UNL     1      15.598   0.503  -6.477  1.00  0.00    -0.354 N 
ATOM     64  N   UNL     1      14.888  -2.328  -6.193  1.00  0.00    -0.248 NA
ATOM     65  C   UNL     1      14.834  -4.499  -7.051  1.00  0.00     0.031 C 
ATOM     66  C   UNL     1      16.819   1.113  -8.228  1.00  0.00     0.029 A 
ATOM     67  C   UNL     1      16.228   0.022  -7.612  1.00  0.00     0.049 A 
ATOM     68  H   UNL     1      15.086  -0.046  -5.839  1.00  0.00     0.167 HD
ATOM     69  C   UNL     1      15.609  -2.366  -7.381  1.00  0.00     0.074 A 
ATOM     70  C   UNL     1      15.578  -3.739  -7.843  1.00  0.00     0.031 C 
ATOM     71  C   UNL     1      16.230  -1.355  -8.036  1.00  0.00     0.034 A 
BRANCH  58  72
ATOM     72  C   UNL     1      15.500   4.184  -5.393  1.00  0.00     0.023 A 
ATOM     73  C   UNL     1      16.393   4.788  -4.483  1.00  0.00     0.012 A 
ATOM     74  C   UNL     1      14.896   4.973  -6.391  1.00  0.00     0.148 A 
ATOM     75  C   UNL     1      16.650   6.157  -4.541  1.00  0.00     0.002 A 
ATOM     76  C   UNL     1      15.194   6.328  -6.473  1.00  0.00     0.091 A 
ATOM     77  F   UNL     1      14.036   4.386  -7.236  1.00  0.00    -0.205 F 
ATOM     78  C   UNL     1      16.060   6.924  -5.542  1.00  0.00     0.022 A 
BRANCH  76  79
ATOM     79  S   UNL     1      14.552   7.386  -7.775  1.00  0.00     0.127 S 
ATOM     80  O   UNL     1      13.638   8.250  -7.028  1.00  0.00    -0.237 OA
ATOM     81  O   UNL     1      15.763   8.051  -8.255  1.00  0.00    -0.237 OA
ATOM     82  O   UNL     1      13.920   6.499  -8.741  1.00  0.00    -0.744 OA
ENDBRANCH  76  79
ENDBRANCH  58  72
BRANCH  59  83
ATOM     83  C   UNL     1      13.323  -5.547  -4.764  1.00  0.00     0.023 A 
ATOM     84  C   UNL     1      14.339  -6.510  -4.607  1.00  0.00     0.012 A 
ATOM     85  C   UNL     1      11.982  -5.969  -4.837  1.00  0.00     0.148 A 
ATOM     86  C   UNL     1      14.029  -7.870  -4.561  1.00  0.00     0.002 A 
ATOM     87  C   UNL     1      11.675  -7.320  -4.732  1.00  0.00     0.091 A 
ATOM     88  F   UNL     1      11.031  -5.037  -4.994  1.00  0.00    -0.205 F 
ATOM     89  C   UNL     1      12.697  -8.274  -4.614  1.00  0.00     0.022 A 
BRANCH  87  90
ATOM     90  S   UNL     1       9.984  -7.922  -4.659  1.00  0.00     0.127 S 
ATOM     91  O   UNL     1       9.864  -8.634  -5.929  1.00  0.00    -0.237 OA
ATOM     92  O   UNL     1      10.020  -8.777  -3.473  1.00  0.00    -0.237 OA
ATOM     93  O   UNL     1       9.149  -6.737  -4.519  1.00  0.00    -0.744 OA
ENDBRANCH  87  90
ENDBRANCH  59  83
BRANCH  71  94
ATOM     94  C   UNL     1      16.970  -1.692  -9.305  1.00  0.00     0.023 A 
ATOM     95  C   UNL     1      16.255  -2.020 -10.473  1.00  0.00     0.012 A 
ATOM     96  C   UNL     1      18.376  -1.606  -9.355  1.00  0.00     0.148 A 
ATOM     97  C   UNL     1      16.929  -2.290 -11.664  1.00  0.00     0.002 A 
ATOM     98  C   UNL     1      19.037  -1.824 -10.557  1.00  0.00     0.091 A 
ATOM     99  F   UNL     1      19.039  -1.308  -8.229  1.00  0.00    -0.205 F 
ATOM    100  C   UNL     1      18.317  -2.180 -11.709  1.00  0.00     0.022 A 
BRANCH  98 101
ATOM    101  S   UNL     1      20.811  -1.608 -10.736  1.00  0.00     0.127 S 
ATOM    102  O   UNL     1      21.261  -2.985 -10.932  1.00  0.00    -0.237 OA
ATOM    103  O   UNL     1      20.900  -0.762 -11.927  1.00  0.00    -0.237 OA
ATOM    104  O   UNL     1      21.267  -0.973  -9.507  1.00  0.00    -0.744 OA
ENDBRANCH  98 101
ENDBRANCH  71  94
ENDBRANCH  45  46
ENDBRANCH  37  40
ENDBRANCH  35  36
ENDBRANCH  34  35
ENDBRANCH  33  34
ENDBRANCH   1  33
TORSDOF 19
