REMARK SMILES CS(=O)(=O)N1CCC[C@@H]1C(=O)Nc1nc(CC(=O)NCCCCCCNC(=O)c2ccc(-c3c4nc(c(-c5cccc(S(=O)(=O)[O-])c5F)c5ccc([nH]5)c(-c5cccc(S(=O)(=O)[O-])c5F)c5nc(c(-c6cccc(S(=O)(=O)[O-])c6F)c6ccc3[nH]6)C=C5)C=C4)cc2)cs1
REMARK SMILES IDX 22 1 21 2 20 3 19 4 17 5 18 6 16 8 15 9 13 10 14 11 93 12
REMARK SMILES IDX 92 13 12 14 10 15 11 16 9 18 5 19 6 20 7 21 8 22 2 23 1 24
REMARK SMILES IDX 3 25 4 26 23 27 24 28 25 29 26 30 27 31 28 33 29 34 30 35
REMARK SMILES IDX 91 36 31 37 90 38 32 39 33 40 34 41 84 42 35 43 89 44 83 45
REMARK SMILES IDX 85 46 36 47 88 48 82 49 81 50 37 52 69 53 49 54 68 55 50 56
REMARK SMILES IDX 53 57 67 58 86 59 51 60 52 61 66 63 87 64 54 65 38 66 39 67
REMARK SMILES IDX 47 68 40 69 42 70 48 71 41 72 43 73 44 74 45 75 46 76 70 77
REMARK SMILES IDX 71 78 79 79 72 80 74 81 80 82 73 83 75 84 76 85 77 86 78 87
REMARK SMILES IDX 55 88 56 89 64 90 57 91 59 92 65 93 58 94 60 95 61 96 62 97
REMARK SMILES IDX 63 98
REMARK H PARENT 19 7 12 17 26 32 85 51 53 62
REMARK Flexibility Score: inf
ROOT
ATOM      1  C   UNL     1       4.674   2.234   4.357  1.00  0.00     0.002 C 
ENDROOT
BRANCH   1   2
ATOM      2  C   UNL     1       4.120   1.956   2.961  1.00  0.00     0.021 C 
BRANCH   2   3
ATOM      3  C   UNL     1       5.151   2.050   1.835  1.00  0.00     0.116 C 
BRANCH   3   4
ATOM      4  N   UNL     1       6.045   0.904   1.867  1.00  0.00    -0.356 N 
ATOM      5  C   UNL     1       5.936  -0.278   1.190  1.00  0.00     0.226 C 
ATOM      6  O   UNL     1       6.717  -1.191   1.472  1.00  0.00    -0.275 OA
ATOM      7  H   UNL     1       6.831   0.990   2.454  1.00  0.00     0.163 HD
BRANCH   5   8
ATOM      8  C   UNL     1       4.930  -0.429   0.065  1.00  0.00     0.157 C 
BRANCH   8   9
ATOM      9  C   UNL     1       3.509  -0.317   0.507  1.00  0.00     0.063 A 
ATOM     10  C   UNL     1       1.551   0.700   0.447  1.00  0.00     0.189 A 
ATOM     11  N   UNL     1       2.707   0.607  -0.144  1.00  0.00    -0.224 NA
ATOM     12  S   UNL     1       1.332  -0.276   1.828  1.00  0.00    -0.105 S 
ATOM     13  C   UNL     1       2.865  -1.006   1.520  1.00  0.00     0.093 A 
BRANCH  10  14
ATOM     14  N   UNL     1       0.486   1.468   0.102  1.00  0.00    -0.301 N 
ATOM     15  C   UNL     1       0.202   1.962  -1.134  1.00  0.00     0.244 C 
ATOM     16  O   UNL     1      -0.728   2.774  -1.202  1.00  0.00    -0.273 OA
ATOM     17  H   UNL     1      -0.147   1.692   0.822  1.00  0.00     0.172 HD
BRANCH  15  18
ATOM     18  C   UNL     1       0.904   1.504  -2.410  1.00  0.00     0.162 C 
ATOM     19  N   UNL     1       1.117   0.038  -2.597  1.00  0.00    -0.190 NA
ATOM     20  C   UNL     1       2.206  -0.105  -3.578  1.00  0.00     0.103 C 
ATOM     21  C   UNL     1       3.167   1.001  -3.183  1.00  0.00     0.019 C 
ATOM     22  C   UNL     1       2.281   2.134  -2.670  1.00  0.00     0.032 C 
BRANCH  19  23
ATOM     23  S   UNL     1      -0.197  -0.998  -2.737  1.00  0.00     0.211 S 
ATOM     24  C   UNL     1      -0.396  -1.559  -1.063  1.00  0.00     0.176 C 
ATOM     25  O   UNL     1       0.224  -2.151  -3.503  1.00  0.00    -0.212 OA
ATOM     26  O   UNL     1      -1.367  -0.232  -3.106  1.00  0.00    -0.212 OA
ENDBRANCH  19  23
ENDBRANCH  15  18
ENDBRANCH  10  14
ENDBRANCH   8   9
ENDBRANCH   5   8
ENDBRANCH   3   4
ENDBRANCH   2   3
ENDBRANCH   1   2
BRANCH   1  27
ATOM     27  C   UNL     1       5.203   3.652   4.553  1.00  0.00     0.002 C 
BRANCH  27  28
ATOM     28  C   UNL     1       4.187   4.756   4.246  1.00  0.00     0.021 C 
BRANCH  28  29
ATOM     29  C   UNL     1       2.900   4.671   5.064  1.00  0.00     0.116 C 
BRANCH  29  30
ATOM     30  N   UNL     1       3.170   4.739   6.493  1.00  0.00    -0.352 N 
ATOM     31  C   UNL     1       2.815   5.706   7.398  1.00  0.00     0.251 C 
ATOM     32  H   UNL     1       3.679   3.981   6.862  1.00  0.00     0.163 HD
ATOM     33  O   UNL     1       3.356   5.747   8.499  1.00  0.00    -0.269 OA
BRANCH  31  34
ATOM     34  C   UNL     1       1.782   6.698   7.037  1.00  0.00     0.039 A 
ATOM     35  C   UNL     1       1.997   8.044   7.339  1.00  0.00     0.014 A 
ATOM     36  C   UNL     1       0.603   6.295   6.405  1.00  0.00     0.014 A 
ATOM     37  C   UNL     1       1.052   8.995   6.951  1.00  0.00     0.010 A 
ATOM     38  C   UNL     1      -0.299   7.251   5.951  1.00  0.00     0.010 A 
ATOM     39  C   UNL     1      -0.087   8.610   6.222  1.00  0.00    -0.014 A 
BRANCH  39  40
ATOM     40  C   UNL     1      -1.044   9.622   5.707  1.00  0.00     0.031 A 
ATOM     41  C   UNL     1      -2.478   9.620   6.159  1.00  0.00     0.074 A 
ATOM     42  C   UNL     1      -0.635  10.492   4.762  1.00  0.00     0.049 A 
ATOM     43  N   UNL     1      -3.458  10.403   5.788  1.00  0.00    -0.248 NA
ATOM     44  C   UNL     1      -2.870   8.590   7.135  1.00  0.00     0.031 C 
ATOM     45  C   UNL     1       0.708  10.537   4.181  1.00  0.00     0.029 A 
ATOM     46  N   UNL     1      -1.315  11.485   4.103  1.00  0.00    -0.354 N 
ATOM     47  C   UNL     1      -4.587   9.941   6.453  1.00  0.00     0.074 A 
ATOM     48  C   UNL     1      -4.177   8.790   7.228  1.00  0.00     0.031 C 
ATOM     49  C   UNL     1       0.756  11.510   3.259  1.00  0.00     0.029 A 
ATOM     50  C   UNL     1      -0.560  12.131   3.152  1.00  0.00     0.049 A 
ATOM     51  H   UNL     1      -2.254  11.713   4.293  1.00  0.00     0.167 HD
ATOM     52  C   UNL     1      -5.845  10.443   6.439  1.00  0.00     0.034 A 
ATOM     53  C   UNL     1      -0.892  13.102   2.279  1.00  0.00     0.034 A 
ATOM     54  C   UNL     1      -6.240  11.603   5.685  1.00  0.00     0.049 A 
ATOM     55  C   UNL     1      -2.288  13.658   2.300  1.00  0.00     0.074 A 
ATOM     56  C   UNL     1      -7.463  12.249   5.681  1.00  0.00     0.029 A 
ATOM     57  N   UNL     1      -5.431  12.276   4.782  1.00  0.00    -0.354 N 
ATOM     58  N   UNL     1      -3.298  13.321   3.066  1.00  0.00    -0.248 NA
ATOM     59  C   UNL     1      -2.583  14.750   1.362  1.00  0.00     0.031 C 
ATOM     60  C   UNL     1      -7.408  13.284   4.741  1.00  0.00     0.029 A 
ATOM     61  C   UNL     1      -6.135  13.313   4.194  1.00  0.00     0.049 A 
ATOM     62  H   UNL     1      -4.492  12.049   4.588  1.00  0.00     0.167 HD
ATOM     63  C   UNL     1      -4.339  14.175   2.721  1.00  0.00     0.074 A 
ATOM     64  C   UNL     1      -3.827  15.063   1.697  1.00  0.00     0.031 C 
ATOM     65  C   UNL     1      -5.608  14.212   3.200  1.00  0.00     0.034 A 
BRANCH  52  66
ATOM     66  C   UNL     1      -6.883   9.755   7.288  1.00  0.00     0.023 A 
ATOM     67  C   UNL     1      -6.805   9.831   8.694  1.00  0.00     0.012 A 
ATOM     68  C   UNL     1      -7.966   9.076   6.694  1.00  0.00     0.148 A 
ATOM     69  C   UNL     1      -7.762   9.208   9.495  1.00  0.00     0.002 A 
ATOM     70  C   UNL     1      -8.942   8.500   7.498  1.00  0.00     0.091 A 
ATOM     71  F   UNL     1      -8.014   8.996   5.357  1.00  0.00    -0.205 F 
ATOM     72  C   UNL     1      -8.835   8.553   8.897  1.00  0.00     0.022 A 
BRANCH  70  73
ATOM     73  S   UNL     1     -10.406   7.705   6.826  1.00  0.00     0.127 S 
ATOM     74  O   UNL     1     -10.150   6.301   7.144  1.00  0.00    -0.237 OA
ATOM     75  O   UNL     1     -11.476   8.321   7.611  1.00  0.00    -0.237 OA
ATOM     76  O   UNL     1     -10.426   8.031   5.407  1.00  0.00    -0.744 OA
ENDBRANCH  70  73
ENDBRANCH  52  66
BRANCH  53  77
ATOM     77  C   UNL     1       0.136  13.634   1.341  1.00  0.00     0.023 A 
ATOM     78  C   UNL     1       0.629  14.941   1.516  1.00  0.00     0.012 A 
ATOM     79  C   UNL     1       0.655  12.836   0.302  1.00  0.00     0.148 A 
ATOM     80  C   UNL     1       1.600  15.455   0.655  1.00  0.00     0.002 A 
ATOM     81  C   UNL     1       1.664  13.333  -0.513  1.00  0.00     0.091 A 
ATOM     82  F   UNL     1       0.166  11.597   0.150  1.00  0.00    -0.205 F 
ATOM     83  C   UNL     1       2.124  14.648  -0.351  1.00  0.00     0.022 A 
BRANCH  81  84
ATOM     84  S   UNL     1       2.496  12.321  -1.742  1.00  0.00     0.127 S 
ATOM     85  O   UNL     1       2.075  12.956  -2.988  1.00  0.00    -0.237 OA
ATOM     86  O   UNL     1       3.903  12.521  -1.391  1.00  0.00    -0.237 OA
ATOM     87  O   UNL     1       2.013  10.963  -1.532  1.00  0.00    -0.744 OA
ENDBRANCH  81  84
ENDBRANCH  53  77
BRANCH  65  88
ATOM     88  C   UNL     1      -6.534  15.263   2.643  1.00  0.00     0.023 A 
ATOM     89  C   UNL     1      -7.008  15.155   1.320  1.00  0.00     0.012 A 
ATOM     90  C   UNL     1      -6.987  16.322   3.454  1.00  0.00     0.148 A 
ATOM     91  C   UNL     1      -7.889  16.104   0.803  1.00  0.00     0.002 A 
ATOM     92  C   UNL     1      -7.907  17.233   2.950  1.00  0.00     0.091 A 
ATOM     93  F   UNL     1      -6.512  16.417   4.705  1.00  0.00    -0.205 F 
ATOM     94  C   UNL     1      -8.348  17.134   1.620  1.00  0.00     0.022 A 
BRANCH  92  95
ATOM     95  S   UNL     1      -8.628  18.535   3.955  1.00  0.00     0.127 S 
ATOM     96  O   UNL     1      -8.034  19.733   3.362  1.00  0.00    -0.237 OA
ATOM     97  O   UNL     1     -10.058  18.370   3.694  1.00  0.00    -0.237 OA
ATOM     98  O   UNL     1      -8.225  18.257   5.327  1.00  0.00    -0.744 OA
ENDBRANCH  92  95
ENDBRANCH  65  88
ENDBRANCH  39  40
ENDBRANCH  31  34
ENDBRANCH  29  30
ENDBRANCH  28  29
ENDBRANCH  27  28
ENDBRANCH   1  27
TORSDOF 20
