REMARK SMILES C[C@H]1CCc2sc3ncn4nc(/C=C\C(=O)NCCCCCCNC(=O)c5ccc(-c6c7nc(c(-c8cccc(S(=O)(=O)[O-])c8F)c8ccc([nH]8)c(-c8cccc(S(=O)(=O)[O-])c8F)c8nc(c(-c9cccc(S(=O)(=O)[O-])c9F)c9ccc6[nH]9)C=C8)C=C7)cc5)nc4c3c2C1
REMARK SMILES IDX 21 1 20 2 19 3 18 4 17 5 15 6 16 7 14 9 13 10 12 11 1 12
REMARK SMILES IDX 2 13 3 14 94 15 4 16 93 17 5 18 92 19 6 20 7 21 91 22 8 23
REMARK SMILES IDX 10 24 90 25 9 26 11 27 22 28 23 29 24 30 25 31 26 33 27 34
REMARK SMILES IDX 28 35 89 36 29 37 88 38 30 39 31 40 32 41 82 42 33 43 87 44
REMARK SMILES IDX 81 45 83 46 34 47 86 48 80 49 79 50 35 52 67 53 47 54 66 55
REMARK SMILES IDX 48 56 51 57 65 58 84 59 49 60 50 61 64 63 85 64 52 65 36 66
REMARK SMILES IDX 37 67 45 68 38 69 40 70 46 71 39 72 41 73 42 74 43 75 44 76
REMARK SMILES IDX 68 77 69 78 77 79 70 80 72 81 78 82 71 83 73 84 74 85 75 86
REMARK SMILES IDX 76 87 53 88 54 89 62 90 55 91 57 92 63 93 56 94 58 95 59 96
REMARK SMILES IDX 60 97 61 98
REMARK H PARENT 17 8 24 32 83 51 51 62
REMARK Flexibility Score: inf
ROOT
ATOM      1  C   UNL     1       2.068  -1.482   3.981  1.00  0.00     0.002 C 
ENDROOT
BRANCH   1   2
ATOM      2  C   UNL     1       3.294  -2.239   3.462  1.00  0.00     0.002 C 
BRANCH   2   3
ATOM      3  C   UNL     1       3.195  -3.763   3.322  1.00  0.00     0.021 C 
BRANCH   3   4
ATOM      4  C   UNL     1       1.895  -4.325   2.766  1.00  0.00     0.116 C 
BRANCH   4   5
ATOM      5  N   UNL     1       1.783  -4.423   1.324  1.00  0.00    -0.353 N 
ATOM      6  C   UNL     1       1.101  -5.365   0.603  1.00  0.00     0.244 C 
ATOM      7  O   UNL     1       0.986  -5.257  -0.617  1.00  0.00    -0.270 OA
ATOM      8  H   UNL     1       2.252  -3.732   0.803  1.00  0.00     0.163 HD
BRANCH   6   9
ATOM      9  C   UNL     1       0.635  -6.614   1.256  1.00  0.00     0.075 C 
ATOM     10  C   UNL     1      -0.223  -6.776   2.277  1.00  0.00     0.057 C 
BRANCH  10  11
ATOM     11  C   UNL     1      -0.916  -5.783   3.029  1.00  0.00     0.175 A 
ATOM     12  C   UNL     1      -1.756   0.752   0.416  1.00  0.00     0.008 C 
ATOM     13  C   UNL     1      -0.509   0.102   1.016  1.00  0.00    -0.009 C 
ATOM     14  C   UNL     1       0.095   1.012   2.106  1.00  0.00     0.009 C 
ATOM     15  C   UNL     1      -0.828  -1.319   1.548  1.00  0.00     0.041 C 
ATOM     16  C   UNL     1      -0.825   1.172   3.328  1.00  0.00     0.047 C 
ATOM     17  C   UNL     1      -1.413  -1.297   2.933  1.00  0.00    -0.020 A 
ATOM     18  C   UNL     1      -1.427  -0.149   3.712  1.00  0.00     0.011 A 
ATOM     19  C   UNL     1      -1.776  -2.411   3.741  1.00  0.00     0.060 A 
ATOM     20  S   UNL     1      -2.166  -0.388   5.237  1.00  0.00    -0.120 S 
ATOM     21  C   UNL     1      -2.123  -2.090   5.048  1.00  0.00     0.129 A 
ATOM     22  C   UNL     1      -1.587  -3.860   3.522  1.00  0.00     0.168 A 
ATOM     23  N   UNL     1      -2.248  -2.942   6.124  1.00  0.00    -0.225 NA
ATOM     24  N   UNL     1      -1.636  -4.664   4.622  1.00  0.00    -0.201 N 
ATOM     25  N   UNL     1      -1.176  -4.543   2.482  1.00  0.00    -0.207 NA
ATOM     26  C   UNL     1      -1.941  -4.197   5.902  1.00  0.00     0.227 A 
ATOM     27  N   UNL     1      -1.253  -5.918   4.324  1.00  0.00    -0.145 NA
ENDBRANCH  10  11
ENDBRANCH   6   9
ENDBRANCH   4   5
ENDBRANCH   3   4
ENDBRANCH   2   3
ENDBRANCH   1   2
BRANCH   1  28
ATOM     28  C   UNL     1       1.420  -1.992   5.265  1.00  0.00     0.021 C 
BRANCH  28  29
ATOM     29  C   UNL     1       1.685  -1.111   6.465  1.00  0.00     0.116 C 
BRANCH  29  30
ATOM     30  N   UNL     1       1.088   0.245   6.460  1.00  0.00    -0.352 N 
ATOM     31  C   UNL     1       1.035   1.180   7.504  1.00  0.00     0.251 C 
ATOM     32  H   UNL     1       0.674   0.527   5.612  1.00  0.00     0.163 HD
ATOM     33  O   UNL     1       0.328   2.186   7.451  1.00  0.00    -0.269 OA
BRANCH  31  34
ATOM     34  C   UNL     1       1.925   0.956   8.657  1.00  0.00     0.039 A 
ATOM     35  C   UNL     1       1.673   1.058  10.032  1.00  0.00     0.014 A 
ATOM     36  C   UNL     1       3.133   0.457   8.288  1.00  0.00     0.014 A 
ATOM     37  C   UNL     1       2.599   0.451  10.910  1.00  0.00     0.010 A 
ATOM     38  C   UNL     1       3.423  -0.635   9.010  1.00  0.00     0.010 A 
ATOM     39  C   UNL     1       3.544  -0.396  10.340  1.00  0.00    -0.014 A 
BRANCH  39  40
ATOM     40  C   UNL     1       4.517  -1.309  10.895  1.00  0.00     0.031 A 
ATOM     41  C   UNL     1       3.956  -2.324  11.807  1.00  0.00     0.074 A 
ATOM     42  C   UNL     1       5.713  -1.496  10.275  1.00  0.00     0.049 A 
ATOM     43  N   UNL     1       3.998  -2.288  13.093  1.00  0.00    -0.248 NA
ATOM     44  C   UNL     1       3.095  -3.391  11.269  1.00  0.00     0.031 C 
ATOM     45  C   UNL     1       6.252  -0.884   9.040  1.00  0.00     0.029 A 
ATOM     46  N   UNL     1       6.664  -2.413  10.563  1.00  0.00    -0.354 N 
ATOM     47  C   UNL     1       3.412  -3.472  13.511  1.00  0.00     0.074 A 
ATOM     48  C   UNL     1       2.641  -3.950  12.395  1.00  0.00     0.031 C 
ATOM     49  C   UNL     1       7.308  -1.599   8.590  1.00  0.00     0.029 A 
ATOM     50  C   UNL     1       7.644  -2.583   9.595  1.00  0.00     0.049 A 
ATOM     51  H   UNL     1       6.662  -2.925  11.404  1.00  0.00     0.167 HD
ATOM     52  C   UNL     1       3.836  -4.102  14.642  1.00  0.00     0.034 A 
ATOM     53  C   UNL     1       8.653  -3.486   9.634  1.00  0.00     0.034 A 
ATOM     54  C   UNL     1       4.804  -3.291  15.351  1.00  0.00     0.049 A 
ATOM     55  C   UNL     1       8.814  -3.858  11.065  1.00  0.00     0.074 A 
ATOM     56  C   UNL     1       4.777  -2.014  15.882  1.00  0.00     0.029 A 
ATOM     57  N   UNL     1       6.136  -3.574  15.131  1.00  0.00    -0.354 N 
ATOM     58  N   UNL     1       9.172  -3.006  11.989  1.00  0.00    -0.248 NA
ATOM     59  C   UNL     1       8.082  -5.022  11.540  1.00  0.00     0.031 C 
ATOM     60  C   UNL     1       6.015  -1.425  15.476  1.00  0.00     0.029 A 
ATOM     61  C   UNL     1       6.774  -2.396  14.817  1.00  0.00     0.049 A 
ATOM     62  H   UNL     1       6.556  -4.463  15.188  1.00  0.00     0.167 HD
ATOM     63  C   UNL     1       8.325  -3.273  13.061  1.00  0.00     0.074 A 
ATOM     64  C   UNL     1       7.750  -4.588  12.761  1.00  0.00     0.031 C 
ATOM     65  C   UNL     1       7.922  -2.292  13.928  1.00  0.00     0.034 A 
BRANCH  52  66
ATOM     66  C   UNL     1       3.617  -5.554  14.966  1.00  0.00     0.023 A 
ATOM     67  C   UNL     1       3.789  -5.952  16.307  1.00  0.00     0.012 A 
ATOM     68  C   UNL     1       3.418  -6.577  14.011  1.00  0.00     0.148 A 
ATOM     69  C   UNL     1       3.763  -7.300  16.680  1.00  0.00     0.002 A 
ATOM     70  C   UNL     1       3.299  -7.907  14.399  1.00  0.00     0.091 A 
ATOM     71  F   UNL     1       3.470  -6.291  12.706  1.00  0.00    -0.205 F 
ATOM     72  C   UNL     1       3.496  -8.277  15.730  1.00  0.00     0.022 A 
BRANCH  70  73
ATOM     73  S   UNL     1       2.869  -9.197  13.223  1.00  0.00     0.127 S 
ATOM     74  O   UNL     1       4.141  -9.897  13.073  1.00  0.00    -0.237 OA
ATOM     75  O   UNL     1       1.837  -9.937  13.952  1.00  0.00    -0.237 OA
ATOM     76  O   UNL     1       2.377  -8.498  12.043  1.00  0.00    -0.744 OA
ENDBRANCH  70  73
ENDBRANCH  52  66
BRANCH  53  77
ATOM     77  C   UNL     1       9.275  -4.244   8.523  1.00  0.00     0.023 A 
ATOM     78  C   UNL     1      10.529  -4.856   8.709  1.00  0.00     0.012 A 
ATOM     79  C   UNL     1       8.517  -4.611   7.386  1.00  0.00     0.148 A 
ATOM     80  C   UNL     1      10.995  -5.832   7.819  1.00  0.00     0.002 A 
ATOM     81  C   UNL     1       8.982  -5.584   6.505  1.00  0.00     0.091 A 
ATOM     82  F   UNL     1       7.301  -4.074   7.221  1.00  0.00    -0.205 F 
ATOM     83  C   UNL     1      10.217  -6.206   6.725  1.00  0.00     0.022 A 
BRANCH  81  84
ATOM     84  S   UNL     1       8.009  -6.151   5.101  1.00  0.00     0.127 S 
ATOM     85  O   UNL     1       8.983  -6.086   4.011  1.00  0.00    -0.237 OA
ATOM     86  O   UNL     1       7.642  -7.502   5.516  1.00  0.00    -0.237 OA
ATOM     87  O   UNL     1       6.903  -5.210   4.974  1.00  0.00    -0.744 OA
ENDBRANCH  81  84
ENDBRANCH  53  77
BRANCH  65  88
ATOM     88  C   UNL     1       8.543  -0.906  13.786  1.00  0.00     0.023 A 
ATOM     89  C   UNL     1       8.424  -0.140  12.604  1.00  0.00     0.012 A 
ATOM     90  C   UNL     1       9.093  -0.281  14.917  1.00  0.00     0.148 A 
ATOM     91  C   UNL     1       8.849   1.192  12.542  1.00  0.00     0.002 A 
ATOM     92  C   UNL     1       9.479   1.058  14.868  1.00  0.00     0.091 A 
ATOM     93  F   UNL     1       9.207  -1.001  16.044  1.00  0.00    -0.205 F 
ATOM     94  C   UNL     1       9.366   1.796  13.680  1.00  0.00     0.022 A 
BRANCH  92  95
ATOM     95  S   UNL     1      10.043   1.932  16.331  1.00  0.00     0.127 S 
ATOM     96  O   UNL     1      11.483   2.014  16.100  1.00  0.00    -0.237 OA
ATOM     97  O   UNL     1       9.334   3.209  16.230  1.00  0.00    -0.237 OA
ATOM     98  O   UNL     1       9.633   1.114  17.466  1.00  0.00    -0.744 OA
ENDBRANCH  92  95
ENDBRANCH  65  88
ENDBRANCH  39  40
ENDBRANCH  31  34
ENDBRANCH  29  30
ENDBRANCH  28  29
ENDBRANCH   1  28
TORSDOF 17
