REMARK SMILES Cc1ccccc1NC(=S)NN1C(=O)CS[C@H]1c1ccccc1C(=O)NCCCCCCNC(=O)c1ccc(-c2c3nc(c(-c4cccc(S(=O)(=O)[O-])c4F)c4ccc([nH]4)c(-c4cccc(S(=O)(=O)[O-])c4F)c4nc(c(-c5cccc(S(=O)(=O)[O-])c5F)c5ccc2[nH]5)C=C4)C=C3)cc1
REMARK SMILES IDX 28 1 27 2 26 3 24 4 25 5 23 7 18 8 19 9 20 10 22 11 21 12
REMARK SMILES IDX 17 13 12 14 13 15 14 16 15 17 16 18 11 19 9 21 10 22 8 23
REMARK SMILES IDX 7 25 1 26 2 27 3 28 4 29 6 30 5 31 29 32 30 33 31 34 32 35
REMARK SMILES IDX 33 36 34 37 35 39 36 40 37 41 98 42 38 43 97 44 39 45 40 46
REMARK SMILES IDX 41 47 91 48 42 49 96 50 90 51 92 52 43 53 95 54 89 55 88 56
REMARK SMILES IDX 44 58 76 59 56 60 75 61 57 62 60 63 74 64 93 65 58 66 59 67
REMARK SMILES IDX 73 69 94 70 61 71 45 72 46 73 54 74 47 75 49 76 55 77 48 78
REMARK SMILES IDX 50 79 51 80 52 81 53 82 77 83 78 84 86 85 79 86 81 87 87 88
REMARK SMILES IDX 80 89 82 90 83 91 84 92 85 93 62 94 63 95 71 96 64 97 66 98
REMARK SMILES IDX 72 99 65 100 67 101 68 102 69 103 70 104
REMARK H PARENT 26 6 11 20 8 24 33 38 92 57 60 68
REMARK Flexibility Score: inf
ROOT
ATOM      1  C   UNL     1      -0.357   1.747  -1.780  1.00  0.00     0.021 C 
ENDROOT
BRANCH   1   2
ATOM      2  C   UNL     1      -0.399   3.231  -1.241  1.00  0.00     0.116 C 
BRANCH   2   3
ATOM      3  N   UNL     1      -1.418   4.253  -1.703  1.00  0.00    -0.352 N 
ATOM      4  C   UNL     1      -1.719   5.421  -0.943  1.00  0.00     0.251 C 
ATOM      5  O   UNL     1      -0.848   6.294  -0.871  1.00  0.00    -0.269 OA
ATOM      6  H   UNL     1      -1.888   4.104  -2.555  1.00  0.00     0.163 HD
BRANCH   4   7
ATOM      7  C   UNL     1      -3.138   5.802  -0.401  1.00  0.00     0.046 A 
ATOM      8  C   UNL     1      -4.165   4.973   0.103  1.00  0.00    -0.001 A 
ATOM      9  C   UNL     1      -5.468   5.500   0.381  1.00  0.00     0.007 A 
ATOM     10  C   UNL     1      -5.760   6.843   0.260  1.00  0.00     0.000 A 
ATOM     11  C   UNL     1      -3.453   7.183  -0.421  1.00  0.00     0.014 A 
ATOM     12  C   UNL     1      -4.735   7.693  -0.105  1.00  0.00     0.001 A 
BRANCH   8  13
ATOM     13  C   UNL     1      -4.087   3.503   0.065  1.00  0.00     0.197 C 
ATOM     14  N   UNL     1      -2.823   2.838   0.150  1.00  0.00    -0.236 N 
ATOM     15  C   UNL     1      -3.270   1.641  -0.508  1.00  0.00     0.252 C 
ATOM     16  O   UNL     1      -3.254   1.486  -1.730  1.00  0.00    -0.272 OA
ATOM     17  C   UNL     1      -4.349   0.962   0.313  1.00  0.00     0.174 C 
ATOM     18  S   UNL     1      -5.160   2.411   1.078  1.00  0.00    -0.120 SA
BRANCH  14  19
ATOM     19  N   UNL     1      -2.151   2.875   1.616  1.00  0.00    -0.270 N 
ATOM     20  H   UNL     1      -2.726   2.628   2.376  1.00  0.00     0.191 HD
BRANCH  19  21
ATOM     21  C   UNL     1      -0.823   3.226   1.912  1.00  0.00     0.189 C 
ATOM     22  S   UNL     1      -0.547   4.701   2.679  1.00  0.00    -0.039 S 
BRANCH  21  23
ATOM     23  N   UNL     1       0.298   2.428   1.714  1.00  0.00    -0.331 N 
ATOM     24  H   UNL     1       1.126   2.785   2.110  1.00  0.00     0.169 HD
BRANCH  23  25
ATOM     25  C   UNL     1       0.457   1.196   1.042  1.00  0.00     0.043 A 
ATOM     26  C   UNL     1       3.389   0.930   0.896  1.00  0.00     0.046 C 
ATOM     27  C   UNL     1       2.022   0.386   0.620  1.00  0.00    -0.028 A 
ATOM     28  C   UNL     1       2.025  -1.004  -0.554  1.00  0.00     0.005 A 
ATOM     29  C   UNL     1       0.478  -1.623  -1.235  1.00  0.00     0.000 A 
ATOM     30  C   UNL     1      -1.041   0.509   0.400  1.00  0.00     0.026 A 
ATOM     31  C   UNL     1      -1.054  -0.812  -0.800  1.00  0.00     0.002 A 
ENDBRANCH  23  25
ENDBRANCH  21  23
ENDBRANCH  19  21
ENDBRANCH  14  19
ENDBRANCH   8  13
ENDBRANCH   4   7
ENDBRANCH   2   3
ENDBRANCH   1   2
BRANCH   1  32
ATOM     32  C   UNL     1       0.572   0.480  -0.926  1.00  0.00     0.002 C 
BRANCH  32  33
ATOM     33  C   UNL     1       0.366  -0.931   0.731  1.00  0.00     0.002 C 
BRANCH  33  34
ATOM     34  C   UNL     1      -0.733  -2.215   1.248  1.00  0.00     0.021 C 
BRANCH  34  35
ATOM     35  C   UNL     1      -1.261  -3.425   0.463  1.00  0.00     0.116 C 
BRANCH  35  36
ATOM     36  N   UNL     1      -0.370  -4.484   0.018  1.00  0.00    -0.352 N 
ATOM     37  C   UNL     1      -0.940  -5.705  -0.396  1.00  0.00     0.251 C 
ATOM     38  H   UNL     1       0.605  -4.352   0.005  1.00  0.00     0.163 HD
ATOM     39  O   UNL     1      -1.146  -6.665   0.330  1.00  0.00    -0.269 OA
BRANCH  37  40
ATOM     40  C   UNL     1      -1.371  -5.681  -1.818  1.00  0.00     0.039 A 
ATOM     41  C   UNL     1      -0.686  -6.402  -2.790  1.00  0.00     0.014 A 
ATOM     42  C   UNL     1      -2.176  -4.600  -2.165  1.00  0.00     0.014 A 
ATOM     43  C   UNL     1      -0.580  -5.850  -4.058  1.00  0.00     0.010 A 
ATOM     44  C   UNL     1      -1.913  -3.945  -3.331  1.00  0.00     0.010 A 
ATOM     45  C   UNL     1      -1.085  -4.568  -4.263  1.00  0.00    -0.014 A 
BRANCH  45  46
ATOM     46  C   UNL     1      -1.187  -3.955  -5.562  1.00  0.00     0.031 A 
ATOM     47  C   UNL     1      -2.258  -4.557  -6.378  1.00  0.00     0.074 A 
ATOM     48  C   UNL     1      -0.494  -2.822  -5.795  1.00  0.00     0.049 A 
ATOM     49  N   UNL     1      -2.240  -4.656  -7.653  1.00  0.00    -0.248 NA
ATOM     50  C   UNL     1      -3.410  -5.253  -5.776  1.00  0.00     0.031 C 
ATOM     51  C   UNL     1      -0.721  -1.798  -6.802  1.00  0.00     0.029 A 
ATOM     52  N   UNL     1       0.705  -2.432  -5.185  1.00  0.00    -0.354 N 
ATOM     53  C   UNL     1      -3.523  -5.023  -8.018  1.00  0.00     0.074 A 
ATOM     54  C   UNL     1      -4.110  -5.612  -6.851  1.00  0.00     0.031 C 
ATOM     55  C   UNL     1       0.403  -1.069  -6.946  1.00  0.00     0.029 A 
ATOM     56  C   UNL     1       1.436  -1.693  -6.134  1.00  0.00     0.049 A 
ATOM     57  H   UNL     1       0.985  -2.636  -4.264  1.00  0.00     0.167 HD
ATOM     58  C   UNL     1      -4.035  -4.509  -9.167  1.00  0.00     0.034 A 
ATOM     59  C   UNL     1       2.606  -2.204  -6.626  1.00  0.00     0.034 A 
ATOM     60  C   UNL     1      -3.017  -3.635  -9.777  1.00  0.00     0.049 A 
ATOM     61  C   UNL     1       2.474  -2.675  -8.053  1.00  0.00     0.074 A 
ATOM     62  C   UNL     1      -2.805  -2.267  -9.711  1.00  0.00     0.029 A 
ATOM     63  N   UNL     1      -1.813  -4.196 -10.182  1.00  0.00    -0.354 N 
ATOM     64  N   UNL     1       1.334  -2.837  -8.666  1.00  0.00    -0.248 NA
ATOM     65  C   UNL     1       3.615  -2.942  -8.919  1.00  0.00     0.031 C 
ATOM     66  C   UNL     1      -1.443  -2.019 -10.052  1.00  0.00     0.029 A 
ATOM     67  C   UNL     1      -0.832  -3.231 -10.332  1.00  0.00     0.049 A 
ATOM     68  H   UNL     1      -1.675  -5.158 -10.343  1.00  0.00     0.167 HD
ATOM     69  C   UNL     1       1.543  -3.272  -9.946  1.00  0.00     0.074 A 
ATOM     70  C   UNL     1       2.994  -3.258 -10.069  1.00  0.00     0.031 C 
ATOM     71  C   UNL     1       0.506  -3.623 -10.773  1.00  0.00     0.034 A 
BRANCH  58  72
ATOM     72  C   UNL     1      -5.502  -4.481  -9.565  1.00  0.00     0.023 A 
ATOM     73  C   UNL     1      -5.861  -3.520 -10.536  1.00  0.00     0.012 A 
ATOM     74  C   UNL     1      -6.558  -5.299  -9.086  1.00  0.00     0.148 A 
ATOM     75  C   UNL     1      -7.174  -3.333 -10.972  1.00  0.00     0.002 A 
ATOM     76  C   UNL     1      -7.882  -5.093  -9.498  1.00  0.00     0.091 A 
ATOM     77  F   UNL     1      -6.296  -6.326  -8.274  1.00  0.00    -0.205 F 
ATOM     78  C   UNL     1      -8.190  -4.109 -10.443  1.00  0.00     0.022 A 
BRANCH  76  79
ATOM     79  S   UNL     1      -9.283  -6.029  -8.850  1.00  0.00     0.127 S 
ATOM     80  O   UNL     1     -10.198  -4.964  -8.431  1.00  0.00    -0.237 OA
ATOM     81  O   UNL     1      -9.729  -6.780 -10.023  1.00  0.00    -0.237 OA
ATOM     82  O   UNL     1      -8.765  -6.834  -7.751  1.00  0.00    -0.744 OA
ENDBRANCH  76  79
ENDBRANCH  58  72
BRANCH  59  83
ATOM     83  C   UNL     1       3.433  -2.836  -5.554  1.00  0.00     0.023 A 
ATOM     84  C   UNL     1       3.873  -1.950  -4.541  1.00  0.00     0.012 A 
ATOM     85  C   UNL     1       3.322  -4.206  -5.265  1.00  0.00     0.148 A 
ATOM     86  C   UNL     1       3.970  -2.380  -3.223  1.00  0.00     0.002 A 
ATOM     87  C   UNL     1       3.399  -4.619  -3.938  1.00  0.00     0.091 A 
ATOM     88  F   UNL     1       3.066  -5.056  -6.267  1.00  0.00    -0.205 F 
ATOM     89  C   UNL     1       3.658  -3.695  -2.911  1.00  0.00     0.022 A 
BRANCH  87  90
ATOM     90  S   UNL     1       3.006  -6.286  -3.410  1.00  0.00     0.127 S 
ATOM     91  O   UNL     1       4.324  -6.808  -3.064  1.00  0.00    -0.237 OA
ATOM     92  O   UNL     1       2.139  -6.024  -2.259  1.00  0.00    -0.237 OA
ATOM     93  O   UNL     1       2.358  -6.920  -4.548  1.00  0.00    -0.744 OA
ENDBRANCH  87  90
ENDBRANCH  59  83
BRANCH  71  94
ATOM     94  C   UNL     1       0.637  -4.367 -12.097  1.00  0.00     0.023 A 
ATOM     95  C   UNL     1       1.848  -4.933 -12.530  1.00  0.00     0.012 A 
ATOM     96  C   UNL     1      -0.496  -4.626 -12.920  1.00  0.00     0.148 A 
ATOM     97  C   UNL     1       1.960  -5.628 -13.737  1.00  0.00     0.002 A 
ATOM     98  C   UNL     1      -0.410  -5.446 -14.037  1.00  0.00     0.091 A 
ATOM     99  F   UNL     1      -1.674  -4.048 -12.659  1.00  0.00    -0.205 F 
ATOM    100  C   UNL     1       0.826  -5.909 -14.479  1.00  0.00     0.022 A 
BRANCH  98 101
ATOM    101  S   UNL     1      -1.875  -6.048 -14.886  1.00  0.00     0.127 S 
ATOM    102  O   UNL     1      -1.854  -5.251 -16.111  1.00  0.00    -0.237 OA
ATOM    103  O   UNL     1      -1.553  -7.464 -15.072  1.00  0.00    -0.237 OA
ATOM    104  O   UNL     1      -2.990  -5.800 -13.983  1.00  0.00    -0.744 OA
ENDBRANCH  98 101
ENDBRANCH  71  94
ENDBRANCH  45  46
ENDBRANCH  37  40
ENDBRANCH  35  36
ENDBRANCH  34  35
ENDBRANCH  33  34
ENDBRANCH  32  33
ENDBRANCH   1  32
TORSDOF 21
