REMARK SMILES Cc1ccc(C(=O)NC2(CC(=O)NCCCCCCNC(=O)c3ccc(-c4c5nc(c(-c6cccc(S(=O)(=O)[O-])c6F)c6ccc([nH]6)c(-c6cccc(S(=O)(=O)[O-])c6F)c6nc(c(-c7cccc(S(=O)(=O)[O-])c7F)c7ccc4[nH]7)C=C6)C=C5)cc3)CCC2)cc1
REMARK SMILES IDX 16 1 15 2 14 3 13 4 11 5 12 6 10 8 9 9 86 10 88 11 87 12
REMARK SMILES IDX 8 13 6 14 7 15 5 17 1 18 2 19 3 20 90 21 4 22 89 23 17 24
REMARK SMILES IDX 18 25 19 26 20 27 21 28 22 30 23 31 24 32 85 33 25 34 84 35
REMARK SMILES IDX 26 36 27 37 28 38 78 39 29 40 83 41 77 42 79 43 30 44 82 45
REMARK SMILES IDX 76 46 75 47 31 49 63 50 43 51 62 52 44 53 47 54 61 55 80 56
REMARK SMILES IDX 45 57 46 58 60 60 81 61 48 62 32 63 33 64 41 65 34 66 36 67
REMARK SMILES IDX 42 68 35 69 37 70 38 71 39 72 40 73 64 74 65 75 73 76 66 77
REMARK SMILES IDX 68 78 74 79 67 80 69 81 70 82 71 83 72 84 49 85 50 86 58 87
REMARK SMILES IDX 51 88 53 89 59 90 52 91 54 92 55 93 56 94 57 95
REMARK H PARENT 13 7 8 16 20 29 79 48 47 59
REMARK Flexibility Score: inf
ROOT
ATOM      1  C   UNL     1       0.635  -0.023   3.464  1.00  0.00     0.002 C 
ENDROOT
BRANCH   1   2
ATOM      2  C   UNL     1      -0.415   0.980   3.034  1.00  0.00     0.021 C 
BRANCH   2   3
ATOM      3  C   UNL     1      -0.133   1.586   1.687  1.00  0.00     0.116 C 
BRANCH   3   4
ATOM      4  N   UNL     1      -0.397   0.570   0.411  1.00  0.00    -0.356 N 
ATOM      5  C   UNL     1      -1.299   0.607  -1.345  1.00  0.00     0.222 C 
ATOM      6  O   UNL     1      -1.151  -0.120  -2.365  1.00  0.00    -0.275 OA
ATOM      7  H   UNL     1       0.015  -0.309   0.574  1.00  0.00     0.163 HD
BRANCH   5   8
ATOM      8  C   UNL     1      -2.674   1.844  -1.778  1.00  0.00     0.128 C 
BRANCH   8   9
ATOM      9  C   UNL     1      -3.744   2.542  -0.670  1.00  0.00     0.049 C 
ATOM     10  C   UNL     1      -4.459   3.870  -1.099  1.00  0.00     0.029 C 
ATOM     11  C   UNL     1      -3.629   3.387   0.797  1.00  0.00     0.029 C 
ATOM     12  C   UNL     1      -3.662   4.662  -0.015  1.00  0.00     0.005 C 
BRANCH   9  13
ATOM     13  N   UNL     1      -4.537   1.417  -0.204  1.00  0.00    -0.346 N 
ATOM     14  C   UNL     1      -3.834   0.525   0.555  1.00  0.00     0.251 C 
ATOM     15  O   UNL     1      -4.349  -0.411   1.143  1.00  0.00    -0.269 OA
ATOM     16  H   UNL     1      -5.492   1.308  -0.414  1.00  0.00     0.164 HD
BRANCH  14  17
ATOM     17  C   UNL     1      -2.348   0.684   0.401  1.00  0.00     0.039 A 
ATOM     18  C   UNL     1       2.409   0.027  -1.175  1.00  0.00     0.044 C 
ATOM     19  C   UNL     1       0.914   0.241  -1.157  1.00  0.00    -0.051 A 
ATOM     20  C   UNL     1      -0.083  -1.196  -0.701  1.00  0.00     0.004 A 
ATOM     21  C   UNL     1       0.307   1.921  -0.943  1.00  0.00     0.004 A 
ATOM     22  C   UNL     1      -1.690  -0.977   0.066  1.00  0.00     0.014 A 
ATOM     23  C   UNL     1      -1.314   2.190  -0.133  1.00  0.00     0.014 A 
ENDBRANCH  14  17
ENDBRANCH   9  13
ENDBRANCH   8   9
ENDBRANCH   5   8
ENDBRANCH   3   4
ENDBRANCH   2   3
ENDBRANCH   1   2
BRANCH   1  24
ATOM     24  C   UNL     1       2.086   0.288   3.049  1.00  0.00     0.002 C 
BRANCH  24  25
ATOM     25  C   UNL     1       2.621   1.713   3.254  1.00  0.00     0.021 C 
BRANCH  25  26
ATOM     26  C   UNL     1       2.384   2.248   4.633  1.00  0.00     0.116 C 
BRANCH  26  27
ATOM     27  N   UNL     1       3.332   1.697   5.557  1.00  0.00    -0.352 N 
ATOM     28  C   UNL     1       3.901   2.397   6.599  1.00  0.00     0.251 C 
ATOM     29  H   UNL     1       3.594   0.756   5.439  1.00  0.00     0.163 HD
ATOM     30  O   UNL     1       5.098   2.285   6.824  1.00  0.00    -0.269 OA
BRANCH  28  31
ATOM     31  C   UNL     1       2.962   3.071   7.546  1.00  0.00     0.039 A 
ATOM     32  C   UNL     1       3.104   2.594   8.852  1.00  0.00     0.014 A 
ATOM     33  C   UNL     1       1.710   3.465   7.084  1.00  0.00     0.014 A 
ATOM     34  C   UNL     1       1.982   2.134   9.515  1.00  0.00     0.010 A 
ATOM     35  C   UNL     1       0.618   2.859   7.640  1.00  0.00     0.010 A 
ATOM     36  C   UNL     1       0.781   2.141   8.826  1.00  0.00    -0.014 A 
BRANCH  36  37
ATOM     37  C   UNL     1      -0.477   1.738   9.395  1.00  0.00     0.031 A 
ATOM     38  C   UNL     1      -1.108   2.791  10.211  1.00  0.00     0.074 A 
ATOM     39  C   UNL     1      -1.062   0.637   8.876  1.00  0.00     0.049 A 
ATOM     40  N   UNL     1      -2.129   2.616  10.958  1.00  0.00    -0.248 NA
ATOM     41  C   UNL     1      -0.583   4.162  10.285  1.00  0.00     0.031 C 
ATOM     42  C   UNL     1      -2.478   0.318   8.784  1.00  0.00     0.029 A 
ATOM     43  N   UNL     1      -0.444  -0.505   8.381  1.00  0.00    -0.354 N 
ATOM     44  C   UNL     1      -2.585   3.871  11.321  1.00  0.00     0.074 A 
ATOM     45  C   UNL     1      -1.516   4.776  11.013  1.00  0.00     0.031 C 
ATOM     46  C   UNL     1      -2.620  -0.991   8.497  1.00  0.00     0.029 A 
ATOM     47  C   UNL     1      -1.299  -1.600   8.559  1.00  0.00     0.049 A 
ATOM     48  H   UNL     1       0.451  -0.539   7.972  1.00  0.00     0.167 HD
ATOM     49  C   UNL     1      -3.896   3.986  11.661  1.00  0.00     0.034 A 
ATOM     50  C   UNL     1      -0.955  -2.588   9.449  1.00  0.00     0.034 A 
ATOM     51  C   UNL     1      -4.500   2.644  11.634  1.00  0.00     0.049 A 
ATOM     52  C   UNL     1      -1.783  -2.512  10.722  1.00  0.00     0.074 A 
ATOM     53  C   UNL     1      -5.176   1.956  10.639  1.00  0.00     0.029 A 
ATOM     54  N   UNL     1      -4.059   1.691  12.545  1.00  0.00    -0.354 N 
ATOM     55  N   UNL     1      -2.484  -1.465  11.066  1.00  0.00    -0.248 NA
ATOM     56  C   UNL     1      -1.948  -3.616  11.665  1.00  0.00     0.031 C 
ATOM     57  C   UNL     1      -5.040   0.565  10.910  1.00  0.00     0.029 A 
ATOM     58  C   UNL     1      -4.309   0.410  12.077  1.00  0.00     0.049 A 
ATOM     59  H   UNL     1      -3.628   1.898  13.406  1.00  0.00     0.167 HD
ATOM     60  C   UNL     1      -3.141  -1.698  12.239  1.00  0.00     0.074 A 
ATOM     61  C   UNL     1      -2.797  -3.075  12.559  1.00  0.00     0.031 C 
ATOM     62  C   UNL     1      -3.901  -0.748  12.864  1.00  0.00     0.034 A 
BRANCH  49  63
ATOM     63  C   UNL     1      -4.729   5.254  11.743  1.00  0.00     0.023 A 
ATOM     64  C   UNL     1      -6.129   5.059  11.797  1.00  0.00     0.012 A 
ATOM     65  C   UNL     1      -4.296   6.604  11.732  1.00  0.00     0.148 A 
ATOM     66  C   UNL     1      -7.046   6.112  11.790  1.00  0.00     0.002 A 
ATOM     67  C   UNL     1      -5.215   7.664  11.725  1.00  0.00     0.091 A 
ATOM     68  F   UNL     1      -2.996   6.895  11.747  1.00  0.00    -0.205 F 
ATOM     69  C   UNL     1      -6.590   7.417  11.746  1.00  0.00     0.022 A 
BRANCH  67  70
ATOM     70  S   UNL     1      -4.729   9.402  11.675  1.00  0.00     0.127 S 
ATOM     71  O   UNL     1      -5.396   9.872  10.459  1.00  0.00    -0.237 OA
ATOM     72  O   UNL     1      -5.300   9.922  12.917  1.00  0.00    -0.237 OA
ATOM     73  O   UNL     1      -3.273   9.424  11.609  1.00  0.00    -0.744 OA
ENDBRANCH  67  70
ENDBRANCH  49  63
BRANCH  50  74
ATOM     74  C   UNL     1       0.503  -2.930   9.348  1.00  0.00     0.023 A 
ATOM     75  C   UNL     1       0.920  -3.446   8.094  1.00  0.00     0.012 A 
ATOM     76  C   UNL     1       1.449  -2.285  10.164  1.00  0.00     0.148 A 
ATOM     77  C   UNL     1       2.162  -3.098   7.559  1.00  0.00     0.002 A 
ATOM     78  C   UNL     1       2.693  -1.956   9.628  1.00  0.00     0.091 A 
ATOM     79  F   UNL     1       1.095  -1.940  11.409  1.00  0.00    -0.205 F 
ATOM     80  C   UNL     1       3.022  -2.301   8.305  1.00  0.00     0.022 A 
BRANCH  78  81
ATOM     81  S   UNL     1       3.878  -0.953  10.533  1.00  0.00     0.127 S 
ATOM     82  O   UNL     1       4.781  -1.969  11.065  1.00  0.00    -0.237 OA
ATOM     83  O   UNL     1       4.455  -0.125   9.477  1.00  0.00    -0.237 OA
ATOM     84  O   UNL     1       3.095  -0.222  11.518  1.00  0.00    -0.744 OA
ENDBRANCH  78  81
ENDBRANCH  50  74
BRANCH  62  85
ATOM     85  C   UNL     1      -4.356  -0.843  14.302  1.00  0.00     0.023 A 
ATOM     86  C   UNL     1      -3.674  -1.637  15.242  1.00  0.00     0.012 A 
ATOM     87  C   UNL     1      -5.378   0.006  14.799  1.00  0.00     0.148 A 
ATOM     88  C   UNL     1      -4.048  -1.667  16.586  1.00  0.00     0.002 A 
ATOM     89  C   UNL     1      -5.643   0.082  16.158  1.00  0.00     0.091 A 
ATOM     90  F   UNL     1      -6.115   0.739  13.952  1.00  0.00    -0.205 F 
ATOM     91  C   UNL     1      -5.017  -0.789  17.050  1.00  0.00     0.022 A 
BRANCH  89  92
ATOM     92  S   UNL     1      -6.656   1.402  16.837  1.00  0.00     0.127 S 
ATOM     93  O   UNL     1      -7.932   0.722  17.045  1.00  0.00    -0.237 OA
ATOM     94  O   UNL     1      -5.935   1.740  18.066  1.00  0.00    -0.237 OA
ATOM     95  O   UNL     1      -6.648   2.456  15.832  1.00  0.00    -0.744 OA
ENDBRANCH  89  92
ENDBRANCH  62  85
ENDBRANCH  36  37
ENDBRANCH  28  31
ENDBRANCH  26  27
ENDBRANCH  25  26
ENDBRANCH  24  25
ENDBRANCH   1  24
TORSDOF 19
