REMARK SMILES O=C(NCCCCCCNC(=O)[C@@H]1C=C[C@@H]([NH+]2CC3(CCOCC3)C2)C1)c1ccc(-c2c3nc(c(-c4cccc(S(=O)(=O)[O-])c4F)c4ccc([nH]4)c(-c4cccc(S(=O)(=O)[O-])c4F)c4nc(c(-c5cccc(S(=O)(=O)[O-])c5F)c5ccc2[nH]5)C=C4)C=C3)cc1
REMARK SMILES IDX 5 1 4 2 3 3 1 4 2 5 27 7 28 8 89 9 29 10 88 11 30 12 31 13
REMARK SMILES IDX 32 14 82 15 33 16 87 17 81 18 83 19 34 20 86 21 80 22 79 23
REMARK SMILES IDX 35 25 67 26 47 27 66 28 48 29 51 30 65 31 84 32 49 33 50 34
REMARK SMILES IDX 64 36 85 37 52 38 36 39 37 40 45 41 38 42 40 43 46 44 39 45
REMARK SMILES IDX 41 46 42 47 43 48 44 49 68 50 69 51 77 52 70 53 72 54 78 55
REMARK SMILES IDX 71 56 73 57 74 58 75 59 76 60 53 61 54 62 62 63 55 64 57 65
REMARK SMILES IDX 63 66 56 67 58 68 59 69 60 70 61 71 6 72 7 73 8 74 9 75
REMARK SMILES IDX 10 76 11 77 12 79 13 80 14 81 26 82 15 83 16 84 17 85 18 86
REMARK SMILES IDX 25 87 19 89 20 90 24 91 21 92 23 93 22 94
REMARK H PARENT 3 6 83 24 51 35 10 78 17 88
REMARK Flexibility Score: inf
ROOT
ATOM      1  C   UNL     1      13.780   7.108  -7.889  1.00  0.00     0.021 C 
ENDROOT
BRANCH   1   2
ATOM      2  C   UNL     1      15.169   6.888  -7.314  1.00  0.00     0.116 C 
BRANCH   2   3
ATOM      3  N   UNL     1      16.226   7.176  -8.266  1.00  0.00    -0.352 N 
ATOM      4  O   UNL     1      18.042   8.252  -9.063  1.00  0.00    -0.269 OA
ATOM      5  C   UNL     1      17.321   7.992  -8.104  1.00  0.00     0.251 C 
ATOM      6  H   UNL     1      16.148   6.729  -9.140  1.00  0.00     0.163 HD
BRANCH   5   7
ATOM      7  C   UNL     1      17.598   8.576  -6.771  1.00  0.00     0.039 A 
ATOM      8  C   UNL     1      17.515   7.785  -5.623  1.00  0.00     0.014 A 
ATOM      9  C   UNL     1      17.919   9.932  -6.666  1.00  0.00     0.014 A 
ATOM     10  C   UNL     1      17.600   8.378  -4.370  1.00  0.00     0.010 A 
ATOM     11  C   UNL     1      18.106  10.506  -5.403  1.00  0.00     0.010 A 
ATOM     12  C   UNL     1      17.919   9.741  -4.243  1.00  0.00    -0.014 A 
BRANCH  12  13
ATOM     13  C   UNL     1      18.146  10.294  -2.882  1.00  0.00     0.031 A 
ATOM     14  C   UNL     1      17.280  11.381  -2.309  1.00  0.00     0.074 A 
ATOM     15  C   UNL     1      19.145   9.767  -2.146  1.00  0.00     0.049 A 
ATOM     16  N   UNL     1      17.311  11.905  -1.109  1.00  0.00    -0.248 NA
ATOM     17  C   UNL     1      16.254  11.965  -3.187  1.00  0.00     0.031 C 
ATOM     18  C   UNL     1      20.093   8.755  -2.623  1.00  0.00     0.029 A 
ATOM     19  N   UNL     1      19.527   9.991  -0.849  1.00  0.00    -0.354 N 
ATOM     20  C   UNL     1      16.337  12.895  -1.094  1.00  0.00     0.074 A 
ATOM     21  C   UNL     1      15.737  12.911  -2.411  1.00  0.00     0.031 C 
ATOM     22  C   UNL     1      20.916   8.414  -1.622  1.00  0.00     0.029 A 
ATOM     23  C   UNL     1      20.593   9.218  -0.451  1.00  0.00     0.049 A 
ATOM     24  H   UNL     1      19.082  10.642  -0.259  1.00  0.00     0.167 HD
ATOM     25  C   UNL     1      15.963  13.701  -0.070  1.00  0.00     0.034 A 
ATOM     26  C   UNL     1      21.247   9.164   0.725  1.00  0.00     0.034 A 
ATOM     27  C   UNL     1      16.546  13.660   1.247  1.00  0.00     0.049 A 
ATOM     28  C   UNL     1      20.773  10.028   1.855  1.00  0.00     0.074 A 
ATOM     29  C   UNL     1      16.213  14.412   2.361  1.00  0.00     0.029 A 
ATOM     30  N   UNL     1      17.583  12.822   1.631  1.00  0.00    -0.354 N 
ATOM     31  N   UNL     1      19.768  10.870   1.881  1.00  0.00    -0.248 NA
ATOM     32  C   UNL     1      21.499   9.914   3.126  1.00  0.00     0.031 C 
ATOM     33  C   UNL     1      17.052  14.033   3.415  1.00  0.00     0.029 A 
ATOM     34  C   UNL     1      17.899  13.034   2.963  1.00  0.00     0.049 A 
ATOM     35  H   UNL     1      18.029  12.170   1.042  1.00  0.00     0.167 HD
ATOM     36  C   UNL     1      19.736  11.381   3.171  1.00  0.00     0.074 A 
ATOM     37  C   UNL     1      20.792  10.717   3.909  1.00  0.00     0.031 C 
ATOM     38  C   UNL     1      18.926  12.336   3.692  1.00  0.00     0.034 A 
BRANCH  25  39
ATOM     39  C   UNL     1      14.827  14.664  -0.308  1.00  0.00     0.023 A 
ATOM     40  C   UNL     1      13.508  14.170  -0.369  1.00  0.00     0.012 A 
ATOM     41  C   UNL     1      15.048  16.054  -0.386  1.00  0.00     0.148 A 
ATOM     42  C   UNL     1      12.429  15.040  -0.526  1.00  0.00     0.002 A 
ATOM     43  C   UNL     1      13.964  16.918  -0.506  1.00  0.00     0.091 A 
ATOM     44  F   UNL     1      16.310  16.504  -0.344  1.00  0.00    -0.205 F 
ATOM     45  C   UNL     1      12.655  16.412  -0.584  1.00  0.00     0.022 A 
BRANCH  43  46
ATOM     46  S   UNL     1      14.141  18.706  -0.516  1.00  0.00     0.127 S 
ATOM     47  O   UNL     1      13.827  19.025  -1.908  1.00  0.00    -0.237 OA
ATOM     48  O   UNL     1      13.123  19.123   0.449  1.00  0.00    -0.237 OA
ATOM     49  O   UNL     1      15.512  18.975  -0.106  1.00  0.00    -0.744 OA
ENDBRANCH  43  46
ENDBRANCH  25  39
BRANCH  26  50
ATOM     50  C   UNL     1      22.387   8.220   0.889  1.00  0.00     0.023 A 
ATOM     51  C   UNL     1      22.252   7.101   1.732  1.00  0.00     0.012 A 
ATOM     52  C   UNL     1      23.582   8.393   0.164  1.00  0.00     0.148 A 
ATOM     53  C   UNL     1      23.296   6.185   1.868  1.00  0.00     0.002 A 
ATOM     54  C   UNL     1      24.592   7.442   0.254  1.00  0.00     0.091 A 
ATOM     55  F   UNL     1      23.703   9.475  -0.618  1.00  0.00    -0.205 F 
ATOM     56  C   UNL     1      24.459   6.347   1.119  1.00  0.00     0.022 A 
BRANCH  54  57
ATOM     57  S   UNL     1      26.038   7.505  -0.809  1.00  0.00     0.127 S 
ATOM     58  O   UNL     1      27.033   8.109   0.073  1.00  0.00    -0.237 OA
ATOM     59  O   UNL     1      26.262   6.091  -1.114  1.00  0.00    -0.237 OA
ATOM     60  O   UNL     1      25.629   8.301  -1.959  1.00  0.00    -0.744 OA
ENDBRANCH  54  57
ENDBRANCH  26  50
BRANCH  38  61
ATOM     61  C   UNL     1      19.154  12.714   5.130  1.00  0.00     0.023 A 
ATOM     62  C   UNL     1      20.289  13.476   5.474  1.00  0.00     0.012 A 
ATOM     63  C   UNL     1      18.236  12.349   6.132  1.00  0.00     0.148 A 
ATOM     64  C   UNL     1      20.527  13.836   6.799  1.00  0.00     0.002 A 
ATOM     65  C   UNL     1      18.456  12.750   7.445  1.00  0.00     0.091 A 
ATOM     66  F   UNL     1      17.175  11.604   5.790  1.00  0.00    -0.205 F 
ATOM     67  C   UNL     1      19.606  13.482   7.782  1.00  0.00     0.022 A 
BRANCH  65  68
ATOM     68  S   UNL     1      17.278  12.406   8.757  1.00  0.00     0.127 S 
ATOM     69  O   UNL     1      17.906  11.271   9.432  1.00  0.00    -0.237 OA
ATOM     70  O   UNL     1      17.287  13.653   9.523  1.00  0.00    -0.237 OA
ATOM     71  O   UNL     1      16.015  12.123   8.088  1.00  0.00    -0.744 OA
ENDBRANCH  65  68
ENDBRANCH  38  61
ENDBRANCH  12  13
ENDBRANCH   5   7
ENDBRANCH   2   3
ENDBRANCH   1   2
BRANCH   1  72
ATOM     72  C   UNL     1      13.361   6.122  -8.977  1.00  0.00     0.002 C 
BRANCH  72  73
ATOM     73  C   UNL     1      13.483   4.636  -8.628  1.00  0.00     0.002 C 
BRANCH  73  74
ATOM     74  C   UNL     1      12.889   4.195  -7.288  1.00  0.00     0.021 C 
BRANCH  74  75
ATOM     75  C   UNL     1      11.464   4.652  -7.004  1.00  0.00     0.116 C 
BRANCH  75  76
ATOM     76  N   UNL     1      10.520   4.168  -7.982  1.00  0.00    -0.356 N 
ATOM     77  C   UNL     1       9.269   3.670  -7.829  1.00  0.00     0.227 C 
ATOM     78  H   UNL     1      10.836   4.207  -8.914  1.00  0.00     0.163 HD
ATOM     79  O   UNL     1       8.622   3.466  -8.864  1.00  0.00    -0.274 OA
BRANCH  77  80
ATOM     80  C   UNL     1       8.695   3.220  -6.483  1.00  0.00     0.107 C 
ATOM     81  C   UNL     1       8.976   3.929  -5.202  1.00  0.00    -0.012 C 
ATOM     82  C   UNL     1       9.124   1.776  -6.198  1.00  0.00     0.087 C 
ATOM     83  C   UNL     1       9.548   3.125  -4.295  1.00  0.00     0.033 C 
ATOM     84  C   UNL     1       9.822   1.745  -4.823  1.00  0.00     0.208 C 
BRANCH  84  85
ATOM     85  N   UNL     1       9.480   0.715  -3.837  1.00  0.00    -0.328 N 
ATOM     86  C   UNL     1       9.873  -0.649  -4.214  1.00  0.00     0.275 C 
ATOM     87  C   UNL     1       8.063   0.358  -3.788  1.00  0.00     0.275 C 
ATOM     88  H   UNL     1       9.909   1.145  -3.017  1.00  0.00     0.348 HD
ATOM     89  C   UNL     1       8.378  -1.052  -4.380  1.00  0.00     0.073 C 
ATOM     90  C   UNL     1       7.781  -2.124  -3.455  1.00  0.00     0.047 C 
ATOM     91  C   UNL     1       7.979  -1.328  -5.839  1.00  0.00     0.047 C 
ATOM     92  C   UNL     1       8.060  -3.520  -3.989  1.00  0.00     0.161 C 
ATOM     93  C   UNL     1       8.251  -2.779  -6.207  1.00  0.00     0.161 C 
ATOM     94  O   UNL     1       7.562  -3.654  -5.320  1.00  0.00    -0.381 OA
ENDBRANCH  84  85
ENDBRANCH  77  80
ENDBRANCH  75  76
ENDBRANCH  74  75
ENDBRANCH  73  74
ENDBRANCH  72  73
ENDBRANCH   1  72
TORSDOF 17
