REMARK SMILES CN(C)S(=O)(=O)c1c[nH]c(C(=O)NCCCCCCNC(=O)c2ccc(-c3c4nc(c(-c5cccc(S(=O)(=O)[O-])c5F)c5ccc([nH]5)c(-c5cccc(S(=O)(=O)[O-])c5F)c5nc(c(-c6cccc(S(=O)(=O)[O-])c6F)c6ccc3[nH]6)C=C5)C=C4)cc2)c1
REMARK SMILES IDX 17 1 16 2 15 3 14 4 13 5 11 6 12 7 10 9 7 10 8 11 86 12 9 13
REMARK SMILES IDX 4 15 5 16 6 17 2 18 1 19 3 20 18 21 19 22 20 23 21 24 22 26
REMARK SMILES IDX 23 27 24 28 85 29 25 30 84 31 26 32 27 33 28 34 78 35 29 36
REMARK SMILES IDX 83 37 77 38 79 39 30 40 82 41 76 42 75 43 31 45 63 46 43 47
REMARK SMILES IDX 62 48 44 49 47 50 61 51 80 52 45 53 46 54 60 56 81 57 48 58
REMARK SMILES IDX 32 59 33 60 41 61 34 62 36 63 42 64 35 65 37 66 38 67 39 68
REMARK SMILES IDX 40 69 64 70 65 71 73 72 66 73 68 74 74 75 67 76 69 77 70 78
REMARK SMILES IDX 71 79 72 80 49 81 50 82 58 83 51 84 53 85 59 86 52 87 54 88
REMARK SMILES IDX 55 89 56 90 57 91
REMARK H PARENT 13 8 9 14 20 25 79 44 47 55
REMARK Flexibility Score: inf
ROOT
ATOM      1  C   UNL     1       5.141  -8.627   0.170  1.00  0.00     0.002 C 
ENDROOT
BRANCH   1   2
ATOM      2  C   UNL     1       3.750  -8.372   0.768  1.00  0.00     0.002 C 
BRANCH   2   3
ATOM      3  C   UNL     1       3.127  -7.015   0.412  1.00  0.00     0.021 C 
BRANCH   3   4
ATOM      4  C   UNL     1       2.955  -6.799  -1.091  1.00  0.00     0.116 C 
BRANCH   4   5
ATOM      5  N   UNL     1       1.752  -7.446  -1.573  1.00  0.00    -0.351 N 
ATOM      6  C   UNL     1       0.570  -6.953  -2.050  1.00  0.00     0.267 C 
ATOM      7  O   UNL     1      -0.253  -7.786  -2.442  1.00  0.00    -0.268 OA
ATOM      8  H   UNL     1       1.795  -8.429  -1.554  1.00  0.00     0.163 HD
BRANCH   6   9
ATOM      9  C   UNL     1       0.292  -5.536  -2.165  1.00  0.00     0.105 A 
ATOM     10  C   UNL     1       0.196  -3.265  -2.275  1.00  0.00     0.100 A 
ATOM     11  C   UNL     1      -0.864  -3.767  -2.996  1.00  0.00     0.104 A 
ATOM     12  C   UNL     1       0.869  -4.370  -1.685  1.00  0.00     0.055 A 
ATOM     13  N   UNL     1      -0.815  -5.128  -2.893  1.00  0.00    -0.356 N 
ATOM     14  H   UNL     1      -1.480  -5.739  -3.284  1.00  0.00     0.166 HD
BRANCH  10  15
ATOM     15  S   UNL     1       0.660  -1.609  -2.076  1.00  0.00     0.244 S 
ATOM     16  O   UNL     1      -0.222  -0.873  -2.974  1.00  0.00    -0.207 OA
ATOM     17  O   UNL     1       2.084  -1.624  -2.271  1.00  0.00    -0.207 OA
BRANCH  15  18
ATOM     18  N   UNL     1       0.300  -1.161  -0.481  1.00  0.00    -0.204 NA
ATOM     19  C   UNL     1       0.985   0.069  -0.029  1.00  0.00     0.124 C 
ATOM     20  C   UNL     1      -1.133  -1.169  -0.133  1.00  0.00     0.124 C 
ENDBRANCH  15  18
ENDBRANCH  10  15
ENDBRANCH   6   9
ENDBRANCH   4   5
ENDBRANCH   3   4
ENDBRANCH   2   3
ENDBRANCH   1   2
BRANCH   1  21
ATOM     21  C   UNL     1       6.181  -7.531   0.448  1.00  0.00     0.021 C 
BRANCH  21  22
ATOM     22  C   UNL     1       6.640  -7.491   1.908  1.00  0.00     0.116 C 
BRANCH  22  23
ATOM     23  N   UNL     1       7.432  -8.676   2.206  1.00  0.00    -0.352 N 
ATOM     24  C   UNL     1       8.056  -9.075   3.354  1.00  0.00     0.251 C 
ATOM     25  H   UNL     1       7.535  -9.297   1.449  1.00  0.00     0.163 HD
ATOM     26  O   UNL     1       8.919  -9.950   3.272  1.00  0.00    -0.269 OA
BRANCH  24  27
ATOM     27  C   UNL     1       7.753  -8.477   4.671  1.00  0.00     0.039 A 
ATOM     28  C   UNL     1       8.830  -8.277   5.546  1.00  0.00     0.014 A 
ATOM     29  C   UNL     1       6.448  -8.203   5.091  1.00  0.00     0.014 A 
ATOM     30  C   UNL     1       8.613  -7.735   6.809  1.00  0.00     0.010 A 
ATOM     31  C   UNL     1       6.227  -7.657   6.355  1.00  0.00     0.010 A 
ATOM     32  C   UNL     1       7.313  -7.392   7.200  1.00  0.00    -0.014 A 
BRANCH  32  33
ATOM     33  C   UNL     1       7.132  -6.569   8.422  1.00  0.00     0.031 A 
ATOM     34  C   UNL     1       7.385  -5.056   8.148  1.00  0.00     0.074 A 
ATOM     35  C   UNL     1       6.816  -7.246   9.565  1.00  0.00     0.049 A 
ATOM     36  N   UNL     1       7.807  -4.091   8.923  1.00  0.00    -0.248 NA
ATOM     37  C   UNL     1       7.256  -4.582   6.740  1.00  0.00     0.031 C 
ATOM     38  C   UNL     1       6.602  -8.708   9.675  1.00  0.00     0.029 A 
ATOM     39  N   UNL     1       6.619  -6.852  10.867  1.00  0.00    -0.354 N 
ATOM     40  C   UNL     1       7.787  -2.897   8.151  1.00  0.00     0.074 A 
ATOM     41  C   UNL     1       7.583  -3.292   6.793  1.00  0.00     0.031 C 
ATOM     42  C   UNL     1       6.396  -9.073  10.961  1.00  0.00     0.029 A 
ATOM     43  C   UNL     1       6.435  -7.895  11.806  1.00  0.00     0.049 A 
ATOM     44  H   UNL     1       6.607  -5.903  11.130  1.00  0.00     0.167 HD
ATOM     45  C   UNL     1       7.767  -1.633   8.675  1.00  0.00     0.034 A 
ATOM     46  C   UNL     1       6.390  -7.815  13.173  1.00  0.00     0.034 A 
ATOM     47  C   UNL     1       7.740  -1.669  10.101  1.00  0.00     0.049 A 
ATOM     48  C   UNL     1       6.512  -6.381  13.465  1.00  0.00     0.074 A 
ATOM     49  C   UNL     1       8.601  -1.479  11.154  1.00  0.00     0.029 A 
ATOM     50  N   UNL     1       6.498  -1.937  10.607  1.00  0.00    -0.354 N 
ATOM     51  N   UNL     1       5.563  -5.511  13.317  1.00  0.00    -0.248 NA
ATOM     52  C   UNL     1       7.863  -5.861  13.659  1.00  0.00     0.031 C 
ATOM     53  C   UNL     1       7.849  -1.765  12.325  1.00  0.00     0.029 A 
ATOM     54  C   UNL     1       6.655  -2.338  11.900  1.00  0.00     0.049 A 
ATOM     55  H   UNL     1       5.644  -1.854  10.125  1.00  0.00     0.167 HD
ATOM     56  C   UNL     1       6.240  -4.331  13.117  1.00  0.00     0.074 A 
ATOM     57  C   UNL     1       7.633  -4.571  13.463  1.00  0.00     0.031 C 
ATOM     58  C   UNL     1       5.731  -3.322  12.370  1.00  0.00     0.034 A 
BRANCH  45  59
ATOM     59  C   UNL     1       7.422  -0.262   8.081  1.00  0.00     0.023 A 
ATOM     60  C   UNL     1       7.772   0.853   8.900  1.00  0.00     0.012 A 
ATOM     61  C   UNL     1       6.516  -0.004   7.032  1.00  0.00     0.148 A 
ATOM     62  C   UNL     1       7.142   2.093   8.810  1.00  0.00     0.002 A 
ATOM     63  C   UNL     1       5.940   1.270   6.897  1.00  0.00     0.091 A 
ATOM     64  F   UNL     1       6.141  -0.997   6.220  1.00  0.00    -0.205 F 
ATOM     65  C   UNL     1       6.209   2.296   7.814  1.00  0.00     0.022 A 
BRANCH  63  66
ATOM     66  S   UNL     1       4.821   1.709   5.557  1.00  0.00     0.127 S 
ATOM     67  O   UNL     1       3.521   1.702   6.221  1.00  0.00    -0.237 OA
ATOM     68  O   UNL     1       5.300   3.043   5.184  1.00  0.00    -0.237 OA
ATOM     69  O   UNL     1       5.030   0.700   4.527  1.00  0.00    -0.744 OA
ENDBRANCH  63  66
ENDBRANCH  45  59
BRANCH  46  70
ATOM     70  C   UNL     1       6.445  -8.782  14.328  1.00  0.00     0.023 A 
ATOM     71  C   UNL     1       5.994 -10.108  14.252  1.00  0.00     0.012 A 
ATOM     72  C   UNL     1       7.016  -8.383  15.576  1.00  0.00     0.148 A 
ATOM     73  C   UNL     1       6.188 -11.008  15.319  1.00  0.00     0.002 A 
ATOM     74  C   UNL     1       7.283  -9.292  16.596  1.00  0.00     0.091 A 
ATOM     75  F   UNL     1       7.297  -7.095  15.792  1.00  0.00    -0.205 F 
ATOM     76  C   UNL     1       6.864 -10.614  16.474  1.00  0.00     0.022 A 
BRANCH  74  77
ATOM     77  S   UNL     1       8.273  -8.850  18.040  1.00  0.00     0.127 S 
ATOM     78  O   UNL     1       7.406  -9.248  19.147  1.00  0.00    -0.237 OA
ATOM     79  O   UNL     1       9.454  -9.693  17.853  1.00  0.00    -0.237 OA
ATOM     80  O   UNL     1       8.528  -7.419  17.943  1.00  0.00    -0.744 OA
ENDBRANCH  74  77
ENDBRANCH  46  70
BRANCH  58  81
ATOM     81  C   UNL     1       4.357  -3.574  11.776  1.00  0.00     0.023 A 
ATOM     82  C   UNL     1       3.230  -3.320  12.564  1.00  0.00     0.012 A 
ATOM     83  C   UNL     1       4.158  -4.129  10.483  1.00  0.00     0.148 A 
ATOM     84  C   UNL     1       1.945  -3.591  12.081  1.00  0.00     0.002 A 
ATOM     85  C   UNL     1       2.879  -4.403  10.003  1.00  0.00     0.091 A 
ATOM     86  F   UNL     1       5.228  -4.358   9.720  1.00  0.00    -0.205 F 
ATOM     87  C   UNL     1       1.768  -4.127  10.805  1.00  0.00     0.022 A 
BRANCH  85  88
ATOM     88  S   UNL     1       2.554  -5.140   8.387  1.00  0.00     0.127 S 
ATOM     89  O   UNL     1       1.741  -6.308   8.732  1.00  0.00    -0.237 OA
ATOM     90  O   UNL     1       1.816  -4.078   7.707  1.00  0.00    -0.237 OA
ATOM     91  O   UNL     1       3.851  -5.464   7.805  1.00  0.00    -0.744 OA
ENDBRANCH  85  88
ENDBRANCH  58  81
ENDBRANCH  32  33
ENDBRANCH  24  27
ENDBRANCH  22  23
ENDBRANCH  21  22
ENDBRANCH   1  21
TORSDOF 18
