REMARK SMILES CCc1ccc(OCC(=O)Nc2cc(C)c(O)c(C(=O)NCCCCCCNC(=O)c3ccc(-c4c5nc(c(-c6cccc(S(=O)(=O)[O-])c6F)c6ccc([nH]6)c(-c6cccc(S(=O)(=O)[O-])c6F)c6nc(c(-c7cccc(S(=O)(=O)[O-])c7F)c7ccc4[nH]7)C=C6)C=C5)cc3)c2)cc1
REMARK SMILES IDX 23 1 22 2 21 3 19 4 20 5 18 7 12 8 13 9 94 10 14 11 15 12
REMARK SMILES IDX 16 13 11 14 9 15 10 16 8 18 7 19 6 20 3 21 4 22 96 23 5 24
REMARK SMILES IDX 95 25 2 26 1 27 17 28 24 30 25 31 26 32 27 33 28 34 29 35
REMARK SMILES IDX 30 37 31 38 32 39 93 40 33 41 92 42 34 43 35 44 36 45 86 46
REMARK SMILES IDX 37 47 91 48 85 49 87 50 38 51 90 52 84 53 83 54 39 56 71 57
REMARK SMILES IDX 51 58 70 59 52 60 55 61 69 62 88 63 53 64 54 65 68 67 89 68
REMARK SMILES IDX 56 69 40 70 41 71 49 72 42 73 44 74 50 75 43 76 45 77 46 78
REMARK SMILES IDX 47 79 48 80 72 81 73 82 81 83 74 84 76 85 82 86 75 87 77 88
REMARK SMILES IDX 78 89 79 90 80 91 57 92 58 93 66 94 59 95 61 96 67 97 60 98
REMARK SMILES IDX 62 99 63 100 64 101 65 102
REMARK H PARENT 21 6 11 17 17 29 28 36 87 55 55 66
REMARK Flexibility Score: inf
ROOT
ATOM      1  C   UNL     1       1.680  -3.801   4.807  1.00  0.00     0.021 C 
ENDROOT
BRANCH   1   2
ATOM      2  C   UNL     1       2.125  -2.943   5.999  1.00  0.00     0.116 C 
BRANCH   2   3
ATOM      3  N   UNL     1       2.899  -3.646   6.994  1.00  0.00    -0.352 N 
ATOM      4  C   UNL     1       4.064  -3.304   7.636  1.00  0.00     0.255 C 
ATOM      5  O   UNL     1       4.534  -4.149   8.408  1.00  0.00    -0.269 OA
ATOM      6  H   UNL     1       2.528  -4.520   7.256  1.00  0.00     0.163 HD
BRANCH   4   7
ATOM      7  C   UNL     1       4.854  -2.042   7.415  1.00  0.00     0.083 A 
ATOM      8  C   UNL     1       5.131   0.313   6.811  1.00  0.00     0.042 A 
ATOM      9  C   UNL     1       6.518   0.165   6.995  1.00  0.00     0.033 A 
ATOM     10  C   UNL     1       4.296  -0.782   7.074  1.00  0.00     0.043 A 
ATOM     11  C   UNL     1       7.096  -1.038   7.409  1.00  0.00    -0.006 A 
ATOM     12  C   UNL     1       8.580  -1.077   7.652  1.00  0.00     0.048 C 
ATOM     13  C   UNL     1       6.258  -2.137   7.603  1.00  0.00     0.131 A 
BRANCH   8  14
ATOM     14  N   UNL     1       4.767   1.572   6.300  1.00  0.00    -0.323 N 
ATOM     15  C   UNL     1       3.639   2.285   6.049  1.00  0.00     0.262 C 
ATOM     16  O   UNL     1       3.804   3.345   5.429  1.00  0.00    -0.271 OA
ATOM     17  H   UNL     1       5.566   2.089   6.051  1.00  0.00     0.170 HD
BRANCH  15  18
ATOM     18  C   UNL     1       2.256   1.914   6.560  1.00  0.00     0.329 C 
BRANCH  18  19
ATOM     19  O   UNL     1       1.539   0.886   5.921  1.00  0.00    -0.484 OA
BRANCH  19  20
ATOM     20  C   UNL     1       1.437   0.886   4.565  1.00  0.00     0.120 A 
ATOM     21  C   UNL     1       1.126   0.353   1.798  1.00  0.00    -0.048 A 
ATOM     22  C   UNL     1       1.226  -0.680   2.714  1.00  0.00     0.007 A 
ATOM     23  C   UNL     1       1.192   1.670   2.288  1.00  0.00     0.007 A 
ATOM     24  C   UNL     1       1.321  -0.395   4.062  1.00  0.00     0.047 A 
ATOM     25  C   UNL     1       1.370   1.939   3.670  1.00  0.00     0.047 A 
BRANCH  21  26
ATOM     26  C   UNL     1       0.809  -0.055   0.382  1.00  0.00     0.032 C 
ATOM     27  C   UNL     1       1.317   0.839  -0.725  1.00  0.00     0.009 C 
ENDBRANCH  21  26
ENDBRANCH  19  20
ENDBRANCH  18  19
ENDBRANCH  15  18
ENDBRANCH   8  14
BRANCH  13  28
ATOM     28  O   UNL     1       6.877  -3.307   7.981  1.00  0.00    -0.507 OA
ATOM     29  H   UNL     1       7.807  -3.329   8.095  1.00  0.00     0.293 HD
ENDBRANCH  13  28
ENDBRANCH   4   7
ENDBRANCH   2   3
ENDBRANCH   1   2
BRANCH   1  30
ATOM     30  C   UNL     1       0.183  -4.038   4.475  1.00  0.00     0.002 C 
BRANCH  30  31
ATOM     31  C   UNL     1      -0.981  -3.419   5.266  1.00  0.00     0.002 C 
BRANCH  31  32
ATOM     32  C   UNL     1      -1.569  -2.050   4.872  1.00  0.00     0.021 C 
BRANCH  32  33
ATOM     33  C   UNL     1      -1.902  -1.768   3.399  1.00  0.00     0.116 C 
BRANCH  33  34
ATOM     34  N   UNL     1      -3.039  -2.514   2.892  1.00  0.00    -0.352 N 
ATOM     35  C   UNL     1      -4.154  -2.096   2.201  1.00  0.00     0.251 C 
ATOM     36  H   UNL     1      -3.008  -3.482   3.073  1.00  0.00     0.163 HD
ATOM     37  O   UNL     1      -5.011  -2.931   1.911  1.00  0.00    -0.269 OA
BRANCH  35  38
ATOM     38  C   UNL     1      -4.379  -0.674   1.821  1.00  0.00     0.039 A 
ATOM     39  C   UNL     1      -5.662  -0.143   2.000  1.00  0.00     0.014 A 
ATOM     40  C   UNL     1      -3.395   0.123   1.230  1.00  0.00     0.014 A 
ATOM     41  C   UNL     1      -5.939   1.186   1.653  1.00  0.00     0.010 A 
ATOM     42  C   UNL     1      -3.659   1.468   0.923  1.00  0.00     0.010 A 
ATOM     43  C   UNL     1      -4.931   2.020   1.140  1.00  0.00    -0.014 A 
BRANCH  43  44
ATOM     44  C   UNL     1      -5.198   3.471   0.907  1.00  0.00     0.031 A 
ATOM     45  C   UNL     1      -5.175   4.070  -0.477  1.00  0.00     0.074 A 
ATOM     46  C   UNL     1      -5.424   4.277   1.966  1.00  0.00     0.049 A 
ATOM     47  N   UNL     1      -5.394   5.309  -0.843  1.00  0.00    -0.248 NA
ATOM     48  C   UNL     1      -4.857   3.166  -1.592  1.00  0.00     0.031 C 
ATOM     49  C   UNL     1      -5.414   3.847   3.366  1.00  0.00     0.029 A 
ATOM     50  N   UNL     1      -5.686   5.625   2.038  1.00  0.00    -0.354 N 
ATOM     51  C   UNL     1      -5.219   5.342  -2.222  1.00  0.00     0.074 A 
ATOM     52  C   UNL     1      -4.854   4.000  -2.625  1.00  0.00     0.031 C 
ATOM     53  C   UNL     1      -5.658   4.904   4.155  1.00  0.00     0.029 A 
ATOM     54  C   UNL     1      -5.810   6.096   3.325  1.00  0.00     0.049 A 
ATOM     55  H   UNL     1      -5.777   6.199   1.243  1.00  0.00     0.167 HD
ATOM     56  C   UNL     1      -5.369   6.385  -3.077  1.00  0.00     0.034 A 
ATOM     57  C   UNL     1      -6.008   7.345   3.794  1.00  0.00     0.034 A 
ATOM     58  C   UNL     1      -5.751   7.717  -2.682  1.00  0.00     0.049 A 
ATOM     59  C   UNL     1      -6.178   8.481   2.821  1.00  0.00     0.074 A 
ATOM     60  C   UNL     1      -6.000   8.815  -3.489  1.00  0.00     0.029 A 
ATOM     61  N   UNL     1      -5.923   8.142  -1.374  1.00  0.00    -0.354 N 
ATOM     62  N   UNL     1      -6.166   8.455   1.511  1.00  0.00    -0.248 NA
ATOM     63  C   UNL     1      -6.424   9.814   3.391  1.00  0.00     0.031 C 
ATOM     64  C   UNL     1      -6.286   9.911  -2.668  1.00  0.00     0.029 A 
ATOM     65  C   UNL     1      -6.256   9.488  -1.351  1.00  0.00     0.049 A 
ATOM     66  H   UNL     1      -5.824   7.572  -0.578  1.00  0.00     0.167 HD
ATOM     67  C   UNL     1      -6.435   9.756   1.101  1.00  0.00     0.074 A 
ATOM     68  C   UNL     1      -6.632  10.541   2.302  1.00  0.00     0.031 C 
ATOM     69  C   UNL     1      -6.497  10.257  -0.157  1.00  0.00     0.034 A 
BRANCH  56  70
ATOM     70  C   UNL     1      -5.161   6.128  -4.550  1.00  0.00     0.023 A 
ATOM     71  C   UNL     1      -6.119   5.383  -5.268  1.00  0.00     0.012 A 
ATOM     72  C   UNL     1      -4.073   6.699  -5.242  1.00  0.00     0.148 A 
ATOM     73  C   UNL     1      -5.982   5.182  -6.641  1.00  0.00     0.002 A 
ATOM     74  C   UNL     1      -3.967   6.532  -6.618  1.00  0.00     0.091 A 
ATOM     75  F   UNL     1      -3.166   7.396  -4.543  1.00  0.00    -0.205 F 
ATOM     76  C   UNL     1      -4.913   5.765  -7.317  1.00  0.00     0.022 A 
BRANCH  74  77
ATOM     77  S   UNL     1      -2.674   7.306  -7.598  1.00  0.00     0.127 S 
ATOM     78  O   UNL     1      -1.885   6.148  -8.012  1.00  0.00    -0.237 OA
ATOM     79  O   UNL     1      -3.438   7.939  -8.671  1.00  0.00    -0.237 OA
ATOM     80  O   UNL     1      -1.994   8.236  -6.704  1.00  0.00    -0.744 OA
ENDBRANCH  74  77
ENDBRANCH  56  70
BRANCH  57  81
ATOM     81  C   UNL     1      -6.096   7.586   5.263  1.00  0.00     0.023 A 
ATOM     82  C   UNL     1      -7.324   7.976   5.834  1.00  0.00     0.012 A 
ATOM     83  C   UNL     1      -4.973   7.421   6.097  1.00  0.00     0.148 A 
ATOM     84  C   UNL     1      -7.421   8.235   7.202  1.00  0.00     0.002 A 
ATOM     85  C   UNL     1      -5.092   7.621   7.467  1.00  0.00     0.091 A 
ATOM     86  F   UNL     1      -3.811   7.064   5.534  1.00  0.00    -0.205 F 
ATOM     87  C   UNL     1      -6.310   8.047   8.020  1.00  0.00     0.022 A 
BRANCH  85  88
ATOM     88  S   UNL     1      -3.751   7.273   8.610  1.00  0.00     0.127 S 
ATOM     89  O   UNL     1      -3.361   8.615   9.033  1.00  0.00    -0.237 OA
ATOM     90  O   UNL     1      -4.426   6.474   9.634  1.00  0.00    -0.237 OA
ATOM     91  O   UNL     1      -2.757   6.538   7.838  1.00  0.00    -0.744 OA
ENDBRANCH  85  88
ENDBRANCH  57  81
BRANCH  69  92
ATOM     92  C   UNL     1      -6.826  11.721  -0.313  1.00  0.00     0.023 A 
ATOM     93  C   UNL     1      -5.881  12.699   0.056  1.00  0.00     0.012 A 
ATOM     94  C   UNL     1      -8.051  12.127  -0.881  1.00  0.00     0.148 A 
ATOM     95  C   UNL     1      -6.163  14.056  -0.103  1.00  0.00     0.002 A 
ATOM     96  C   UNL     1      -8.305  13.478  -1.084  1.00  0.00     0.091 A 
ATOM     97  F   UNL     1      -8.946  11.184  -1.210  1.00  0.00    -0.205 F 
ATOM     98  C   UNL     1      -7.369  14.445  -0.682  1.00  0.00     0.022 A 
BRANCH  96  99
ATOM     99  S   UNL     1      -9.787  14.070  -1.909  1.00  0.00     0.127 S 
ATOM    100  O   UNL     1     -10.512  14.697  -0.805  1.00  0.00    -0.237 OA
ATOM    101  O   UNL     1      -9.241  15.008  -2.890  1.00  0.00    -0.237 OA
ATOM    102  O   UNL     1     -10.425  12.895  -2.485  1.00  0.00    -0.744 OA
ENDBRANCH  96  99
ENDBRANCH  69  92
ENDBRANCH  43  44
ENDBRANCH  35  38
ENDBRANCH  33  34
ENDBRANCH  32  33
ENDBRANCH  31  32
ENDBRANCH  30  31
ENDBRANCH   1  30
TORSDOF 22
