REMARK SMILES O=C(CCC(=O)/[NH+]=C1\S[C@H]2CS(=O)(=O)C[C@@H]2N1c1ccc(Oc2ccccc2)cc1)NCCCCCCNC(=O)c1ccc(-c2c3nc(c(-c4cccc(S(=O)(=O)[O-])c4F)c4ccc([nH]4)c(-c4cccc(S(=O)(=O)[O-])c4F)c4nc(c(-c5cccc(S(=O)(=O)[O-])c5F)c5ccc2[nH]5)C=C4)C=C3)cc1
REMARK SMILES IDX 33 1 32 2 31 3 2 4 1 5 3 7 4 8 5 9 6 10 7 11 8 12 9 14 17 15
REMARK SMILES IDX 10 16 16 17 11 18 15 19 12 20 13 21 14 22 18 23 19 24 30 25
REMARK SMILES IDX 20 26 29 27 21 28 22 29 23 30 24 31 28 32 25 33 27 34 26 35
REMARK SMILES IDX 34 36 35 37 36 38 37 39 38 40 39 41 40 43 41 44 42 45 103 46
REMARK SMILES IDX 43 47 102 48 44 49 45 50 46 51 96 52 47 53 101 54 95 55
REMARK SMILES IDX 97 56 48 57 100 58 94 59 93 60 49 62 81 63 61 64 80 65 62 66
REMARK SMILES IDX 65 67 79 68 98 69 63 70 64 71 78 73 99 74 66 75 50 76 51 77
REMARK SMILES IDX 59 78 52 79 54 80 60 81 53 82 55 83 56 84 57 85 58 86 82 87
REMARK SMILES IDX 83 88 91 89 84 90 86 91 92 92 85 93 87 94 88 95 89 96 90 97
REMARK SMILES IDX 67 98 68 99 76 100 69 101 71 102 77 103 70 104 72 105 73 106
REMARK SMILES IDX 74 107 75 108
REMARK H PARENT 31 6 7 13 38 42 97 61 65 72
REMARK Flexibility Score: inf
ROOT
ATOM      1  C   UNL     1       1.881   2.123   1.062  1.00  0.00     0.021 C 
ENDROOT
BRANCH   1   2
ATOM      2  C   UNL     1       2.280   2.455  -0.373  1.00  0.00     0.116 C 
BRANCH   2   3
ATOM      3  N   UNL     1       3.711   2.316  -0.607  1.00  0.00    -0.356 N 
ATOM      4  C   UNL     1       4.415   1.292  -1.149  1.00  0.00     0.220 C 
ATOM      5  O   UNL     1       5.647   1.345  -1.155  1.00  0.00    -0.275 OA
ATOM      6  H   UNL     1       4.253   3.088  -0.326  1.00  0.00     0.163 HD
BRANCH   4   7
ATOM      7  C   UNL     1       3.684   0.136  -1.770  1.00  0.00     0.112 C 
BRANCH   7   8
ATOM      8  C   UNL     1       3.374  -1.082  -0.915  1.00  0.00     0.138 C 
BRANCH   8   9
ATOM      9  C   UNL     1       3.257  -1.079   0.612  1.00  0.00     0.308 C 
ATOM     10  O   UNL     1       2.491  -1.890   1.133  1.00  0.00    -0.247 OA
ATOM     11  N   UNL     1       3.965  -0.198   1.388  1.00  0.00    -0.204 N 
ATOM     12  C   UNL     1       5.243  -0.264   1.521  1.00  0.00     0.319 C 
ATOM     13  H   UNL     1       3.476   0.514   1.861  1.00  0.00     0.316 HD
ATOM     14  S   UNL     1       6.253  -1.427   0.605  1.00  0.00    -0.029 SA
ATOM     15  N   UNL     1       6.066   0.596   2.264  1.00  0.00    -0.217 N 
ATOM     16  C   UNL     1       7.756  -0.684   1.235  1.00  0.00     0.120 C 
ATOM     17  C   UNL     1       7.365   0.751   1.617  1.00  0.00     0.212 C 
ATOM     18  C   UNL     1       8.955  -0.521   0.342  1.00  0.00     0.156 C 
ATOM     19  C   UNL     1       8.586   1.253   2.357  1.00  0.00     0.188 C 
ATOM     20  S   UNL     1       9.931   0.623   1.328  1.00  0.00     0.155 S 
ATOM     21  O   UNL     1      10.821  -0.154   2.171  1.00  0.00    -0.229 OA
ATOM     22  O   UNL     1      10.412   1.683   0.474  1.00  0.00    -0.229 OA
BRANCH  15  23
ATOM     23  C   UNL     1       5.679   1.365   3.369  1.00  0.00     0.128 A 
ATOM     24  C   UNL     1       6.081   2.700   3.543  1.00  0.00     0.056 A 
ATOM     25  C   UNL     1       4.865   0.826   4.379  1.00  0.00     0.056 A 
ATOM     26  C   UNL     1       5.753   3.431   4.698  1.00  0.00     0.051 A 
ATOM     27  C   UNL     1       4.521   1.558   5.533  1.00  0.00     0.051 A 
ATOM     28  C   UNL     1       5.000   2.854   5.721  1.00  0.00     0.127 A 
BRANCH  28  29
ATOM     29  O   UNL     1       4.770   3.669   6.812  1.00  0.00    -0.457 OA
BRANCH  29  30
ATOM     30  C   UNL     1       4.151   3.165   7.931  1.00  0.00     0.127 A 
ATOM     31  C   UNL     1       3.026   3.838   8.401  1.00  0.00     0.047 A 
ATOM     32  C   UNL     1       4.644   2.080   8.652  1.00  0.00     0.047 A 
ATOM     33  C   UNL     1       2.292   3.345   9.478  1.00  0.00     0.004 A 
ATOM     34  C   UNL     1       3.926   1.594   9.749  1.00  0.00     0.004 A 
ATOM     35  C   UNL     1       2.734   2.206  10.142  1.00  0.00     0.000 A 
ENDBRANCH  29  30
ENDBRANCH  28  29
ENDBRANCH  15  23
ENDBRANCH   8   9
ENDBRANCH   7   8
ENDBRANCH   4   7
ENDBRANCH   2   3
ENDBRANCH   1   2
BRANCH   1  36
ATOM     36  C   UNL     1       2.804   2.753   2.108  1.00  0.00     0.002 C 
BRANCH  36  37
ATOM     37  C   UNL     1       2.587   4.247   2.319  1.00  0.00     0.002 C 
BRANCH  37  38
ATOM     38  C   UNL     1       1.173   4.586   2.778  1.00  0.00     0.021 C 
BRANCH  38  39
ATOM     39  C   UNL     1       0.754   3.818   4.026  1.00  0.00     0.116 C 
BRANCH  39  40
ATOM     40  N   UNL     1       1.481   4.325   5.179  1.00  0.00    -0.352 N 
ATOM     41  C   UNL     1       0.962   5.219   6.082  1.00  0.00     0.251 C 
ATOM     42  H   UNL     1       2.402   4.006   5.322  1.00  0.00     0.163 HD
ATOM     43  O   UNL     1       1.647   6.131   6.532  1.00  0.00    -0.269 OA
BRANCH  41  44
ATOM     44  C   UNL     1      -0.450   5.058   6.485  1.00  0.00     0.039 A 
ATOM     45  C   UNL     1      -1.177   6.196   6.825  1.00  0.00     0.014 A 
ATOM     46  C   UNL     1      -1.068   3.802   6.442  1.00  0.00     0.014 A 
ATOM     47  C   UNL     1      -2.552   6.095   6.992  1.00  0.00     0.010 A 
ATOM     48  C   UNL     1      -2.450   3.724   6.488  1.00  0.00     0.010 A 
ATOM     49  C   UNL     1      -3.205   4.875   6.743  1.00  0.00    -0.014 A 
BRANCH  49  50
ATOM     50  C   UNL     1      -4.681   4.824   6.661  1.00  0.00     0.031 A 
ATOM     51  C   UNL     1      -5.467   3.943   7.585  1.00  0.00     0.074 A 
ATOM     52  C   UNL     1      -5.297   5.528   5.689  1.00  0.00     0.049 A 
ATOM     53  N   UNL     1      -6.762   3.792   7.665  1.00  0.00    -0.248 NA
ATOM     54  C   UNL     1      -4.705   3.101   8.523  1.00  0.00     0.031 C 
ATOM     55  C   UNL     1      -4.617   6.327   4.663  1.00  0.00     0.029 A 
ATOM     56  N   UNL     1      -6.626   5.679   5.394  1.00  0.00    -0.354 N 
ATOM     57  C   UNL     1      -6.969   2.827   8.641  1.00  0.00     0.074 A 
ATOM     58  C   UNL     1      -5.666   2.388   9.089  1.00  0.00     0.031 C 
ATOM     59  C   UNL     1      -5.534   6.906   3.874  1.00  0.00     0.029 A 
ATOM     60  C   UNL     1      -6.862   6.491   4.309  1.00  0.00     0.049 A 
ATOM     61  H   UNL     1      -7.345   5.247   5.910  1.00  0.00     0.167 HD
ATOM     62  C   UNL     1      -8.140   2.373   9.142  1.00  0.00     0.034 A 
ATOM     63  C   UNL     1      -8.020   6.857   3.728  1.00  0.00     0.034 A 
ATOM     64  C   UNL     1      -9.427   2.832   8.697  1.00  0.00     0.049 A 
ATOM     65  C   UNL     1      -9.307   6.369   4.330  1.00  0.00     0.074 A 
ATOM     66  C   UNL     1     -10.676   2.499   9.188  1.00  0.00     0.029 A 
ATOM     67  N   UNL     1      -9.631   3.712   7.644  1.00  0.00    -0.354 N 
ATOM     68  N   UNL     1      -9.488   5.586   5.366  1.00  0.00    -0.248 NA
ATOM     69  C   UNL     1     -10.551   6.842   3.709  1.00  0.00     0.031 C 
ATOM     70  C   UNL     1     -11.637   3.150   8.407  1.00  0.00     0.029 A 
ATOM     71  C   UNL     1     -10.986   3.924   7.460  1.00  0.00     0.049 A 
ATOM     72  H   UNL     1      -8.916   4.125   7.108  1.00  0.00     0.167 HD
ATOM     73  C   UNL     1     -10.862   5.498   5.543  1.00  0.00     0.074 A 
ATOM     74  C   UNL     1     -11.466   6.328   4.520  1.00  0.00     0.031 C 
ATOM     75  C   UNL     1     -11.563   4.787   6.460  1.00  0.00     0.034 A 
BRANCH  62  76
ATOM     76  C   UNL     1      -8.075   1.361  10.256  1.00  0.00     0.023 A 
ATOM     77  C   UNL     1      -7.593   1.749  11.524  1.00  0.00     0.012 A 
ATOM     78  C   UNL     1      -8.524   0.041  10.064  1.00  0.00     0.148 A 
ATOM     79  C   UNL     1      -7.519   0.830  12.570  1.00  0.00     0.002 A 
ATOM     80  C   UNL     1      -8.495  -0.856  11.125  1.00  0.00     0.091 A 
ATOM     81  F   UNL     1      -8.958  -0.316   8.847  1.00  0.00    -0.205 F 
ATOM     82  C   UNL     1      -7.979  -0.468  12.373  1.00  0.00     0.022 A 
BRANCH  80  83
ATOM     83  S   UNL     1      -9.139  -2.527  11.000  1.00  0.00     0.127 S 
ATOM     84  O   UNL     1      -7.916  -3.323  11.100  1.00  0.00    -0.237 OA
ATOM     85  O   UNL     1     -10.014  -2.605  12.169  1.00  0.00    -0.237 OA
ATOM     86  O   UNL     1      -9.826  -2.600   9.718  1.00  0.00    -0.744 OA
ENDBRANCH  80  83
ENDBRANCH  62  76
BRANCH  63  87
ATOM     87  C   UNL     1      -8.009   7.771   2.552  1.00  0.00     0.023 A 
ATOM     88  C   UNL     1      -8.496   9.086   2.684  1.00  0.00     0.012 A 
ATOM     89  C   UNL     1      -7.490   7.353   1.311  1.00  0.00     0.148 A 
ATOM     90  C   UNL     1      -8.501   9.956   1.592  1.00  0.00     0.002 A 
ATOM     91  C   UNL     1      -7.444   8.242   0.244  1.00  0.00     0.091 A 
ATOM     92  F   UNL     1      -7.034   6.097   1.205  1.00  0.00    -0.205 F 
ATOM     93  C   UNL     1      -7.967   9.538   0.376  1.00  0.00     0.022 A 
BRANCH  91  94
ATOM     94  S   UNL     1      -6.655   7.833  -1.317  1.00  0.00     0.127 S 
ATOM     95  O   UNL     1      -7.799   7.768  -2.222  1.00  0.00    -0.237 OA
ATOM     96  O   UNL     1      -5.773   8.983  -1.518  1.00  0.00    -0.237 OA
ATOM     97  O   UNL     1      -5.957   6.575  -1.089  1.00  0.00    -0.744 OA
ENDBRANCH  91  94
ENDBRANCH  63  87
BRANCH  75  98
ATOM     98  C   UNL     1     -13.064   4.903   6.428  1.00  0.00     0.023 A 
ATOM     99  C   UNL     1     -13.796   4.309   5.381  1.00  0.00     0.012 A 
ATOM    100  C   UNL     1     -13.750   5.541   7.480  1.00  0.00     0.148 A 
ATOM    101  C   UNL     1     -15.188   4.381   5.363  1.00  0.00     0.002 A 
ATOM    102  C   UNL     1     -15.138   5.559   7.484  1.00  0.00     0.091 A 
ATOM    103  F   UNL     1     -13.032   6.114   8.457  1.00  0.00    -0.205 F 
ATOM    104  C   UNL     1     -15.858   4.994   6.420  1.00  0.00     0.022 A 
BRANCH 102 105
ATOM    105  S   UNL     1     -16.087   6.234   8.851  1.00  0.00     0.127 S 
ATOM    106  O   UNL     1     -16.663   7.435   8.249  1.00  0.00    -0.237 OA
ATOM    107  O   UNL     1     -17.048   5.163   9.116  1.00  0.00    -0.237 OA
ATOM    108  O   UNL     1     -15.134   6.472   9.926  1.00  0.00    -0.744 OA
ENDBRANCH 102 105
ENDBRANCH  75  98
ENDBRANCH  49  50
ENDBRANCH  41  44
ENDBRANCH  39  40
ENDBRANCH  38  39
ENDBRANCH  37  38
ENDBRANCH  36  37
ENDBRANCH   1  36
TORSDOF 21
