REMARK SMILES COc1ccc(-n2c(SCc3cn(-c4ccc(C(=O)NCCCCCCNC(=O)c5ccc(-c6c7nc(c(-c8cccc(S(=O)(=O)[O-])c8F)c8ccc([nH]8)c(-c8cccc(S(=O)(=O)[O-])c8F)c8nc(c(-c9cccc(S(=O)(=O)[O-])c9F)c9ccc6[nH]9)C=C8)C=C7)cc5)cc4)nn3)nc3ccccc3c2=O)cc1
REMARK SMILES IDX 22 1 21 2 20 3 18 4 19 5 17 7 14 8 15 9 94 10 16 11 93 12
REMARK SMILES IDX 13 13 11 14 12 15 96 16 95 17 10 18 9 19 8 20 7 21 104 22
REMARK SMILES IDX 97 23 103 24 105 25 98 26 102 27 99 28 101 29 100 30 6 31
REMARK SMILES IDX 3 32 4 33 107 34 5 35 106 36 2 37 1 38 23 39 24 40 25 41
REMARK SMILES IDX 26 42 27 43 28 44 29 46 30 47 31 48 92 49 32 50 91 51 33 52
REMARK SMILES IDX 34 53 35 54 85 55 36 56 90 57 84 58 86 59 37 60 89 61 83 62
REMARK SMILES IDX 82 63 38 65 70 66 50 67 69 68 51 69 54 70 68 71 87 72 52 73
REMARK SMILES IDX 53 74 67 76 88 77 55 78 39 79 40 80 48 81 41 82 43 83 49 84
REMARK SMILES IDX 42 85 44 86 45 87 46 88 47 89 71 90 72 91 80 92 73 93 75 94
REMARK SMILES IDX 81 95 74 96 76 97 77 98 78 99 79 100 56 101 57 102 65 103
REMARK SMILES IDX 58 104 60 105 66 106 59 107 61 108 62 109 63 110 64 111
REMARK H PARENT 20 6 27 45 86 64 54 75
REMARK Flexibility Score: inf
ROOT
ATOM      1  C   UNL     1      -0.992  -0.398   6.703  1.00  0.00     0.021 C 
ENDROOT
BRANCH   1   2
ATOM      2  C   UNL     1      -1.591  -0.781   5.346  1.00  0.00     0.116 C 
BRANCH   2   3
ATOM      3  N   UNL     1      -2.802  -0.023   5.089  1.00  0.00    -0.352 N 
ATOM      4  C   UNL     1      -3.029   1.102   4.335  1.00  0.00     0.251 C 
ATOM      5  O   UNL     1      -4.184   1.511   4.231  1.00  0.00    -0.269 OA
ATOM      6  H   UNL     1      -3.604  -0.378   5.535  1.00  0.00     0.163 HD
BRANCH   4   7
ATOM      7  C   UNL     1      -1.942   1.770   3.577  1.00  0.00     0.039 A 
ATOM      8  C   UNL     1       0.037   2.829   1.968  1.00  0.00     0.066 A 
ATOM      9  C   UNL     1      -1.297   3.065   1.634  1.00  0.00     0.029 A 
ATOM     10  C   UNL     1       0.398   2.145   3.120  1.00  0.00     0.029 A 
ATOM     11  C   UNL     1      -2.289   2.495   2.426  1.00  0.00     0.016 A 
ATOM     12  C   UNL     1      -0.601   1.699   3.959  1.00  0.00     0.016 A 
BRANCH   8  13
ATOM     13  N   UNL     1       1.065   3.352   1.194  1.00  0.00    -0.220 N 
ATOM     14  C   UNL     1       2.997   3.801   0.359  1.00  0.00     0.093 A 
ATOM     15  C   UNL     1       2.308   2.812   1.004  1.00  0.00     0.141 A 
ATOM     16  N   UNL     1       2.163   4.874   0.184  1.00  0.00    -0.134 NA
ATOM     17  N   UNL     1       0.954   4.538   0.583  1.00  0.00    -0.062 NA
BRANCH  14  18
ATOM     18  C   UNL     1       4.371   3.757  -0.160  1.00  0.00     0.138 C 
BRANCH  18  19
ATOM     19  S   UNL     1       4.937   5.287  -0.873  1.00  0.00    -0.081 SA
BRANCH  19  20
ATOM     20  C   UNL     1       3.491   5.908  -1.778  1.00  0.00     0.176 A 
ATOM     21  N   UNL     1       3.284   5.233  -2.967  1.00  0.00    -0.255 N 
ATOM     22  C   UNL     1       3.901   5.782  -4.085  1.00  0.00     0.266 A 
ATOM     23  N   UNL     1       3.360   7.203  -1.781  1.00  0.00    -0.223 NA
ATOM     24  C   UNL     1       4.718   7.007  -3.773  1.00  0.00     0.066 A 
ATOM     25  O   UNL     1       3.867   5.342  -5.229  1.00  0.00    -0.268 OA
ATOM     26  C   UNL     1       4.341   7.742  -2.630  1.00  0.00     0.079 A 
ATOM     27  C   UNL     1       5.956   7.229  -4.365  1.00  0.00     0.016 A 
ATOM     28  C   UNL     1       5.154   8.759  -2.135  1.00  0.00     0.029 A 
ATOM     29  C   UNL     1       6.810   8.186  -3.804  1.00  0.00     0.001 A 
ATOM     30  C   UNL     1       6.404   8.962  -2.710  1.00  0.00     0.002 A 
BRANCH  21  31
ATOM     31  C   UNL     1       2.436   4.095  -3.005  1.00  0.00     0.052 A 
ATOM     32  C   UNL     1       0.929   1.803  -2.402  1.00  0.00     0.119 A 
ATOM     33  C   UNL     1       0.321   3.055  -2.378  1.00  0.00     0.048 A 
ATOM     34  C   UNL     1       2.245   1.682  -2.848  1.00  0.00     0.048 A 
ATOM     35  C   UNL     1       1.082   4.202  -2.649  1.00  0.00     0.030 A 
ATOM     36  C   UNL     1       2.990   2.824  -3.177  1.00  0.00     0.030 A 
BRANCH  32  37
ATOM     37  O   UNL     1       0.181   0.712  -2.048  1.00  0.00    -0.497 OA
ATOM     38  C   UNL     1       0.700   0.028  -0.903  1.00  0.00     0.278 C 
ENDBRANCH  32  37
ENDBRANCH  21  31
ENDBRANCH  19  20
ENDBRANCH  18  19
ENDBRANCH  14  18
ENDBRANCH   8  13
ENDBRANCH   4   7
ENDBRANCH   2   3
ENDBRANCH   1   2
BRANCH   1  39
ATOM     39  C   UNL     1      -1.701  -1.073   7.878  1.00  0.00     0.002 C 
BRANCH  39  40
ATOM     40  C   UNL     1      -1.728  -2.606   7.814  1.00  0.00     0.002 C 
BRANCH  40  41
ATOM     41  C   UNL     1      -0.368  -3.284   7.590  1.00  0.00     0.021 C 
BRANCH  41  42
ATOM     42  C   UNL     1       0.568  -3.138   8.780  1.00  0.00     0.116 C 
BRANCH  42  43
ATOM     43  N   UNL     1       0.054  -3.859   9.942  1.00  0.00    -0.352 N 
ATOM     44  C   UNL     1       0.566  -3.922  11.220  1.00  0.00     0.251 C 
ATOM     45  H   UNL     1      -0.774  -4.370   9.791  1.00  0.00     0.163 HD
ATOM     46  O   UNL     1       0.248  -4.828  11.971  1.00  0.00    -0.269 OA
BRANCH  44  47
ATOM     47  C   UNL     1       1.500  -2.873  11.660  1.00  0.00     0.039 A 
ATOM     48  C   UNL     1       2.610  -3.197  12.443  1.00  0.00     0.014 A 
ATOM     49  C   UNL     1       1.254  -1.556  11.273  1.00  0.00     0.014 A 
ATOM     50  C   UNL     1       3.511  -2.192  12.775  1.00  0.00     0.010 A 
ATOM     51  C   UNL     1       2.212  -0.597  11.477  1.00  0.00     0.010 A 
ATOM     52  C   UNL     1       3.314  -0.896  12.271  1.00  0.00    -0.014 A 
BRANCH  52  53
ATOM     53  C   UNL     1       4.342   0.121  12.444  1.00  0.00     0.031 A 
ATOM     54  C   UNL     1       5.677  -0.286  11.929  1.00  0.00     0.074 A 
ATOM     55  C   UNL     1       4.065   1.387  12.824  1.00  0.00     0.049 A 
ATOM     56  N   UNL     1       6.743  -0.520  12.619  1.00  0.00    -0.248 NA
ATOM     57  C   UNL     1       5.801  -0.645  10.506  1.00  0.00     0.031 C 
ATOM     58  C   UNL     1       2.746   1.992  13.045  1.00  0.00     0.029 A 
ATOM     59  N   UNL     1       4.902   2.456  12.931  1.00  0.00    -0.354 N 
ATOM     60  C   UNL     1       7.739  -0.782  11.683  1.00  0.00     0.074 A 
ATOM     61  C   UNL     1       7.060  -1.084  10.452  1.00  0.00     0.031 C 
ATOM     62  C   UNL     1       2.853   3.336  12.973  1.00  0.00     0.029 A 
ATOM     63  C   UNL     1       4.255   3.689  12.861  1.00  0.00     0.049 A 
ATOM     64  H   UNL     1       5.876   2.366  13.048  1.00  0.00     0.167 HD
ATOM     65  C   UNL     1       9.032  -0.426  11.924  1.00  0.00     0.034 A 
ATOM     66  C   UNL     1       4.833   4.898  12.646  1.00  0.00     0.034 A 
ATOM     67  C   UNL     1       9.247  -0.153  13.325  1.00  0.00     0.049 A 
ATOM     68  C   UNL     1       6.266   4.761  12.998  1.00  0.00     0.074 A 
ATOM     69  C   UNL     1       8.998  -0.842  14.498  1.00  0.00     0.029 A 
ATOM     70  N   UNL     1       9.406   1.162  13.694  1.00  0.00    -0.354 N 
ATOM     71  N   UNL     1       6.688   4.542  14.212  1.00  0.00    -0.248 NA
ATOM     72  C   UNL     1       7.192   4.405  11.935  1.00  0.00     0.031 C 
ATOM     73  C   UNL     1       8.503   0.147  15.399  1.00  0.00     0.029 A 
ATOM     74  C   UNL     1       8.575   1.385  14.759  1.00  0.00     0.049 A 
ATOM     75  H   UNL     1      10.005   1.819  13.272  1.00  0.00     0.167 HD
ATOM     76  C   UNL     1       7.689   3.594  14.054  1.00  0.00     0.074 A 
ATOM     77  C   UNL     1       8.027   3.628  12.631  1.00  0.00     0.031 C 
ATOM     78  C   UNL     1       7.933   2.654  15.015  1.00  0.00     0.034 A 
BRANCH  65  79
ATOM     79  C   UNL     1       9.997   0.077  10.869  1.00  0.00     0.023 A 
ATOM     80  C   UNL     1      11.332   0.303  11.274  1.00  0.00     0.012 A 
ATOM     81  C   UNL     1       9.616   0.605   9.613  1.00  0.00     0.148 A 
ATOM     82  C   UNL     1      12.212   1.077  10.510  1.00  0.00     0.002 A 
ATOM     83  C   UNL     1      10.520   1.296   8.816  1.00  0.00     0.091 A 
ATOM     84  F   UNL     1       8.340   0.572   9.224  1.00  0.00    -0.205 F 
ATOM     85  C   UNL     1      11.809   1.569   9.276  1.00  0.00     0.022 A 
BRANCH  83  86
ATOM     86  S   UNL     1      10.062   1.901   7.185  1.00  0.00     0.127 S 
ATOM     87  O   UNL     1       9.973   3.338   7.421  1.00  0.00    -0.237 OA
ATOM     88  O   UNL     1      11.203   1.471   6.377  1.00  0.00    -0.237 OA
ATOM     89  O   UNL     1       8.812   1.228   6.852  1.00  0.00    -0.744 OA
ENDBRANCH  83  86
ENDBRANCH  65  79
BRANCH  66  90
ATOM     90  C   UNL     1       4.316   6.083  11.914  1.00  0.00     0.023 A 
ATOM     91  C   UNL     1       4.982   7.321  12.038  1.00  0.00     0.012 A 
ATOM     92  C   UNL     1       3.360   5.951  10.882  1.00  0.00     0.148 A 
ATOM     93  C   UNL     1       4.738   8.370  11.141  1.00  0.00     0.002 A 
ATOM     94  C   UNL     1       3.113   7.000   9.999  1.00  0.00     0.091 A 
ATOM     95  F   UNL     1       2.764   4.768  10.696  1.00  0.00    -0.205 F 
ATOM     96  C   UNL     1       3.810   8.207  10.117  1.00  0.00     0.022 A 
BRANCH  94  97
ATOM     97  S   UNL     1       1.948   6.833   8.639  1.00  0.00     0.127 S 
ATOM     98  O   UNL     1       1.230   8.106   8.693  1.00  0.00    -0.237 OA
ATOM     99  O   UNL     1       2.841   6.677   7.495  1.00  0.00    -0.237 OA
ATOM    100  O   UNL     1       1.128   5.671   8.963  1.00  0.00    -0.744 OA
ENDBRANCH  94  97
ENDBRANCH  66  90
BRANCH  78 101
ATOM    101  C   UNL     1       7.284   2.805  16.368  1.00  0.00     0.023 A 
ATOM    102  C   UNL     1       5.885   2.812  16.549  1.00  0.00     0.012 A 
ATOM    103  C   UNL     1       8.113   2.738  17.501  1.00  0.00     0.148 A 
ATOM    104  C   UNL     1       5.329   2.769  17.831  1.00  0.00     0.002 A 
ATOM    105  C   UNL     1       7.557   2.643  18.770  1.00  0.00     0.091 A 
ATOM    106  F   UNL     1       9.442   2.733  17.313  1.00  0.00    -0.205 F 
ATOM    107  C   UNL     1       6.165   2.668  18.941  1.00  0.00     0.022 A 
BRANCH 105 108
ATOM    108  S   UNL     1       8.581   2.378  20.218  1.00  0.00     0.127 S 
ATOM    109  O   UNL     1       8.562   3.695  20.851  1.00  0.00    -0.237 OA
ATOM    110  O   UNL     1       7.843   1.340  20.940  1.00  0.00    -0.237 OA
ATOM    111  O   UNL     1       9.879   1.941  19.717  1.00  0.00    -0.744 OA
ENDBRANCH 105 108
ENDBRANCH  78 101
ENDBRANCH  52  53
ENDBRANCH  44  47
ENDBRANCH  42  43
ENDBRANCH  41  42
ENDBRANCH  40  41
ENDBRANCH  39  40
ENDBRANCH   1  39
TORSDOF 22
