REMARK SMILES O=C(NCCCCCCNC(=O)[C@@H]1[C@@H](C(=O)Nc2ccc(F)c(F)c2)[C@H]2C=C[C@@H]1O2)c1ccc(-c2c3nc(c(-c4cccc(S(=O)(=O)[O-])c4F)c4ccc([nH]4)c(-c4cccc(S(=O)(=O)[O-])c4F)c4nc(c(-c5cccc(S(=O)(=O)[O-])c5F)c5ccc2[nH]5)C=C4)C=C3)cc1
REMARK SMILES IDX 6 1 5 2 4 3 3 4 1 5 2 6 31 8 32 9 93 10 33 11 92 12 34 13
REMARK SMILES IDX 35 14 36 15 86 16 37 17 91 18 85 19 87 20 38 21 90 22 84 23
REMARK SMILES IDX 83 24 39 26 71 27 51 28 70 29 52 30 55 31 69 32 88 33 53 34
REMARK SMILES IDX 54 35 68 37 89 38 56 39 40 40 41 41 49 42 42 43 44 44 50 45
REMARK SMILES IDX 43 46 45 47 46 48 47 49 48 50 72 51 73 52 81 53 74 54 76 55
REMARK SMILES IDX 82 56 75 57 77 58 78 59 79 60 80 61 57 62 58 63 66 64 59 65
REMARK SMILES IDX 61 66 67 67 60 68 62 69 63 70 64 71 65 72 7 73 8 74 9 75
REMARK SMILES IDX 10 76 11 77 12 79 13 80 14 81 29 82 26 83 28 84 30 85 27 86
REMARK SMILES IDX 15 87 16 88 17 89 18 91 19 92 25 93 20 94 23 95 21 96 24 97
REMARK SMILES IDX 22 98
REMARK H PARENT 3 7 87 25 55 36 10 78 17 90
REMARK Flexibility Score: inf
ROOT
ATOM      1  C   UNL     1       3.905  -3.422  -1.595  1.00  0.00     0.002 C 
ENDROOT
BRANCH   1   2
ATOM      2  C   UNL     1       4.361  -2.575  -0.406  1.00  0.00     0.021 C 
BRANCH   2   3
ATOM      3  C   UNL     1       4.281  -1.070  -0.633  1.00  0.00     0.116 C 
BRANCH   3   4
ATOM      4  N   UNL     1       2.910  -0.609  -0.775  1.00  0.00    -0.352 N 
ATOM      5  O   UNL     1       1.018   0.452  -0.167  1.00  0.00    -0.269 OA
ATOM      6  C   UNL     1       2.228   0.333  -0.037  1.00  0.00     0.251 C 
ATOM      7  H   UNL     1       2.395  -1.030  -1.501  1.00  0.00     0.163 HD
BRANCH   6   8
ATOM      8  C   UNL     1       2.970   1.177   0.928  1.00  0.00     0.039 A 
ATOM      9  C   UNL     1       4.190   1.755   0.572  1.00  0.00     0.014 A 
ATOM     10  C   UNL     1       2.442   1.383   2.205  1.00  0.00     0.014 A 
ATOM     11  C   UNL     1       4.955   2.401   1.537  1.00  0.00     0.010 A 
ATOM     12  C   UNL     1       3.173   2.112   3.148  1.00  0.00     0.010 A 
ATOM     13  C   UNL     1       4.455   2.590   2.837  1.00  0.00    -0.014 A 
BRANCH  13  14
ATOM     14  C   UNL     1       5.280   3.328   3.829  1.00  0.00     0.031 A 
ATOM     15  C   UNL     1       5.780   2.660   5.083  1.00  0.00     0.074 A 
ATOM     16  C   UNL     1       5.598   4.614   3.579  1.00  0.00     0.049 A 
ATOM     17  N   UNL     1       6.564   3.143   6.013  1.00  0.00    -0.248 NA
ATOM     18  C   UNL     1       5.338   1.279   5.335  1.00  0.00     0.031 C 
ATOM     19  C   UNL     1       5.132   5.384   2.423  1.00  0.00     0.029 A 
ATOM     20  N   UNL     1       6.390   5.496   4.267  1.00  0.00    -0.354 N 
ATOM     21  C   UNL     1       6.673   2.150   6.979  1.00  0.00     0.074 A 
ATOM     22  C   UNL     1       5.869   1.036   6.526  1.00  0.00     0.031 C 
ATOM     23  C   UNL     1       5.678   6.608   2.460  1.00  0.00     0.029 A 
ATOM     24  C   UNL     1       6.494   6.727   3.663  1.00  0.00     0.049 A 
ATOM     25  H   UNL     1       6.841   5.270   5.112  1.00  0.00     0.167 HD
ATOM     26  C   UNL     1       7.390   2.159   8.129  1.00  0.00     0.034 A 
ATOM     27  C   UNL     1       7.170   7.832   4.032  1.00  0.00     0.034 A 
ATOM     28  C   UNL     1       8.228   3.251   8.550  1.00  0.00     0.049 A 
ATOM     29  C   UNL     1       7.999   7.791   5.284  1.00  0.00     0.074 A 
ATOM     30  C   UNL     1       9.051   3.325   9.662  1.00  0.00     0.029 A 
ATOM     31  N   UNL     1       8.351   4.460   7.883  1.00  0.00    -0.354 N 
ATOM     32  N   UNL     1       8.198   6.792   6.109  1.00  0.00    -0.248 NA
ATOM     33  C   UNL     1       8.723   9.019   5.638  1.00  0.00     0.031 C 
ATOM     34  C   UNL     1       9.659   4.585   9.674  1.00  0.00     0.029 A 
ATOM     35  C   UNL     1       9.230   5.289   8.560  1.00  0.00     0.049 A 
ATOM     36  H   UNL     1       7.881   4.695   7.050  1.00  0.00     0.167 HD
ATOM     37  C   UNL     1       9.093   7.260   7.063  1.00  0.00     0.074 A 
ATOM     38  C   UNL     1       9.418   8.624   6.697  1.00  0.00     0.031 C 
ATOM     39  C   UNL     1       9.588   6.623   8.153  1.00  0.00     0.034 A 
BRANCH  26  40
ATOM     40  C   UNL     1       7.335   0.932   9.004  1.00  0.00     0.023 A 
ATOM     41  C   UNL     1       8.020  -0.235   8.611  1.00  0.00     0.012 A 
ATOM     42  C   UNL     1       6.670   0.957  10.246  1.00  0.00     0.148 A 
ATOM     43  C   UNL     1       8.019  -1.368   9.424  1.00  0.00     0.002 A 
ATOM     44  C   UNL     1       6.707  -0.163  11.070  1.00  0.00     0.091 A 
ATOM     45  F   UNL     1       6.006   2.068  10.595  1.00  0.00    -0.205 F 
ATOM     46  C   UNL     1       7.372  -1.329  10.657  1.00  0.00     0.022 A 
BRANCH  44  47
ATOM     47  S   UNL     1       5.969  -0.181  12.709  1.00  0.00     0.127 S 
ATOM     48  O   UNL     1       4.775  -0.994  12.485  1.00  0.00    -0.237 OA
ATOM     49  O   UNL     1       7.007  -0.832  13.510  1.00  0.00    -0.237 OA
ATOM     50  O   UNL     1       5.727   1.213  13.052  1.00  0.00    -0.744 OA
ENDBRANCH  44  47
ENDBRANCH  26  40
BRANCH  27  51
ATOM     51  C   UNL     1       7.144   9.040   3.162  1.00  0.00     0.023 A 
ATOM     52  C   UNL     1       8.308   9.414   2.464  1.00  0.00     0.012 A 
ATOM     53  C   UNL     1       5.965   9.789   2.983  1.00  0.00     0.148 A 
ATOM     54  C   UNL     1       8.305  10.527   1.622  1.00  0.00     0.002 A 
ATOM     55  C   UNL     1       5.953  10.861   2.099  1.00  0.00     0.091 A 
ATOM     56  F   UNL     1       4.871   9.427   3.670  1.00  0.00    -0.205 F 
ATOM     57  C   UNL     1       7.126  11.242   1.430  1.00  0.00     0.022 A 
BRANCH  55  58
ATOM     58  S   UNL     1       4.443  11.741   1.685  1.00  0.00     0.127 S 
ATOM     59  O   UNL     1       4.617  12.992   2.417  1.00  0.00    -0.237 OA
ATOM     60  O   UNL     1       4.547  11.858   0.230  1.00  0.00    -0.237 OA
ATOM     61  O   UNL     1       3.357  10.883   2.138  1.00  0.00    -0.744 OA
ENDBRANCH  55  58
ENDBRANCH  27  51
BRANCH  39  62
ATOM     62  C   UNL     1      10.563   7.382   9.014  1.00  0.00     0.023 A 
ATOM     63  C   UNL     1      10.101   8.426   9.840  1.00  0.00     0.012 A 
ATOM     64  C   UNL     1      11.924   7.024   9.046  1.00  0.00     0.148 A 
ATOM     65  C   UNL     1      10.987   9.125  10.659  1.00  0.00     0.002 A 
ATOM     66  C   UNL     1      12.793   7.694   9.900  1.00  0.00     0.091 A 
ATOM     67  F   UNL     1      12.350   6.044   8.235  1.00  0.00    -0.205 F 
ATOM     68  C   UNL     1      12.329   8.752  10.698  1.00  0.00     0.022 A 
BRANCH  66  69
ATOM     69  S   UNL     1      14.514   7.212  10.076  1.00  0.00     0.127 S 
ATOM     70  O   UNL     1      15.191   8.218   9.260  1.00  0.00    -0.237 OA
ATOM     71  O   UNL     1      14.733   7.347  11.517  1.00  0.00    -0.237 OA
ATOM     72  O   UNL     1      14.593   5.843   9.584  1.00  0.00    -0.744 OA
ENDBRANCH  66  69
ENDBRANCH  39  62
ENDBRANCH  13  14
ENDBRANCH   6   8
ENDBRANCH   3   4
ENDBRANCH   2   3
ENDBRANCH   1   2
BRANCH   1  73
ATOM     73  C   UNL     1       4.669  -3.179  -2.904  1.00  0.00     0.002 C 
BRANCH  73  74
ATOM     74  C   UNL     1       6.198  -3.216  -2.787  1.00  0.00     0.021 C 
BRANCH  74  75
ATOM     75  C   UNL     1       6.740  -4.556  -2.294  1.00  0.00     0.116 C 
BRANCH  75  76
ATOM     76  N   UNL     1       6.784  -5.520  -3.378  1.00  0.00    -0.356 N 
ATOM     77  C   UNL     1       7.761  -5.997  -4.180  1.00  0.00     0.227 C 
ATOM     78  H   UNL     1       5.904  -5.916  -3.572  1.00  0.00     0.163 HD
ATOM     79  O   UNL     1       7.372  -6.752  -5.083  1.00  0.00    -0.275 OA
BRANCH  77  80
ATOM     80  C   UNL     1       9.261  -5.806  -4.006  1.00  0.00     0.127 C 
ATOM     81  C   UNL     1       9.822  -7.113  -3.357  1.00  0.00     0.127 C 
ATOM     82  C   UNL     1       9.803  -4.739  -3.061  1.00  0.00     0.155 C 
ATOM     83  C   UNL     1      10.588  -6.548  -2.147  1.00  0.00     0.155 C 
ATOM     84  C   UNL     1      11.301  -4.648  -3.157  1.00  0.00     0.004 C 
ATOM     85  O   UNL     1       9.717  -5.446  -1.790  1.00  0.00    -0.365 OA
ATOM     86  C   UNL     1      11.785  -5.752  -2.573  1.00  0.00     0.004 C 
BRANCH  81  87
ATOM     87  C   UNL     1      10.741  -7.914  -4.267  1.00  0.00     0.231 C 
ATOM     88  O   UNL     1      11.042  -7.543  -5.402  1.00  0.00    -0.274 OA
ATOM     89  N   UNL     1      11.367  -9.030  -3.769  1.00  0.00    -0.326 N 
ATOM     90  H   UNL     1      12.132  -9.354  -4.297  1.00  0.00     0.169 HD
BRANCH  89  91
ATOM     91  C   UNL     1      11.076  -9.775  -2.620  1.00  0.00     0.044 A 
ATOM     92  C   UNL     1       9.763 -10.069  -2.233  1.00  0.00     0.029 A 
ATOM     93  C   UNL     1      12.145 -10.266  -1.869  1.00  0.00     0.068 A 
ATOM     94  C   UNL     1       9.516 -10.782  -1.058  1.00  0.00     0.044 A 
ATOM     95  C   UNL     1      11.890 -10.960  -0.689  1.00  0.00     0.160 A 
ATOM     96  C   UNL     1      10.586 -11.210  -0.281  1.00  0.00     0.158 A 
ATOM     97  F   UNL     1      12.921 -11.375   0.060  1.00  0.00    -0.204 F 
ATOM     98  F   UNL     1      10.347 -11.879   0.854  1.00  0.00    -0.204 F 
ENDBRANCH  89  91
ENDBRANCH  81  87
ENDBRANCH  77  80
ENDBRANCH  75  76
ENDBRANCH  74  75
ENDBRANCH  73  74
ENDBRANCH   1  73
TORSDOF 18
