REMARK SMILES CCSC(=S)N1[C@@H](C(=O)NCCCCCCNC(=O)c2ccc(-c3c4nc(c(-c5cccc(S(=O)(=O)[O-])c5F)c5ccc([nH]5)c(-c5cccc(S(=O)(=O)[O-])c5F)c5nc(c(-c6cccc(S(=O)(=O)[O-])c6F)c6ccc3[nH]6)C=C5)C=C4)cc2)CS[C@@H]1c1ccc(C)cc1
REMARK SMILES IDX 13 1 12 2 11 3 10 4 8 5 9 6 7 8 6 9 85 10 83 11 84 12 4 13
REMARK SMILES IDX 5 14 3 15 2 16 1 17 86 18 87 19 92 20 88 21 91 22 89 23
REMARK SMILES IDX 90 24 14 25 15 26 16 27 17 28 18 29 19 31 20 32 21 33 82 34
REMARK SMILES IDX 22 35 81 36 23 37 24 38 25 39 75 40 26 41 80 42 74 43 76 44
REMARK SMILES IDX 27 45 79 46 73 47 72 48 28 50 60 51 40 52 59 53 41 54 44 55
REMARK SMILES IDX 58 56 77 57 42 58 43 59 57 61 78 62 45 63 29 64 30 65 38 66
REMARK SMILES IDX 31 67 33 68 39 69 32 70 34 71 35 72 36 73 37 74 61 75 62 76
REMARK SMILES IDX 70 77 63 78 65 79 71 80 64 81 66 82 67 83 68 84 69 85 46 86
REMARK SMILES IDX 47 87 55 88 48 89 50 90 56 91 49 92 51 93 52 94 53 95 54 96
REMARK H PARENT 10 7 17 30 76 49 44 60
REMARK Flexibility Score: inf
ROOT
ATOM      1  C   UNL     1       0.635   1.921  -4.836  1.00  0.00     0.002 C 
ENDROOT
BRANCH   1   2
ATOM      2  C   UNL     1       1.181   3.145  -4.099  1.00  0.00     0.021 C 
BRANCH   2   3
ATOM      3  C   UNL     1       1.966   2.814  -2.839  1.00  0.00     0.116 C 
BRANCH   3   4
ATOM      4  N   UNL     1       3.231   2.176  -3.127  1.00  0.00    -0.354 N 
ATOM      5  C   UNL     1       4.455   2.349  -2.559  1.00  0.00     0.243 C 
ATOM      6  O   UNL     1       5.395   1.719  -3.059  1.00  0.00    -0.273 OA
ATOM      7  H   UNL     1       3.203   1.510  -3.852  1.00  0.00     0.163 HD
BRANCH   5   8
ATOM      8  C   UNL     1       4.739   3.423  -1.488  1.00  0.00     0.184 C 
ATOM      9  N   UNL     1       3.679   3.662  -0.478  1.00  0.00    -0.328 N 
ATOM     10  C   UNL     1       3.417   5.096  -0.242  1.00  0.00     0.173 C 
ATOM     11  C   UNL     1       5.078   4.723  -2.236  1.00  0.00     0.107 C 
ATOM     12  S   UNL     1       3.741   5.874  -1.874  1.00  0.00    -0.130 SA
BRANCH   9  13
ATOM     13  C   UNL     1       3.192   2.644   0.358  1.00  0.00     0.138 C 
ATOM     14  S   UNL     1       4.114   1.316   0.826  1.00  0.00    -0.053 S 
BRANCH  13  15
ATOM     15  S   UNL     1       1.504   2.881   0.820  1.00  0.00    -0.097 SA
BRANCH  15  16
ATOM     16  C   UNL     1       0.825   1.239   1.218  1.00  0.00     0.074 C 
ATOM     17  C   UNL     1       0.808   0.227   0.081  1.00  0.00     0.016 C 
ENDBRANCH  15  16
ENDBRANCH  13  15
ENDBRANCH   9  13
BRANCH  10  18
ATOM     18  C   UNL     1       4.350   5.734   0.796  1.00  0.00    -0.015 A 
ATOM     19  C   UNL     1       4.270   7.117   1.047  1.00  0.00     0.007 A 
ATOM     20  C   UNL     1       5.338   5.012   1.484  1.00  0.00     0.007 A 
ATOM     21  C   UNL     1       5.180   7.753   1.897  1.00  0.00     0.004 A 
ATOM     22  C   UNL     1       6.238   5.642   2.345  1.00  0.00     0.004 A 
ATOM     23  C   UNL     1       6.178   7.020   2.545  1.00  0.00    -0.051 A 
ATOM     24  C   UNL     1       7.175   7.705   3.429  1.00  0.00     0.044 C 
ENDBRANCH  10  18
ENDBRANCH   5   8
ENDBRANCH   3   4
ENDBRANCH   2   3
ENDBRANCH   1   2
BRANCH   1  25
ATOM     25  C   UNL     1      -0.193   0.961  -3.976  1.00  0.00     0.002 C 
BRANCH  25  26
ATOM     26  C   UNL     1      -1.340   1.606  -3.193  1.00  0.00     0.021 C 
BRANCH  26  27
ATOM     27  C   UNL     1      -2.320   2.408  -4.040  1.00  0.00     0.116 C 
BRANCH  27  28
ATOM     28  N   UNL     1      -2.912   1.604  -5.097  1.00  0.00    -0.352 N 
ATOM     29  C   UNL     1      -4.232   1.438  -5.420  1.00  0.00     0.251 C 
ATOM     30  H   UNL     1      -2.273   1.109  -5.660  1.00  0.00     0.163 HD
ATOM     31  O   UNL     1      -4.563   0.565  -6.221  1.00  0.00    -0.269 OA
BRANCH  29  32
ATOM     32  C   UNL     1      -5.254   2.298  -4.792  1.00  0.00     0.039 A 
ATOM     33  C   UNL     1      -6.429   1.713  -4.316  1.00  0.00     0.014 A 
ATOM     34  C   UNL     1      -5.053   3.677  -4.674  1.00  0.00     0.014 A 
ATOM     35  C   UNL     1      -7.383   2.507  -3.678  1.00  0.00     0.010 A 
ATOM     36  C   UNL     1      -5.967   4.450  -3.968  1.00  0.00     0.010 A 
ATOM     37  C   UNL     1      -7.148   3.877  -3.474  1.00  0.00    -0.014 A 
BRANCH  37  38
ATOM     38  C   UNL     1      -8.122   4.721  -2.738  1.00  0.00     0.031 A 
ATOM     39  C   UNL     1      -8.794   5.878  -3.423  1.00  0.00     0.074 A 
ATOM     40  C   UNL     1      -8.336   4.495  -1.427  1.00  0.00     0.049 A 
ATOM     41  N   UNL     1      -9.639   6.747  -2.932  1.00  0.00    -0.248 NA
ATOM     42  C   UNL     1      -8.452   6.107  -4.836  1.00  0.00     0.031 C 
ATOM     43  C   UNL     1      -7.679   3.456  -0.631  1.00  0.00     0.029 A 
ATOM     44  N   UNL     1      -9.144   5.142  -0.527  1.00  0.00    -0.354 N 
ATOM     45  C   UNL     1      -9.898   7.647  -3.959  1.00  0.00     0.074 A 
ATOM     46  C   UNL     1      -9.094   7.238  -5.090  1.00  0.00     0.031 C 
ATOM     47  C   UNL     1      -8.113   3.534   0.636  1.00  0.00     0.029 A 
ATOM     48  C   UNL     1      -9.050   4.647   0.752  1.00  0.00     0.049 A 
ATOM     49  H   UNL     1      -9.735   5.890  -0.774  1.00  0.00     0.167 HD
ATOM     50  C   UNL     1     -10.746   8.703  -3.969  1.00  0.00     0.034 A 
ATOM     51  C   UNL     1      -9.641   5.050   1.894  1.00  0.00     0.034 A 
ATOM     52  C   UNL     1     -11.565   9.085  -2.851  1.00  0.00     0.049 A 
ATOM     53  C   UNL     1     -10.607   6.201   1.850  1.00  0.00     0.074 A 
ATOM     54  C   UNL     1     -12.529  10.076  -2.790  1.00  0.00     0.029 A 
ATOM     55  N   UNL     1     -11.503   8.510  -1.591  1.00  0.00    -0.354 N 
ATOM     56  N   UNL     1     -10.966   6.937   0.827  1.00  0.00    -0.248 NA
ATOM     57  C   UNL     1     -11.279   6.553   3.109  1.00  0.00     0.031 C 
ATOM     58  C   UNL     1     -13.020  10.127  -1.481  1.00  0.00     0.029 A 
ATOM     59  C   UNL     1     -12.396   9.137  -0.738  1.00  0.00     0.049 A 
ATOM     60  H   UNL     1     -10.912   7.764  -1.339  1.00  0.00     0.167 HD
ATOM     61  C   UNL     1     -11.929   7.817   1.308  1.00  0.00     0.074 A 
ATOM     62  C   UNL     1     -12.110   7.508   2.712  1.00  0.00     0.031 C 
ATOM     63  C   UNL     1     -12.596   8.796   0.648  1.00  0.00     0.034 A 
BRANCH  50  64
ATOM     64  C   UNL     1     -10.850   9.502  -5.244  1.00  0.00     0.023 A 
ATOM     65  C   UNL     1     -11.437   8.925  -6.390  1.00  0.00     0.012 A 
ATOM     66  C   UNL     1     -10.399  10.835  -5.299  1.00  0.00     0.148 A 
ATOM     67  C   UNL     1     -11.529   9.643  -7.581  1.00  0.00     0.002 A 
ATOM     68  C   UNL     1     -10.541  11.562  -6.475  1.00  0.00     0.091 A 
ATOM     69  F   UNL     1      -9.824  11.362  -4.209  1.00  0.00    -0.205 F 
ATOM     70  C   UNL     1     -11.091  10.964  -7.621  1.00  0.00     0.022 A 
BRANCH  68  71
ATOM     71  S   UNL     1     -10.085  13.294  -6.602  1.00  0.00     0.127 S 
ATOM     72  O   UNL     1      -8.887  13.224  -7.437  1.00  0.00    -0.237 OA
ATOM     73  O   UNL     1     -11.255  13.873  -7.263  1.00  0.00    -0.237 OA
ATOM     74  O   UNL     1      -9.871  13.754  -5.237  1.00  0.00    -0.744 OA
ENDBRANCH  68  71
ENDBRANCH  50  64
BRANCH  51  75
ATOM     75  C   UNL     1      -9.368   4.317   3.161  1.00  0.00     0.023 A 
ATOM     76  C   UNL     1     -10.373   3.509   3.728  1.00  0.00     0.012 A 
ATOM     77  C   UNL     1      -8.102   4.373   3.775  1.00  0.00     0.148 A 
ATOM     78  C   UNL     1     -10.129   2.790   4.898  1.00  0.00     0.002 A 
ATOM     79  C   UNL     1      -7.848   3.609   4.907  1.00  0.00     0.091 A 
ATOM     80  F   UNL     1      -7.162   5.152   3.220  1.00  0.00    -0.205 F 
ATOM     81  C   UNL     1      -8.865   2.831   5.481  1.00  0.00     0.022 A 
BRANCH  79  82
ATOM     82  S   UNL     1      -6.215   3.491   5.646  1.00  0.00     0.127 S 
ATOM     83  O   UNL     1      -6.429   4.121   6.947  1.00  0.00    -0.237 OA
ATOM     84  O   UNL     1      -6.011   2.042   5.688  1.00  0.00    -0.237 OA
ATOM     85  O   UNL     1      -5.318   4.199   4.743  1.00  0.00    -0.744 OA
ENDBRANCH  79  82
ENDBRANCH  51  75
BRANCH  63  86
ATOM     86  C   UNL     1     -13.618   9.590   1.421  1.00  0.00     0.023 A 
ATOM     87  C   UNL     1     -13.202  10.515   2.399  1.00  0.00     0.012 A 
ATOM     88  C   UNL     1     -14.989   9.471   1.121  1.00  0.00     0.148 A 
ATOM     89  C   UNL     1     -14.139  11.284   3.091  1.00  0.00     0.002 A 
ATOM     90  C   UNL     1     -15.912  10.278   1.775  1.00  0.00     0.091 A 
ATOM     91  F   UNL     1     -15.366   8.572   0.199  1.00  0.00    -0.205 F 
ATOM     92  C   UNL     1     -15.490  11.175   2.770  1.00  0.00     0.022 A 
BRANCH  90  93
ATOM     93  S   UNL     1     -17.659  10.279   1.357  1.00  0.00     0.127 S 
ATOM     94  O   UNL     1     -18.247   9.650   2.539  1.00  0.00    -0.237 OA
ATOM     95  O   UNL     1     -17.943  11.708   1.221  1.00  0.00    -0.237 OA
ATOM     96  O   UNL     1     -17.779   9.518   0.121  1.00  0.00    -0.744 OA
ENDBRANCH  90  93
ENDBRANCH  63  86
ENDBRANCH  37  38
ENDBRANCH  29  32
ENDBRANCH  27  28
ENDBRANCH  26  27
ENDBRANCH  25  26
ENDBRANCH   1  25
TORSDOF 20
