REMARK SMILES C=C(C)C(=O)OCC[C@@H](C(C)=O)C(=O)NCCCCCCNC(=O)c1ccc(-c2c3nc(c(-c4cccc(S(=O)(=O)[O-])c4F)c4ccc([nH]4)c(-c4cccc(S(=O)(=O)[O-])c4F)c4nc(c(-c5cccc(S(=O)(=O)[O-])c5F)c5ccc2[nH]5)C=C4)C=C3)cc1
REMARK SMILES IDX 17 1 16 2 15 3 13 4 14 5 9 7 8 8 7 9 6 10 4 11 5 12 2 13
REMARK SMILES IDX 1 14 3 15 10 16 11 17 12 18 18 19 19 20 20 21 21 22 22 23
REMARK SMILES IDX 23 24 24 26 25 27 26 28 87 29 27 30 86 31 28 32 29 33 30 34
REMARK SMILES IDX 80 35 31 36 85 37 79 38 81 39 32 40 84 41 78 42 77 43 33 45
REMARK SMILES IDX 65 46 45 47 64 48 46 49 49 50 63 51 82 52 47 53 48 54 62 56
REMARK SMILES IDX 83 57 50 58 34 59 35 60 43 61 36 62 38 63 44 64 37 65 39 66
REMARK SMILES IDX 40 67 41 68 42 69 66 70 67 71 75 72 68 73 70 74 76 75 69 76
REMARK SMILES IDX 71 77 72 78 73 79 74 80 51 81 52 82 60 83 53 84 55 85 61 86
REMARK SMILES IDX 54 87 56 88 57 89 58 90 59 91
REMARK H PARENT 15 6 22 25 81 44 49 55
REMARK Flexibility Score: inf
ROOT
ATOM      1  C   UNL     1       4.267   0.631   8.038  1.00  0.00     0.021 C 
ENDROOT
BRANCH   1   2
ATOM      2  C   UNL     1       4.616   0.909   6.584  1.00  0.00     0.116 C 
BRANCH   2   3
ATOM      3  N   UNL     1       4.476  -0.292   5.779  1.00  0.00    -0.355 N 
ATOM      4  C   UNL     1       3.837  -0.471   4.592  1.00  0.00     0.230 C 
ATOM      5  O   UNL     1       3.845  -1.597   4.088  1.00  0.00    -0.274 OA
ATOM      6  H   UNL     1       4.908  -1.096   6.147  1.00  0.00     0.163 HD
BRANCH   4   7
ATOM      7  C   UNL     1       3.125   0.683   3.916  1.00  0.00     0.148 C 
BRANCH   7   8
ATOM      8  C   UNL     1       1.819   0.986   4.680  1.00  0.00     0.063 C 
BRANCH   8   9
ATOM      9  C   UNL     1       0.841   1.917   3.965  1.00  0.00     0.234 C 
BRANCH   9  10
ATOM     10  O   UNL     1       0.193   1.238   2.882  1.00  0.00    -0.462 OA
BRANCH  10  11
ATOM     11  C   UNL     1       0.768   1.367   1.664  1.00  0.00     0.333 C 
ATOM     12  O   UNL     1       1.793   1.976   1.400  1.00  0.00    -0.247 OA
BRANCH  11  13
ATOM     13  C   UNL     1       0.000   0.561   0.684  1.00  0.00     0.027 C 
ATOM     14  C   UNL     1       0.688  -0.014  -0.315  1.00  0.00     0.020 C 
ATOM     15  C   UNL     1      -1.480   0.461   0.855  1.00  0.00     0.051 C 
ENDBRANCH  11  13
ENDBRANCH  10  11
ENDBRANCH   9  10
ENDBRANCH   8   9
ENDBRANCH   7   8
BRANCH   7  16
ATOM     16  C   UNL     1       4.041   1.887   3.728  1.00  0.00     0.142 C 
ATOM     17  C   UNL     1       5.409   1.657   3.129  1.00  0.00     0.088 C 
ATOM     18  O   UNL     1       3.691   3.028   4.037  1.00  0.00    -0.299 OA
ENDBRANCH   7  16
ENDBRANCH   4   7
ENDBRANCH   2   3
ENDBRANCH   1   2
BRANCH   1  19
ATOM     19  C   UNL     1       5.282  -0.268   8.746  1.00  0.00     0.002 C 
BRANCH  19  20
ATOM     20  C   UNL     1       6.729   0.234   8.682  1.00  0.00     0.002 C 
BRANCH  20  21
ATOM     21  C   UNL     1       6.932   1.673   9.165  1.00  0.00     0.021 C 
BRANCH  21  22
ATOM     22  C   UNL     1       6.419   1.942  10.574  1.00  0.00     0.116 C 
BRANCH  22  23
ATOM     23  N   UNL     1       7.056   1.078  11.554  1.00  0.00    -0.352 N 
ATOM     24  C   UNL     1       7.627   1.410  12.755  1.00  0.00     0.251 C 
ATOM     25  H   UNL     1       7.082   0.121  11.323  1.00  0.00     0.163 HD
ATOM     26  O   UNL     1       8.300   0.584  13.364  1.00  0.00    -0.269 OA
BRANCH  24  27
ATOM     27  C   UNL     1       7.438   2.770  13.300  1.00  0.00     0.039 A 
ATOM     28  C   UNL     1       8.538   3.434  13.843  1.00  0.00     0.014 A 
ATOM     29  C   UNL     1       6.182   3.384  13.277  1.00  0.00     0.014 A 
ATOM     30  C   UNL     1       8.385   4.733  14.330  1.00  0.00     0.010 A 
ATOM     31  C   UNL     1       6.050   4.707  13.688  1.00  0.00     0.010 A 
ATOM     32  C   UNL     1       7.146   5.389  14.233  1.00  0.00    -0.014 A 
BRANCH  32  33
ATOM     33  C   UNL     1       6.996   6.793  14.692  1.00  0.00     0.031 A 
ATOM     34  C   UNL     1       6.065   7.134  15.823  1.00  0.00     0.074 A 
ATOM     35  C   UNL     1       7.660   7.771  14.045  1.00  0.00     0.049 A 
ATOM     36  N   UNL     1       5.830   8.298  16.371  1.00  0.00    -0.248 NA
ATOM     37  C   UNL     1       5.275   6.033  16.398  1.00  0.00     0.031 C 
ATOM     38  C   UNL     1       8.515   7.577  12.872  1.00  0.00     0.029 A 
ATOM     39  N   UNL     1       7.707   9.123  14.271  1.00  0.00    -0.354 N 
ATOM     40  C   UNL     1       4.846   8.078  17.328  1.00  0.00     0.074 A 
ATOM     41  C   UNL     1       4.499   6.675  17.259  1.00  0.00     0.031 C 
ATOM     42  C   UNL     1       9.016   8.763  12.493  1.00  0.00     0.029 A 
ATOM     43  C   UNL     1       8.499   9.803  13.376  1.00  0.00     0.049 A 
ATOM     44  H   UNL     1       7.221   9.564  15.005  1.00  0.00     0.167 HD
ATOM     45  C   UNL     1       4.303   8.955  18.205  1.00  0.00     0.034 A 
ATOM     46  C   UNL     1       8.780  11.117  13.279  1.00  0.00     0.034 A 
ATOM     47  C   UNL     1       4.679  10.340  18.290  1.00  0.00     0.049 A 
ATOM     48  C   UNL     1       8.211  12.062  14.301  1.00  0.00     0.074 A 
ATOM     49  C   UNL     1       4.262  11.290  19.206  1.00  0.00     0.029 A 
ATOM     50  N   UNL     1       5.551  10.979  17.421  1.00  0.00    -0.354 N 
ATOM     51  N   UNL     1       7.416  11.802  15.311  1.00  0.00    -0.248 NA
ATOM     52  C   UNL     1       8.611  13.472  14.198  1.00  0.00     0.031 C 
ATOM     53  C   UNL     1       4.856  12.511  18.869  1.00  0.00     0.029 A 
ATOM     54  C   UNL     1       5.675  12.313  17.769  1.00  0.00     0.049 A 
ATOM     55  H   UNL     1       6.013  10.547  16.667  1.00  0.00     0.167 HD
ATOM     56  C   UNL     1       7.251  13.006  15.986  1.00  0.00     0.074 A 
ATOM     57  C   UNL     1       8.044  13.991  15.279  1.00  0.00     0.031 C 
ATOM     58  C   UNL     1       6.504  13.273  17.086  1.00  0.00     0.034 A 
BRANCH  45  59
ATOM     59  C   UNL     1       3.274   8.430  19.174  1.00  0.00     0.023 A 
ATOM     60  C   UNL     1       3.668   7.552  20.205  1.00  0.00     0.012 A 
ATOM     61  C   UNL     1       1.930   8.844  19.099  1.00  0.00     0.148 A 
ATOM     62  C   UNL     1       2.736   7.061  21.118  1.00  0.00     0.002 A 
ATOM     63  C   UNL     1       1.016   8.390  20.043  1.00  0.00     0.091 A 
ATOM     64  F   UNL     1       1.567   9.663  18.101  1.00  0.00    -0.205 F 
ATOM     65  C   UNL     1       1.414   7.488  21.043  1.00  0.00     0.022 A 
BRANCH  63  66
ATOM     66  S   UNL     1      -0.692   8.947  20.083  1.00  0.00     0.127 S 
ATOM     67  O   UNL     1      -1.402   7.750  19.633  1.00  0.00    -0.237 OA
ATOM     68  O   UNL     1      -0.877   9.270  21.498  1.00  0.00    -0.237 OA
ATOM     69  O   UNL     1      -0.762  10.091  19.185  1.00  0.00    -0.744 OA
ENDBRANCH  63  66
ENDBRANCH  45  59
BRANCH  46  70
ATOM     70  C   UNL     1       9.705  11.598  12.214  1.00  0.00     0.023 A 
ATOM     71  C   UNL     1      10.993  12.048  12.564  1.00  0.00     0.012 A 
ATOM     72  C   UNL     1       9.332  11.566  10.857  1.00  0.00     0.148 A 
ATOM     73  C   UNL     1      11.883  12.488  11.583  1.00  0.00     0.002 A 
ATOM     74  C   UNL     1      10.243  11.951   9.881  1.00  0.00     0.091 A 
ATOM     75  F   UNL     1       8.100  11.140  10.548  1.00  0.00    -0.205 F 
ATOM     76  C   UNL     1      11.512  12.429  10.242  1.00  0.00     0.022 A 
BRANCH  74  77
ATOM     77  S   UNL     1       9.904  11.779   8.126  1.00  0.00     0.127 S 
ATOM     78  O   UNL     1       9.807  13.174   7.702  1.00  0.00    -0.237 OA
ATOM     79  O   UNL     1      11.097  11.074   7.657  1.00  0.00    -0.237 OA
ATOM     80  O   UNL     1       8.674  11.004   8.036  1.00  0.00    -0.744 OA
ENDBRANCH  74  77
ENDBRANCH  46  70
BRANCH  58  81
ATOM     81  C   UNL     1       6.537  14.678  17.629  1.00  0.00     0.023 A 
ATOM     82  C   UNL     1       5.899  15.721  16.929  1.00  0.00     0.012 A 
ATOM     83  C   UNL     1       7.142  14.947  18.872  1.00  0.00     0.148 A 
ATOM     84  C   UNL     1       5.895  17.018  17.442  1.00  0.00     0.002 A 
ATOM     85  C   UNL     1       7.088  16.230  19.402  1.00  0.00     0.091 A 
ATOM     86  F   UNL     1       7.760  13.945  19.514  1.00  0.00    -0.205 F 
ATOM     87  C   UNL     1       6.477  17.270  18.682  1.00  0.00     0.022 A 
BRANCH  85  88
ATOM     88  S   UNL     1       7.721  16.623  21.036  1.00  0.00     0.127 S 
ATOM     89  O   UNL     1       8.922  17.392  20.713  1.00  0.00    -0.237 OA
ATOM     90  O   UNL     1       6.630  17.410  21.611  1.00  0.00    -0.237 OA
ATOM     91  O   UNL     1       7.955  15.345  21.694  1.00  0.00    -0.744 OA
ENDBRANCH  85  88
ENDBRANCH  58  81
ENDBRANCH  32  33
ENDBRANCH  24  27
ENDBRANCH  22  23
ENDBRANCH  21  22
ENDBRANCH  20  21
ENDBRANCH  19  20
ENDBRANCH   1  19
TORSDOF 22
