REMARK SMILES O=C(NCCCCCCNC(=O)c1cccc(Oc2ncc([N+](=O)[O-])cc2Br)c1)c1ccc(-c2c3nc(c(-c4cccc(S(=O)(=O)[O-])c4F)c4ccc([nH]4)c(-c4cccc(S(=O)(=O)[O-])c4F)c4nc(c(-c5cccc(S(=O)(=O)[O-])c5F)c5ccc2[nH]5)C=C4)C=C3)cc1
REMARK SMILES IDX 6 1 5 2 4 3 3 4 1 5 2 6 30 8 31 9 92 10 32 11 91 12 33 13
REMARK SMILES IDX 34 14 35 15 85 16 36 17 90 18 84 19 86 20 37 21 89 22 83 23
REMARK SMILES IDX 82 24 38 26 70 27 50 28 69 29 51 30 54 31 68 32 87 33 52 34
REMARK SMILES IDX 53 35 67 37 88 38 55 39 39 40 40 41 48 42 41 43 43 44 49 45
REMARK SMILES IDX 42 46 44 47 45 48 46 49 47 50 71 51 72 52 80 53 73 54 75 55
REMARK SMILES IDX 81 56 74 57 76 58 77 59 78 60 79 61 56 62 57 63 65 64 58 65
REMARK SMILES IDX 60 66 66 67 59 68 61 69 62 70 63 71 64 72 7 73 8 74 9 75
REMARK SMILES IDX 10 76 11 77 12 79 13 80 14 81 29 82 15 83 17 84 16 85 18 86
REMARK SMILES IDX 19 87 20 88 27 89 21 90 26 91 28 92 22 93 23 94 24 95 25 96
REMARK H PARENT 3 7 86 25 54 36 10 78
REMARK Flexibility Score: inf
ROOT
ATOM      1  C   UNL     1       4.127  -3.116  -2.372  1.00  0.00     0.002 C 
ENDROOT
BRANCH   1   2
ATOM      2  C   UNL     1       4.600  -2.530  -1.043  1.00  0.00     0.021 C 
BRANCH   2   3
ATOM      3  C   UNL     1       4.358  -1.036  -0.873  1.00  0.00     0.116 C 
BRANCH   3   4
ATOM      4  N   UNL     1       2.947  -0.685  -0.879  1.00  0.00    -0.352 N 
ATOM      5  O   UNL     1       1.012   0.135  -0.056  1.00  0.00    -0.269 OA
ATOM      6  C   UNL     1       2.237   0.052   0.038  1.00  0.00     0.251 C 
ATOM      7  H   UNL     1       2.429  -1.021  -1.646  1.00  0.00     0.163 HD
BRANCH   6   8
ATOM      8  C   UNL     1       2.949   0.708   1.156  1.00  0.00     0.039 A 
ATOM      9  C   UNL     1       4.136   1.406   0.924  1.00  0.00     0.014 A 
ATOM     10  C   UNL     1       2.446   0.591   2.454  1.00  0.00     0.014 A 
ATOM     11  C   UNL     1       4.907   1.827   2.000  1.00  0.00     0.010 A 
ATOM     12  C   UNL     1       3.176   1.109   3.529  1.00  0.00     0.010 A 
ATOM     13  C   UNL     1       4.436   1.690   3.317  1.00  0.00    -0.014 A 
BRANCH  13  14
ATOM     14  C   UNL     1       5.263   2.207   4.439  1.00  0.00     0.031 A 
ATOM     15  C   UNL     1       5.793   1.294   5.513  1.00  0.00     0.074 A 
ATOM     16  C   UNL     1       5.554   3.523   4.471  1.00  0.00     0.049 A 
ATOM     17  N   UNL     1       6.577   1.582   6.521  1.00  0.00    -0.248 NA
ATOM     18  C   UNL     1       5.387  -0.119   5.460  1.00  0.00     0.031 C 
ATOM     19  C   UNL     1       5.062   4.516   3.512  1.00  0.00     0.029 A 
ATOM     20  N   UNL     1       6.335   4.253   5.330  1.00  0.00    -0.354 N 
ATOM     21  C   UNL     1       6.718   0.405   7.248  1.00  0.00     0.074 A 
ATOM     22  C   UNL     1       5.935  -0.603   6.567  1.00  0.00     0.031 C 
ATOM     23  C   UNL     1       5.587   5.713   3.808  1.00  0.00     0.029 A 
ATOM     24  C   UNL     1       6.404   5.588   5.008  1.00  0.00     0.049 A 
ATOM     25  H   UNL     1       6.802   3.858   6.102  1.00  0.00     0.167 HD
ATOM     26  C   UNL     1       7.443   0.182   8.372  1.00  0.00     0.034 A 
ATOM     27  C   UNL     1       7.046   6.605   5.614  1.00  0.00     0.034 A 
ATOM     28  C   UNL     1       8.255   1.179   9.021  1.00  0.00     0.049 A 
ATOM     29  C   UNL     1       7.868   6.318   6.838  1.00  0.00     0.074 A 
ATOM     30  C   UNL     1       9.089   1.030  10.116  1.00  0.00     0.029 A 
ATOM     31  N   UNL     1       8.328   2.512   8.644  1.00  0.00    -0.354 N 
ATOM     32  N   UNL     1       8.098   5.170   7.426  1.00  0.00    -0.248 NA
ATOM     33  C   UNL     1       8.541   7.464   7.464  1.00  0.00     0.031 C 
ATOM     34  C   UNL     1       9.643   2.279  10.418  1.00  0.00     0.029 A 
ATOM     35  C   UNL     1       9.180   3.200   9.493  1.00  0.00     0.049 A 
ATOM     36  H   UNL     1       7.845   2.911   7.885  1.00  0.00     0.167 HD
ATOM     37  C   UNL     1       8.970   5.448   8.472  1.00  0.00     0.074 A 
ATOM     38  C   UNL     1       9.244   6.870   8.419  1.00  0.00     0.031 C 
ATOM     39  C   UNL     1       9.484   4.605   9.400  1.00  0.00     0.034 A 
BRANCH  26  40
ATOM     40  C   UNL     1       7.416  -1.204   8.968  1.00  0.00     0.023 A 
ATOM     41  C   UNL     1       8.089  -2.260   8.321  1.00  0.00     0.012 A 
ATOM     42  C   UNL     1       6.783  -1.445  10.204  1.00  0.00     0.148 A 
ATOM     43  C   UNL     1       8.105  -3.539   8.876  1.00  0.00     0.002 A 
ATOM     44  C   UNL     1       6.841  -2.713  10.773  1.00  0.00     0.091 A 
ATOM     45  F   UNL     1       6.131  -0.435  10.797  1.00  0.00    -0.205 F 
ATOM     46  C   UNL     1       7.491  -3.763  10.105  1.00  0.00     0.022 A 
BRANCH  44  47
ATOM     47  S   UNL     1       6.152  -3.079  12.392  1.00  0.00     0.127 S 
ATOM     48  O   UNL     1       4.972  -3.868  12.039  1.00  0.00    -0.237 OA
ATOM     49  O   UNL     1       7.229  -3.845  13.021  1.00  0.00    -0.237 OA
ATOM     50  O   UNL     1       5.883  -1.790  13.013  1.00  0.00    -0.744 OA
ENDBRANCH  44  47
ENDBRANCH  26  40
BRANCH  27  51
ATOM     51  C   UNL     1       6.979   7.974   5.033  1.00  0.00     0.023 A 
ATOM     52  C   UNL     1       8.134   8.538   4.457  1.00  0.00     0.012 A 
ATOM     53  C   UNL     1       5.773   8.701   5.009  1.00  0.00     0.148 A 
ATOM     54  C   UNL     1       8.096   9.813   3.892  1.00  0.00     0.002 A 
ATOM     55  C   UNL     1       5.728   9.945   4.391  1.00  0.00     0.091 A 
ATOM     56  F   UNL     1       4.689   8.152   5.574  1.00  0.00    -0.205 F 
ATOM     57  C   UNL     1       6.891  10.511   3.848  1.00  0.00     0.022 A 
BRANCH  55  58
ATOM     58  S   UNL     1       4.193  10.849   4.165  1.00  0.00     0.127 S 
ATOM     59  O   UNL     1       4.355  11.953   5.107  1.00  0.00    -0.237 OA
ATOM     60  O   UNL     1       4.270  11.226   2.753  1.00  0.00    -0.237 OA
ATOM     61  O   UNL     1       3.131   9.901   4.474  1.00  0.00    -0.744 OA
ENDBRANCH  55  58
ENDBRANCH  27  51
BRANCH  39  62
ATOM     62  C   UNL     1      10.432   5.189  10.415  1.00  0.00     0.023 A 
ATOM     63  C   UNL     1       9.942   6.035  11.431  1.00  0.00     0.012 A 
ATOM     64  C   UNL     1      11.801   4.860  10.391  1.00  0.00     0.148 A 
ATOM     65  C   UNL     1      10.807   6.574  12.382  1.00  0.00     0.002 A 
ATOM     66  C   UNL     1      12.648   5.360  11.373  1.00  0.00     0.091 A 
ATOM     67  F   UNL     1      12.253   4.072   9.404  1.00  0.00    -0.205 F 
ATOM     68  C   UNL     1      12.156   6.228  12.360  1.00  0.00     0.022 A 
BRANCH  66  69
ATOM     69  S   UNL     1      14.378   4.887  11.476  1.00  0.00     0.127 S 
ATOM     70  O   UNL     1      15.045   6.086  10.971  1.00  0.00    -0.237 OA
ATOM     71  O   UNL     1      14.552   4.650  12.909  1.00  0.00    -0.237 OA
ATOM     72  O   UNL     1      14.516   3.696  10.648  1.00  0.00    -0.744 OA
ENDBRANCH  66  69
ENDBRANCH  39  62
ENDBRANCH  13  14
ENDBRANCH   6   8
ENDBRANCH   3   4
ENDBRANCH   2   3
ENDBRANCH   1   2
BRANCH   1  73
ATOM     73  C   UNL     1       4.646  -2.408  -3.626  1.00  0.00     0.002 C 
BRANCH  73  74
ATOM     74  C   UNL     1       6.166  -2.236  -3.711  1.00  0.00     0.021 C 
BRANCH  74  75
ATOM     75  C   UNL     1       6.967  -3.530  -3.612  1.00  0.00     0.116 C 
BRANCH  75  76
ATOM     76  N   UNL     1       6.687  -4.423  -4.726  1.00  0.00    -0.352 N 
ATOM     77  C   UNL     1       7.566  -5.026  -5.585  1.00  0.00     0.251 C 
ATOM     78  H   UNL     1       5.735  -4.622  -4.883  1.00  0.00     0.163 HD
ATOM     79  O   UNL     1       7.159  -5.577  -6.609  1.00  0.00    -0.269 OA
BRANCH  77  80
ATOM     80  C   UNL     1       9.010  -5.039  -5.274  1.00  0.00     0.043 A 
ATOM     81  C   UNL     1       9.935  -4.739  -6.275  1.00  0.00     0.014 A 
ATOM     82  C   UNL     1       9.444  -5.423  -4.001  1.00  0.00     0.061 A 
ATOM     83  C   UNL     1      11.298  -4.778  -5.984  1.00  0.00     0.005 A 
ATOM     84  C   UNL     1      10.807  -5.472  -3.708  1.00  0.00     0.130 A 
ATOM     85  C   UNL     1      11.731  -5.139  -4.703  1.00  0.00     0.047 A 
BRANCH  84  86
ATOM     86  O   UNL     1      11.344  -5.875  -2.500  1.00  0.00    -0.438 OA
BRANCH  86  87
ATOM     87  C   UNL     1      10.469  -6.070  -1.453  1.00  0.00     0.234 A 
ATOM     88  N   UNL     1      10.322  -5.011  -0.615  1.00  0.00    -0.214 NA
ATOM     89  C   UNL     1       9.796  -7.282  -1.285  1.00  0.00     0.087 A 
ATOM     90  C   UNL     1       9.448  -5.151   0.414  1.00  0.00     0.200 A 
ATOM     91  C   UNL     1       8.868  -7.388  -0.250  1.00  0.00     0.108 A 
ATOM     92  Br  UNL     1      10.049  -8.764  -2.436  1.00  0.00    -0.045 Br
ATOM     93  C   UNL     1       8.695  -6.299   0.610  1.00  0.00     0.288 A 
BRANCH  93  94
ATOM     94  N   UNL     1       7.715  -6.350   1.685  1.00  0.00     0.064 N 
ATOM     95  O   UNL     1       7.725  -5.435   2.515  1.00  0.00    -0.258 OA
ATOM     96  O   UNL     1       6.919  -7.299   1.681  1.00  0.00    -0.258 OA
ENDBRANCH  93  94
ENDBRANCH  86  87
ENDBRANCH  84  86
ENDBRANCH  77  80
ENDBRANCH  75  76
ENDBRANCH  74  75
ENDBRANCH  73  74
ENDBRANCH   1  73
TORSDOF 19
