REMARK SMILES C/C=C/c1cncc(-c2ccc([C@@H](C)C(=O)NCCCCCCNC(=O)c3ccc(-c4c5nc(c(-c6cccc(S(=O)(=O)[O-])c6F)c6ccc([nH]6)c(-c6cccc(S(=O)(=O)[O-])c6F)c6nc(c(-c7cccc(S(=O)(=O)[O-])c7F)c7ccc4[nH]7)C=C6)C=C5)cc3)cc2)c1
REMARK SMILES IDX 20 1 19 2 18 3 17 4 15 5 16 6 13 8 14 9 12 10 9 11 10 12
REMARK SMILES IDX 91 13 11 14 90 15 8 16 4 17 5 18 92 19 6 20 7 21 3 22 1 23
REMARK SMILES IDX 2 24 21 25 22 26 23 27 24 28 25 29 26 31 27 32 28 33 89 34
REMARK SMILES IDX 29 35 88 36 30 37 31 38 32 39 82 40 33 41 87 42 81 43 83 44
REMARK SMILES IDX 34 45 86 46 80 47 79 48 35 50 67 51 47 52 66 53 48 54 51 55
REMARK SMILES IDX 65 56 84 57 49 58 50 59 64 61 85 62 52 63 36 64 37 65 45 66
REMARK SMILES IDX 38 67 40 68 46 69 39 70 41 71 42 72 43 73 44 74 68 75 69 76
REMARK SMILES IDX 77 77 70 78 72 79 78 80 71 81 73 82 74 83 75 84 76 85 53 86
REMARK SMILES IDX 54 87 62 88 55 89 57 90 63 91 56 92 58 93 59 94 60 95 61 96
REMARK H PARENT 17 7 24 30 83 49 51 60
REMARK Flexibility Score: inf
ROOT
ATOM      1  C   UNL     1       1.434   8.952  -4.727  1.00  0.00     0.002 C 
ENDROOT
BRANCH   1   2
ATOM      2  C   UNL     1       1.130   7.861  -5.758  1.00  0.00     0.021 C 
BRANCH   2   3
ATOM      3  C   UNL     1       1.737   8.129  -7.136  1.00  0.00     0.116 C 
BRANCH   3   4
ATOM      4  N   UNL     1       3.089   7.619  -7.231  1.00  0.00    -0.356 N 
ATOM      5  C   UNL     1       3.587   6.497  -7.818  1.00  0.00     0.227 C 
ATOM      6  O   UNL     1       4.792   6.272  -7.643  1.00  0.00    -0.274 OA
ATOM      7  H   UNL     1       3.767   8.183  -6.794  1.00  0.00     0.163 HD
BRANCH   5   8
ATOM      8  C   UNL     1       2.746   5.539  -8.676  1.00  0.00     0.105 C 
ATOM      9  C   UNL     1       2.120   6.194  -9.907  1.00  0.00     0.023 C 
BRANCH   8  10
ATOM     10  C   UNL     1       1.836   4.633  -7.858  1.00  0.00    -0.036 A 
ATOM     11  C   UNL     1       0.265   2.955  -6.164  1.00  0.00    -0.017 A 
ATOM     12  C   UNL     1      -0.235   4.164  -6.666  1.00  0.00     0.009 A 
ATOM     13  C   UNL     1       1.555   2.579  -6.566  1.00  0.00     0.009 A 
ATOM     14  C   UNL     1       0.523   4.972  -7.522  1.00  0.00     0.005 A 
ATOM     15  C   UNL     1       2.333   3.410  -7.383  1.00  0.00     0.005 A 
BRANCH  11  16
ATOM     16  C   UNL     1      -0.535   2.128  -5.242  1.00  0.00     0.001 A 
ATOM     17  C   UNL     1      -0.762   0.757  -3.235  1.00  0.00    -0.007 A 
ATOM     18  C   UNL     1      -2.117   0.648  -3.530  1.00  0.00     0.119 A 
ATOM     19  C   UNL     1       0.029   1.502  -4.118  1.00  0.00     0.020 A 
ATOM     20  N   UNL     1      -2.708   1.218  -4.602  1.00  0.00    -0.263 NA
ATOM     21  C   UNL     1      -1.909   1.942  -5.420  1.00  0.00     0.119 A 
BRANCH  17  22
ATOM     22  C   UNL     1      -0.212   0.070  -2.063  1.00  0.00     0.005 C 
ATOM     23  C   UNL     1       1.154  -0.034   0.028  1.00  0.00     0.035 C 
ATOM     24  C   UNL     1       0.621   0.653  -1.188  1.00  0.00    -0.030 C 
ENDBRANCH  17  22
ENDBRANCH  11  16
ENDBRANCH   8  10
ENDBRANCH   5   8
ENDBRANCH   3   4
ENDBRANCH   2   3
ENDBRANCH   1   2
BRANCH   1  25
ATOM     25  C   UNL     1       0.879  10.341  -5.069  1.00  0.00     0.002 C 
BRANCH  25  26
ATOM     26  C   UNL     1      -0.626  10.395  -5.352  1.00  0.00     0.021 C 
BRANCH  26  27
ATOM     27  C   UNL     1      -1.507   9.933  -4.195  1.00  0.00     0.116 C 
BRANCH  27  28
ATOM     28  N   UNL     1      -1.327  10.769  -3.017  1.00  0.00    -0.352 N 
ATOM     29  C   UNL     1      -2.244  11.538  -2.344  1.00  0.00     0.251 C 
ATOM     30  H   UNL     1      -0.414  10.785  -2.648  1.00  0.00     0.163 HD
ATOM     31  O   UNL     1      -1.863  12.366  -1.523  1.00  0.00    -0.269 OA
BRANCH  29  32
ATOM     32  C   UNL     1      -3.688  11.368  -2.613  1.00  0.00     0.039 A 
ATOM     33  C   UNL     1      -4.494  12.503  -2.735  1.00  0.00     0.014 A 
ATOM     34  C   UNL     1      -4.247  10.092  -2.717  1.00  0.00     0.014 A 
ATOM     35  C   UNL     1      -5.856  12.356  -3.012  1.00  0.00     0.010 A 
ATOM     36  C   UNL     1      -5.587   9.950  -3.066  1.00  0.00     0.010 A 
ATOM     37  C   UNL     1      -6.408  11.079  -3.204  1.00  0.00    -0.014 A 
BRANCH  37  38
ATOM     38  C   UNL     1      -7.839  10.903  -3.559  1.00  0.00     0.031 A 
ATOM     39  C   UNL     1      -8.766  10.164  -2.633  1.00  0.00     0.074 A 
ATOM     40  C   UNL     1      -8.281  11.325  -4.759  1.00  0.00     0.049 A 
ATOM     41  N   UNL     1     -10.028   9.863  -2.797  1.00  0.00    -0.248 NA
ATOM     42  C   UNL     1      -8.192   9.672  -1.370  1.00  0.00     0.031 C 
ATOM     43  C   UNL     1      -7.458  11.973  -5.781  1.00  0.00     0.029 A 
ATOM     44  N   UNL     1      -9.524  11.241  -5.335  1.00  0.00    -0.354 N 
ATOM     45  C   UNL     1     -10.389   9.118  -1.681  1.00  0.00     0.074 A 
ATOM     46  C   UNL     1      -9.202   8.979  -0.866  1.00  0.00     0.031 C 
ATOM     47  C   UNL     1      -8.215  12.224  -6.860  1.00  0.00     0.029 A 
ATOM     48  C   UNL     1      -9.568  11.731  -6.619  1.00  0.00     0.049 A 
ATOM     49  H   UNL     1     -10.309  10.866  -4.874  1.00  0.00     0.167 HD
ATOM     50  C   UNL     1     -11.604   8.621  -1.347  1.00  0.00     0.034 A 
ATOM     51  C   UNL     1     -10.580  11.770  -7.508  1.00  0.00     0.034 A 
ATOM     52  C   UNL     1     -12.789   8.791  -2.145  1.00  0.00     0.049 A 
ATOM     53  C   UNL     1     -11.932  11.255  -7.100  1.00  0.00     0.074 A 
ATOM     54  C   UNL     1     -14.086   8.410  -1.853  1.00  0.00     0.029 A 
ATOM     55  N   UNL     1     -12.818   9.380  -3.401  1.00  0.00    -0.354 N 
ATOM     56  N   UNL     1     -12.297  10.705  -5.967  1.00  0.00    -0.248 NA
ATOM     57  C   UNL     1     -13.022  11.402  -8.075  1.00  0.00     0.031 C 
ATOM     58  C   UNL     1     -14.896   8.745  -2.945  1.00  0.00     0.029 A 
ATOM     59  C   UNL     1     -14.108   9.362  -3.904  1.00  0.00     0.049 A 
ATOM     60  H   UNL     1     -12.036   9.755  -3.866  1.00  0.00     0.167 HD
ATOM     61  C   UNL     1     -13.661  10.466  -6.080  1.00  0.00     0.074 A 
ATOM     62  C   UNL     1     -14.062  10.952  -7.385  1.00  0.00     0.031 C 
ATOM     63  C   UNL     1     -14.503   9.885  -5.188  1.00  0.00     0.034 A 
BRANCH  50  64
ATOM     64  C   UNL     1     -11.716   7.885  -0.035  1.00  0.00     0.023 A 
ATOM     65  C   UNL     1     -11.591   8.598   1.176  1.00  0.00     0.012 A 
ATOM     66  C   UNL     1     -11.969   6.500   0.005  1.00  0.00     0.148 A 
ATOM     67  C   UNL     1     -11.664   7.939   2.403  1.00  0.00     0.002 A 
ATOM     68  C   UNL     1     -12.090   5.858   1.234  1.00  0.00     0.091 A 
ATOM     69  F   UNL     1     -12.065   5.831  -1.152  1.00  0.00    -0.205 F 
ATOM     70  C   UNL     1     -11.922   6.572   2.431  1.00  0.00     0.022 A 
BRANCH  68  71
ATOM     71  S   UNL     1     -12.504   4.116   1.375  1.00  0.00     0.127 S 
ATOM     72  O   UNL     1     -11.216   3.535   1.751  1.00  0.00    -0.237 OA
ATOM     73  O   UNL     1     -13.505   4.121   2.443  1.00  0.00    -0.237 OA
ATOM     74  O   UNL     1     -13.017   3.721   0.070  1.00  0.00    -0.744 OA
ENDBRANCH  68  71
ENDBRANCH  50  64
BRANCH  51  75
ATOM     75  C   UNL     1     -10.353  12.380  -8.848  1.00  0.00     0.023 A 
ATOM     76  C   UNL     1     -10.916  13.636  -9.142  1.00  0.00     0.012 A 
ATOM     77  C   UNL     1      -9.525  11.756  -9.802  1.00  0.00     0.148 A 
ATOM     78  C   UNL     1     -10.677  14.251 -10.371  1.00  0.00     0.002 A 
ATOM     79  C   UNL     1      -9.246  12.399 -11.001  1.00  0.00     0.091 A 
ATOM     80  F   UNL     1      -9.004  10.558  -9.502  1.00  0.00    -0.205 F 
ATOM     81  C   UNL     1      -9.833  13.639 -11.295  1.00  0.00     0.022 A 
BRANCH  79  82
ATOM     82  S   UNL     1      -8.062  11.756 -12.190  1.00  0.00     0.127 S 
ATOM     83  O   UNL     1      -8.922  11.433 -13.325  1.00  0.00    -0.237 OA
ATOM     84  O   UNL     1      -7.183  12.909 -12.390  1.00  0.00    -0.237 OA
ATOM     85  O   UNL     1      -7.424  10.620 -11.539  1.00  0.00    -0.744 OA
ENDBRANCH  79  82
ENDBRANCH  51  75
BRANCH  63  86
ATOM     86  C   UNL     1     -15.954   9.762  -5.575  1.00  0.00     0.023 A 
ATOM     87  C   UNL     1     -16.342   8.825  -6.553  1.00  0.00     0.012 A 
ATOM     88  C   UNL     1     -16.941  10.522  -4.916  1.00  0.00     0.148 A 
ATOM     89  C   UNL     1     -17.686   8.667  -6.890  1.00  0.00     0.002 A 
ATOM     90  C   UNL     1     -18.282  10.324  -5.221  1.00  0.00     0.091 A 
ATOM     91  F   UNL     1     -16.550  11.422  -4.002  1.00  0.00    -0.205 F 
ATOM     92  C   UNL     1     -18.656   9.407  -6.216  1.00  0.00     0.022 A 
BRANCH  90  93
ATOM     93  S   UNL     1     -19.604  11.161  -4.338  1.00  0.00     0.127 S 
ATOM     94  O   UNL     1     -20.081  12.109  -5.345  1.00  0.00    -0.237 OA
ATOM     95  O   UNL     1     -20.527  10.063  -4.049  1.00  0.00    -0.237 OA
ATOM     96  O   UNL     1     -18.987  11.758  -3.162  1.00  0.00    -0.744 OA
ENDBRANCH  90  93
ENDBRANCH  63  86
ENDBRANCH  37  38
ENDBRANCH  29  32
ENDBRANCH  27  28
ENDBRANCH  26  27
ENDBRANCH  25  26
ENDBRANCH   1  25
TORSDOF 19
