REMARK SMILES Cc1noc(C)c1CCC(=O)N1CCC2(CC1)NC(=O)C[C@@H]2C(=O)NCCCCCCNC(=O)c1ccc(-c2c3nc(c(-c4cccc(S(=O)(=O)[O-])c4F)c4ccc([nH]4)c(-c4cccc(S(=O)(=O)[O-])c4F)c4nc(c(-c5cccc(S(=O)(=O)[O-])c5F)c5ccc2[nH]5)C=C4)C=C3)cc1
REMARK SMILES IDX 28 1 27 2 26 3 25 4 23 5 24 6 22 8 10 9 11 10 12 11 13 12
REMARK SMILES IDX 17 13 14 14 16 15 15 16 18 17 19 18 21 20 20 21 9 22 8 23
REMARK SMILES IDX 7 24 1 25 2 26 3 27 4 28 5 29 6 30 29 31 30 32 31 33 32 34
REMARK SMILES IDX 33 35 34 37 35 38 36 39 97 40 37 41 96 42 38 43 39 44 40 45
REMARK SMILES IDX 90 46 41 47 95 48 89 49 91 50 42 51 94 52 88 53 87 54 43 56
REMARK SMILES IDX 75 57 55 58 74 59 56 60 59 61 73 62 92 63 57 64 58 65 72 67
REMARK SMILES IDX 93 68 60 69 44 70 45 71 53 72 46 73 48 74 54 75 47 76 49 77
REMARK SMILES IDX 50 78 51 79 52 80 76 81 77 82 85 83 78 84 80 85 86 86 79 87
REMARK SMILES IDX 81 88 82 89 83 90 84 91 61 92 62 93 70 94 63 95 65 96 71 97
REMARK SMILES IDX 64 98 66 99 67 100 68 101 69 102
REMARK H PARENT 25 7 18 19 32 36 91 55 59 66
REMARK Flexibility Score: inf
ROOT
ATOM      1  C   UNL     1      -7.118   1.011  -3.736  1.00  0.00     0.002 C 
ENDROOT
BRANCH   1   2
ATOM      2  C   UNL     1      -6.191  -0.206  -3.751  1.00  0.00     0.021 C 
BRANCH   2   3
ATOM      3  C   UNL     1      -5.355  -0.355  -2.498  1.00  0.00     0.116 C 
BRANCH   3   4
ATOM      4  N   UNL     1      -5.332  -1.637  -1.847  1.00  0.00    -0.356 N 
ATOM      5  C   UNL     1      -4.395  -1.898  -0.888  1.00  0.00     0.226 C 
ATOM      6  O   UNL     1      -4.834  -2.025   0.265  1.00  0.00    -0.275 OA
ATOM      7  H   UNL     1      -5.990  -2.327  -2.093  1.00  0.00     0.163 HD
BRANCH   5   8
ATOM      8  C   UNL     1      -2.934  -2.315  -1.164  1.00  0.00     0.113 C 
ATOM      9  C   UNL     1      -1.131   2.252  -1.506  1.00  0.00     0.222 C 
ATOM     10  O   UNL     1      -2.167   2.919  -1.576  1.00  0.00    -0.275 OA
ATOM     11  N   UNL     1      -1.085   0.920  -1.961  1.00  0.00    -0.343 N 
ATOM     12  C   UNL     1      -2.223   0.536  -2.747  1.00  0.00     0.122 C 
ATOM     13  C   UNL     1      -0.503  -0.112  -1.123  1.00  0.00     0.122 C 
ATOM     14  C   UNL     1      -2.163  -0.872  -3.334  1.00  0.00     0.051 C 
ATOM     15  C   UNL     1      -0.526  -1.532  -1.666  1.00  0.00     0.051 C 
ATOM     16  C   UNL     1      -1.893  -1.944  -2.280  1.00  0.00     0.055 C 
ATOM     17  N   UNL     1      -1.651  -3.211  -2.953  1.00  0.00    -0.350 N 
ATOM     18  C   UNL     1      -2.113  -4.312  -2.290  1.00  0.00     0.221 C 
ATOM     19  H   UNL     1      -1.190  -3.271  -3.821  1.00  0.00     0.164 HD
ATOM     20  C   UNL     1      -3.009  -3.866  -1.185  1.00  0.00     0.116 C 
ATOM     21  O   UNL     1      -1.838  -5.463  -2.571  1.00  0.00    -0.275 OA
BRANCH   9  22
ATOM     22  C   UNL     1       0.139   2.860  -0.951  1.00  0.00     0.105 C 
BRANCH  22  23
ATOM     23  C   UNL     1       0.160   2.992   0.570  1.00  0.00     0.051 C 
BRANCH  23  24
ATOM     24  C   UNL     1       0.346   1.707   1.312  1.00  0.00     0.018 A 
ATOM     25  C   UNL     1      -2.066   1.248   2.247  1.00  0.00     0.071 C 
ATOM     26  C   UNL     1      -0.620   0.971   2.061  1.00  0.00     0.084 A 
ATOM     27  N   UNL     1      -0.103  -0.168   2.539  1.00  0.00    -0.085 NA
ATOM     28  O   UNL     1       1.202  -0.206   2.097  1.00  0.00    -0.361 OA
ATOM     29  C   UNL     1       1.467   0.900   1.353  1.00  0.00     0.137 A 
ATOM     30  C   UNL     1       2.790   0.929   0.694  1.00  0.00     0.091 C 
ENDBRANCH  23  24
ENDBRANCH  22  23
ENDBRANCH   9  22
ENDBRANCH   5   8
ENDBRANCH   3   4
ENDBRANCH   2   3
ENDBRANCH   1   2
BRANCH   1  31
ATOM     31  C   UNL     1      -6.547   2.357  -3.257  1.00  0.00     0.002 C 
BRANCH  31  32
ATOM     32  C   UNL     1      -5.335   2.931  -3.994  1.00  0.00     0.021 C 
BRANCH  32  33
ATOM     33  C   UNL     1      -5.444   3.035  -5.512  1.00  0.00     0.116 C 
BRANCH  33  34
ATOM     34  N   UNL     1      -6.696   3.633  -5.953  1.00  0.00    -0.352 N 
ATOM     35  C   UNL     1      -6.936   4.692  -6.790  1.00  0.00     0.251 C 
ATOM     36  H   UNL     1      -7.505   3.206  -5.588  1.00  0.00     0.163 HD
ATOM     37  O   UNL     1      -8.084   5.108  -6.925  1.00  0.00    -0.269 OA
BRANCH  35  38
ATOM     38  C   UNL     1      -5.827   5.349  -7.511  1.00  0.00     0.039 A 
ATOM     39  C   UNL     1      -5.778   6.747  -7.532  1.00  0.00     0.014 A 
ATOM     40  C   UNL     1      -4.851   4.603  -8.175  1.00  0.00     0.014 A 
ATOM     41  C   UNL     1      -4.709   7.395  -8.153  1.00  0.00     0.010 A 
ATOM     42  C   UNL     1      -3.754   5.249  -8.741  1.00  0.00     0.010 A 
ATOM     43  C   UNL     1      -3.667   6.650  -8.726  1.00  0.00    -0.014 A 
BRANCH  43  44
ATOM     44  C   UNL     1      -2.452   7.309  -9.271  1.00  0.00     0.031 A 
ATOM     45  C   UNL     1      -2.110   7.190 -10.729  1.00  0.00     0.074 A 
ATOM     46  C   UNL     1      -1.599   7.916  -8.422  1.00  0.00     0.049 A 
ATOM     47  N   UNL     1      -1.041   7.599 -11.360  1.00  0.00    -0.248 NA
ATOM     48  C   UNL     1      -3.086   6.498 -11.587  1.00  0.00     0.031 C 
ATOM     49  C   UNL     1      -1.789   8.034  -6.974  1.00  0.00     0.029 A 
ATOM     50  N   UNL     1      -0.381   8.511  -8.645  1.00  0.00    -0.354 N 
ATOM     51  C   UNL     1      -1.194   7.183 -12.677  1.00  0.00     0.074 A 
ATOM     52  C   UNL     1      -2.451   6.470 -12.751  1.00  0.00     0.031 C 
ATOM     53  C   UNL     1      -0.722   8.648  -6.439  1.00  0.00     0.029 A 
ATOM     54  C   UNL     1       0.244   8.933  -7.494  1.00  0.00     0.049 A 
ATOM     55  H   UNL     1       0.007   8.625  -9.543  1.00  0.00     0.167 HD
ATOM     56  C   UNL     1      -0.371   7.394 -13.732  1.00  0.00     0.034 A 
ATOM     57  C   UNL     1       1.467   9.465  -7.304  1.00  0.00     0.034 A 
ATOM     58  C   UNL     1       0.860   8.134 -13.658  1.00  0.00     0.049 A 
ATOM     59  C   UNL     1       2.352   9.706  -8.497  1.00  0.00     0.074 A 
ATOM     60  C   UNL     1       1.713   8.487 -14.689  1.00  0.00     0.029 A 
ATOM     61  N   UNL     1       1.423   8.621 -12.489  1.00  0.00    -0.354 N 
ATOM     62  N   UNL     1       2.116   9.454  -9.762  1.00  0.00    -0.248 NA
ATOM     63  C   UNL     1       3.658  10.330  -8.244  1.00  0.00     0.031 C 
ATOM     64  C   UNL     1       2.809   9.158 -14.138  1.00  0.00     0.029 A 
ATOM     65  C   UNL     1       2.624   9.251 -12.768  1.00  0.00     0.049 A 
ATOM     66  H   UNL     1       1.027   8.533 -11.592  1.00  0.00     0.167 HD
ATOM     67  C   UNL     1       3.230   9.911 -10.457  1.00  0.00     0.074 A 
ATOM     68  C   UNL     1       4.130  10.479  -9.475  1.00  0.00     0.031 C 
ATOM     69  C   UNL     1       3.491   9.850 -11.786  1.00  0.00     0.034 A 
BRANCH  56  70
ATOM     70  C   UNL     1      -0.793   6.850 -15.072  1.00  0.00     0.023 A 
ATOM     71  C   UNL     1      -1.867   7.450 -15.762  1.00  0.00     0.012 A 
ATOM     72  C   UNL     1      -0.087   5.793 -15.680  1.00  0.00     0.148 A 
ATOM     73  C   UNL     1      -2.252   6.986 -17.019  1.00  0.00     0.002 A 
ATOM     74  C   UNL     1      -0.449   5.365 -16.952  1.00  0.00     0.091 A 
ATOM     75  F   UNL     1       0.918   5.223 -15.001  1.00  0.00    -0.205 F 
ATOM     76  C   UNL     1      -1.538   5.952 -17.617  1.00  0.00     0.022 A 
BRANCH  74  77
ATOM     77  S   UNL     1       0.456   4.094 -17.841  1.00  0.00     0.127 S 
ATOM     78  O   UNL     1      -0.503   2.990 -17.833  1.00  0.00    -0.237 OA
ATOM     79  O   UNL     1       0.656   4.718 -19.149  1.00  0.00    -0.237 OA
ATOM     80  O   UNL     1       1.678   3.864 -17.083  1.00  0.00    -0.744 OA
ENDBRANCH  74  77
ENDBRANCH  56  70
BRANCH  57  81
ATOM     81  C   UNL     1       1.908   9.841  -5.931  1.00  0.00     0.023 A 
ATOM     82  C   UNL     1       2.042  11.202  -5.595  1.00  0.00     0.012 A 
ATOM     83  C   UNL     1       2.162   8.863  -4.947  1.00  0.00     0.148 A 
ATOM     84  C   UNL     1       2.449  11.582  -4.316  1.00  0.00     0.002 A 
ATOM     85  C   UNL     1       2.512   9.250  -3.659  1.00  0.00     0.091 A 
ATOM     86  F   UNL     1       2.041   7.572  -5.288  1.00  0.00    -0.205 F 
ATOM     87  C   UNL     1       2.673  10.608  -3.346  1.00  0.00     0.022 A 
BRANCH  85  88
ATOM     88  S   UNL     1       2.695   8.070  -2.314  1.00  0.00     0.127 S 
ATOM     89  O   UNL     1       4.138   8.089  -2.091  1.00  0.00    -0.237 OA
ATOM     90  O   UNL     1       1.900   8.691  -1.254  1.00  0.00    -0.237 OA
ATOM     91  O   UNL     1       2.150   6.812  -2.809  1.00  0.00    -0.744 OA
ENDBRANCH  85  88
ENDBRANCH  57  81
BRANCH  69  92
ATOM     92  C   UNL     1       4.796  10.427 -12.271  1.00  0.00     0.023 A 
ATOM     93  C   UNL     1       5.999   9.741 -12.015  1.00  0.00     0.012 A 
ATOM     94  C   UNL     1       4.818  11.596 -13.056  1.00  0.00     0.148 A 
ATOM     95  C   UNL     1       7.209  10.224 -12.512  1.00  0.00     0.002 A 
ATOM     96  C   UNL     1       6.021  12.044 -13.590  1.00  0.00     0.091 A 
ATOM     97  F   UNL     1       3.663  12.241 -13.275  1.00  0.00    -0.205 F 
ATOM     98  C   UNL     1       7.218  11.366 -13.309  1.00  0.00     0.022 A 
BRANCH  96  99
ATOM     99  S   UNL     1       6.121  13.449 -14.704  1.00  0.00     0.127 S 
ATOM    100  O   UNL     1       6.837  14.427 -13.887  1.00  0.00    -0.237 OA
ATOM    101  O   UNL     1       6.894  12.903 -15.820  1.00  0.00    -0.237 OA
ATOM    102  O   UNL     1       4.747  13.803 -15.034  1.00  0.00    -0.744 OA
ENDBRANCH  96  99
ENDBRANCH  69  92
ENDBRANCH  43  44
ENDBRANCH  35  38
ENDBRANCH  33  34
ENDBRANCH  32  33
ENDBRANCH  31  32
ENDBRANCH   1  31
TORSDOF 19
