REMARK SMILES COc1ccc(-c2csc(NC(=O)[C@H](CC(=O)NCCCCCCNC(=O)c3ccc(-c4c5nc(c(-c6cccc(S(=O)(=O)[O-])c6F)c6ccc([nH]6)c(-c6cccc(S(=O)(=O)[O-])c6F)c6nc(c(-c7cccc(S(=O)(=O)[O-])c7F)c7ccc4[nH]7)C=C6)C=C5)cc3)[NH+]3CCCCC3)n2)cc1
REMARK SMILES IDX 20 1 19 2 18 3 16 4 17 5 15 7 14 8 12 9 11 10 13 12 10 13
REMARK SMILES IDX 7 14 8 15 97 16 9 17 6 18 3 19 4 20 99 21 5 22 98 23 2 24
REMARK SMILES IDX 1 25 91 26 92 27 96 28 93 30 95 31 94 32 21 33 22 34 23 35
REMARK SMILES IDX 24 36 25 37 26 38 27 40 28 41 29 42 90 43 30 44 89 45 31 46
REMARK SMILES IDX 32 47 33 48 83 49 34 50 88 51 82 52 84 53 35 54 87 55 81 56
REMARK SMILES IDX 80 57 36 59 68 60 48 61 67 62 49 63 52 64 66 65 85 66 50 67
REMARK SMILES IDX 51 68 65 70 86 71 53 72 37 73 38 74 46 75 39 76 41 77 47 78
REMARK SMILES IDX 40 79 42 80 43 81 44 82 45 83 69 84 70 85 78 86 71 87 73 88
REMARK SMILES IDX 79 89 72 90 74 91 75 92 76 93 77 94 54 95 55 96 63 97 56 98
REMARK SMILES IDX 58 99 64 100 57 101 59 102 60 103 61 104 62 105
REMARK H PARENT 18 6 11 11 91 29 25 39 84 58 52 69
REMARK Flexibility Score: inf
ROOT
ATOM      1  C   UNL     1       1.529  -1.280  -6.843  1.00  0.00     0.021 C 
ENDROOT
BRANCH   1   2
ATOM      2  C   UNL     1       3.031  -2.165  -6.893  1.00  0.00     0.116 C 
BRANCH   2   3
ATOM      3  N   UNL     1       3.336  -4.229  -7.333  1.00  0.00    -0.356 N 
ATOM      4  C   UNL     1       3.553  -5.219  -8.429  1.00  0.00     0.226 C 
ATOM      5  O   UNL     1       3.364  -6.406  -8.126  1.00  0.00    -0.275 OA
ATOM      6  H   UNL     1       3.333  -4.722  -6.480  1.00  0.00     0.163 HD
BRANCH   4   7
ATOM      7  C   UNL     1       4.001  -4.857  -9.987  1.00  0.00     0.175 C 
BRANCH   7   8
ATOM      8  C   UNL     1       3.327  -3.736 -10.934  1.00  0.00     0.284 C 
BRANCH   8   9
ATOM      9  C   UNL     1       1.865  -3.905 -10.632  1.00  0.00     0.285 C 
ATOM     10  N   UNL     1       1.451  -3.509  -9.407  1.00  0.00    -0.297 N 
ATOM     11  H   UNL     1       0.477  -3.454  -9.277  1.00  0.00     0.172 HD
ATOM     12  O   UNL     1       1.064  -4.359 -11.450  1.00  0.00    -0.268 OA
BRANCH  10  13
ATOM     13  C   UNL     1       2.226  -3.172  -8.322  1.00  0.00     0.190 A 
ATOM     14  C   UNL     1       3.060  -3.602  -5.435  1.00  0.00     0.084 A 
ATOM     15  C   UNL     1       4.608  -3.354  -6.062  1.00  0.00     0.097 A 
ATOM     16  N   UNL     1       1.717  -3.572  -6.741  1.00  0.00    -0.220 NA
ATOM     17  S   UNL     1       4.577  -2.830  -8.283  1.00  0.00    -0.105 S 
BRANCH  14  18
ATOM     18  C   UNL     1       2.746  -3.657  -4.013  1.00  0.00     0.001 A 
ATOM     19  C   UNL     1       1.986  -3.570  -1.319  1.00  0.00     0.118 A 
ATOM     20  C   UNL     1       2.903  -2.645  -1.799  1.00  0.00     0.047 A 
ATOM     21  C   UNL     1       1.440  -4.532  -2.168  1.00  0.00     0.047 A 
ATOM     22  C   UNL     1       3.325  -2.732  -3.127  1.00  0.00     0.014 A 
ATOM     23  C   UNL     1       1.803  -4.561  -3.522  1.00  0.00     0.014 A 
BRANCH  19  24
ATOM     24  O   UNL     1       1.585  -3.485  -0.015  1.00  0.00    -0.497 OA
ATOM     25  C   UNL     1       2.364  -4.370   0.790  1.00  0.00     0.278 C 
ENDBRANCH  19  24
ENDBRANCH  14  18
ENDBRANCH  10  13
ENDBRANCH   8   9
BRANCH   8  26
ATOM     26  N   UNL     1       3.612  -2.256 -10.869  1.00  0.00    -0.324 N 
ATOM     27  C   UNL     1       4.948  -1.819 -11.295  1.00  0.00     0.262 C 
ATOM     28  C   UNL     1       2.596  -1.345 -11.440  1.00  0.00     0.262 C 
ATOM     29  H   UNL     1       3.564  -2.160  -9.855  1.00  0.00     0.348 HD
ATOM     30  C   UNL     1       5.235  -0.411 -10.729  1.00  0.00     0.062 C 
ATOM     31  C   UNL     1       2.776   0.072 -10.880  1.00  0.00     0.062 C 
ATOM     32  C   UNL     1       4.175   0.609 -11.135  1.00  0.00     0.012 C 
ENDBRANCH   8  26
ENDBRANCH   7   8
ENDBRANCH   4   7
ENDBRANCH   2   3
ENDBRANCH   1   2
BRANCH   1  33
ATOM     33  C   UNL     1       1.138  -0.761  -5.477  1.00  0.00     0.002 C 
BRANCH  33  34
ATOM     34  C   UNL     1       2.232   0.033  -4.765  1.00  0.00     0.002 C 
BRANCH  34  35
ATOM     35  C   UNL     1       2.819   1.214  -5.530  1.00  0.00     0.021 C 
BRANCH  35  36
ATOM     36  C   UNL     1       1.773   2.210  -5.996  1.00  0.00     0.116 C 
BRANCH  36  37
ATOM     37  N   UNL     1       0.819   2.500  -4.929  1.00  0.00    -0.352 N 
ATOM     38  C   UNL     1       0.751   3.595  -4.111  1.00  0.00     0.251 C 
ATOM     39  H   UNL     1       0.130   1.814  -4.777  1.00  0.00     0.163 HD
ATOM     40  O   UNL     1       0.172   3.541  -3.032  1.00  0.00    -0.269 OA
BRANCH  38  41
ATOM     41  C   UNL     1       1.384   4.838  -4.572  1.00  0.00     0.039 A 
ATOM     42  C   UNL     1       2.140   5.603  -3.686  1.00  0.00     0.014 A 
ATOM     43  C   UNL     1       1.254   5.202  -5.915  1.00  0.00     0.014 A 
ATOM     44  C   UNL     1       2.823   6.714  -4.173  1.00  0.00     0.010 A 
ATOM     45  C   UNL     1       2.029   6.228  -6.417  1.00  0.00     0.010 A 
ATOM     46  C   UNL     1       2.802   7.007  -5.548  1.00  0.00    -0.014 A 
BRANCH  46  47
ATOM     47  C   UNL     1       3.585   8.126  -6.111  1.00  0.00     0.031 A 
ATOM     48  C   UNL     1       2.878   9.236  -6.836  1.00  0.00     0.074 A 
ATOM     49  C   UNL     1       4.929   8.079  -6.057  1.00  0.00     0.049 A 
ATOM     50  N   UNL     1       3.387  10.266  -7.456  1.00  0.00    -0.248 NA
ATOM     51  C   UNL     1       1.407   9.161  -6.909  1.00  0.00     0.031 C 
ATOM     52  C   UNL     1       5.715   6.994  -5.463  1.00  0.00     0.029 A 
ATOM     53  N   UNL     1       5.873   8.950  -6.533  1.00  0.00    -0.354 N 
ATOM     54  C   UNL     1       2.310  10.935  -8.023  1.00  0.00     0.074 A 
ATOM     55  C   UNL     1       1.123  10.172  -7.715  1.00  0.00     0.031 C 
ATOM     56  C   UNL     1       7.021   7.273  -5.597  1.00  0.00     0.029 A 
ATOM     57  C   UNL     1       7.165   8.530  -6.321  1.00  0.00     0.049 A 
ATOM     58  H   UNL     1       5.647   9.796  -6.983  1.00  0.00     0.167 HD
ATOM     59  C   UNL     1       2.309  12.099  -8.711  1.00  0.00     0.034 A 
ATOM     60  C   UNL     1       8.332   9.092  -6.686  1.00  0.00     0.034 A 
ATOM     61  C   UNL     1       3.494  12.865  -8.975  1.00  0.00     0.049 A 
ATOM     62  C   UNL     1       8.301  10.404  -7.419  1.00  0.00     0.074 A 
ATOM     63  C   UNL     1       3.599  14.109  -9.568  1.00  0.00     0.029 A 
ATOM     64  N   UNL     1       4.784  12.450  -8.678  1.00  0.00    -0.354 N 
ATOM     65  N   UNL     1       7.265  11.116  -7.791  1.00  0.00    -0.248 NA
ATOM     66  C   UNL     1       9.598  11.006  -7.758  1.00  0.00     0.031 C 
ATOM     67  C   UNL     1       4.956  14.427  -9.669  1.00  0.00     0.029 A 
ATOM     68  C   UNL     1       5.695  13.400  -9.101  1.00  0.00     0.049 A 
ATOM     69  H   UNL     1       5.016  11.604  -8.231  1.00  0.00     0.167 HD
ATOM     70  C   UNL     1       7.781  12.259  -8.387  1.00  0.00     0.074 A 
ATOM     71  C   UNL     1       9.224  12.158  -8.297  1.00  0.00     0.031 C 
ATOM     72  C   UNL     1       7.125  13.292  -8.972  1.00  0.00     0.034 A 
BRANCH  59  73
ATOM     73  C   UNL     1       0.983  12.629  -9.190  1.00  0.00     0.023 A 
ATOM     74  C   UNL     1       0.038  13.105  -8.258  1.00  0.00     0.012 A 
ATOM     75  C   UNL     1       0.692  12.698 -10.565  1.00  0.00     0.148 A 
ATOM     76  C   UNL     1      -1.190  13.608  -8.684  1.00  0.00     0.002 A 
ATOM     77  C   UNL     1      -0.514  13.248 -10.985  1.00  0.00     0.091 A 
ATOM     78  F   UNL     1       1.591  12.217 -11.435  1.00  0.00    -0.205 F 
ATOM     79  C   UNL     1      -1.460  13.690 -10.047  1.00  0.00     0.022 A 
BRANCH  77  80
ATOM     80  S   UNL     1      -0.924  13.474 -12.719  1.00  0.00     0.127 S 
ATOM     81  O   UNL     1      -2.016  12.517 -12.890  1.00  0.00    -0.237 OA
ATOM     82  O   UNL     1      -1.332  14.878 -12.755  1.00  0.00    -0.237 OA
ATOM     83  O   UNL     1       0.291  13.172 -13.463  1.00  0.00    -0.744 OA
ENDBRANCH  77  80
ENDBRANCH  59  73
BRANCH  60  84
ATOM     84  C   UNL     1       9.619   8.436  -6.322  1.00  0.00     0.023 A 
ATOM     85  C   UNL     1      10.458   9.033  -5.362  1.00  0.00     0.012 A 
ATOM     86  C   UNL     1       9.998   7.207  -6.896  1.00  0.00     0.148 A 
ATOM     87  C   UNL     1      11.666   8.435  -5.003  1.00  0.00     0.002 A 
ATOM     88  C   UNL     1      11.174   6.587  -6.492  1.00  0.00     0.091 A 
ATOM     89  F   UNL     1       9.188   6.658  -7.812  1.00  0.00    -0.205 F 
ATOM     90  C   UNL     1      12.020   7.209  -5.560  1.00  0.00     0.022 A 
BRANCH  88  91
ATOM     91  S   UNL     1      11.640   4.946  -7.053  1.00  0.00     0.127 S 
ATOM     92  O   UNL     1      12.811   5.232  -7.878  1.00  0.00    -0.237 OA
ATOM     93  O   UNL     1      11.926   4.266  -5.789  1.00  0.00    -0.237 OA
ATOM     94  O   UNL     1      10.479   4.426  -7.764  1.00  0.00    -0.744 OA
ENDBRANCH  88  91
ENDBRANCH  60  84
BRANCH  72  95
ATOM     95  C   UNL     1       7.958  14.405  -9.549  1.00  0.00     0.023 A 
ATOM     96  C   UNL     1       8.699  14.187 -10.727  1.00  0.00     0.012 A 
ATOM     97  C   UNL     1       7.942  15.688  -8.967  1.00  0.00     0.148 A 
ATOM     98  C   UNL     1       9.438  15.220 -11.300  1.00  0.00     0.002 A 
ATOM     99  C   UNL     1       8.637  16.726  -9.573  1.00  0.00     0.091 A 
ATOM    100  F   UNL     1       7.241  15.869  -7.838  1.00  0.00    -0.205 F 
ATOM    101  C   UNL     1       9.397  16.491 -10.731  1.00  0.00     0.022 A 
BRANCH  99 102
ATOM    102  S   UNL     1       8.565  18.416  -8.972  1.00  0.00     0.127 S 
ATOM    103  O   UNL     1       9.933  18.622  -8.498  1.00  0.00    -0.237 OA
ATOM    104  O   UNL     1       8.221  19.159 -10.185  1.00  0.00    -0.237 OA
ATOM    105  O   UNL     1       7.541  18.435  -7.937  1.00  0.00    -0.744 OA
ENDBRANCH  99 102
ENDBRANCH  72  95
ENDBRANCH  46  47
ENDBRANCH  38  41
ENDBRANCH  36  37
ENDBRANCH  35  36
ENDBRANCH  34  35
ENDBRANCH  33  34
ENDBRANCH   1  33
TORSDOF 22
