REMARK SMILES Cc1ccc(C)c(OCCNC(=O)CCC(=O)NCCCCCCNC(=O)c2ccc(-c3c4nc(c(-c5cccc(S(=O)(=O)[O-])c5F)c5ccc([nH]5)c(-c5cccc(S(=O)(=O)[O-])c5F)c5nc(c(-c6cccc(S(=O)(=O)[O-])c6F)c6ccc3[nH]6)C=C5)C=C4)cc2)c1
REMARK SMILES IDX 20 1 19 2 18 3 16 4 17 5 15 7 14 8 12 9 11 10 13 12 10 13
REMARK SMILES IDX 9 14 8 15 7 16 1 17 2 18 3 19 91 20 4 21 5 22 6 23 21 24
REMARK SMILES IDX 22 25 23 26 24 27 25 28 26 29 27 31 28 32 29 33 90 34 30 35
REMARK SMILES IDX 89 36 31 37 32 38 33 39 83 40 34 41 88 42 82 43 84 44 35 45
REMARK SMILES IDX 87 46 81 47 80 48 36 50 68 51 48 52 67 53 49 54 52 55 66 56
REMARK SMILES IDX 85 57 50 58 51 59 65 61 86 62 53 63 37 64 38 65 46 66 39 67
REMARK SMILES IDX 41 68 47 69 40 70 42 71 43 72 44 73 45 74 69 75 70 76 78 77
REMARK SMILES IDX 71 78 73 79 79 80 72 81 74 82 75 83 76 84 77 85 54 86 55 87
REMARK SMILES IDX 63 88 56 89 58 90 64 91 57 92 59 93 60 94 61 95 62 96
REMARK H PARENT 18 6 11 11 25 30 84 49 52 60
REMARK Flexibility Score: inf
ROOT
ATOM      1  C   UNL     1       1.371   1.524   1.113  1.00  0.00     0.021 C 
ENDROOT
BRANCH   1   2
ATOM      2  C   UNL     1       2.319   2.563   0.438  1.00  0.00     0.116 C 
BRANCH   2   3
ATOM      3  N   UNL     1       1.828   3.573  -0.500  1.00  0.00    -0.356 N 
ATOM      4  C   UNL     1       2.273   4.841  -0.728  1.00  0.00     0.220 C 
ATOM      5  O   UNL     1       1.815   5.494  -1.668  1.00  0.00    -0.275 OA
ATOM      6  H   UNL     1       1.061   3.295  -1.050  1.00  0.00     0.163 HD
BRANCH   4   7
ATOM      7  C   UNL     1       3.203   5.438   0.268  1.00  0.00     0.110 C 
BRANCH   7   8
ATOM      8  C   UNL     1       2.409   5.933   1.463  1.00  0.00     0.110 C 
BRANCH   8   9
ATOM      9  C   UNL     1       1.355   5.019   2.062  1.00  0.00     0.220 C 
ATOM     10  N   UNL     1       0.142   4.721   1.521  1.00  0.00    -0.353 N 
ATOM     11  H   UNL     1      -0.359   4.153   2.149  1.00  0.00     0.163 HD
ATOM     12  O   UNL     1       1.544   4.518   3.179  1.00  0.00    -0.275 OA
BRANCH  10  13
ATOM     13  C   UNL     1      -0.691   4.955   0.309  1.00  0.00     0.157 C 
BRANCH  13  14
ATOM     14  C   UNL     1      -1.091   3.858  -0.885  1.00  0.00     0.250 C 
BRANCH  14  15
ATOM     15  O   UNL     1      -1.016   2.429  -0.684  1.00  0.00    -0.491 OA
BRANCH  15  16
ATOM     16  C   UNL     1      -0.806   1.447  -1.671  1.00  0.00     0.122 A 
ATOM     17  C   UNL     1       2.392  -0.602  -1.883  1.00  0.00     0.044 C 
ATOM     18  C   UNL     1       0.943  -0.248  -2.123  1.00  0.00    -0.047 A 
ATOM     19  C   UNL     1      -0.006  -1.256  -2.188  1.00  0.00     0.004 A 
ATOM     20  C   UNL     1       0.517   1.096  -2.004  1.00  0.00     0.050 A 
ATOM     21  C   UNL     1      -1.353  -0.915  -2.104  1.00  0.00     0.007 A 
ATOM     22  C   UNL     1      -1.764   0.417  -1.809  1.00  0.00    -0.009 A 
ATOM     23  C   UNL     1      -3.223   0.599  -1.514  1.00  0.00     0.048 C 
ENDBRANCH  15  16
ENDBRANCH  14  15
ENDBRANCH  13  14
ENDBRANCH  10  13
ENDBRANCH   8   9
ENDBRANCH   7   8
ENDBRANCH   4   7
ENDBRANCH   2   3
ENDBRANCH   1   2
BRANCH   1  24
ATOM     24  C   UNL     1       0.038   1.824   1.836  1.00  0.00     0.002 C 
BRANCH  24  25
ATOM     25  C   UNL     1      -1.103   0.784   1.810  1.00  0.00     0.002 C 
BRANCH  25  26
ATOM     26  C   UNL     1      -0.642  -0.603   1.455  1.00  0.00     0.021 C 
BRANCH  26  27
ATOM     27  C   UNL     1      -1.452  -1.682   2.099  1.00  0.00     0.116 C 
BRANCH  27  28
ATOM     28  N   UNL     1      -2.521  -2.392   1.421  1.00  0.00    -0.352 N 
ATOM     29  C   UNL     1      -3.069  -3.565   1.953  1.00  0.00     0.251 C 
ATOM     30  H   UNL     1      -2.868  -2.041   0.569  1.00  0.00     0.163 HD
ATOM     31  O   UNL     1      -3.968  -4.197   1.402  1.00  0.00    -0.269 OA
BRANCH  29  32
ATOM     32  C   UNL     1      -2.509  -3.997   3.273  1.00  0.00     0.039 A 
ATOM     33  C   UNL     1      -3.029  -3.325   4.389  1.00  0.00     0.014 A 
ATOM     34  C   UNL     1      -1.177  -4.411   3.253  1.00  0.00     0.014 A 
ATOM     35  C   UNL     1      -2.149  -2.774   5.325  1.00  0.00     0.010 A 
ATOM     36  C   UNL     1      -0.305  -3.813   4.163  1.00  0.00     0.010 A 
ATOM     37  C   UNL     1      -0.771  -2.898   5.132  1.00  0.00    -0.014 A 
BRANCH  37  38
ATOM     38  C   UNL     1       0.186  -2.190   5.998  1.00  0.00     0.031 A 
ATOM     39  C   UNL     1       1.149  -3.102   6.643  1.00  0.00     0.074 A 
ATOM     40  C   UNL     1       0.435  -0.876   6.207  1.00  0.00     0.049 A 
ATOM     41  N   UNL     1       0.954  -3.759   7.736  1.00  0.00    -0.248 NA
ATOM     42  C   UNL     1       2.364  -3.463   5.901  1.00  0.00     0.031 C 
ATOM     43  C   UNL     1       0.020   0.302   5.452  1.00  0.00     0.029 A 
ATOM     44  N   UNL     1       1.254  -0.339   7.169  1.00  0.00    -0.354 N 
ATOM     45  C   UNL     1       2.129  -4.464   7.919  1.00  0.00     0.074 A 
ATOM     46  C   UNL     1       2.796  -4.484   6.641  1.00  0.00     0.031 C 
ATOM     47  C   UNL     1       0.745   1.380   5.855  1.00  0.00     0.029 A 
ATOM     48  C   UNL     1       1.558   1.006   7.002  1.00  0.00     0.049 A 
ATOM     49  H   UNL     1       1.601  -0.869   7.922  1.00  0.00     0.167 HD
ATOM     50  C   UNL     1       2.629  -4.725   9.154  1.00  0.00     0.034 A 
ATOM     51  C   UNL     1       2.431   1.731   7.749  1.00  0.00     0.034 A 
ATOM     52  C   UNL     1       1.731  -4.345  10.215  1.00  0.00     0.049 A 
ATOM     53  C   UNL     1       2.651   0.997   9.021  1.00  0.00     0.074 A 
ATOM     54  C   UNL     1       0.409  -4.590  10.536  1.00  0.00     0.029 A 
ATOM     55  N   UNL     1       2.105  -3.266  10.982  1.00  0.00    -0.354 N 
ATOM     56  N   UNL     1       1.784   0.920   9.991  1.00  0.00    -0.248 NA
ATOM     57  C   UNL     1       3.785   0.092   9.123  1.00  0.00     0.031 C 
ATOM     58  C   UNL     1      -0.063  -3.387  11.143  1.00  0.00     0.029 A 
ATOM     59  C   UNL     1       0.997  -2.479  11.155  1.00  0.00     0.049 A 
ATOM     60  H   UNL     1       3.005  -3.091  11.341  1.00  0.00     0.167 HD
ATOM     61  C   UNL     1       2.033  -0.307  10.588  1.00  0.00     0.074 A 
ATOM     62  C   UNL     1       3.357  -0.692  10.115  1.00  0.00     0.031 C 
ATOM     63  C   UNL     1       1.026  -1.031  11.165  1.00  0.00     0.034 A 
BRANCH  50  64
ATOM     64  C   UNL     1       4.080  -5.013   9.414  1.00  0.00     0.023 A 
ATOM     65  C   UNL     1       4.409  -5.653  10.624  1.00  0.00     0.012 A 
ATOM     66  C   UNL     1       5.149  -4.533   8.628  1.00  0.00     0.148 A 
ATOM     67  C   UNL     1       5.739  -5.813  11.023  1.00  0.00     0.002 A 
ATOM     68  C   UNL     1       6.466  -4.809   8.965  1.00  0.00     0.091 A 
ATOM     69  F   UNL     1       4.922  -3.686   7.616  1.00  0.00    -0.205 F 
ATOM     70  C   UNL     1       6.771  -5.422  10.178  1.00  0.00     0.022 A 
BRANCH  68  71
ATOM     71  S   UNL     1       7.777  -4.439   7.798  1.00  0.00     0.127 S 
ATOM     72  O   UNL     1       8.128  -3.072   8.163  1.00  0.00    -0.237 OA
ATOM     73  O   UNL     1       8.784  -5.449   8.125  1.00  0.00    -0.237 OA
ATOM     74  O   UNL     1       7.153  -4.630   6.492  1.00  0.00    -0.744 OA
ENDBRANCH  68  71
ENDBRANCH  50  64
BRANCH  51  75
ATOM     75  C   UNL     1       3.190   2.983   7.498  1.00  0.00     0.023 A 
ATOM     76  C   UNL     1       3.612   3.756   8.605  1.00  0.00     0.012 A 
ATOM     77  C   UNL     1       3.755   3.267   6.235  1.00  0.00     0.148 A 
ATOM     78  C   UNL     1       4.597   4.739   8.474  1.00  0.00     0.002 A 
ATOM     79  C   UNL     1       4.733   4.255   6.106  1.00  0.00     0.091 A 
ATOM     80  F   UNL     1       3.389   2.516   5.188  1.00  0.00    -0.205 F 
ATOM     81  C   UNL     1       5.167   4.978   7.229  1.00  0.00     0.022 A 
BRANCH  79  82
ATOM     82  S   UNL     1       5.586   4.589   4.554  1.00  0.00     0.127 S 
ATOM     83  O   UNL     1       5.075   5.913   4.200  1.00  0.00    -0.237 OA
ATOM     84  O   UNL     1       6.991   4.577   4.963  1.00  0.00    -0.237 OA
ATOM     85  O   UNL     1       5.215   3.516   3.640  1.00  0.00    -0.744 OA
ENDBRANCH  79  82
ENDBRANCH  51  75
BRANCH  63  86
ATOM     86  C   UNL     1      -0.265  -0.326  11.509  1.00  0.00     0.023 A 
ATOM     87  C   UNL     1      -1.022   0.364  10.541  1.00  0.00     0.012 A 
ATOM     88  C   UNL     1      -0.803  -0.478  12.802  1.00  0.00     0.148 A 
ATOM     89  C   UNL     1      -2.259   0.927  10.860  1.00  0.00     0.002 A 
ATOM     90  C   UNL     1      -2.059   0.040  13.102  1.00  0.00     0.091 A 
ATOM     91  F   UNL     1      -0.081  -1.137  13.722  1.00  0.00    -0.205 F 
ATOM     92  C   UNL     1      -2.784   0.755  12.137  1.00  0.00     0.022 A 
BRANCH  90  93
ATOM     93  S   UNL     1      -2.848  -0.270  14.686  1.00  0.00     0.127 S 
ATOM     94  O   UNL     1      -2.559   0.958  15.421  1.00  0.00    -0.237 OA
ATOM     95  O   UNL     1      -4.254  -0.443  14.316  1.00  0.00    -0.237 OA
ATOM     96  O   UNL     1      -2.222  -1.482  15.204  1.00  0.00    -0.744 OA
ENDBRANCH  90  93
ENDBRANCH  63  86
ENDBRANCH  37  38
ENDBRANCH  29  32
ENDBRANCH  27  28
ENDBRANCH  26  27
ENDBRANCH  25  26
ENDBRANCH  24  25
ENDBRANCH   1  24
TORSDOF 22
