REMARK SMILES C[C@@H](C(=O)NCCCCCCNC(=O)c1ccc(-c2c3nc(c(-c4cccc(S(=O)(=O)[O-])c4F)c4ccc([nH]4)c(-c4cccc(S(=O)(=O)[O-])c4F)c4nc(c(-c5cccc(S(=O)(=O)[O-])c5F)c5ccc2[nH]5)C=C4)C=C3)cc1)c1ccc2c3cc(Cl)ccc3n(C(=O)c3cocn3)c2c1
REMARK SMILES IDX 8 1 7 2 6 3 5 4 3 5 4 6 2 8 1 9 78 10 79 11 98 12 80 13
REMARK SMILES IDX 97 14 81 15 89 16 82 17 88 18 83 19 87 20 84 21 86 22 85 23
REMARK SMILES IDX 90 24 91 25 92 26 93 27 96 28 94 29 95 30 9 31 10 32 11 33
REMARK SMILES IDX 12 34 13 35 14 37 15 38 16 39 77 40 17 41 76 42 18 43 19 44
REMARK SMILES IDX 20 45 70 46 21 47 75 48 69 49 71 50 22 51 74 52 68 53 67 54
REMARK SMILES IDX 23 56 55 57 35 58 54 59 36 60 39 61 53 62 72 63 37 64 38 65
REMARK SMILES IDX 52 67 73 68 40 69 24 70 25 71 33 72 26 73 28 74 34 75 27 76
REMARK SMILES IDX 29 77 30 78 31 79 32 80 56 81 57 82 65 83 58 84 60 85 66 86
REMARK SMILES IDX 59 87 61 88 62 89 63 90 64 91 41 92 42 93 50 94 43 95 45 96
REMARK SMILES IDX 51 97 44 98 46 99 47 100 48 101 49 102
REMARK H PARENT 5 7 12 36 71 55 39 66
REMARK Flexibility Score: inf
ROOT
ATOM      1  C   UNL     1       4.996  -0.466   2.746  1.00  0.00     0.002 C 
ENDROOT
BRANCH   1   2
ATOM      2  C   UNL     1       4.273  -0.464   1.393  1.00  0.00     0.021 C 
BRANCH   2   3
ATOM      3  C   UNL     1       3.410  -1.706   1.149  1.00  0.00     0.116 C 
BRANCH   3   4
ATOM      4  N   UNL     1       2.289  -1.715   2.066  1.00  0.00    -0.356 N 
ATOM      5  C   UNL     1       1.021  -1.242   1.887  1.00  0.00     0.227 C 
ATOM      6  O   UNL     1       0.338  -1.078   2.901  1.00  0.00    -0.274 OA
ATOM      7  H   UNL     1       2.467  -2.122   2.945  1.00  0.00     0.163 HD
BRANCH   5   8
ATOM      8  C   UNL     1       0.495  -0.981   0.463  1.00  0.00     0.105 C 
ATOM      9  C   UNL     1       1.096   0.299  -0.130  1.00  0.00     0.023 C 
BRANCH   8  10
ATOM     10  C   UNL     1      -1.038  -1.004   0.428  1.00  0.00    -0.034 A 
ATOM     11  C   UNL     1      -1.802   0.139   0.182  1.00  0.00     0.005 A 
ATOM     12  C   UNL     1      -1.698  -2.223   0.686  1.00  0.00     0.032 A 
ATOM     13  C   UNL     1      -3.196   0.077   0.128  1.00  0.00     0.011 A 
ATOM     14  C   UNL     1      -3.109  -2.268   0.708  1.00  0.00     0.058 A 
ATOM     15  C   UNL     1      -3.856  -1.140   0.383  1.00  0.00     0.008 A 
ATOM     16  N   UNL     1      -3.998  -3.315   1.002  1.00  0.00    -0.274 N 
ATOM     17  C   UNL     1      -5.226  -1.506   0.407  1.00  0.00     0.009 A 
ATOM     18  C   UNL     1      -5.312  -2.827   0.861  1.00  0.00     0.057 A 
ATOM     19  C   UNL     1      -6.402  -0.778   0.124  1.00  0.00     0.031 A 
ATOM     20  C   UNL     1      -6.573  -3.388   1.153  1.00  0.00     0.029 A 
ATOM     21  C   UNL     1      -7.643  -1.367   0.343  1.00  0.00     0.041 A 
ATOM     22  C   UNL     1      -7.729  -2.648   0.870  1.00  0.00     0.023 A 
ATOM     23  Cl  UNL     1      -9.076  -0.481  -0.005  1.00  0.00    -0.084 Cl
BRANCH  16  24
ATOM     24  C   UNL     1      -3.599  -4.617   1.412  1.00  0.00     0.284 C 
ATOM     25  O   UNL     1      -2.485  -4.699   1.954  1.00  0.00    -0.266 OA
BRANCH  24  26
ATOM     26  C   UNL     1      -4.373  -5.837   1.221  1.00  0.00     0.167 A 
ATOM     27  C   UNL     1      -5.256  -6.149   0.207  1.00  0.00     0.231 A 
ATOM     28  N   UNL     1      -4.217  -6.961   2.023  1.00  0.00    -0.211 NA
ATOM     29  O   UNL     1      -5.671  -7.437   0.374  1.00  0.00    -0.451 OA
ATOM     30  C   UNL     1      -4.988  -7.864   1.470  1.00  0.00     0.308 A 
ENDBRANCH  24  26
ENDBRANCH  16  24
ENDBRANCH   8  10
ENDBRANCH   5   8
ENDBRANCH   3   4
ENDBRANCH   2   3
ENDBRANCH   1   2
BRANCH   1  31
ATOM     31  C   UNL     1       5.961  -1.635   2.960  1.00  0.00     0.002 C 
BRANCH  31  32
ATOM     32  C   UNL     1       7.020  -1.803   1.868  1.00  0.00     0.021 C 
BRANCH  32  33
ATOM     33  C   UNL     1       7.917  -0.587   1.661  1.00  0.00     0.116 C 
BRANCH  33  34
ATOM     34  N   UNL     1       8.726  -0.300   2.836  1.00  0.00    -0.352 N 
ATOM     35  C   UNL     1      10.082  -0.110   2.922  1.00  0.00     0.251 C 
ATOM     36  H   UNL     1       8.232  -0.234   3.685  1.00  0.00     0.163 HD
ATOM     37  O   UNL     1      10.630  -0.071   4.020  1.00  0.00    -0.269 OA
BRANCH  35  38
ATOM     38  C   UNL     1      10.882   0.032   1.687  1.00  0.00     0.039 A 
ATOM     39  C   UNL     1      12.071  -0.691   1.561  1.00  0.00     0.014 A 
ATOM     40  C   UNL     1      10.460   0.880   0.658  1.00  0.00     0.014 A 
ATOM     41  C   UNL     1      12.812  -0.604   0.380  1.00  0.00     0.010 A 
ATOM     42  C   UNL     1      11.165   0.916  -0.541  1.00  0.00     0.010 A 
ATOM     43  C   UNL     1      12.351   0.181  -0.690  1.00  0.00    -0.014 A 
BRANCH  43  44
ATOM     44  C   UNL     1      13.089   0.240  -1.977  1.00  0.00     0.031 A 
ATOM     45  C   UNL     1      13.689   1.537  -2.447  1.00  0.00     0.074 A 
ATOM     46  C   UNL     1      13.133  -0.849  -2.769  1.00  0.00     0.049 A 
ATOM     47  N   UNL     1      14.309   1.800  -3.568  1.00  0.00    -0.248 NA
ATOM     48  C   UNL     1      13.548   2.699  -1.553  1.00  0.00     0.031 C 
ATOM     49  C   UNL     1      12.512  -2.140  -2.466  1.00  0.00     0.029 A 
ATOM     50  N   UNL     1      13.695  -1.034  -4.007  1.00  0.00    -0.354 N 
ATOM     51  C   UNL     1      14.596   3.159  -3.534  1.00  0.00     0.074 A 
ATOM     52  C   UNL     1      14.057   3.674  -2.294  1.00  0.00     0.031 C 
ATOM     53  C   UNL     1      12.721  -2.980  -3.492  1.00  0.00     0.029 A 
ATOM     54  C   UNL     1      13.471  -2.284  -4.534  1.00  0.00     0.049 A 
ATOM     55  H   UNL     1      14.211  -0.337  -4.474  1.00  0.00     0.167 HD
ATOM     56  C   UNL     1      15.274   3.907  -4.437  1.00  0.00     0.034 A 
ATOM     57  C   UNL     1      13.823  -2.810  -5.723  1.00  0.00     0.034 A 
ATOM     58  C   UNL     1      15.858   3.380  -5.641  1.00  0.00     0.049 A 
ATOM     59  C   UNL     1      14.633  -1.978  -6.680  1.00  0.00     0.074 A 
ATOM     60  C   UNL     1      16.654   4.031  -6.567  1.00  0.00     0.029 A 
ATOM     61  N   UNL     1      15.706   2.078  -6.090  1.00  0.00    -0.354 N 
ATOM     62  N   UNL     1      15.049  -0.742  -6.549  1.00  0.00    -0.248 NA
ATOM     63  C   UNL     1      15.057  -2.624  -7.931  1.00  0.00     0.031 C 
ATOM     64  C   UNL     1      16.973   3.124  -7.583  1.00  0.00     0.029 A 
ATOM     65  C   UNL     1      16.387   1.905  -7.282  1.00  0.00     0.049 A 
ATOM     66  H   UNL     1      15.190   1.378  -5.628  1.00  0.00     0.167 HD
ATOM     67  C   UNL     1      15.808  -0.472  -7.681  1.00  0.00     0.074 A 
ATOM     68  C   UNL     1      15.813  -1.682  -8.478  1.00  0.00     0.031 C 
ATOM     69  C   UNL     1      16.430   0.679  -8.038  1.00  0.00     0.034 A 
BRANCH  56  70
ATOM     70  C   UNL     1      15.477   5.366  -4.125  1.00  0.00     0.023 A 
ATOM     71  C   UNL     1      16.384   5.736  -3.110  1.00  0.00     0.012 A 
ATOM     72  C   UNL     1      14.819   6.369  -4.863  1.00  0.00     0.148 A 
ATOM     73  C   UNL     1      16.607   7.080  -2.811  1.00  0.00     0.002 A 
ATOM     74  C   UNL     1      15.078   7.707  -4.587  1.00  0.00     0.091 A 
ATOM     75  F   UNL     1      13.943   5.999  -5.807  1.00  0.00    -0.205 F 
ATOM     76  C   UNL     1      15.962   8.064  -3.555  1.00  0.00     0.022 A 
BRANCH  74  77
ATOM     77  S   UNL     1      14.354   9.046  -5.541  1.00  0.00     0.127 S 
ATOM     78  O   UNL     1      13.340   9.552  -4.617  1.00  0.00    -0.237 OA
ATOM     79  O   UNL     1      15.496   9.939  -5.741  1.00  0.00    -0.237 OA
ATOM     80  O   UNL     1      13.845   8.435  -6.761  1.00  0.00    -0.744 OA
ENDBRANCH  74  77
ENDBRANCH  56  70
BRANCH  57  81
ATOM     81  C   UNL     1      13.473  -4.224  -6.038  1.00  0.00     0.023 A 
ATOM     82  C   UNL     1      14.490  -5.198  -6.057  1.00  0.00     0.012 A 
ATOM     83  C   UNL     1      12.142  -4.616  -6.273  1.00  0.00     0.148 A 
ATOM     84  C   UNL     1      14.191  -6.533  -6.330  1.00  0.00     0.002 A 
ATOM     85  C   UNL     1      11.843  -5.957  -6.492  1.00  0.00     0.091 A 
ATOM     86  F   UNL     1      11.190  -3.672  -6.264  1.00  0.00    -0.205 F 
ATOM     87  C   UNL     1      12.868  -6.914  -6.536  1.00  0.00     0.022 A 
BRANCH  85  88
ATOM     88  S   UNL     1      10.154  -6.552  -6.630  1.00  0.00     0.127 S 
ATOM     89  O   UNL     1      10.051  -6.832  -8.060  1.00  0.00    -0.237 OA
ATOM     90  O   UNL     1      10.177  -7.737  -5.770  1.00  0.00    -0.237 OA
ATOM     91  O   UNL     1       9.316  -5.470  -6.131  1.00  0.00    -0.744 OA
ENDBRANCH  85  88
ENDBRANCH  57  81
BRANCH  69  92
ATOM     92  C   UNL     1      17.193   0.688  -9.336  1.00  0.00     0.023 A 
ATOM     93  C   UNL     1      16.490   0.720 -10.556  1.00  0.00     0.012 A 
ATOM     94  C   UNL     1      18.600   0.750  -9.346  1.00  0.00     0.148 A 
ATOM     95  C   UNL     1      17.176   0.784 -11.768  1.00  0.00     0.002 A 
ATOM     96  C   UNL     1      19.276   0.859 -10.556  1.00  0.00     0.091 A 
ATOM     97  F   UNL     1      19.252   0.698  -8.175  1.00  0.00    -0.205 F 
ATOM     98  C   UNL     1      18.567   0.867 -11.768  1.00  0.00     0.022 A 
BRANCH  96  99
ATOM     99  S   UNL     1      21.059   1.064 -10.643  1.00  0.00     0.127 S 
ATOM    100  O   UNL     1      21.491  -0.264 -11.076  1.00  0.00    -0.237 OA
ATOM    101  O   UNL     1      21.204   2.112 -11.654  1.00  0.00    -0.237 OA
ATOM    102  O   UNL     1      21.481   1.456  -9.305  1.00  0.00    -0.744 OA
ENDBRANCH  96  99
ENDBRANCH  69  92
ENDBRANCH  43  44
ENDBRANCH  35  38
ENDBRANCH  33  34
ENDBRANCH  32  33
ENDBRANCH  31  32
ENDBRANCH   1  31
TORSDOF 19
