REMARK SMILES Cc1ccccc1CCNC(=O)N[C@H](C)C(=O)NCCCCCCNC(=O)c1ccc(-c2c3nc(c(-c4cccc(S(=O)(=O)[O-])c4F)c4ccc([nH]4)c(-c4cccc(S(=O)(=O)[O-])c4F)c4nc(c(-c5cccc(S(=O)(=O)[O-])c5F)c5ccc2[nH]5)C=C4)C=C3)cc1
REMARK SMILES IDX 21 1 20 2 19 3 18 4 16 5 17 6 14 8 15 9 13 10 10 11 11 12
REMARK SMILES IDX 12 14 9 16 8 17 7 18 1 19 2 20 3 21 4 22 6 23 5 24 22 25
REMARK SMILES IDX 23 26 24 27 25 28 26 29 27 31 28 32 29 33 90 34 30 35 89 36
REMARK SMILES IDX 31 37 32 38 33 39 83 40 34 41 88 42 82 43 84 44 35 45 87 46
REMARK SMILES IDX 81 47 80 48 36 50 68 51 48 52 67 53 49 54 52 55 66 56 85 57
REMARK SMILES IDX 50 58 51 59 65 61 86 62 53 63 37 64 38 65 46 66 39 67 41 68
REMARK SMILES IDX 47 69 40 70 42 71 43 72 44 73 45 74 69 75 70 76 78 77 71 78
REMARK SMILES IDX 73 79 79 80 72 81 74 82 75 83 76 84 77 85 54 86 55 87 63 88
REMARK SMILES IDX 56 89 58 90 64 91 57 92 59 93 60 94 61 95 62 96
REMARK H PARENT 18 7 10 13 13 15 25 30 84 49 52 60
REMARK Flexibility Score: inf
ROOT
ATOM      1  C   UNL     1       0.467  10.499  -1.112  1.00  0.00     0.002 C 
ENDROOT
BRANCH   1   2
ATOM      2  C   UNL     1       1.117   9.633  -2.209  1.00  0.00     0.021 C 
BRANCH   2   3
ATOM      3  C   UNL     1       2.335   8.668  -2.024  1.00  0.00     0.116 C 
BRANCH   3   4
ATOM      4  N   UNL     1       2.522   7.591  -1.024  1.00  0.00    -0.354 N 
ATOM      5  C   UNL     1       2.266   6.260  -0.844  1.00  0.00     0.242 C 
ATOM      6  O   UNL     1       2.914   5.691   0.047  1.00  0.00    -0.273 OA
ATOM      7  H   UNL     1       2.979   7.951  -0.230  1.00  0.00     0.163 HD
BRANCH   5   8
ATOM      8  C   UNL     1       1.344   5.438  -1.722  1.00  0.00     0.170 C 
ATOM      9  C   UNL     1       0.502   4.352  -1.051  1.00  0.00     0.041 C 
BRANCH   8  10
ATOM     10  N   UNL     1       0.493   6.280  -2.483  1.00  0.00    -0.327 N 
ATOM     11  N   UNL     1      -0.580   7.624  -0.819  1.00  0.00    -0.338 N 
ATOM     12  C   UNL     1      -0.476   7.087  -2.053  1.00  0.00     0.315 C 
ATOM     13  H   UNL     1      -1.099   8.456  -0.906  1.00  0.00     0.165 HD
ATOM     14  O   UNL     1      -1.272   7.452  -2.925  1.00  0.00    -0.249 OA
ATOM     15  H   UNL     1       0.637   6.266  -3.457  1.00  0.00     0.166 HD
BRANCH  11  16
ATOM     16  C   UNL     1      -0.224   7.469   0.634  1.00  0.00     0.122 C 
BRANCH  16  17
ATOM     17  C   UNL     1       1.025   7.984   1.528  1.00  0.00     0.057 C 
BRANCH  17  18
ATOM     18  C   UNL     1       1.594   9.392   1.841  1.00  0.00    -0.043 A 
ATOM     19  C   UNL     1      -0.066   9.897   3.727  1.00  0.00     0.044 C 
ATOM     20  C   UNL     1       1.050  10.276   2.796  1.00  0.00    -0.048 A 
ATOM     21  C   UNL     1       1.600  11.575   2.978  1.00  0.00     0.004 A 
ATOM     22  C   UNL     1       2.756  11.986   2.328  1.00  0.00     0.000 A 
ATOM     23  C   UNL     1       2.836   9.812   1.302  1.00  0.00     0.004 A 
ATOM     24  C   UNL     1       3.407  11.077   1.524  1.00  0.00     0.000 A 
ENDBRANCH  17  18
ENDBRANCH  16  17
ENDBRANCH  11  16
ENDBRANCH   8  10
ENDBRANCH   5   8
ENDBRANCH   3   4
ENDBRANCH   2   3
ENDBRANCH   1   2
BRANCH   1  25
ATOM     25  C   UNL     1       1.197  11.814  -0.836  1.00  0.00     0.002 C 
BRANCH  25  26
ATOM     26  C   UNL     1       1.113  12.835  -1.978  1.00  0.00     0.021 C 
BRANCH  26  27
ATOM     27  C   UNL     1      -0.004  13.832  -1.777  1.00  0.00     0.116 C 
BRANCH  27  28
ATOM     28  N   UNL     1       0.359  14.848  -0.784  1.00  0.00    -0.352 N 
ATOM     29  C   UNL     1      -0.330  16.023  -0.521  1.00  0.00     0.251 C 
ATOM     30  H   UNL     1       1.171  14.681  -0.253  1.00  0.00     0.163 HD
ATOM     31  O   UNL     1       0.285  17.080  -0.433  1.00  0.00    -0.269 OA
BRANCH  29  32
ATOM     32  C   UNL     1      -1.783  15.915  -0.269  1.00  0.00     0.039 A 
ATOM     33  C   UNL     1      -2.580  16.980   0.155  1.00  0.00     0.014 A 
ATOM     34  C   UNL     1      -2.303  14.632  -0.214  1.00  0.00     0.014 A 
ATOM     35  C   UNL     1      -3.771  16.674   0.818  1.00  0.00     0.010 A 
ATOM     36  C   UNL     1      -3.607  14.397   0.003  1.00  0.00     0.010 A 
ATOM     37  C   UNL     1      -4.196  15.350   0.805  1.00  0.00    -0.014 A 
BRANCH  37  38
ATOM     38  C   UNL     1      -5.174  14.710   1.651  1.00  0.00     0.031 A 
ATOM     39  C   UNL     1      -6.562  14.778   1.198  1.00  0.00     0.074 A 
ATOM     40  C   UNL     1      -4.674  13.713   2.432  1.00  0.00     0.049 A 
ATOM     41  N   UNL     1      -7.561  14.366   1.888  1.00  0.00    -0.248 NA
ATOM     42  C   UNL     1      -6.935  15.357  -0.096  1.00  0.00     0.031 C 
ATOM     43  C   UNL     1      -5.327  12.465   2.805  1.00  0.00     0.029 A 
ATOM     44  N   UNL     1      -3.399  13.578   3.012  1.00  0.00    -0.354 N 
ATOM     45  C   UNL     1      -8.603  14.266   0.995  1.00  0.00     0.074 A 
ATOM     46  C   UNL     1      -8.248  15.120  -0.105  1.00  0.00     0.031 C 
ATOM     47  C   UNL     1      -4.587  11.856   3.751  1.00  0.00     0.029 A 
ATOM     48  C   UNL     1      -3.554  12.795   4.161  1.00  0.00     0.049 A 
ATOM     49  H   UNL     1      -2.558  13.962   2.674  1.00  0.00     0.167 HD
ATOM     50  C   UNL     1      -9.523  13.284   1.185  1.00  0.00     0.034 A 
ATOM     51  C   UNL     1      -3.454  13.318   5.423  1.00  0.00     0.034 A 
ATOM     52  C   UNL     1      -9.303  12.621   2.488  1.00  0.00     0.049 A 
ATOM     53  C   UNL     1      -4.809  13.401   6.130  1.00  0.00     0.074 A 
ATOM     54  C   UNL     1      -8.819  11.377   2.853  1.00  0.00     0.029 A 
ATOM     55  N   UNL     1      -9.261  13.399   3.647  1.00  0.00    -0.354 N 
ATOM     56  N   UNL     1      -5.938  12.947   5.650  1.00  0.00    -0.248 NA
ATOM     57  C   UNL     1      -4.996  14.044   7.430  1.00  0.00     0.031 C 
ATOM     58  C   UNL     1      -8.332  11.475   4.196  1.00  0.00     0.029 A 
ATOM     59  C   UNL     1      -8.567  12.758   4.668  1.00  0.00     0.049 A 
ATOM     60  H   UNL     1      -9.672  14.290   3.731  1.00  0.00     0.167 HD
ATOM     61  C   UNL     1      -6.983  13.449   6.379  1.00  0.00     0.074 A 
ATOM     62  C   UNL     1      -6.333  14.000   7.559  1.00  0.00     0.031 C 
ATOM     63  C   UNL     1      -8.277  13.476   5.918  1.00  0.00     0.034 A 
BRANCH  50  64
ATOM     64  C   UNL     1     -10.489  12.774   0.125  1.00  0.00     0.023 A 
ATOM     65  C   UNL     1     -11.452  11.835   0.548  1.00  0.00     0.012 A 
ATOM     66  C   UNL     1     -10.497  13.081  -1.265  1.00  0.00     0.148 A 
ATOM     67  C   UNL     1     -12.370  11.251  -0.335  1.00  0.00     0.002 A 
ATOM     68  C   UNL     1     -11.466  12.563  -2.130  1.00  0.00     0.091 A 
ATOM     69  F   UNL     1      -9.508  13.793  -1.808  1.00  0.00    -0.205 F 
ATOM     70  C   UNL     1     -12.396  11.633  -1.669  1.00  0.00     0.022 A 
BRANCH  68  71
ATOM     71  S   UNL     1     -11.595  13.063  -3.861  1.00  0.00     0.127 S 
ATOM     72  O   UNL     1     -11.271  11.823  -4.565  1.00  0.00    -0.237 OA
ATOM     73  O   UNL     1     -12.997  13.470  -3.963  1.00  0.00    -0.237 OA
ATOM     74  O   UNL     1     -10.640  14.148  -4.050  1.00  0.00    -0.744 OA
ENDBRANCH  68  71
ENDBRANCH  50  64
BRANCH  51  75
ATOM     75  C   UNL     1      -2.355  14.323   5.572  1.00  0.00     0.023 A 
ATOM     76  C   UNL     1      -1.027  13.841   5.642  1.00  0.00     0.012 A 
ATOM     77  C   UNL     1      -2.574  15.670   5.228  1.00  0.00     0.148 A 
ATOM     78  C   UNL     1       0.050  14.647   5.263  1.00  0.00     0.002 A 
ATOM     79  C   UNL     1      -1.504  16.438   4.779  1.00  0.00     0.091 A 
ATOM     80  F   UNL     1      -3.831  16.128   5.226  1.00  0.00    -0.205 F 
ATOM     81  C   UNL     1      -0.196  15.927   4.783  1.00  0.00     0.022 A 
BRANCH  79  82
ATOM     82  S   UNL     1      -1.749  17.998   3.921  1.00  0.00     0.127 S 
ATOM     83  O   UNL     1      -1.006  18.929   4.780  1.00  0.00    -0.237 OA
ATOM     84  O   UNL     1      -1.089  17.707   2.643  1.00  0.00    -0.237 OA
ATOM     85  O   UNL     1      -3.170  18.201   3.851  1.00  0.00    -0.744 OA
ENDBRANCH  79  82
ENDBRANCH  51  75
BRANCH  63  86
ATOM     86  C   UNL     1      -9.395  14.251   6.605  1.00  0.00     0.023 A 
ATOM     87  C   UNL     1      -9.150  15.375   7.420  1.00  0.00     0.012 A 
ATOM     88  C   UNL     1     -10.754  13.949   6.340  1.00  0.00     0.148 A 
ATOM     89  C   UNL     1     -10.186  16.094   8.027  1.00  0.00     0.002 A 
ATOM     90  C   UNL     1     -11.780  14.751   6.834  1.00  0.00     0.091 A 
ATOM     91  F   UNL     1     -11.068  12.863   5.618  1.00  0.00    -0.205 F 
ATOM     92  C   UNL     1     -11.504  15.795   7.718  1.00  0.00     0.022 A 
BRANCH  90  93
ATOM     93  S   UNL     1     -13.461  14.579   6.220  1.00  0.00     0.127 S 
ATOM     94  O   UNL     1     -14.051  13.668   7.198  1.00  0.00    -0.237 OA
ATOM     95  O   UNL     1     -13.965  15.953   6.286  1.00  0.00    -0.237 OA
ATOM     96  O   UNL     1     -13.315  14.065   4.864  1.00  0.00    -0.744 OA
ENDBRANCH  90  93
ENDBRANCH  63  86
ENDBRANCH  37  38
ENDBRANCH  29  32
ENDBRANCH  27  28
ENDBRANCH  26  27
ENDBRANCH  25  26
ENDBRANCH   1  25
TORSDOF 20
