REMARK SMILES COc1ccc(C(=O)Nc2ccccc2C(=O)N[C@@H](C(=O)NCCCCCCNC(=O)c2ccc(-c3c4nc(c(-c5cccc(S(=O)(=O)[O-])c5F)c5ccc([nH]5)c(-c5cccc(S(=O)(=O)[O-])c5F)c5nc(c(-c6cccc(S(=O)(=O)[O-])c6F)c6ccc3[nH]6)C=C5)C=C4)cc2)C(C)C)cc1
REMARK SMILES IDX 24 1 23 2 22 3 20 4 21 5 19 7 18 8 16 9 17 10 15 12 10 13
REMARK SMILES IDX 11 14 12 15 14 16 13 17 9 18 7 19 8 20 6 22 3 23 4 24 99 25
REMARK SMILES IDX 5 26 98 27 2 28 1 29 95 30 96 31 97 32 25 33 26 34 27 35
REMARK SMILES IDX 28 36 29 37 30 38 31 40 32 41 33 42 94 43 34 44 93 45 35 46
REMARK SMILES IDX 36 47 37 48 87 49 38 50 92 51 86 52 88 53 39 54 91 55 85 56
REMARK SMILES IDX 84 57 40 59 72 60 52 61 71 62 53 63 56 64 70 65 89 66 54 67
REMARK SMILES IDX 55 68 69 70 90 71 57 72 41 73 42 74 50 75 43 76 45 77 51 78
REMARK SMILES IDX 44 79 46 80 47 81 48 82 49 83 73 84 74 85 82 86 75 87 77 88
REMARK SMILES IDX 83 89 76 90 78 91 79 92 80 93 81 94 58 95 59 96 67 97 60 98
REMARK SMILES IDX 62 99 68 100 61 101 63 102 64 103 65 104 66 105
REMARK H PARENT 22 6 18 11 9 21 29 39 88 58 56 69
REMARK Flexibility Score: inf
ROOT
ATOM      1  C   UNL     1       5.249  -0.859   8.217  1.00  0.00     0.021 C 
ENDROOT
BRANCH   1   2
ATOM      2  C   UNL     1       4.903  -2.339   8.049  1.00  0.00     0.116 C 
BRANCH   2   3
ATOM      3  N   UNL     1       3.703  -2.632   8.787  1.00  0.00    -0.354 N 
ATOM      4  C   UNL     1       2.431  -2.680   8.323  1.00  0.00     0.242 C 
ATOM      5  O   UNL     1       1.554  -2.417   9.154  1.00  0.00    -0.273 OA
ATOM      6  H   UNL     1       3.820  -2.820   9.746  1.00  0.00     0.163 HD
BRANCH   4   7
ATOM      7  C   UNL     1       2.110  -3.052   6.832  1.00  0.00     0.174 C 
BRANCH   7   8
ATOM      8  N   UNL     1       2.317  -1.832   6.024  1.00  0.00    -0.340 N 
ATOM      9  C   UNL     1       3.318  -1.318   5.206  1.00  0.00     0.254 C 
ATOM     10  O   UNL     1       3.261  -0.091   5.059  1.00  0.00    -0.269 OA
ATOM     11  H   UNL     1       1.544  -1.224   6.079  1.00  0.00     0.164 HD
BRANCH   9  12
ATOM     12  C   UNL     1       4.462  -2.038   4.516  1.00  0.00     0.063 A 
ATOM     13  C   UNL     1       4.611  -3.413   4.284  1.00  0.00     0.054 A 
ATOM     14  C   UNL     1       5.840  -3.947   3.834  1.00  0.00     0.027 A 
ATOM     15  C   UNL     1       6.857  -3.111   3.387  1.00  0.00     0.002 A 
ATOM     16  C   UNL     1       5.507  -1.214   4.025  1.00  0.00     0.016 A 
ATOM     17  C   UNL     1       6.667  -1.740   3.432  1.00  0.00     0.001 A 
BRANCH  13  18
ATOM     18  N   UNL     1       3.559  -4.335   4.232  1.00  0.00    -0.321 N 
ATOM     19  C   UNL     1       2.443  -4.221   3.428  1.00  0.00     0.255 C 
ATOM     20  O   UNL     1       1.697  -5.188   3.286  1.00  0.00    -0.269 OA
ATOM     21  H   UNL     1       3.620  -5.126   4.814  1.00  0.00     0.170 HD
BRANCH  19  22
ATOM     22  C   UNL     1       2.168  -2.979   2.668  1.00  0.00     0.040 A 
ATOM     23  C   UNL     1       1.519  -0.649   1.270  1.00  0.00     0.118 A 
ATOM     24  C   UNL     1       0.884  -0.928   2.466  1.00  0.00     0.047 A 
ATOM     25  C   UNL     1       2.520  -1.504   0.795  1.00  0.00     0.047 A 
ATOM     26  C   UNL     1       1.198  -2.099   3.138  1.00  0.00     0.017 A 
ATOM     27  C   UNL     1       2.847  -2.677   1.492  1.00  0.00     0.017 A 
BRANCH  23  28
ATOM     28  O   UNL     1       1.099   0.498   0.661  1.00  0.00    -0.497 OA
ATOM     29  C   UNL     1       1.088   0.427  -0.757  1.00  0.00     0.278 C 
ENDBRANCH  23  28
ENDBRANCH  19  22
ENDBRANCH  13  18
ENDBRANCH   9  12
ENDBRANCH   7   8
BRANCH   7  30
ATOM     30  C   UNL     1       0.621  -3.611   6.906  1.00  0.00     0.015 C 
ATOM     31  C   UNL     1      -0.274  -3.728   5.677  1.00  0.00     0.010 C 
ATOM     32  C   UNL     1       0.651  -5.007   7.553  1.00  0.00     0.010 C 
ENDBRANCH   7  30
ENDBRANCH   4   7
ENDBRANCH   2   3
ENDBRANCH   1   2
BRANCH   1  33
ATOM     33  C   UNL     1       5.785  -0.539   9.620  1.00  0.00     0.002 C 
BRANCH  33  34
ATOM     34  C   UNL     1       7.094  -1.258   9.963  1.00  0.00     0.002 C 
BRANCH  34  35
ATOM     35  C   UNL     1       8.257  -0.919   9.029  1.00  0.00     0.021 C 
BRANCH  35  36
ATOM     36  C   UNL     1       8.638   0.557   9.034  1.00  0.00     0.116 C 
BRANCH  36  37
ATOM     37  N   UNL     1       9.047   0.997  10.362  1.00  0.00    -0.352 N 
ATOM     38  C   UNL     1      10.220   1.589  10.744  1.00  0.00     0.251 C 
ATOM     39  H   UNL     1       8.391   0.849  11.081  1.00  0.00     0.163 HD
ATOM     40  O   UNL     1      10.513   1.680  11.940  1.00  0.00    -0.269 OA
BRANCH  38  41
ATOM     41  C   UNL     1      11.133   2.110   9.712  1.00  0.00     0.039 A 
ATOM     42  C   UNL     1      12.496   1.815   9.788  1.00  0.00     0.014 A 
ATOM     43  C   UNL     1      10.628   2.875   8.658  1.00  0.00     0.014 A 
ATOM     44  C   UNL     1      13.348   2.246   8.770  1.00  0.00     0.010 A 
ATOM     45  C   UNL     1      11.463   3.237   7.610  1.00  0.00     0.010 A 
ATOM     46  C   UNL     1      12.833   2.934   7.660  1.00  0.00    -0.014 A 
BRANCH  46  47
ATOM     47  C   UNL     1      13.700   3.355   6.532  1.00  0.00     0.031 A 
ATOM     48  C   UNL     1      13.860   4.817   6.218  1.00  0.00     0.074 A 
ATOM     49  C   UNL     1      14.250   2.422   5.732  1.00  0.00     0.049 A 
ATOM     50  N   UNL     1      14.490   5.382   5.222  1.00  0.00    -0.248 NA
ATOM     51  C   UNL     1      13.196   5.769   7.126  1.00  0.00     0.031 C 
ATOM     52  C   UNL     1      14.108   0.974   5.897  1.00  0.00     0.029 A 
ATOM     53  N   UNL     1      15.014   2.553   4.599  1.00  0.00    -0.354 N 
ATOM     54  C   UNL     1      14.264   6.746   5.357  1.00  0.00     0.074 A 
ATOM     55  C   UNL     1      13.411   6.922   6.512  1.00  0.00     0.031 C 
ATOM     56  C   UNL     1      14.767   0.351   4.906  1.00  0.00     0.029 A 
ATOM     57  C   UNL     1      15.346   1.353   4.016  1.00  0.00     0.049 A 
ATOM     58  H   UNL     1      15.297   3.424   4.239  1.00  0.00     0.167 HD
ATOM     59  C   UNL     1      14.745   7.763   4.604  1.00  0.00     0.034 A 
ATOM     60  C   UNL     1      16.031   1.090   2.886  1.00  0.00     0.034 A 
ATOM     61  C   UNL     1      15.629   7.582   3.485  1.00  0.00     0.049 A 
ATOM     62  C   UNL     1      16.576   2.240   2.081  1.00  0.00     0.074 A 
ATOM     63  C   UNL     1      16.249   8.548   2.714  1.00  0.00     0.029 A 
ATOM     64  N   UNL     1      16.009   6.352   2.971  1.00  0.00    -0.354 N 
ATOM     65  N   UNL     1      16.485   3.526   2.314  1.00  0.00    -0.248 NA
ATOM     66  C   UNL     1      17.347   1.901   0.876  1.00  0.00     0.031 C 
ATOM     67  C   UNL     1      16.983   7.902   1.714  1.00  0.00     0.029 A 
ATOM     68  C   UNL     1      16.845   6.533   1.883  1.00  0.00     0.049 A 
ATOM     69  H   UNL     1      15.727   5.479   3.327  1.00  0.00     0.167 HD
ATOM     70  C   UNL     1      17.221   4.149   1.312  1.00  0.00     0.074 A 
ATOM     71  C   UNL     1      17.762   3.096   0.477  1.00  0.00     0.031 C 
ATOM     72  C   UNL     1      17.423   5.472   1.097  1.00  0.00     0.034 A 
BRANCH  59  73
ATOM     73  C   UNL     1      14.361   9.166   4.997  1.00  0.00     0.023 A 
ATOM     74  C   UNL     1      14.879   9.727   6.183  1.00  0.00     0.012 A 
ATOM     75  C   UNL     1      13.522   9.945   4.176  1.00  0.00     0.148 A 
ATOM     76  C   UNL     1      14.536  11.022   6.567  1.00  0.00     0.002 A 
ATOM     77  C   UNL     1      13.223  11.252   4.541  1.00  0.00     0.091 A 
ATOM     78  F   UNL     1      13.020   9.390   3.064  1.00  0.00    -0.205 F 
ATOM     79  C   UNL     1      13.717  11.787   5.742  1.00  0.00     0.022 A 
BRANCH  77  80
ATOM     80  S   UNL     1      12.245  12.345   3.504  1.00  0.00     0.127 S 
ATOM     81  O   UNL     1      10.987  12.409   4.246  1.00  0.00    -0.237 OA
ATOM     82  O   UNL     1      13.031  13.580   3.529  1.00  0.00    -0.237 OA
ATOM     83  O   UNL     1      12.173  11.701   2.200  1.00  0.00    -0.744 OA
ENDBRANCH  77  80
ENDBRANCH  59  73
BRANCH  60  84
ATOM     84  C   UNL     1      16.302  -0.320   2.489  1.00  0.00     0.023 A 
ATOM     85  C   UNL     1      17.618  -0.816   2.577  1.00  0.00     0.012 A 
ATOM     86  C   UNL     1      15.273  -1.179   2.058  1.00  0.00     0.148 A 
ATOM     87  C   UNL     1      17.910  -2.130   2.211  1.00  0.00     0.002 A 
ATOM     88  C   UNL     1      15.561  -2.503   1.746  1.00  0.00     0.091 A 
ATOM     89  F   UNL     1      14.029  -0.687   1.974  1.00  0.00    -0.205 F 
ATOM     90  C   UNL     1      16.881  -2.975   1.804  1.00  0.00     0.022 A 
BRANCH  88  91
ATOM     91  S   UNL     1      14.283  -3.698   1.335  1.00  0.00     0.127 S 
ATOM     92  O   UNL     1      14.544  -3.942  -0.081  1.00  0.00    -0.237 OA
ATOM     93  O   UNL     1      14.614  -4.812   2.224  1.00  0.00    -0.237 OA
ATOM     94  O   UNL     1      13.017  -3.045   1.640  1.00  0.00    -0.744 OA
ENDBRANCH  88  91
ENDBRANCH  60  84
BRANCH  72  95
ATOM     95  C   UNL     1      18.304   5.870  -0.058  1.00  0.00     0.023 A 
ATOM     96  C   UNL     1      17.828   5.754  -1.378  1.00  0.00     0.012 A 
ATOM     97  C   UNL     1      19.567   6.451   0.176  1.00  0.00     0.148 A 
ATOM     98  C   UNL     1      18.607   6.186  -2.451  1.00  0.00     0.002 A 
ATOM     99  C   UNL     1      20.315   6.926  -0.894  1.00  0.00     0.091 A 
ATOM    100  F   UNL     1      20.007   6.536   1.440  1.00  0.00    -0.205 F 
ATOM    101  C   UNL     1      19.842   6.784  -2.208  1.00  0.00     0.022 A 
BRANCH  99 102
ATOM    102  S   UNL     1      21.869   7.799  -0.672  1.00  0.00     0.127 S 
ATOM    103  O   UNL     1      22.831   6.832  -1.197  1.00  0.00    -0.237 OA
ATOM    104  O   UNL     1      21.678   8.985  -1.507  1.00  0.00    -0.237 OA
ATOM    105  O   UNL     1      21.978   8.073   0.754  1.00  0.00    -0.744 OA
ENDBRANCH  99 102
ENDBRANCH  72  95
ENDBRANCH  46  47
ENDBRANCH  38  41
ENDBRANCH  36  37
ENDBRANCH  35  36
ENDBRANCH  34  35
ENDBRANCH  33  34
ENDBRANCH   1  33
TORSDOF 22
