REMARK SMILES C[C@@H]1[NH2+]CC[C@H]1C(=O)N[C@@H]1CCC[C@H](C(=O)NCCCCCCNC(=O)c2ccc(-c3c4nc(c(-c5cccc(S(=O)(=O)[O-])c5F)c5ccc([nH]5)c(-c5cccc(S(=O)(=O)[O-])c5F)c5nc(c(-c6cccc(S(=O)(=O)[O-])c6F)c6ccc3[nH]6)C=C5)C=C4)cc2)C1
REMARK SMILES IDX 21 1 20 2 19 3 18 4 17 5 15 6 16 7 14 9 10 10 11 11 90 12
REMARK SMILES IDX 12 13 13 14 9 15 7 16 8 17 6 19 1 20 2 21 3 22 4 23 5 26
REMARK SMILES IDX 22 27 23 28 24 29 25 30 26 32 27 33 28 34 89 35 29 36 88 37
REMARK SMILES IDX 30 38 31 39 32 40 82 41 33 42 87 43 81 44 83 45 34 46 86 47
REMARK SMILES IDX 80 48 79 49 35 51 67 52 47 53 66 54 48 55 51 56 65 57 84 58
REMARK SMILES IDX 49 59 50 60 64 62 85 63 52 64 36 65 37 66 45 67 38 68 40 69
REMARK SMILES IDX 46 70 39 71 41 72 42 73 43 74 44 75 68 76 69 77 77 78 70 79
REMARK SMILES IDX 72 80 78 81 71 82 73 83 74 84 75 85 76 86 53 87 54 88 62 89
REMARK SMILES IDX 55 90 57 91 63 92 56 93 58 94 59 95 60 96 61 97
REMARK H PARENT 17 8 9 18 3 24 3 25 24 31 83 50 51 61
REMARK Flexibility Score: inf
ROOT
ATOM      1  C   UNL     1       4.612  -3.281   0.761  1.00  0.00     0.002 C 
ENDROOT
BRANCH   1   2
ATOM      2  C   UNL     1       3.794  -4.211   1.666  1.00  0.00     0.002 C 
BRANCH   2   3
ATOM      3  C   UNL     1       2.954  -3.509   2.739  1.00  0.00     0.021 C 
BRANCH   3   4
ATOM      4  C   UNL     1       1.895  -2.574   2.170  1.00  0.00     0.116 C 
BRANCH   4   5
ATOM      5  N   UNL     1       0.772  -3.323   1.621  1.00  0.00    -0.356 N 
ATOM      6  C   UNL     1      -0.565  -3.266   1.878  1.00  0.00     0.223 C 
ATOM      7  O   UNL     1      -1.298  -4.056   1.278  1.00  0.00    -0.275 OA
ATOM      8  H   UNL     1       1.025  -3.990   0.943  1.00  0.00     0.163 HD
BRANCH   6   9
ATOM      9  C   UNL     1      -1.169  -2.203   2.795  1.00  0.00     0.080 C 
ATOM     10  C   UNL     1      -1.134   0.401   3.014  1.00  0.00     0.082 C 
ATOM     11  C   UNL     1      -0.673   0.168   4.466  1.00  0.00     0.025 C 
ATOM     12  C   UNL     1      -0.885  -0.836   2.181  1.00  0.00     0.038 C 
ATOM     13  C   UNL     1      -1.212  -1.129   5.066  1.00  0.00     0.003 C 
ATOM     14  C   UNL     1      -0.780  -2.348   4.260  1.00  0.00     0.013 C 
BRANCH  10  15
ATOM     15  N   UNL     1      -0.460   1.619   2.504  1.00  0.00    -0.353 N 
ATOM     16  C   UNL     1      -0.115   2.194   1.326  1.00  0.00     0.229 C 
ATOM     17  O   UNL     1       0.270   3.368   1.424  1.00  0.00    -0.275 OA
ATOM     18  H   UNL     1      -0.175   2.188   3.255  1.00  0.00     0.163 HD
BRANCH  16  19
ATOM     19  C   UNL     1      -0.111   1.561  -0.065  1.00  0.00     0.142 C 
ATOM     20  C   UNL     1       2.126   0.875  -1.097  1.00  0.00     0.076 C 
ATOM     21  C   UNL     1       0.917   0.451  -0.266  1.00  0.00     0.192 C 
ATOM     22  N   UNL     1       0.250  -0.654  -0.970  1.00  0.00    -0.343 N 
ATOM     23  C   UNL     1      -1.132  -0.277  -1.259  1.00  0.00     0.261 C 
ATOM     24  H   UNL     1       0.260  -1.488  -0.382  1.00  0.00     0.346 HD
ATOM     25  H   UNL     1       0.741  -0.851  -1.842  1.00  0.00     0.346 HD
ATOM     26  C   UNL     1      -1.443   1.033  -0.555  1.00  0.00     0.081 C 
ENDBRANCH  16  19
ENDBRANCH  10  15
ENDBRANCH   6   9
ENDBRANCH   4   5
ENDBRANCH   3   4
ENDBRANCH   2   3
ENDBRANCH   1   2
BRANCH   1  27
ATOM     27  C   UNL     1       5.522  -2.285   1.486  1.00  0.00     0.021 C 
BRANCH  27  28
ATOM     28  C   UNL     1       6.489  -2.903   2.490  1.00  0.00     0.116 C 
BRANCH  28  29
ATOM     29  N   UNL     1       7.394  -3.859   1.875  1.00  0.00    -0.352 N 
ATOM     30  C   UNL     1       8.740  -4.023   2.064  1.00  0.00     0.251 C 
ATOM     31  H   UNL     1       6.980  -4.477   1.230  1.00  0.00     0.163 HD
ATOM     32  O   UNL     1       9.366  -4.795   1.333  1.00  0.00    -0.269 OA
BRANCH  30  33
ATOM     33  C   UNL     1       9.450  -3.273   3.124  1.00  0.00     0.039 A 
ATOM     34  C   UNL     1      10.714  -2.747   2.842  1.00  0.00     0.014 A 
ATOM     35  C   UNL     1       8.900  -3.118   4.400  1.00  0.00     0.014 A 
ATOM     36  C   UNL     1      11.414  -2.049   3.829  1.00  0.00     0.010 A 
ATOM     37  C   UNL     1       9.565  -2.356   5.358  1.00  0.00     0.010 A 
ATOM     38  C   UNL     1      10.841  -1.838   5.094  1.00  0.00    -0.014 A 
BRANCH  38  39
ATOM     39  C   UNL     1      11.584  -1.115   6.158  1.00  0.00     0.031 A 
ATOM     40  C   UNL     1      11.979  -1.830   7.424  1.00  0.00     0.074 A 
ATOM     41  C   UNL     1      11.857   0.197   6.012  1.00  0.00     0.049 A 
ATOM     42  N   UNL     1      12.623  -1.369   8.465  1.00  0.00    -0.248 NA
ATOM     43  C   UNL     1      11.572  -3.240   7.551  1.00  0.00     0.031 C 
ATOM     44  C   UNL     1      11.457   1.023   4.872  1.00  0.00     0.029 A 
ATOM     45  N   UNL     1      12.520   1.070   6.838  1.00  0.00    -0.354 N 
ATOM     46  C   UNL     1      12.665  -2.414   9.381  1.00  0.00     0.074 A 
ATOM     47  C   UNL     1      11.948  -3.521   8.790  1.00  0.00     0.031 C 
ATOM     48  C   UNL     1      11.893   2.279   5.064  1.00  0.00     0.029 A 
ATOM     49  C   UNL     1      12.584   2.353   6.347  1.00  0.00     0.049 A 
ATOM     50  H   UNL     1      12.912   0.802   7.700  1.00  0.00     0.167 HD
ATOM     51  C   UNL     1      13.274  -2.462  10.590  1.00  0.00     0.034 A 
ATOM     52  C   UNL     1      13.144   3.462   6.870  1.00  0.00     0.034 A 
ATOM     53  C   UNL     1      14.035  -1.378  11.150  1.00  0.00     0.049 A 
ATOM     54  C   UNL     1      13.873   3.363   8.184  1.00  0.00     0.074 A 
ATOM     55  C   UNL     1      14.767  -1.356  12.324  1.00  0.00     0.029 A 
ATOM     56  N   UNL     1      14.161  -0.122  10.577  1.00  0.00    -0.354 N 
ATOM     57  N   UNL     1      14.041   2.320   8.959  1.00  0.00    -0.248 NA
ATOM     58  C   UNL     1      14.529   4.585   8.672  1.00  0.00     0.031 C 
ATOM     59  C   UNL     1      15.320  -0.079  12.470  1.00  0.00     0.029 A 
ATOM     60  C   UNL     1      14.956   0.684  11.372  1.00  0.00     0.049 A 
ATOM     61  H   UNL     1      13.746   0.155   9.728  1.00  0.00     0.167 HD
ATOM     62  C   UNL     1      14.857   2.745  10.001  1.00  0.00     0.074 A 
ATOM     63  C   UNL     1      15.164   4.138   9.747  1.00  0.00     0.031 C 
ATOM     64  C   UNL     1      15.303   2.050  11.076  1.00  0.00     0.034 A 
BRANCH  51  65
ATOM     65  C   UNL     1      13.189  -3.751  11.367  1.00  0.00     0.023 A 
ATOM     66  C   UNL     1      13.900  -4.883  10.918  1.00  0.00     0.012 A 
ATOM     67  C   UNL     1      12.453  -3.830  12.565  1.00  0.00     0.148 A 
ATOM     68  C   UNL     1      13.849  -6.083  11.626  1.00  0.00     0.002 A 
ATOM     69  C   UNL     1      12.445  -5.016  13.291  1.00  0.00     0.091 A 
ATOM     70  F   UNL     1      11.767  -2.751  12.967  1.00  0.00    -0.205 F 
ATOM     71  C   UNL     1      13.131  -6.146  12.816  1.00  0.00     0.022 A 
BRANCH  69  72
ATOM     72  S   UNL     1      11.618  -5.174  14.878  1.00  0.00     0.127 S 
ATOM     73  O   UNL     1      10.481  -6.029  14.533  1.00  0.00    -0.237 OA
ATOM     74  O   UNL     1      12.642  -5.825  15.696  1.00  0.00    -0.237 OA
ATOM     75  O   UNL     1      11.280  -3.821  15.291  1.00  0.00    -0.744 OA
ENDBRANCH  69  72
ENDBRANCH  51  65
BRANCH  52  76
ATOM     76  C   UNL     1      13.113   4.742   6.108  1.00  0.00     0.023 A 
ATOM     77  C   UNL     1      14.306   5.242   5.548  1.00  0.00     0.012 A 
ATOM     78  C   UNL     1      11.914   5.455   5.917  1.00  0.00     0.148 A 
ATOM     79  C   UNL     1      14.312   6.445   4.843  1.00  0.00     0.002 A 
ATOM     80  C   UNL     1      11.918   6.625   5.167  1.00  0.00     0.091 A 
ATOM     81  F   UNL     1      10.792   4.969   6.466  1.00  0.00    -0.205 F 
ATOM     82  C   UNL     1      13.118   7.132   4.644  1.00  0.00     0.022 A 
BRANCH  80  83
ATOM     83  S   UNL     1      10.408   7.506   4.752  1.00  0.00     0.127 S 
ATOM     84  O   UNL     1      10.528   8.708   5.576  1.00  0.00    -0.237 OA
ATOM     85  O   UNL     1      10.572   7.726   3.314  1.00  0.00    -0.237 OA
ATOM     86  O   UNL     1       9.320   6.605   5.100  1.00  0.00    -0.744 OA
ENDBRANCH  80  83
ENDBRANCH  52  76
BRANCH  64  87
ATOM     87  C   UNL     1      16.215   2.763  12.040  1.00  0.00     0.023 A 
ATOM     88  C   UNL     1      15.701   3.762  12.890  1.00  0.00     0.012 A 
ATOM     89  C   UNL     1      17.571   2.393  12.148  1.00  0.00     0.148 A 
ATOM     90  C   UNL     1      16.531   4.408  13.806  1.00  0.00     0.002 A 
ATOM     91  C   UNL     1      18.379   3.006  13.098  1.00  0.00     0.091 A 
ATOM     92  F   UNL     1      18.048   1.456  11.317  1.00  0.00    -0.205 F 
ATOM     93  C   UNL     1      17.865   4.023  13.918  1.00  0.00     0.022 A 
BRANCH  91  94
ATOM     94  S   UNL     1      20.080   2.499  13.378  1.00  0.00     0.127 S 
ATOM     95  O   UNL     1      20.823   3.578  12.730  1.00  0.00    -0.237 OA
ATOM     96  O   UNL     1      20.167   2.490  14.839  1.00  0.00    -0.237 OA
ATOM     97  O   UNL     1      20.210   1.186  12.761  1.00  0.00    -0.744 OA
ENDBRANCH  91  94
ENDBRANCH  64  87
ENDBRANCH  38  39
ENDBRANCH  30  33
ENDBRANCH  28  29
ENDBRANCH  27  28
ENDBRANCH   1  27
TORSDOF 18
