REMARK SMILES N#Cc1cccc(CSc2ccnc(C(=O)NCCCCCCNC(=O)c3ccc(-c4c5nc(c(-c6cccc(S(=O)(=O)[O-])c6F)c6ccc([nH]6)c(-c6cccc(S(=O)(=O)[O-])c6F)c6nc(c(-c7cccc(S(=O)(=O)[O-])c7F)c7ccc4[nH]7)C=C6)C=C5)cc3)c2)c1
REMARK SMILES IDX 20 1 19 2 18 3 17 4 15 5 16 6 14 8 10 9 11 10 90 11 12 12
REMARK SMILES IDX 13 13 9 14 8 15 7 16 3 17 4 18 91 19 5 20 6 21 2 22 1 23
REMARK SMILES IDX 21 24 22 25 23 26 24 27 25 28 26 30 27 31 28 32 89 33 29 34
REMARK SMILES IDX 88 35 30 36 31 37 32 38 82 39 33 40 87 41 81 42 83 43 34 44
REMARK SMILES IDX 86 45 80 46 79 47 35 49 67 50 47 51 66 52 48 53 51 54 65 55
REMARK SMILES IDX 84 56 49 57 50 58 64 60 85 61 52 62 36 63 37 64 45 65 38 66
REMARK SMILES IDX 40 67 46 68 39 69 41 70 42 71 43 72 44 73 68 74 69 75 77 76
REMARK SMILES IDX 70 77 72 78 78 79 71 80 73 81 74 82 75 83 76 84 53 85 54 86
REMARK SMILES IDX 62 87 55 88 57 89 63 90 56 91 58 92 59 93 60 94 61 95
REMARK H PARENT 17 7 24 29 83 48 51 59
REMARK Flexibility Score: inf
ROOT
ATOM      1  C   UNL     1       0.438  -8.561  -3.307  1.00  0.00     0.002 C 
ENDROOT
BRANCH   1   2
ATOM      2  C   UNL     1       0.723  -7.149  -2.801  1.00  0.00     0.021 C 
BRANCH   2   3
ATOM      3  C   UNL     1       1.746  -6.379  -3.626  1.00  0.00     0.116 C 
BRANCH   3   4
ATOM      4  N   UNL     1       1.177  -5.805  -4.830  1.00  0.00    -0.351 N 
ATOM      5  C   UNL     1       1.024  -4.524  -5.312  1.00  0.00     0.269 C 
ATOM      6  O   UNL     1       0.422  -4.428  -6.386  1.00  0.00    -0.268 OA
ATOM      7  H   UNL     1       0.817  -6.487  -5.442  1.00  0.00     0.163 HD
BRANCH   5   8
ATOM      8  C   UNL     1       1.508  -3.274  -4.618  1.00  0.00     0.129 A 
ATOM      9  C   UNL     1       2.723  -2.058  -2.949  1.00  0.00     0.011 A 
ATOM     10  C   UNL     1       2.180  -0.876  -3.429  1.00  0.00     0.035 A 
ATOM     11  C   UNL     1       2.451  -3.253  -3.607  1.00  0.00     0.049 A 
ATOM     12  C   UNL     1       1.323  -0.957  -4.508  1.00  0.00     0.113 A 
ATOM     13  N   UNL     1       0.950  -2.121  -5.080  1.00  0.00    -0.251 NA
BRANCH   9  14
ATOM     14  S   UNL     1       3.774  -2.100  -1.510  1.00  0.00    -0.121 SA
BRANCH  14  15
ATOM     15  C   UNL     1       2.499  -2.281  -0.191  1.00  0.00     0.110 C 
BRANCH  15  16
ATOM     16  C   UNL     1       1.652  -1.038  -0.033  1.00  0.00    -0.036 A 
ATOM     17  C   UNL     1      -0.518   0.066  -0.009  1.00  0.00     0.052 A 
ATOM     18  C   UNL     1       0.115   1.308   0.103  1.00  0.00     0.019 A 
ATOM     19  C   UNL     1       0.250  -1.106  -0.077  1.00  0.00     0.024 A 
ATOM     20  C   UNL     1       1.503   1.381   0.191  1.00  0.00     0.002 A 
ATOM     21  C   UNL     1       2.262   0.214   0.148  1.00  0.00     0.004 A 
BRANCH  17  22
ATOM     22  C   UNL     1      -1.948   0.003  -0.065  1.00  0.00     0.099 C 
ATOM     23  N   UNL     1      -3.110  -0.024  -0.114  1.00  0.00    -0.192 NA
ENDBRANCH  17  22
ENDBRANCH  15  16
ENDBRANCH  14  15
ENDBRANCH   9  14
ENDBRANCH   5   8
ENDBRANCH   3   4
ENDBRANCH   2   3
ENDBRANCH   1   2
BRANCH   1  24
ATOM     24  C   UNL     1       1.676  -9.447  -3.487  1.00  0.00     0.002 C 
BRANCH  24  25
ATOM     25  C   UNL     1       2.611  -9.513  -2.275  1.00  0.00     0.021 C 
BRANCH  25  26
ATOM     26  C   UNL     1       1.947 -10.018  -1.000  1.00  0.00     0.116 C 
BRANCH  26  27
ATOM     27  N   UNL     1       1.407 -11.356  -1.176  1.00  0.00    -0.352 N 
ATOM     28  C   UNL     1       1.703 -12.507  -0.492  1.00  0.00     0.251 C 
ATOM     29  H   UNL     1       0.733 -11.450  -1.888  1.00  0.00     0.163 HD
ATOM     30  O   UNL     1       1.356 -13.595  -0.942  1.00  0.00    -0.269 OA
BRANCH  28  31
ATOM     31  C   UNL     1       2.445 -12.426   0.782  1.00  0.00     0.039 A 
ATOM     32  C   UNL     1       3.459 -13.351   1.036  1.00  0.00     0.014 A 
ATOM     33  C   UNL     1       2.131 -11.444   1.726  1.00  0.00     0.014 A 
ATOM     34  C   UNL     1       4.189 -13.261   2.220  1.00  0.00     0.010 A 
ATOM     35  C   UNL     1       2.920 -11.300   2.862  1.00  0.00     0.010 A 
ATOM     36  C   UNL     1       3.947 -12.216   3.129  1.00  0.00    -0.014 A 
BRANCH  36  37
ATOM     37  C   UNL     1       4.764 -12.070   4.359  1.00  0.00     0.031 A 
ATOM     38  C   UNL     1       4.118 -12.150   5.715  1.00  0.00     0.074 A 
ATOM     39  C   UNL     1       6.080 -11.803   4.252  1.00  0.00     0.049 A 
ATOM     40  N   UNL     1       4.665 -12.021   6.895  1.00  0.00    -0.248 NA
ATOM     41  C   UNL     1       2.664 -12.383   5.753  1.00  0.00     0.031 C 
ATOM     42  C   UNL     1       6.809 -11.633   2.992  1.00  0.00     0.029 A 
ATOM     43  N   UNL     1       7.037 -11.609   5.216  1.00  0.00    -0.354 N 
ATOM     44  C   UNL     1       3.625 -12.124   7.811  1.00  0.00     0.074 A 
ATOM     45  C   UNL     1       2.407 -12.287   7.049  1.00  0.00     0.031 C 
ATOM     46  C   UNL     1       8.098 -11.377   3.261  1.00  0.00     0.029 A 
ATOM     47  C   UNL     1       8.281 -11.318   4.707  1.00  0.00     0.049 A 
ATOM     48  H   UNL     1       6.850 -11.672   6.181  1.00  0.00     0.167 HD
ATOM     49  C   UNL     1       3.681 -12.108   9.164  1.00  0.00     0.034 A 
ATOM     50  C   UNL     1       9.435 -11.018   5.333  1.00  0.00     0.034 A 
ATOM     51  C   UNL     1       4.897 -11.961   9.916  1.00  0.00     0.049 A 
ATOM     52  C   UNL     1       9.469 -11.008   6.836  1.00  0.00     0.074 A 
ATOM     53  C   UNL     1       5.068 -12.008  11.288  1.00  0.00     0.029 A 
ATOM     54  N   UNL     1       6.145 -11.714   9.366  1.00  0.00    -0.354 N 
ATOM     55  N   UNL     1       8.500 -11.247   7.685  1.00  0.00    -0.248 NA
ATOM     56  C   UNL     1      10.764 -10.718   7.468  1.00  0.00     0.031 C 
ATOM     57  C   UNL     1       6.410 -11.732  11.570  1.00  0.00     0.029 A 
ATOM     58  C   UNL     1       7.087 -11.581  10.371  1.00  0.00     0.049 A 
ATOM     59  H   UNL     1       6.334 -11.644   8.402  1.00  0.00     0.167 HD
ATOM     60  C   UNL     1       9.075 -11.178   8.949  1.00  0.00     0.074 A 
ATOM     61  C   UNL     1      10.481 -10.892   8.752  1.00  0.00     0.031 C 
ATOM     62  C   UNL     1       8.491 -11.332  10.163  1.00  0.00     0.034 A 
BRANCH  49  63
ATOM     63  C   UNL     1       2.387 -12.269   9.921  1.00  0.00     0.023 A 
ATOM     64  C   UNL     1       1.701 -13.501   9.895  1.00  0.00     0.012 A 
ATOM     65  C   UNL     1       1.879 -11.213  10.703  1.00  0.00     0.148 A 
ATOM     66  C   UNL     1       0.509 -13.666  10.600  1.00  0.00     0.002 A 
ATOM     67  C   UNL     1       0.720 -11.402  11.445  1.00  0.00     0.091 A 
ATOM     68  F   UNL     1       2.534 -10.044  10.701  1.00  0.00    -0.205 F 
ATOM     69  C   UNL     1       0.026 -12.621  11.383  1.00  0.00     0.022 A 
BRANCH  67  70
ATOM     70  S   UNL     1       0.061 -10.148  12.548  1.00  0.00     0.127 S 
ATOM     71  O   UNL     1      -1.190  -9.795  11.878  1.00  0.00    -0.237 OA
ATOM     72  O   UNL     1      -0.105 -10.896  13.795  1.00  0.00    -0.237 OA
ATOM     73  O   UNL     1       1.058  -9.089  12.599  1.00  0.00    -0.744 OA
ENDBRANCH  67  70
ENDBRANCH  49  63
BRANCH  50  74
ATOM     74  C   UNL     1      10.662 -10.731   4.538  1.00  0.00     0.023 A 
ATOM     75  C   UNL     1      11.747 -11.629   4.574  1.00  0.00     0.012 A 
ATOM     76  C   UNL     1      10.753  -9.576   3.739  1.00  0.00     0.148 A 
ATOM     77  C   UNL     1      12.915 -11.361   3.861  1.00  0.00     0.002 A 
ATOM     78  C   UNL     1      11.895  -9.345   2.983  1.00  0.00     0.091 A 
ATOM     79  F   UNL     1       9.711  -8.733   3.722  1.00  0.00    -0.205 F 
ATOM     80  C   UNL     1      12.986 -10.224   3.059  1.00  0.00     0.022 A 
BRANCH  78  81
ATOM     81  S   UNL     1      12.025  -7.976   1.828  1.00  0.00     0.127 S 
ATOM     82  O   UNL     1      13.076  -7.167   2.440  1.00  0.00    -0.237 OA
ATOM     83  O   UNL     1      12.411  -8.662   0.595  1.00  0.00    -0.237 OA
ATOM     84  O   UNL     1      10.703  -7.364   1.788  1.00  0.00    -0.744 OA
ENDBRANCH  78  81
ENDBRANCH  50  74
BRANCH  62  85
ATOM     85  C   UNL     1       9.376 -11.252  11.380  1.00  0.00     0.023 A 
ATOM     86  C   UNL     1       9.945 -10.024  11.771  1.00  0.00     0.012 A 
ATOM     87  C   UNL     1       9.590 -12.396  12.175  1.00  0.00     0.148 A 
ATOM     88  C   UNL     1      10.747  -9.945  12.909  1.00  0.00     0.002 A 
ATOM     89  C   UNL     1      10.341 -12.298  13.339  1.00  0.00     0.091 A 
ATOM     90  F   UNL     1       9.052 -13.559  11.779  1.00  0.00    -0.205 F 
ATOM     91  C   UNL     1      10.935 -11.078  13.698  1.00  0.00     0.022 A 
BRANCH  89  92
ATOM     92  S   UNL     1      10.553 -13.677  14.470  1.00  0.00     0.127 S 
ATOM     93  O   UNL     1      11.978 -13.967  14.320  1.00  0.00    -0.237 OA
ATOM     94  O   UNL     1      10.183 -13.080  15.753  1.00  0.00    -0.237 OA
ATOM     95  O   UNL     1       9.654 -14.724  14.005  1.00  0.00    -0.744 OA
ENDBRANCH  89  92
ENDBRANCH  62  85
ENDBRANCH  36  37
ENDBRANCH  28  31
ENDBRANCH  26  27
ENDBRANCH  25  26
ENDBRANCH  24  25
ENDBRANCH   1  24
TORSDOF 20
