REMARK SMILES CC[C@@](C)(NS(=O)(=O)c1ccc(F)c(F)c1)C(=O)NCCCCCCNC(=O)c1ccc(-c2c3nc(c(-c4cccc(S(=O)(=O)[O-])c4F)c4ccc([nH]4)c(-c4cccc(S(=O)(=O)[O-])c4F)c4nc(c(-c5cccc(S(=O)(=O)[O-])c5F)c5ccc2[nH]5)C=C4)C=C3)cc1
REMARK SMILES IDX 22 1 21 2 20 3 19 4 17 5 18 6 3 8 4 9 2 10 1 11 5 12 6 14
REMARK SMILES IDX 7 15 8 16 9 17 10 18 16 19 11 20 14 21 12 22 15 23 13 24
REMARK SMILES IDX 23 25 24 26 25 27 26 28 27 29 28 31 29 32 30 33 91 34 31 35
REMARK SMILES IDX 90 36 32 37 33 38 34 39 84 40 35 41 89 42 83 43 85 44 36 45
REMARK SMILES IDX 88 46 82 47 81 48 37 50 69 51 49 52 68 53 50 54 53 55 67 56
REMARK SMILES IDX 86 57 51 58 52 59 66 61 87 62 54 63 38 64 39 65 47 66 40 67
REMARK SMILES IDX 42 68 48 69 41 70 43 71 44 72 45 73 46 74 70 75 71 76 79 77
REMARK SMILES IDX 72 78 74 79 80 80 73 81 75 82 76 83 77 84 78 85 55 86 56 87
REMARK SMILES IDX 64 88 57 89 59 90 65 91 58 92 60 93 61 94 62 95 63 96
REMARK H PARENT 19 7 5 13 26 30 85 49 53 60
REMARK Flexibility Score: inf
ROOT
ATOM      1  C   UNL     1       3.629   4.323   5.201  1.00  0.00     0.002 C 
ENDROOT
BRANCH   1   2
ATOM      2  C   UNL     1       2.153   4.450   4.808  1.00  0.00     0.021 C 
BRANCH   2   3
ATOM      3  C   UNL     1       1.684   4.255   3.346  1.00  0.00     0.116 C 
BRANCH   3   4
ATOM      4  N   UNL     1       2.351   3.265   2.500  1.00  0.00    -0.354 N 
ATOM      5  C   UNL     1       2.077   2.053   1.930  1.00  0.00     0.241 C 
ATOM      6  O   UNL     1       2.995   1.633   1.207  1.00  0.00    -0.273 OA
ATOM      7  H   UNL     1       3.264   3.556   2.277  1.00  0.00     0.163 HD
BRANCH   5   8
ATOM      8  C   UNL     1       0.830   1.166   2.155  1.00  0.00     0.108 C 
ATOM      9  C   UNL     1      -0.458   1.980   1.969  1.00  0.00     0.040 C 
BRANCH   8  10
ATOM     10  C   UNL     1       0.783  -0.015   1.092  1.00  0.00     0.030 C 
ATOM     11  C   UNL     1       0.913   0.291  -0.393  1.00  0.00     0.006 C 
ENDBRANCH   8  10
BRANCH   8  12
ATOM     12  N   UNL     1       0.739   0.370   3.401  1.00  0.00    -0.196 NA
ATOM     13  H   UNL     1       0.779  -0.592   3.064  1.00  0.00     0.142 HD
BRANCH  12  14
ATOM     14  S   UNL     1       1.624   0.314   4.792  1.00  0.00     0.241 S 
ATOM     15  O   UNL     1       1.518   1.598   5.445  1.00  0.00    -0.207 OA
ATOM     16  O   UNL     1       1.122  -0.866   5.457  1.00  0.00    -0.207 OA
BRANCH  14  17
ATOM     17  C   UNL     1       3.350   0.012   4.474  1.00  0.00     0.085 A 
ATOM     18  C   UNL     1       3.991  -1.119   4.985  1.00  0.00     0.025 A 
ATOM     19  C   UNL     1       4.143   1.040   3.983  1.00  0.00     0.064 A 
ATOM     20  C   UNL     1       5.396  -1.196   4.970  1.00  0.00     0.044 A 
ATOM     21  C   UNL     1       5.527   0.968   3.951  1.00  0.00     0.160 A 
ATOM     22  C   UNL     1       6.157  -0.150   4.450  1.00  0.00     0.158 A 
ATOM     23  F   UNL     1       6.227   2.017   3.495  1.00  0.00    -0.204 F 
ATOM     24  F   UNL     1       7.494  -0.213   4.475  1.00  0.00    -0.204 F 
ENDBRANCH  14  17
ENDBRANCH  12  14
ENDBRANCH   8  12
ENDBRANCH   5   8
ENDBRANCH   3   4
ENDBRANCH   2   3
ENDBRANCH   1   2
BRANCH   1  25
ATOM     25  C   UNL     1       4.545   5.467   4.786  1.00  0.00     0.002 C 
BRANCH  25  26
ATOM     26  C   UNL     1       4.275   6.777   5.519  1.00  0.00     0.021 C 
BRANCH  26  27
ATOM     27  C   UNL     1       4.372   6.692   7.038  1.00  0.00     0.116 C 
BRANCH  27  28
ATOM     28  N   UNL     1       5.716   6.373   7.510  1.00  0.00    -0.352 N 
ATOM     29  C   UNL     1       6.375   6.949   8.572  1.00  0.00     0.251 C 
ATOM     30  H   UNL     1       6.202   5.672   7.017  1.00  0.00     0.163 HD
ATOM     31  O   UNL     1       7.551   6.711   8.816  1.00  0.00    -0.269 OA
BRANCH  29  32
ATOM     32  C   UNL     1       5.603   7.890   9.403  1.00  0.00     0.039 A 
ATOM     33  C   UNL     1       5.962   9.237   9.429  1.00  0.00     0.014 A 
ATOM     34  C   UNL     1       4.419   7.441   9.997  1.00  0.00     0.014 A 
ATOM     35  C   UNL     1       5.093  10.155  10.016  1.00  0.00     0.010 A 
ATOM     36  C   UNL     1       3.520   8.370  10.500  1.00  0.00     0.010 A 
ATOM     37  C   UNL     1       3.851   9.734  10.526  1.00  0.00    -0.014 A 
BRANCH  37  38
ATOM     38  C   UNL     1       2.890  10.713  11.090  1.00  0.00     0.031 A 
ATOM     39  C   UNL     1       2.497  10.629  12.539  1.00  0.00     0.074 A 
ATOM     40  C   UNL     1       2.326  11.634  10.284  1.00  0.00     0.049 A 
ATOM     41  N   UNL     1       1.713  11.419  13.225  1.00  0.00    -0.248 NA
ATOM     42  C   UNL     1       3.024   9.492  13.312  1.00  0.00     0.031 C 
ATOM     43  C   UNL     1       2.544  11.744   8.839  1.00  0.00     0.029 A 
ATOM     44  N   UNL     1       1.448  12.650  10.563  1.00  0.00    -0.354 N 
ATOM     45  C   UNL     1       1.625  10.855  14.492  1.00  0.00     0.074 A 
ATOM     46  C   UNL     1       2.392   9.631  14.466  1.00  0.00     0.031 C 
ATOM     47  C   UNL     1       1.847  12.790   8.367  1.00  0.00     0.029 A 
ATOM     48  C   UNL     1       1.120  13.414   9.467  1.00  0.00     0.049 A 
ATOM     49  H   UNL     1       1.086  12.817  11.464  1.00  0.00     0.167 HD
ATOM     50  C   UNL     1       0.996  11.332  15.592  1.00  0.00     0.034 A 
ATOM     51  C   UNL     1       0.337  14.506   9.368  1.00  0.00     0.034 A 
ATOM     52  C   UNL     1       0.278  12.576  15.620  1.00  0.00     0.049 A 
ATOM     53  C   UNL     1      -0.293  15.060  10.618  1.00  0.00     0.074 A 
ATOM     54  C   UNL     1      -0.300  13.214  16.702  1.00  0.00     0.029 A 
ATOM     55  N   UNL     1       0.028  13.366  14.508  1.00  0.00    -0.354 N 
ATOM     56  N   UNL     1      -0.203  14.622  11.852  1.00  0.00    -0.248 NA
ATOM     57  C   UNL     1      -1.097  16.280  10.470  1.00  0.00     0.031 C 
ATOM     58  C   UNL     1      -0.927  14.376  16.237  1.00  0.00     0.029 A 
ATOM     59  C   UNL     1      -0.712  14.477  14.871  1.00  0.00     0.049 A 
ATOM     60  H   UNL     1       0.333  13.166  13.593  1.00  0.00     0.167 HD
ATOM     61  C   UNL     1      -0.915  15.527  12.631  1.00  0.00     0.074 A 
ATOM     62  C   UNL     1      -1.402  16.554  11.731  1.00  0.00     0.031 C 
ATOM     63  C   UNL     1      -1.159  15.505  13.965  1.00  0.00     0.034 A 
BRANCH  50  64
ATOM     64  C   UNL     1       1.104  10.525  16.860  1.00  0.00     0.023 A 
ATOM     65  C   UNL     1       2.346  10.423  17.522  1.00  0.00     0.012 A 
ATOM     66  C   UNL     1      -0.023   9.884  17.409  1.00  0.00     0.148 A 
ATOM     67  C   UNL     1       2.476   9.658  18.680  1.00  0.00     0.002 A 
ATOM     68  C   UNL     1       0.103   9.165  18.592  1.00  0.00     0.091 A 
ATOM     69  F   UNL     1      -1.190   9.970  16.755  1.00  0.00    -0.205 F 
ATOM     70  C   UNL     1       1.353   9.038  19.220  1.00  0.00     0.022 A 
BRANCH  68  71
ATOM     71  S   UNL     1      -1.300   8.399  19.412  1.00  0.00     0.127 S 
ATOM     72  O   UNL     1      -1.051   6.981  19.158  1.00  0.00    -0.237 OA
ATOM     73  O   UNL     1      -1.107   8.813  20.802  1.00  0.00    -0.237 OA
ATOM     74  O   UNL     1      -2.486   8.952  18.774  1.00  0.00    -0.744 OA
ENDBRANCH  68  71
ENDBRANCH  50  64
BRANCH  51  75
ATOM     75  C   UNL     1       0.192  15.205   8.059  1.00  0.00     0.023 A 
ATOM     76  C   UNL     1       0.797  16.465   7.879  1.00  0.00     0.012 A 
ATOM     77  C   UNL     1      -0.503  14.619   6.983  1.00  0.00     0.148 A 
ATOM     78  C   UNL     1       0.688  17.142   6.664  1.00  0.00     0.002 A 
ATOM     79  C   UNL     1      -0.562  15.274   5.758  1.00  0.00     0.091 A 
ATOM     80  F   UNL     1      -1.079  13.424   7.176  1.00  0.00    -0.205 F 
ATOM     81  C   UNL     1       0.018  16.543   5.601  1.00  0.00     0.022 A 
BRANCH  79  82
ATOM     82  S   UNL     1      -1.289  14.525   4.296  1.00  0.00     0.127 S 
ATOM     83  O   UNL     1      -2.474  15.354   4.091  1.00  0.00    -0.237 OA
ATOM     84  O   UNL     1      -0.229  14.710   3.304  1.00  0.00    -0.237 OA
ATOM     85  O   UNL     1      -1.544  13.135   4.650  1.00  0.00    -0.744 OA
ENDBRANCH  79  82
ENDBRANCH  51  75
BRANCH  63  86
ATOM     86  C   UNL     1      -1.980  16.632  14.536  1.00  0.00     0.023 A 
ATOM     87  C   UNL     1      -3.358  16.708  14.251  1.00  0.00     0.012 A 
ATOM     88  C   UNL     1      -1.399  17.582  15.399  1.00  0.00     0.148 A 
ATOM     89  C   UNL     1      -4.136  17.736  14.780  1.00  0.00     0.002 A 
ATOM     90  C   UNL     1      -2.192  18.573  15.966  1.00  0.00     0.091 A 
ATOM     91  F   UNL     1      -0.083  17.505  15.645  1.00  0.00    -0.205 F 
ATOM     92  C   UNL     1      -3.556  18.661  15.645  1.00  0.00     0.022 A 
BRANCH  90  93
ATOM     93  S   UNL     1      -1.550  19.742  17.168  1.00  0.00     0.127 S 
ATOM     94  O   UNL     1      -1.443  20.962  16.370  1.00  0.00    -0.237 OA
ATOM     95  O   UNL     1      -2.609  19.764  18.178  1.00  0.00    -0.237 OA
ATOM     96  O   UNL     1      -0.288  19.183  17.634  1.00  0.00    -0.744 OA
ENDBRANCH  90  93
ENDBRANCH  63  86
ENDBRANCH  37  38
ENDBRANCH  29  32
ENDBRANCH  27  28
ENDBRANCH  26  27
ENDBRANCH  25  26
ENDBRANCH   1  25
TORSDOF 20
