REMARK SMILES C[NH+]1CCC2(CC1)OC[C@@H](C(=O)NCCCCCCNC(=O)c1ccc(-c3c4nc(c(-c5cccc(S(=O)(=O)[O-])c5F)c5ccc([nH]5)c(-c5cccc(S(=O)(=O)[O-])c5F)c5nc(c(-c6cccc(S(=O)(=O)[O-])c6F)c6ccc3[nH]6)C=C5)C=C4)cc1)N2C(=O)c1ccc2ccccc2c1
REMARK SMILES IDX 17 1 16 2 15 3 14 4 13 5 11 6 12 7 10 9 1 10 2 11 3 12 7 13
REMARK SMILES IDX 4 15 6 16 5 17 8 18 86 19 9 20 87 21 88 22 89 23 90 24 98 25
REMARK SMILES IDX 91 26 97 27 92 28 96 29 93 30 95 31 94 32 18 33 19 34 20 35
REMARK SMILES IDX 21 36 22 38 23 39 24 40 85 41 25 42 84 43 26 44 27 45 28 46
REMARK SMILES IDX 78 47 29 48 83 49 77 50 79 51 30 52 82 53 76 54 75 55 31 57
REMARK SMILES IDX 63 58 43 59 62 60 44 61 47 62 61 63 80 64 45 65 46 66 60 68
REMARK SMILES IDX 81 69 48 70 32 71 33 72 41 73 34 74 36 75 42 76 35 77 37 78
REMARK SMILES IDX 38 79 39 80 40 81 64 82 65 83 73 84 66 85 68 86 74 87 67 88
REMARK SMILES IDX 69 89 70 90 71 91 72 92 49 93 50 94 58 95 51 96 53 97 59 98
REMARK SMILES IDX 52 99 54 100 55 101 56 102 57 103
REMARK H PARENT 13 8 2 14 20 37 79 56 47 67
REMARK Flexibility Score: inf
ROOT
ATOM      1  C   UNL     1      -7.507   4.080  -1.584  1.00  0.00     0.002 C 
ENDROOT
BRANCH   1   2
ATOM      2  C   UNL     1      -6.574   4.437  -0.427  1.00  0.00     0.002 C 
BRANCH   2   3
ATOM      3  C   UNL     1      -5.232   3.708  -0.432  1.00  0.00     0.021 C 
BRANCH   3   4
ATOM      4  C   UNL     1      -4.403   3.886  -1.696  1.00  0.00     0.116 C 
BRANCH   4   5
ATOM      5  N   UNL     1      -3.914   5.242  -1.784  1.00  0.00    -0.354 N 
ATOM      6  C   UNL     1      -2.647   5.724  -1.672  1.00  0.00     0.245 C 
ATOM      7  O   UNL     1      -2.497   6.935  -1.881  1.00  0.00    -0.273 OA
ATOM      8  H   UNL     1      -4.605   5.923  -1.952  1.00  0.00     0.163 HD
BRANCH   6   9
ATOM      9  C   UNL     1      -1.418   4.799  -1.579  1.00  0.00     0.203 C 
ATOM     10  C   UNL     1       1.638  -0.540  -0.308  1.00  0.00     0.332 C 
ATOM     11  N   UNL     1       0.804   0.523   0.230  1.00  0.00    -0.337 N 
ATOM     12  C   UNL     1       1.325   1.861  -0.011  1.00  0.00     0.267 C 
ATOM     13  C   UNL     1      -0.613   0.311  -0.055  1.00  0.00     0.267 C 
ATOM     14  H   UNL     1       0.859   0.462   1.247  1.00  0.00     0.347 HD
ATOM     15  C   UNL     1       0.820   2.530  -1.271  1.00  0.00     0.120 C 
ATOM     16  C   UNL     1      -1.237   1.105  -1.194  1.00  0.00     0.120 C 
ATOM     17  C   UNL     1      -0.713   2.527  -1.376  1.00  0.00     0.155 C 
ATOM     18  O   UNL     1      -0.974   2.807  -2.782  1.00  0.00    -0.352 OA
ATOM     19  N   UNL     1      -1.374   3.648  -0.676  1.00  0.00    -0.295 N 
ATOM     20  C   UNL     1      -1.229   4.199  -2.960  1.00  0.00     0.198 C 
BRANCH  19  21
ATOM     21  C   UNL     1      -1.492   3.933   0.688  1.00  0.00     0.256 C 
ATOM     22  O   UNL     1      -1.552   5.090   1.105  1.00  0.00    -0.269 OA
BRANCH  21  23
ATOM     23  C   UNL     1      -1.660   2.875   1.708  1.00  0.00     0.040 A 
ATOM     24  C   UNL     1      -2.852   2.152   1.768  1.00  0.00     0.014 A 
ATOM     25  C   UNL     1      -0.681   2.655   2.684  1.00  0.00     0.022 A 
ATOM     26  C   UNL     1      -3.015   1.123   2.698  1.00  0.00     0.009 A 
ATOM     27  C   UNL     1      -0.796   1.572   3.581  1.00  0.00    -0.018 A 
ATOM     28  C   UNL     1      -1.970   0.782   3.565  1.00  0.00    -0.018 A 
ATOM     29  C   UNL     1       0.244   1.216   4.458  1.00  0.00     0.009 A 
ATOM     30  C   UNL     1      -2.060  -0.352   4.385  1.00  0.00     0.009 A 
ATOM     31  C   UNL     1       0.141   0.082   5.269  1.00  0.00     0.001 A 
ATOM     32  C   UNL     1      -1.004  -0.708   5.223  1.00  0.00     0.001 A 
ENDBRANCH  21  23
ENDBRANCH  19  21
ENDBRANCH   6   9
ENDBRANCH   4   5
ENDBRANCH   3   4
ENDBRANCH   2   3
ENDBRANCH   1   2
BRANCH   1  33
ATOM     33  C   UNL     1      -7.774   2.584  -1.765  1.00  0.00     0.021 C 
BRANCH  33  34
ATOM     34  C   UNL     1      -8.311   1.875  -0.526  1.00  0.00     0.116 C 
BRANCH  34  35
ATOM     35  N   UNL     1      -9.566   2.450  -0.067  1.00  0.00    -0.352 N 
ATOM     36  C   UNL     1     -10.777   1.840   0.131  1.00  0.00     0.251 C 
ATOM     37  H   UNL     1      -9.542   3.415   0.129  1.00  0.00     0.163 HD
ATOM     38  O   UNL     1     -11.784   2.520   0.326  1.00  0.00    -0.269 OA
BRANCH  36  39
ATOM     39  C   UNL     1     -10.871   0.367   0.096  1.00  0.00     0.039 A 
ATOM     40  C   UNL     1     -11.915  -0.229  -0.615  1.00  0.00     0.014 A 
ATOM     41  C   UNL     1      -9.930  -0.425   0.761  1.00  0.00     0.014 A 
ATOM     42  C   UNL     1     -11.984  -1.620  -0.704  1.00  0.00     0.010 A 
ATOM     43  C   UNL     1      -9.955  -1.807   0.603  1.00  0.00     0.010 A 
ATOM     44  C   UNL     1     -10.987  -2.421  -0.123  1.00  0.00    -0.014 A 
BRANCH  44  45
ATOM     45  C   UNL     1     -11.003  -3.898  -0.273  1.00  0.00     0.031 A 
ATOM     46  C   UNL     1     -11.124  -4.785   0.937  1.00  0.00     0.074 A 
ATOM     47  C   UNL     1     -10.829  -4.444  -1.493  1.00  0.00     0.049 A 
ATOM     48  N   UNL     1     -11.111  -6.091   1.006  1.00  0.00    -0.248 NA
ATOM     49  C   UNL     1     -11.248  -4.118   2.244  1.00  0.00     0.031 C 
ATOM     50  C   UNL     1     -10.624  -3.693  -2.734  1.00  0.00     0.029 A 
ATOM     51  N   UNL     1     -10.773  -5.757  -1.888  1.00  0.00    -0.354 N 
ATOM     52  C   UNL     1     -11.191  -6.401   2.358  1.00  0.00     0.074 A 
ATOM     53  C   UNL     1     -11.213  -5.147   3.078  1.00  0.00     0.031 C 
ATOM     54  C   UNL     1     -10.472  -4.556  -3.750  1.00  0.00     0.029 A 
ATOM     55  C   UNL     1     -10.532  -5.919  -3.232  1.00  0.00     0.049 A 
ATOM     56  H   UNL     1     -10.893  -6.512  -1.267  1.00  0.00     0.167 HD
ATOM     57  C   UNL     1     -11.266  -7.619   2.947  1.00  0.00     0.034 A 
ATOM     58  C   UNL     1     -10.365  -7.037  -3.965  1.00  0.00     0.034 A 
ATOM     59  C   UNL     1     -11.275  -8.863   2.225  1.00  0.00     0.049 A 
ATOM     60  C   UNL     1     -10.478  -8.377  -3.291  1.00  0.00     0.074 A 
ATOM     61  C   UNL     1     -11.435 -10.144   2.723  1.00  0.00     0.029 A 
ATOM     62  N   UNL     1     -11.101  -8.985   0.855  1.00  0.00    -0.354 N 
ATOM     63  N   UNL     1     -10.710  -8.649  -2.030  1.00  0.00    -0.248 NA
ATOM     64  C   UNL     1     -10.341  -9.565  -4.146  1.00  0.00     0.031 C 
ATOM     65  C   UNL     1     -11.319 -11.044   1.658  1.00  0.00     0.029 A 
ATOM     66  C   UNL     1     -11.131 -10.321   0.491  1.00  0.00     0.049 A 
ATOM     67  H   UNL     1     -10.974  -8.233   0.233  1.00  0.00     0.167 HD
ATOM     68  C   UNL     1     -10.783 -10.035  -1.945  1.00  0.00     0.074 A 
ATOM     69  C   UNL     1     -10.591 -10.544  -3.288  1.00  0.00     0.031 C 
ATOM     70  C   UNL     1     -10.981 -10.815  -0.854  1.00  0.00     0.034 A 
BRANCH  57  71
ATOM     71  C   UNL     1     -11.381  -7.663   4.449  1.00  0.00     0.023 A 
ATOM     72  C   UNL     1     -12.566  -7.222   5.075  1.00  0.00     0.012 A 
ATOM     73  C   UNL     1     -10.339  -8.187   5.239  1.00  0.00     0.148 A 
ATOM     74  C   UNL     1     -12.696  -7.262   6.463  1.00  0.00     0.002 A 
ATOM     75  C   UNL     1     -10.495  -8.271   6.618  1.00  0.00     0.091 A 
ATOM     76  F   UNL     1      -9.212  -8.583   4.630  1.00  0.00    -0.205 F 
ATOM     77  C   UNL     1     -11.666  -7.796   7.232  1.00  0.00     0.022 A 
BRANCH  75  78
ATOM     78  S   UNL     1      -9.262  -9.017   7.689  1.00  0.00     0.127 S 
ATOM     79  O   UNL     1      -8.752  -7.850   8.408  1.00  0.00    -0.237 OA
ATOM     80  O   UNL     1     -10.070  -9.927   8.501  1.00  0.00    -0.237 OA
ATOM     81  O   UNL     1      -8.307  -9.673   6.808  1.00  0.00    -0.744 OA
ENDBRANCH  75  78
ENDBRANCH  57  71
BRANCH  58  82
ATOM     82  C   UNL     1     -10.125  -6.935  -5.432  1.00  0.00     0.023 A 
ATOM     83  C   UNL     1     -11.127  -7.350  -6.331  1.00  0.00     0.012 A 
ATOM     84  C   UNL     1      -8.924  -6.405  -5.940  1.00  0.00     0.148 A 
ATOM     85  C   UNL     1     -10.924  -7.269  -7.709  1.00  0.00     0.002 A 
ATOM     86  C   UNL     1      -8.750  -6.273  -7.312  1.00  0.00     0.091 A 
ATOM     87  F   UNL     1      -7.981  -6.023  -5.067  1.00  0.00    -0.205 F 
ATOM     88  C   UNL     1      -9.741  -6.722  -8.199  1.00  0.00     0.022 A 
BRANCH  86  89
ATOM     89  S   UNL     1      -7.318  -5.461  -8.030  1.00  0.00     0.127 S 
ATOM     90  O   UNL     1      -6.647  -6.572  -8.698  1.00  0.00    -0.237 OA
ATOM     91  O   UNL     1      -7.944  -4.488  -8.926  1.00  0.00    -0.237 OA
ATOM     92  O   UNL     1      -6.597  -4.869  -6.911  1.00  0.00    -0.744 OA
ENDBRANCH  86  89
ENDBRANCH  58  82
BRANCH  70  93
ATOM     93  C   UNL     1     -11.041 -12.306  -1.062  1.00  0.00     0.023 A 
ATOM     94  C   UNL     1      -9.872 -13.023  -1.384  1.00  0.00     0.012 A 
ATOM     95  C   UNL     1     -12.249 -13.006  -0.867  1.00  0.00     0.148 A 
ATOM     96  C   UNL     1      -9.911 -14.408  -1.545  1.00  0.00     0.002 A 
ATOM     97  C   UNL     1     -12.270 -14.391  -0.976  1.00  0.00     0.091 A 
ATOM     98  F   UNL     1     -13.355 -12.305  -0.578  1.00  0.00    -0.205 F 
ATOM     99  C   UNL     1     -11.105 -15.092  -1.329  1.00  0.00     0.022 A 
BRANCH  97 100
ATOM    100  S   UNL     1     -13.736 -15.365  -0.619  1.00  0.00     0.127 S 
ATOM    101  O   UNL     1     -14.108 -15.842  -1.950  1.00  0.00    -0.237 OA
ATOM    102  O   UNL     1     -13.210 -16.398   0.274  1.00  0.00    -0.237 OA
ATOM    103  O   UNL     1     -14.685 -14.452   0.004  1.00  0.00    -0.744 OA
ENDBRANCH  97 100
ENDBRANCH  70  93
ENDBRANCH  44  45
ENDBRANCH  36  39
ENDBRANCH  34  35
ENDBRANCH  33  34
ENDBRANCH   1  33
TORSDOF 18
