REMARK SMILES Cc1ccc(C(=O)N2C[C@@H](C(=O)NCCCCCCNC(=O)c3ccc(-c4c5nc(c(-c6cccc(S(=O)(=O)[O-])c6F)c6ccc([nH]6)c(-c6cccc(S(=O)(=O)[O-])c6F)c6nc(c(-c7cccc(S(=O)(=O)[O-])c7F)c7ccc4[nH]7)C=C6)C=C5)cc3)C[C@H](C(=O)N3CCOCC3)C2)cc1F
REMARK SMILES IDX 17 1 16 2 15 3 14 4 13 5 11 6 12 7 10 9 8 10 9 11 96 12
REMARK SMILES IDX 87 13 86 14 6 15 7 16 5 17 1 18 2 19 3 20 98 21 4 22 97 23
REMARK SMILES IDX 99 24 88 25 89 26 90 27 91 28 95 29 92 30 94 31 93 32 18 33
REMARK SMILES IDX 19 34 20 35 21 36 22 38 23 39 24 40 85 41 25 42 84 43 26 44
REMARK SMILES IDX 27 45 28 46 78 47 29 48 83 49 77 50 79 51 30 52 82 53 76 54
REMARK SMILES IDX 75 55 31 57 63 58 43 59 62 60 44 61 47 62 61 63 80 64 45 65
REMARK SMILES IDX 46 66 60 68 81 69 48 70 32 71 33 72 41 73 34 74 36 75 42 76
REMARK SMILES IDX 35 77 37 78 38 79 39 80 40 81 64 82 65 83 73 84 66 85 68 86
REMARK SMILES IDX 74 87 67 88 69 89 70 90 71 91 72 92 49 93 50 94 58 95 51 96
REMARK SMILES IDX 53 97 59 98 52 99 54 100 55 101 56 102 57 103
REMARK H PARENT 13 8 20 37 79 56 47 67
REMARK Flexibility Score: inf
ROOT
ATOM      1  C   UNL     1      -9.459   1.815   4.010  1.00  0.00     0.002 C 
ENDROOT
BRANCH   1   2
ATOM      2  C   UNL     1     -10.181   1.439   2.705  1.00  0.00     0.002 C 
BRANCH   2   3
ATOM      3  C   UNL     1      -9.290   1.299   1.470  1.00  0.00     0.021 C 
BRANCH   3   4
ATOM      4  C   UNL     1      -8.021   0.500   1.712  1.00  0.00     0.116 C 
BRANCH   4   5
ATOM      5  N   UNL     1      -8.310  -0.852   2.137  1.00  0.00    -0.356 N 
ATOM      6  C   UNL     1      -7.697  -2.014   1.816  1.00  0.00     0.224 C 
ATOM      7  O   UNL     1      -8.099  -3.059   2.331  1.00  0.00    -0.275 OA
ATOM      8  H   UNL     1      -9.072  -0.941   2.755  1.00  0.00     0.163 HD
BRANCH   6   9
ATOM      9  C   UNL     1      -6.545  -2.039   0.838  1.00  0.00     0.099 C 
ATOM     10  N   UNL     1      -4.275  -1.172   0.371  1.00  0.00    -0.337 N 
ATOM     11  C   UNL     1      -5.352  -1.250   1.344  1.00  0.00     0.133 C 
ATOM     12  C   UNL     1      -4.638  -0.733  -0.977  1.00  0.00     0.133 C 
ATOM     13  C   UNL     1      -5.815  -1.530  -1.578  1.00  0.00     0.099 C 
ATOM     14  C   UNL     1      -6.972  -1.751  -0.607  1.00  0.00     0.030 C 
BRANCH  10  15
ATOM     15  C   UNL     1      -2.982  -1.353   0.849  1.00  0.00     0.254 C 
ATOM     16  O   UNL     1      -2.729  -2.073   1.814  1.00  0.00    -0.269 OA
BRANCH  15  17
ATOM     17  C   UNL     1      -1.856  -0.572   0.289  1.00  0.00     0.042 A 
ATOM     18  C   UNL     1       1.694   1.793  -0.260  1.00  0.00     0.047 C 
ATOM     19  C   UNL     1       0.440   0.979  -0.152  1.00  0.00    -0.015 A 
ATOM     20  C   UNL     1      -0.821   1.587  -0.095  1.00  0.00     0.007 A 
ATOM     21  C   UNL     1       0.523  -0.412  -0.032  1.00  0.00     0.126 A 
ATOM     22  C   UNL     1      -1.966   0.816   0.131  1.00  0.00     0.014 A 
ATOM     23  C   UNL     1      -0.607  -1.189   0.194  1.00  0.00     0.053 A 
ATOM     24  F   UNL     1       1.722  -1.011  -0.073  1.00  0.00    -0.207 F 
ENDBRANCH  15  17
ENDBRANCH  10  15
BRANCH  13  25
ATOM     25  C   UNL     1      -5.262  -2.709  -2.390  1.00  0.00     0.227 C 
ATOM     26  O   UNL     1      -4.965  -2.501  -3.574  1.00  0.00    -0.275 OA
ATOM     27  N   UNL     1      -4.843  -3.863  -1.775  1.00  0.00    -0.338 N 
ATOM     28  C   UNL     1      -5.588  -4.731  -0.863  1.00  0.00     0.148 C 
ATOM     29  C   UNL     1      -3.591  -4.473  -2.213  1.00  0.00     0.148 C 
ATOM     30  C   UNL     1      -4.706  -5.098   0.341  1.00  0.00     0.181 C 
ATOM     31  C   UNL     1      -2.758  -4.829  -0.976  1.00  0.00     0.181 C 
ATOM     32  O   UNL     1      -3.483  -5.716  -0.104  1.00  0.00    -0.378 OA
ENDBRANCH  13  25
ENDBRANCH   6   9
ENDBRANCH   4   5
ENDBRANCH   3   4
ENDBRANCH   2   3
ENDBRANCH   1   2
BRANCH   1  33
ATOM     33  C   UNL     1      -8.506   3.017   3.941  1.00  0.00     0.021 C 
BRANCH  33  34
ATOM     34  C   UNL     1      -9.211   4.299   3.568  1.00  0.00     0.116 C 
BRANCH  34  35
ATOM     35  N   UNL     1     -10.016   4.823   4.662  1.00  0.00    -0.352 N 
ATOM     36  C   UNL     1     -10.604   6.077   4.718  1.00  0.00     0.251 C 
ATOM     37  H   UNL     1     -10.156   4.231   5.436  1.00  0.00     0.163 HD
ATOM     38  O   UNL     1     -10.870   6.626   5.767  1.00  0.00    -0.269 OA
BRANCH  36  39
ATOM     39  C   UNL     1     -10.873   6.719   3.419  1.00  0.00     0.039 A 
ATOM     40  C   UNL     1     -10.651   8.079   3.188  1.00  0.00     0.014 A 
ATOM     41  C   UNL     1     -11.348   5.885   2.413  1.00  0.00     0.014 A 
ATOM     42  C   UNL     1     -10.876   8.585   1.907  1.00  0.00     0.010 A 
ATOM     43  C   UNL     1     -11.355   6.326   1.126  1.00  0.00     0.010 A 
ATOM     44  C   UNL     1     -11.220   7.692   0.885  1.00  0.00    -0.014 A 
BRANCH  44  45
ATOM     45  C   UNL     1     -11.610   8.074  -0.460  1.00  0.00     0.031 A 
ATOM     46  C   UNL     1     -10.699   8.798  -1.341  1.00  0.00     0.074 A 
ATOM     47  C   UNL     1     -12.836   7.668  -0.859  1.00  0.00     0.049 A 
ATOM     48  N   UNL     1     -11.077   9.677  -2.200  1.00  0.00    -0.248 NA
ATOM     49  C   UNL     1      -9.254   8.606  -1.305  1.00  0.00     0.031 C 
ATOM     50  C   UNL     1     -13.468   7.706  -2.163  1.00  0.00     0.029 A 
ATOM     51  N   UNL     1     -13.858   7.262  -0.003  1.00  0.00    -0.354 N 
ATOM     52  C   UNL     1     -10.027   9.845  -3.071  1.00  0.00     0.074 A 
ATOM     53  C   UNL     1      -8.874   9.313  -2.376  1.00  0.00     0.031 C 
ATOM     54  C   UNL     1     -14.803   7.621  -1.988  1.00  0.00     0.029 A 
ATOM     55  C   UNL     1     -15.069   7.675  -0.555  1.00  0.00     0.049 A 
ATOM     56  H   UNL     1     -13.744   6.771   0.843  1.00  0.00     0.167 HD
ATOM     57  C   UNL     1     -10.288  10.206  -4.362  1.00  0.00     0.034 A 
ATOM     58  C   UNL     1     -15.770   8.633   0.126  1.00  0.00     0.034 A 
ATOM     59  C   UNL     1     -11.732  10.317  -4.590  1.00  0.00     0.049 A 
ATOM     60  C   UNL     1     -15.796   9.945  -0.628  1.00  0.00     0.074 A 
ATOM     61  C   UNL     1     -12.658   9.502  -5.223  1.00  0.00     0.029 A 
ATOM     62  N   UNL     1     -12.476  11.210  -3.836  1.00  0.00    -0.354 N 
ATOM     63  N   UNL     1     -15.082  10.180  -1.694  1.00  0.00    -0.248 NA
ATOM     64  C   UNL     1     -16.568  11.114  -0.218  1.00  0.00     0.031 C 
ATOM     65  C   UNL     1     -13.965   9.926  -4.848  1.00  0.00     0.029 A 
ATOM     66  C   UNL     1     -13.834  11.004  -3.995  1.00  0.00     0.049 A 
ATOM     67  H   UNL     1     -12.087  11.905  -3.258  1.00  0.00     0.167 HD
ATOM     68  C   UNL     1     -15.322  11.442  -2.155  1.00  0.00     0.074 A 
ATOM     69  C   UNL     1     -16.218  12.008  -1.161  1.00  0.00     0.031 C 
ATOM     70  C   UNL     1     -14.757  11.901  -3.312  1.00  0.00     0.034 A 
BRANCH  57  71
ATOM     71  C   UNL     1      -9.257  10.148  -5.476  1.00  0.00     0.023 A 
ATOM     72  C   UNL     1      -7.870  10.266  -5.232  1.00  0.00     0.012 A 
ATOM     73  C   UNL     1      -9.628   9.967  -6.827  1.00  0.00     0.148 A 
ATOM     74  C   UNL     1      -6.908  10.064  -6.232  1.00  0.00     0.002 A 
ATOM     75  C   UNL     1      -8.670   9.803  -7.831  1.00  0.00     0.091 A 
ATOM     76  F   UNL     1     -10.919   9.958  -7.179  1.00  0.00    -0.205 F 
ATOM     77  C   UNL     1      -7.308   9.818  -7.536  1.00  0.00     0.022 A 
BRANCH  75  78
ATOM     78  S   UNL     1      -9.215   9.580  -9.528  1.00  0.00     0.127 S 
ATOM     79  O   UNL     1      -9.962   8.328  -9.467  1.00  0.00    -0.237 OA
ATOM     80  O   UNL     1      -9.979  10.794  -9.790  1.00  0.00    -0.237 OA
ATOM     81  O   UNL     1      -7.957   9.492 -10.273  1.00  0.00    -0.744 OA
ENDBRANCH  75  78
ENDBRANCH  57  71
BRANCH  58  82
ATOM     82  C   UNL     1     -15.639   8.460   1.622  1.00  0.00     0.023 A 
ATOM     83  C   UNL     1     -14.794   9.287   2.383  1.00  0.00     0.012 A 
ATOM     84  C   UNL     1     -15.966   7.181   2.143  1.00  0.00     0.148 A 
ATOM     85  C   UNL     1     -14.210   8.806   3.568  1.00  0.00     0.002 A 
ATOM     86  C   UNL     1     -15.283   6.670   3.246  1.00  0.00     0.091 A 
ATOM     87  F   UNL     1     -16.826   6.409   1.457  1.00  0.00    -0.205 F 
ATOM     88  C   UNL     1     -14.412   7.484   3.973  1.00  0.00     0.022 A 
BRANCH  86  89
ATOM     89  S   UNL     1     -15.242   4.882   3.493  1.00  0.00     0.127 S 
ATOM     90  O   UNL     1     -16.463   4.634   4.251  1.00  0.00    -0.237 OA
ATOM     91  O   UNL     1     -15.196   4.346   2.134  1.00  0.00    -0.237 OA
ATOM     92  O   UNL     1     -14.000   4.660   4.234  1.00  0.00    -0.744 OA
ENDBRANCH  86  89
ENDBRANCH  58  82
BRANCH  70  93
ATOM     93  C   UNL     1     -14.953  13.277  -3.895  1.00  0.00     0.023 A 
ATOM     94  C   UNL     1     -13.929  13.826  -4.711  1.00  0.00     0.012 A 
ATOM     95  C   UNL     1     -16.105  14.051  -3.734  1.00  0.00     0.148 A 
ATOM     96  C   UNL     1     -13.994  15.114  -5.238  1.00  0.00     0.002 A 
ATOM     97  C   UNL     1     -16.142  15.364  -4.200  1.00  0.00     0.091 A 
ATOM     98  F   UNL     1     -17.202  13.515  -3.180  1.00  0.00    -0.205 F 
ATOM     99  C   UNL     1     -15.091  15.904  -4.948  1.00  0.00     0.022 A 
BRANCH  97 100
ATOM    100  S   UNL     1     -17.517  16.401  -3.711  1.00  0.00     0.127 S 
ATOM    101  O   UNL     1     -18.661  15.769  -4.358  1.00  0.00    -0.237 OA
ATOM    102  O   UNL     1     -17.469  16.322  -2.252  1.00  0.00    -0.237 OA
ATOM    103  O   UNL     1     -17.162  17.713  -4.251  1.00  0.00    -0.744 OA
ENDBRANCH  97 100
ENDBRANCH  70  93
ENDBRANCH  44  45
ENDBRANCH  36  39
ENDBRANCH  34  35
ENDBRANCH  33  34
ENDBRANCH   1  33
TORSDOF 19
