REMARK SMILES O=C(CCCc1csc2ccccc12)NCCCCCCNC(=O)c1ccc(-c2c3nc(c(-c4cccc(S(=O)(=O)[O-])c4F)c4ccc([nH]4)c(-c4cccc(S(=O)(=O)[O-])c4F)c4nc(c(-c5cccc(S(=O)(=O)[O-])c5F)c5ccc2[nH]5)C=C4)C=C3)cc1
REMARK SMILES IDX 18 1 17 2 16 3 15 4 1 5 2 6 3 8 4 9 5 10 6 11 7 12 14 13
REMARK SMILES IDX 8 14 9 15 13 16 10 17 12 18 11 19 19 20 20 21 21 22 22 23
REMARK SMILES IDX 23 24 24 26 25 27 26 28 87 29 27 30 86 31 28 32 29 33 30 34
REMARK SMILES IDX 80 35 31 36 85 37 79 38 81 39 32 40 84 41 78 42 77 43 33 45
REMARK SMILES IDX 65 46 45 47 64 48 46 49 49 50 63 51 82 52 47 53 48 54 62 56
REMARK SMILES IDX 83 57 50 58 34 59 35 60 43 61 36 62 38 63 44 64 37 65 39 66
REMARK SMILES IDX 40 67 41 68 42 69 66 70 67 71 75 72 68 73 70 74 76 75 69 76
REMARK SMILES IDX 71 77 72 78 73 79 74 80 51 81 52 82 60 83 53 84 55 85 61 86
REMARK SMILES IDX 54 87 56 88 57 89 58 90 59 91
REMARK H PARENT 15 7 22 25 81 44 49 55
REMARK Flexibility Score: inf
ROOT
ATOM      1  C   UNL     1       3.893   3.388   1.892  1.00  0.00     0.002 C 
ENDROOT
BRANCH   1   2
ATOM      2  C   UNL     1       2.403   3.030   1.883  1.00  0.00     0.021 C 
BRANCH   2   3
ATOM      3  C   UNL     1       1.917   2.348   0.604  1.00  0.00     0.116 C 
BRANCH   3   4
ATOM      4  N   UNL     1       2.599   1.091   0.373  1.00  0.00    -0.356 N 
ATOM      5  O   UNL     1       0.880   0.074  -0.764  1.00  0.00    -0.275 OA
ATOM      6  C   UNL     1       2.015   0.048  -0.301  1.00  0.00     0.220 C 
ATOM      7  H   UNL     1       3.517   0.980   0.711  1.00  0.00     0.163 HD
BRANCH   6   8
ATOM      8  C   UNL     1       2.903  -1.170  -0.426  1.00  0.00     0.100 C 
BRANCH   8   9
ATOM      9  C   UNL     1       3.883  -1.081  -1.599  1.00  0.00     0.015 C 
BRANCH   9  10
ATOM     10  C   UNL     1       5.099  -0.162  -1.402  1.00  0.00     0.037 C 
BRANCH  10  11
ATOM     11  C   UNL     1       5.950  -0.449  -0.185  1.00  0.00    -0.029 A 
ATOM     12  C   UNL     1       6.144  -1.699   0.370  1.00  0.00     0.069 A 
ATOM     13  C   UNL     1       6.707   0.558   0.539  1.00  0.00    -0.004 A 
ATOM     14  S   UNL     1       7.038  -1.659   1.817  1.00  0.00    -0.144 S 
ATOM     15  C   UNL     1       7.293   0.035   1.696  1.00  0.00     0.035 A 
ATOM     16  C   UNL     1       6.911   1.937   0.273  1.00  0.00     0.010 A 
ATOM     17  C   UNL     1       7.998   0.847   2.608  1.00  0.00     0.019 A 
ATOM     18  C   UNL     1       7.637   2.740   1.161  1.00  0.00     0.001 A 
ATOM     19  C   UNL     1       8.155   2.204   2.328  1.00  0.00     0.001 A 
ENDBRANCH  10  11
ENDBRANCH   9  10
ENDBRANCH   8   9
ENDBRANCH   6   8
ENDBRANCH   3   4
ENDBRANCH   2   3
ENDBRANCH   1   2
BRANCH   1  20
ATOM     20  C   UNL     1       4.338   4.338   0.777  1.00  0.00     0.002 C 
BRANCH  20  21
ATOM     21  C   UNL     1       3.700   5.724   0.811  1.00  0.00     0.021 C 
BRANCH  21  22
ATOM     22  C   UNL     1       3.906   6.489   2.114  1.00  0.00     0.116 C 
BRANCH  22  23
ATOM     23  N   UNL     1       5.313   6.712   2.427  1.00  0.00    -0.352 N 
ATOM     24  C   UNL     1       5.928   7.862   2.860  1.00  0.00     0.251 C 
ATOM     25  H   UNL     1       5.903   5.932   2.313  1.00  0.00     0.163 HD
ATOM     26  O   UNL     1       7.152   7.914   2.948  1.00  0.00    -0.269 OA
BRANCH  24  27
ATOM     27  C   UNL     1       5.104   9.045   3.193  1.00  0.00     0.039 A 
ATOM     28  C   UNL     1       5.463  10.292   2.676  1.00  0.00     0.014 A 
ATOM     29  C   UNL     1       3.958   8.912   3.982  1.00  0.00     0.014 A 
ATOM     30  C   UNL     1       4.629  11.393   2.889  1.00  0.00     0.010 A 
ATOM     31  C   UNL     1       3.092   9.990   4.127  1.00  0.00     0.010 A 
ATOM     32  C   UNL     1       3.416  11.242   3.583  1.00  0.00    -0.014 A 
BRANCH  32  33
ATOM     33  C   UNL     1       2.460  12.370   3.728  1.00  0.00     0.031 A 
ATOM     34  C   UNL     1       2.101  12.889   5.094  1.00  0.00     0.074 A 
ATOM     35  C   UNL     1       1.836  12.857   2.637  1.00  0.00     0.049 A 
ATOM     36  N   UNL     1       1.240  13.818   5.422  1.00  0.00    -0.248 NA
ATOM     37  C   UNL     1       2.775  12.264   6.245  1.00  0.00     0.031 C 
ATOM     38  C   UNL     1       2.028  12.377   1.267  1.00  0.00     0.029 A 
ATOM     39  N   UNL     1       0.890  13.844   2.511  1.00  0.00    -0.354 N 
ATOM     40  C   UNL     1       1.240  13.863   6.811  1.00  0.00     0.074 A 
ATOM     41  C   UNL     1       2.161  12.844   7.266  1.00  0.00     0.031 C 
ATOM     42  C   UNL     1       1.229  13.071   0.440  1.00  0.00     0.029 A 
ATOM     43  C   UNL     1       0.449  14.025   1.221  1.00  0.00     0.049 A 
ATOM     44  H   UNL     1       0.558  14.372   3.273  1.00  0.00     0.167 HD
ATOM     45  C   UNL     1       0.560  14.696   7.634  1.00  0.00     0.034 A 
ATOM     46  C   UNL     1      -0.483  14.863   0.722  1.00  0.00     0.034 A 
ATOM     47  C   UNL     1      -0.316  15.741   7.178  1.00  0.00     0.049 A 
ATOM     48  C   UNL     1      -1.184  15.815   1.653  1.00  0.00     0.074 A 
ATOM     49  C   UNL     1      -0.973  16.701   7.927  1.00  0.00     0.029 A 
ATOM     50  N   UNL     1      -0.662  15.961   5.854  1.00  0.00    -0.354 N 
ATOM     51  N   UNL     1      -1.041  15.957   2.948  1.00  0.00    -0.248 NA
ATOM     52  C   UNL     1      -2.147  16.747   1.049  1.00  0.00     0.031 C 
ATOM     53  C   UNL     1      -1.732  17.490   7.057  1.00  0.00     0.029 A 
ATOM     54  C   UNL     1      -1.530  17.035   5.763  1.00  0.00     0.049 A 
ATOM     55  H   UNL     1      -0.339  15.430   5.090  1.00  0.00     0.167 HD
ATOM     56  C   UNL     1      -1.867  17.016   3.309  1.00  0.00     0.074 A 
ATOM     57  C   UNL     1      -2.490  17.492   2.091  1.00  0.00     0.031 C 
ATOM     58  C   UNL     1      -2.100  17.536   4.539  1.00  0.00     0.034 A 
BRANCH  45  59
ATOM     59  C   UNL     1       0.787  14.553   9.117  1.00  0.00     0.023 A 
ATOM     60  C   UNL     1       2.019  14.958   9.671  1.00  0.00     0.012 A 
ATOM     61  C   UNL     1      -0.230  14.078   9.967  1.00  0.00     0.148 A 
ATOM     62  C   UNL     1       2.248  14.860  11.043  1.00  0.00     0.002 A 
ATOM     63  C   UNL     1      -0.010  14.025  11.339  1.00  0.00     0.091 A 
ATOM     64  F   UNL     1      -1.387  13.678   9.420  1.00  0.00    -0.205 F 
ATOM     65  C   UNL     1       1.232  14.403  11.877  1.00  0.00     0.022 A 
BRANCH  63  66
ATOM     66  S   UNL     1      -1.282  13.526  12.506  1.00  0.00     0.127 S 
ATOM     67  O   UNL     1      -0.797  12.213  12.927  1.00  0.00    -0.237 OA
ATOM     68  O   UNL     1      -1.187  14.568  13.529  1.00  0.00    -0.237 OA
ATOM     69  O   UNL     1      -2.532  13.523  11.758  1.00  0.00    -0.744 OA
ENDBRANCH  63  66
ENDBRANCH  45  59
BRANCH  46  70
ATOM     70  C   UNL     1      -0.750  14.890  -0.744  1.00  0.00     0.023 A 
ATOM     71  C   UNL     1      -0.333  16.003  -1.499  1.00  0.00     0.012 A 
ATOM     72  C   UNL     1      -1.381  13.814  -1.398  1.00  0.00     0.148 A 
ATOM     73  C   UNL     1      -0.568  16.060  -2.873  1.00  0.00     0.002 A 
ATOM     74  C   UNL     1      -1.563  13.853  -2.776  1.00  0.00     0.091 A 
ATOM     75  F   UNL     1      -1.782  12.769  -0.660  1.00  0.00    -0.205 F 
ATOM     76  C   UNL     1      -1.173  14.982  -3.513  1.00  0.00     0.022 A 
BRANCH  74  77
ATOM     77  S   UNL     1      -2.211  12.455  -3.700  1.00  0.00     0.127 S 
ATOM     78  O   UNL     1      -3.541  12.931  -4.069  1.00  0.00    -0.237 OA
ATOM     79  O   UNL     1      -1.261  12.358  -4.809  1.00  0.00    -0.237 OA
ATOM     80  O   UNL     1      -2.173  11.327  -2.779  1.00  0.00    -0.744 OA
ENDBRANCH  74  77
ENDBRANCH  46  70
BRANCH  58  81
ATOM     81  C   UNL     1      -3.045  18.704   4.637  1.00  0.00     0.023 A 
ATOM     82  C   UNL     1      -4.429  18.501   4.472  1.00  0.00     0.012 A 
ATOM     83  C   UNL     1      -2.570  19.988   4.969  1.00  0.00     0.148 A 
ATOM     84  C   UNL     1      -5.323  19.563   4.605  1.00  0.00     0.002 A 
ATOM     85  C   UNL     1      -3.470  21.032   5.148  1.00  0.00     0.091 A 
ATOM     86  F   UNL     1      -1.247  20.166   5.103  1.00  0.00    -0.205 F 
ATOM     87  C   UNL     1      -4.846  20.824   4.955  1.00  0.00     0.022 A 
BRANCH  85  88
ATOM     88  S   UNL     1      -2.954  22.664   5.692  1.00  0.00     0.127 S 
ATOM     89  O   UNL     1      -3.089  23.445   4.463  1.00  0.00    -0.237 OA
ATOM     90  O   UNL     1      -3.944  22.976   6.724  1.00  0.00    -0.237 OA
ATOM     91  O   UNL     1      -1.594  22.509   6.189  1.00  0.00    -0.744 OA
ENDBRANCH  85  88
ENDBRANCH  58  81
ENDBRANCH  32  33
ENDBRANCH  24  27
ENDBRANCH  22  23
ENDBRANCH  21  22
ENDBRANCH  20  21
ENDBRANCH   1  20
TORSDOF 19
