REMARK SMILES CC(C)CSc1cc2c(cc1Cl)C=C(C(=O)NCCCCCCNC(=O)c1ccc(-c3c4nc(c(-c5cccc(S(=O)(=O)[O-])c5F)c5ccc([nH]5)c(-c5cccc(S(=O)(=O)[O-])c5F)c5nc(c(-c6cccc(S(=O)(=O)[O-])c6F)c6ccc3[nH]6)C=C5)C=C4)cc1)[C@@H](C(F)(F)F)O2
REMARK SMILES IDX 20 1 19 2 18 3 17 4 15 5 16 6 14 8 6 9 7 10 11 11 8 12 10 13
REMARK SMILES IDX 12 14 9 15 95 16 13 17 90 18 5 19 4 20 2 21 1 22 3 23 91 24
REMARK SMILES IDX 92 25 93 26 94 27 21 28 22 29 23 30 24 31 25 32 26 34 27 35
REMARK SMILES IDX 28 36 89 37 29 38 88 39 30 40 31 41 32 42 82 43 33 44 87 45
REMARK SMILES IDX 81 46 83 47 34 48 86 49 80 50 79 51 35 53 67 54 47 55 66 56
REMARK SMILES IDX 48 57 51 58 65 59 84 60 49 61 50 62 64 64 85 65 52 66 36 67
REMARK SMILES IDX 37 68 45 69 38 70 40 71 46 72 39 73 41 74 42 75 43 76 44 77
REMARK SMILES IDX 68 78 69 79 77 80 70 81 72 82 78 83 71 84 73 85 74 86 75 87
REMARK SMILES IDX 76 88 53 89 54 90 62 91 55 92 57 93 63 94 56 95 58 96 59 97
REMARK SMILES IDX 60 98 61 99
REMARK H PARENT 17 7 24 33 83 52 51 63
REMARK Flexibility Score: inf
ROOT
ATOM      1  C   UNL     1       5.075  -7.895  -3.811  1.00  0.00     0.002 C 
ENDROOT
BRANCH   1   2
ATOM      2  C   UNL     1       4.651  -6.646  -3.036  1.00  0.00     0.021 C 
BRANCH   2   3
ATOM      3  C   UNL     1       3.198  -6.221  -3.219  1.00  0.00     0.116 C 
BRANCH   3   4
ATOM      4  N   UNL     1       2.264  -7.047  -2.472  1.00  0.00    -0.352 N 
ATOM      5  C   UNL     1       1.177  -6.825  -1.691  1.00  0.00     0.251 C 
ATOM      6  O   UNL     1       0.622  -7.833  -1.242  1.00  0.00    -0.270 OA
ATOM      7  H   UNL     1       2.473  -8.006  -2.552  1.00  0.00     0.163 HD
BRANCH   5   8
ATOM      8  C   UNL     1       0.635  -5.474  -1.342  1.00  0.00     0.067 C 
ATOM      9  C   UNL     1      -1.469  -1.588   1.130  1.00  0.00     0.030 A 
ATOM     10  C   UNL     1      -0.810  -1.760  -0.084  1.00  0.00     0.063 A 
ATOM     11  C   UNL     1      -1.816  -2.757   1.840  1.00  0.00     0.055 A 
ATOM     12  C   UNL     1      -0.376  -3.013  -0.509  1.00  0.00     0.129 A 
ATOM     13  C   UNL     1      -1.425  -4.029   1.380  1.00  0.00     0.033 A 
ATOM     14  Cl  UNL     1      -2.723  -2.714   3.317  1.00  0.00    -0.083 Cl
ATOM     15  C   UNL     1      -0.663  -4.156   0.217  1.00  0.00     0.019 A 
ATOM     16  O   UNL     1       0.379  -2.991  -1.636  1.00  0.00    -0.475 OA
ATOM     17  C   UNL     1      -0.122  -5.432  -0.228  1.00  0.00     0.025 C 
ATOM     18  C   UNL     1       0.872  -4.241  -2.174  1.00  0.00     0.314 C 
BRANCH   9  19
ATOM     19  S   UNL     1      -1.787   0.054   1.794  1.00  0.00    -0.124 SA
BRANCH  19  20
ATOM     20  C   UNL     1      -1.042   1.243   0.602  1.00  0.00     0.078 C 
BRANCH  20  21
ATOM     21  C   UNL     1       0.447   1.598   0.812  1.00  0.00    -0.007 C 
ATOM     22  C   UNL     1       1.442   0.459   0.581  1.00  0.00     0.008 C 
ATOM     23  C   UNL     1       0.816   2.755  -0.128  1.00  0.00     0.008 C 
ENDBRANCH  20  21
ENDBRANCH  19  20
ENDBRANCH   9  19
BRANCH  18  24
ATOM     24  C   UNL     1       0.339  -4.337  -3.611  1.00  0.00     0.429 C 
ATOM     25  F   UNL     1       0.938  -3.404  -4.393  1.00  0.00    -0.167 F 
ATOM     26  F   UNL     1       0.576  -5.533  -4.189  1.00  0.00    -0.167 F 
ATOM     27  F   UNL     1      -0.995  -4.123  -3.670  1.00  0.00    -0.167 F 
ENDBRANCH  18  24
ENDBRANCH   5   8
ENDBRANCH   3   4
ENDBRANCH   2   3
ENDBRANCH   1   2
BRANCH   1  28
ATOM     28  C   UNL     1       4.843  -7.862  -5.326  1.00  0.00     0.002 C 
BRANCH  28  29
ATOM     29  C   UNL     1       5.335  -6.614  -6.061  1.00  0.00     0.021 C 
BRANCH  29  30
ATOM     30  C   UNL     1       6.806  -6.268  -5.863  1.00  0.00     0.116 C 
BRANCH  30  31
ATOM     31  N   UNL     1       7.707  -7.284  -6.380  1.00  0.00    -0.352 N 
ATOM     32  C   UNL     1       8.812  -7.129  -7.189  1.00  0.00     0.251 C 
ATOM     33  H   UNL     1       7.500  -8.209  -6.115  1.00  0.00     0.163 HD
ATOM     34  O   UNL     1       9.398  -8.109  -7.626  1.00  0.00    -0.269 OA
BRANCH  32  35
ATOM     35  C   UNL     1       9.250  -5.763  -7.555  1.00  0.00     0.039 A 
ATOM     36  C   UNL     1       9.402  -4.778  -6.575  1.00  0.00     0.014 A 
ATOM     37  C   UNL     1       9.455  -5.455  -8.902  1.00  0.00     0.014 A 
ATOM     38  C   UNL     1       9.595  -3.454  -6.956  1.00  0.00     0.010 A 
ATOM     39  C   UNL     1       9.721  -4.134  -9.276  1.00  0.00     0.010 A 
ATOM     40  C   UNL     1       9.740  -3.114  -8.312  1.00  0.00    -0.014 A 
BRANCH  40  41
ATOM     41  C   UNL     1       9.891  -1.689  -8.704  1.00  0.00     0.031 A 
ATOM     42  C   UNL     1       8.834  -1.001  -9.527  1.00  0.00     0.074 A 
ATOM     43  C   UNL     1      10.971  -0.999  -8.288  1.00  0.00     0.049 A 
ATOM     44  N   UNL     1       8.808   0.232  -9.965  1.00  0.00    -0.248 NA
ATOM     45  C   UNL     1       7.654  -1.794  -9.911  1.00  0.00     0.031 C 
ATOM     46  C   UNL     1      12.069  -1.553  -7.493  1.00  0.00     0.029 A 
ATOM     47  N   UNL     1      11.322   0.315  -8.470  1.00  0.00    -0.354 N 
ATOM     48  C   UNL     1       7.640   0.350 -10.709  1.00  0.00     0.074 A 
ATOM     49  C   UNL     1       6.979  -0.935 -10.665  1.00  0.00     0.031 C 
ATOM     50  C   UNL     1      12.952  -0.580  -7.226  1.00  0.00     0.029 A 
ATOM     51  C   UNL     1      12.512   0.652  -7.872  1.00  0.00     0.049 A 
ATOM     52  H   UNL     1      10.773   0.954  -8.979  1.00  0.00     0.167 HD
ATOM     53  C   UNL     1       7.153   1.436 -11.354  1.00  0.00     0.034 A 
ATOM     54  C   UNL     1      13.186   1.819  -7.855  1.00  0.00     0.034 A 
ATOM     55  C   UNL     1       7.776   2.731 -11.350  1.00  0.00     0.049 A 
ATOM     56  C   UNL     1      12.622   3.007  -8.575  1.00  0.00     0.074 A 
ATOM     57  C   UNL     1       7.323   3.902 -11.933  1.00  0.00     0.029 A 
ATOM     58  N   UNL     1       8.978   3.030 -10.731  1.00  0.00    -0.354 N 
ATOM     59  N   UNL     1      11.481   3.115  -9.212  1.00  0.00    -0.248 NA
ATOM     60  C   UNL     1      13.429   4.236  -8.571  1.00  0.00     0.031 C 
ATOM     61  C   UNL     1       8.254   4.910 -11.668  1.00  0.00     0.029 A 
ATOM     62  C   UNL     1       9.285   4.366 -10.920  1.00  0.00     0.049 A 
ATOM     63  H   UNL     1       9.532   2.388 -10.231  1.00  0.00     0.167 HD
ATOM     64  C   UNL     1      11.431   4.421  -9.682  1.00  0.00     0.074 A 
ATOM     65  C   UNL     1      12.643   5.076  -9.234  1.00  0.00     0.031 C 
ATOM     66  C   UNL     1      10.476   5.015 -10.436  1.00  0.00     0.034 A 
BRANCH  53  67
ATOM     67  C   UNL     1       5.844   1.298 -12.082  1.00  0.00     0.023 A 
ATOM     68  C   UNL     1       4.642   1.373 -11.352  1.00  0.00     0.012 A 
ATOM     69  C   UNL     1       5.802   1.201 -13.486  1.00  0.00     0.148 A 
ATOM     70  C   UNL     1       3.413   1.346 -12.009  1.00  0.00     0.002 A 
ATOM     71  C   UNL     1       4.573   1.201 -14.136  1.00  0.00     0.091 A 
ATOM     72  F   UNL     1       6.960   1.119 -14.155  1.00  0.00    -0.205 F 
ATOM     73  C   UNL     1       3.379   1.270 -13.400  1.00  0.00     0.022 A 
BRANCH  71  74
ATOM     74  S   UNL     1       4.416   1.158 -15.926  1.00  0.00     0.127 S 
ATOM     75  O   UNL     1       3.784  -0.144 -16.134  1.00  0.00    -0.237 OA
ATOM     76  O   UNL     1       3.547   2.306 -16.184  1.00  0.00    -0.237 OA
ATOM     77  O   UNL     1       5.768   1.281 -16.453  1.00  0.00    -0.744 OA
ENDBRANCH  71  74
ENDBRANCH  53  67
BRANCH  54  78
ATOM     78  C   UNL     1      14.456   1.911  -7.086  1.00  0.00     0.023 A 
ATOM     79  C   UNL     1      14.463   2.588  -5.853  1.00  0.00     0.012 A 
ATOM     80  C   UNL     1      15.624   1.260  -7.526  1.00  0.00     0.148 A 
ATOM     81  C   UNL     1      15.617   2.617  -5.069  1.00  0.00     0.002 A 
ATOM     82  C   UNL     1      16.755   1.254  -6.720  1.00  0.00     0.091 A 
ATOM     83  F   UNL     1      15.589   0.629  -8.709  1.00  0.00    -0.205 F 
ATOM     84  C   UNL     1      16.757   1.940  -5.495  1.00  0.00     0.022 A 
BRANCH  82  85
ATOM     85  S   UNL     1      18.229   0.312  -7.128  1.00  0.00     0.127 S 
ATOM     86  O   UNL     1      19.213   1.372  -7.329  1.00  0.00    -0.237 OA
ATOM     87  O   UNL     1      18.419  -0.484  -5.915  1.00  0.00    -0.237 OA
ATOM     88  O   UNL     1      17.889  -0.463  -8.313  1.00  0.00    -0.744 OA
ENDBRANCH  82  85
ENDBRANCH  54  78
BRANCH  66  89
ATOM     89  C   UNL     1      10.692   6.444 -10.845  1.00  0.00     0.023 A 
ATOM     90  C   UNL     1      11.541   6.723 -11.932  1.00  0.00     0.012 A 
ATOM     91  C   UNL     1       9.973   7.490 -10.234  1.00  0.00     0.148 A 
ATOM     92  C   UNL     1      11.680   8.027 -12.404  1.00  0.00     0.002 A 
ATOM     93  C   UNL     1      10.092   8.783 -10.730  1.00  0.00     0.091 A 
ATOM     94  F   UNL     1       9.180   7.197  -9.194  1.00  0.00    -0.205 F 
ATOM     95  C   UNL     1      10.947   9.053 -11.811  1.00  0.00     0.022 A 
BRANCH  93  96
ATOM     96  S   UNL     1       9.137  10.159 -10.081  1.00  0.00     0.127 S 
ATOM     97  O   UNL     1      10.175  10.964  -9.438  1.00  0.00    -0.237 OA
ATOM     98  O   UNL     1       8.574  10.746 -11.296  1.00  0.00    -0.237 OA
ATOM     99  O   UNL     1       8.154   9.577  -9.177  1.00  0.00    -0.744 OA
ENDBRANCH  93  96
ENDBRANCH  66  89
ENDBRANCH  40  41
ENDBRANCH  32  35
ENDBRANCH  30  31
ENDBRANCH  29  30
ENDBRANCH  28  29
ENDBRANCH   1  28
TORSDOF 20
