REMARK SMILES C[C@@H]1C[N@@H+](C[C@]2(C(=O)NCCCCCCNC(=O)c3ccc(-c4c5nc(c(-c6cccc(S(=O)(=O)[O-])c6F)c6ccc([nH]6)c(-c6cccc(S(=O)(=O)[O-])c6F)c6nc(c(-c7cccc(S(=O)(=O)[O-])c7F)c7ccc4[nH]7)C=C6)C=C5)cc3)CCOC2)C[C@@H]1C
REMARK SMILES IDX 13 1 12 2 11 3 10 4 9 5 7 6 8 7 6 9 82 10 85 11 83 12 84 13
REMARK SMILES IDX 5 14 4 15 1 16 2 17 3 18 87 19 86 20 88 21 14 23 15 24 16 25
REMARK SMILES IDX 17 26 18 28 19 29 20 30 81 31 21 32 80 33 22 34 23 35 24 36
REMARK SMILES IDX 74 37 25 38 79 39 73 40 75 41 26 42 78 43 72 44 71 45 27 47
REMARK SMILES IDX 59 48 39 49 58 50 40 51 43 52 57 53 76 54 41 55 42 56 56 58
REMARK SMILES IDX 77 59 44 60 28 61 29 62 37 63 30 64 32 65 38 66 31 67 33 68
REMARK SMILES IDX 34 69 35 70 36 71 60 72 61 73 69 74 62 75 64 76 70 77 63 78
REMARK SMILES IDX 65 79 66 80 67 81 68 82 45 83 46 84 54 85 47 86 49 87 55 88
REMARK SMILES IDX 48 89 50 90 51 91 52 92 53 93
REMARK H PARENT 9 8 4 22 16 27 75 46 43 57
REMARK Flexibility Score: inf
ROOT
ATOM      1  C   UNL     1       0.683   9.357   2.171  1.00  0.00     0.002 C 
ENDROOT
BRANCH   1   2
ATOM      2  C   UNL     1       1.416   8.206   2.865  1.00  0.00     0.002 C 
BRANCH   2   3
ATOM      3  C   UNL     1       0.522   7.144   3.510  1.00  0.00     0.021 C 
BRANCH   3   4
ATOM      4  C   UNL     1      -0.531   6.541   2.589  1.00  0.00     0.116 C 
BRANCH   4   5
ATOM      5  N   UNL     1       0.038   5.902   1.414  1.00  0.00    -0.355 N 
ATOM      6  C   UNL     1      -0.340   4.781   0.735  1.00  0.00     0.234 C 
ATOM      7  O   UNL     1       0.221   4.581  -0.346  1.00  0.00    -0.274 OA
ATOM      8  H   UNL     1       0.830   6.356   1.046  1.00  0.00     0.163 HD
BRANCH   6   9
ATOM      9  C   UNL     1      -1.395   3.817   1.301  1.00  0.00     0.123 C 
ATOM     10  C   UNL     1      -1.465   2.548   0.441  1.00  0.00     0.054 C 
ATOM     11  C   UNL     1      -0.844   3.230   2.601  1.00  0.00     0.183 C 
ATOM     12  C   UNL     1      -1.702   1.422   1.419  1.00  0.00     0.161 C 
ATOM     13  O   UNL     1      -1.199   1.843   2.684  1.00  0.00    -0.380 OA
BRANCH   9  14
ATOM     14  C   UNL     1      -2.766   4.563   1.333  1.00  0.00     0.281 C 
BRANCH  14  15
ATOM     15  N   UNL     1      -3.921   4.029   2.015  1.00  0.00    -0.333 N 
ATOM     16  C   UNL     1      -5.011   2.204   5.040  1.00  0.00     0.014 C 
ATOM     17  C   UNL     1      -4.510   2.505   3.640  1.00  0.00     0.049 C 
ATOM     18  C   UNL     1      -4.014   3.933   3.454  1.00  0.00     0.265 C 
ATOM     19  C   UNL     1      -5.502   2.330   2.475  1.00  0.00     0.049 C 
ATOM     20  C   UNL     1      -4.860   3.156   1.346  1.00  0.00     0.265 C 
ATOM     21  C   UNL     1      -6.918   2.813   2.788  1.00  0.00     0.014 C 
ATOM     22  H   UNL     1      -4.196   4.991   1.820  1.00  0.00     0.348 HD
ENDBRANCH  14  15
ENDBRANCH   9  14
ENDBRANCH   6   9
ENDBRANCH   4   5
ENDBRANCH   3   4
ENDBRANCH   2   3
ENDBRANCH   1   2
BRANCH   1  23
ATOM     23  C   UNL     1      -0.324  10.119   3.034  1.00  0.00     0.021 C 
BRANCH  23  24
ATOM     24  C   UNL     1       0.220  10.640   4.360  1.00  0.00     0.116 C 
BRANCH  24  25
ATOM     25  N   UNL     1       1.349  11.539   4.186  1.00  0.00    -0.352 N 
ATOM     26  C   UNL     1       1.560  12.784   4.728  1.00  0.00     0.251 C 
ATOM     27  H   UNL     1       2.064  11.209   3.596  1.00  0.00     0.163 HD
ATOM     28  O   UNL     1       2.504  13.466   4.347  1.00  0.00    -0.269 OA
BRANCH  26  29
ATOM     29  C   UNL     1       0.629  13.305   5.753  1.00  0.00     0.039 A 
ATOM     30  C   UNL     1       0.175  14.621   5.641  1.00  0.00     0.014 A 
ATOM     31  C   UNL     1       0.201  12.502   6.814  1.00  0.00     0.014 A 
ATOM     32  C   UNL     1      -0.753  15.113   6.562  1.00  0.00     0.010 A 
ATOM     33  C   UNL     1      -0.783  12.966   7.681  1.00  0.00     0.010 A 
ATOM     34  C   UNL     1      -1.266  14.279   7.569  1.00  0.00    -0.014 A 
BRANCH  34  35
ATOM     35  C   UNL     1      -2.317  14.761   8.502  1.00  0.00     0.031 A 
ATOM     36  C   UNL     1      -2.051  14.832   9.981  1.00  0.00     0.074 A 
ATOM     37  C   UNL     1      -3.541  15.064   8.025  1.00  0.00     0.049 A 
ATOM     38  N   UNL     1      -2.857  15.190  10.947  1.00  0.00    -0.248 NA
ATOM     39  C   UNL     1      -0.714  14.422  10.439  1.00  0.00     0.031 C 
ATOM     40  C   UNL     1      -3.950  14.957   6.623  1.00  0.00     0.029 A 
ATOM     41  N   UNL     1      -4.673  15.496   8.669  1.00  0.00    -0.354 N 
ATOM     42  C   UNL     1      -2.139  15.020  12.125  1.00  0.00     0.074 A 
ATOM     43  C   UNL     1      -0.846  14.487  11.756  1.00  0.00     0.031 C 
ATOM     44  C   UNL     1      -5.237  15.320   6.512  1.00  0.00     0.029 A 
ATOM     45  C   UNL     1      -5.756  15.650   7.835  1.00  0.00     0.049 A 
ATOM     46  H   UNL     1      -4.707  15.679   9.636  1.00  0.00     0.167 HD
ATOM     47  C   UNL     1      -2.509  15.307  13.396  1.00  0.00     0.034 A 
ATOM     48  C   UNL     1      -7.027  16.005   8.105  1.00  0.00     0.034 A 
ATOM     49  C   UNL     1      -3.787  15.861  13.757  1.00  0.00     0.049 A 
ATOM     50  C   UNL     1      -7.408  16.344   9.520  1.00  0.00     0.074 A 
ATOM     51  C   UNL     1      -4.228  16.264  15.005  1.00  0.00     0.029 A 
ATOM     52  N   UNL     1      -4.836  16.074  12.875  1.00  0.00    -0.354 N 
ATOM     53  N   UNL     1      -6.666  16.327  10.601  1.00  0.00    -0.248 NA
ATOM     54  C   UNL     1      -8.791  16.787   9.748  1.00  0.00     0.031 C 
ATOM     55  C   UNL     1      -5.556  16.687  14.884  1.00  0.00     0.029 A 
ATOM     56  C   UNL     1      -5.929  16.587  13.553  1.00  0.00     0.049 A 
ATOM     57  H   UNL     1      -4.807  15.888  11.909  1.00  0.00     0.167 HD
ATOM     58  C   UNL     1      -7.480  16.786  11.630  1.00  0.00     0.074 A 
ATOM     59  C   UNL     1      -8.766  17.094  11.038  1.00  0.00     0.031 C 
ATOM     60  C   UNL     1      -7.193  16.927  12.948  1.00  0.00     0.034 A 
BRANCH  47  61
ATOM     61  C   UNL     1      -1.498  15.063  14.488  1.00  0.00     0.023 A 
ATOM     62  C   UNL     1      -0.343  15.870  14.565  1.00  0.00     0.012 A 
ATOM     63  C   UNL     1      -1.706  14.066  15.461  1.00  0.00     0.148 A 
ATOM     64  C   UNL     1       0.609  15.659  15.561  1.00  0.00     0.002 A 
ATOM     65  C   UNL     1      -0.777  13.895  16.481  1.00  0.00     0.091 A 
ATOM     66  F   UNL     1      -2.798  13.294  15.363  1.00  0.00    -0.205 F 
ATOM     67  C   UNL     1       0.388  14.679  16.523  1.00  0.00     0.022 A 
BRANCH  65  68
ATOM     68  S   UNL     1      -1.009  12.715  17.815  1.00  0.00     0.127 S 
ATOM     69  O   UNL     1       0.004  11.709  17.499  1.00  0.00    -0.237 OA
ATOM     70  O   UNL     1      -0.714  13.527  18.997  1.00  0.00    -0.237 OA
ATOM     71  O   UNL     1      -2.390  12.264  17.717  1.00  0.00    -0.744 OA
ENDBRANCH  65  68
ENDBRANCH  47  61
BRANCH  48  72
ATOM     72  C   UNL     1      -8.018  16.105   6.997  1.00  0.00     0.023 A 
ATOM     73  C   UNL     1      -8.487  17.370   6.594  1.00  0.00     0.012 A 
ATOM     74  C   UNL     1      -8.464  14.956   6.314  1.00  0.00     0.148 A 
ATOM     75  C   UNL     1      -9.406  17.487   5.550  1.00  0.00     0.002 A 
ATOM     76  C   UNL     1      -9.333  15.085   5.238  1.00  0.00     0.091 A 
ATOM     77  F   UNL     1      -8.009  13.762   6.719  1.00  0.00    -0.205 F 
ATOM     78  C   UNL     1      -9.820  16.348   4.866  1.00  0.00     0.022 A 
BRANCH  76  79
ATOM     79  S   UNL     1      -9.815  13.690   4.215  1.00  0.00     0.127 S 
ATOM     80  O   UNL     1     -11.241  13.581   4.509  1.00  0.00    -0.237 OA
ATOM     81  O   UNL     1      -9.497  14.180   2.873  1.00  0.00    -0.237 OA
ATOM     82  O   UNL     1      -8.993  12.571   4.658  1.00  0.00    -0.744 OA
ENDBRANCH  76  79
ENDBRANCH  48  72
BRANCH  60  83
ATOM     83  C   UNL     1      -8.275  17.470  13.845  1.00  0.00     0.023 A 
ATOM     84  C   UNL     1      -9.399  16.678  14.154  1.00  0.00     0.012 A 
ATOM     85  C   UNL     1      -8.145  18.743  14.436  1.00  0.00     0.148 A 
ATOM     86  C   UNL     1     -10.393  17.159  15.006  1.00  0.00     0.002 A 
ATOM     87  C   UNL     1      -9.112  19.194  15.325  1.00  0.00     0.091 A 
ATOM     88  F   UNL     1      -7.077  19.489  14.117  1.00  0.00    -0.205 F 
ATOM     89  C   UNL     1     -10.244  18.410  15.600  1.00  0.00     0.022 A 
BRANCH  87  90
ATOM     90  S   UNL     1      -8.957  20.747  16.214  1.00  0.00     0.127 S 
ATOM     91  O   UNL     1      -9.995  21.558  15.579  1.00  0.00    -0.237 OA
ATOM     92  O   UNL     1      -9.252  20.346  17.590  1.00  0.00    -0.237 OA
ATOM     93  O   UNL     1      -7.591  21.202  15.995  1.00  0.00    -0.744 OA
ENDBRANCH  87  90
ENDBRANCH  60  83
ENDBRANCH  34  35
ENDBRANCH  26  29
ENDBRANCH  24  25
ENDBRANCH  23  24
ENDBRANCH   1  23
TORSDOF 18
