REMARK SMILES CC(=O)Nc1nc(C[N@@H+]2CCO[C@@H](CC(=O)NCCCCCCNC(=O)c3ccc(-c4c5nc(c(-c6cccc(S(=O)(=O)[O-])c6F)c6ccc([nH]6)c(-c6cccc(S(=O)(=O)[O-])c6F)c6nc(c(-c7cccc(S(=O)(=O)[O-])c7F)c7ccc4[nH]7)C=C6)C=C5)cc3)C2)cs1
REMARK SMILES IDX 20 1 19 2 18 3 17 4 15 5 16 6 14 8 13 9 9 10 10 11 90 12
REMARK SMILES IDX 11 14 12 15 8 16 7 17 5 18 6 19 92 20 91 21 4 22 1 23 2 24
REMARK SMILES IDX 3 25 21 27 22 28 23 29 24 30 25 31 26 33 27 34 28 35 89 36
REMARK SMILES IDX 29 37 88 38 30 39 31 40 32 41 82 42 33 43 87 44 81 45 83 46
REMARK SMILES IDX 34 47 86 48 80 49 79 50 35 52 67 53 47 54 66 55 48 56 51 57
REMARK SMILES IDX 65 58 84 59 49 60 50 61 64 63 85 64 52 65 36 66 37 67 45 68
REMARK SMILES IDX 38 69 40 70 46 71 39 72 41 73 42 74 43 75 44 76 68 77 69 78
REMARK SMILES IDX 77 79 70 80 72 81 78 82 71 83 73 84 74 85 75 86 76 87 53 88
REMARK SMILES IDX 54 89 62 90 55 91 57 92 63 93 56 94 58 95 59 96 60 97 61 98
REMARK H PARENT 17 7 9 13 4 26 24 32 83 51 51 62
REMARK Flexibility Score: inf
ROOT
ATOM      1  C   UNL     1       8.523   0.896   0.429  1.00  0.00     0.002 C 
ENDROOT
BRANCH   1   2
ATOM      2  C   UNL     1       7.819   0.273   1.632  1.00  0.00     0.021 C 
BRANCH   2   3
ATOM      3  C   UNL     1       7.695   1.201   2.845  1.00  0.00     0.116 C 
BRANCH   3   4
ATOM      4  N   UNL     1       6.425   1.912   2.828  1.00  0.00    -0.356 N 
ATOM      5  C   UNL     1       5.338   1.789   3.644  1.00  0.00     0.222 C 
ATOM      6  O   UNL     1       4.324   2.438   3.379  1.00  0.00    -0.275 OA
ATOM      7  H   UNL     1       6.335   2.586   2.116  1.00  0.00     0.163 HD
BRANCH   5   8
ATOM      8  C   UNL     1       5.382   0.872   4.844  1.00  0.00     0.138 C 
BRANCH   8   9
ATOM      9  C   UNL     1       4.760  -0.503   4.587  1.00  0.00     0.182 C 
ATOM     10  N   UNL     1       5.092  -2.658   3.244  1.00  0.00    -0.326 N 
ATOM     11  C   UNL     1       5.033  -3.361   4.524  1.00  0.00     0.291 C 
ATOM     12  C   UNL     1       5.429  -1.243   3.410  1.00  0.00     0.295 C 
ATOM     13  H   UNL     1       5.886  -3.088   2.771  1.00  0.00     0.348 HD
ATOM     14  C   UNL     1       4.385  -2.575   5.676  1.00  0.00     0.222 C 
ATOM     15  O   UNL     1       4.927  -1.258   5.805  1.00  0.00    -0.366 OA
BRANCH  10  16
ATOM     16  C   UNL     1       4.075  -2.966   2.239  1.00  0.00     0.320 C 
BRANCH  16  17
ATOM     17  C   UNL     1       2.732  -2.372   2.538  1.00  0.00     0.108 A 
ATOM     18  C   UNL     1       1.213  -0.783   2.389  1.00  0.00     0.189 A 
ATOM     19  N   UNL     1       2.335  -1.214   1.875  1.00  0.00    -0.219 NA
ATOM     20  S   UNL     1       0.540  -1.719   3.645  1.00  0.00    -0.105 S 
ATOM     21  C   UNL     1       1.792  -2.868   3.424  1.00  0.00     0.098 A 
BRANCH  18  22
ATOM     22  N   UNL     1       0.487   0.322   2.066  1.00  0.00    -0.302 N 
ATOM     23  C   UNL     1       1.295   0.405  -0.279  1.00  0.00     0.114 C 
ATOM     24  C   UNL     1       0.563   1.007   0.892  1.00  0.00     0.223 C 
ATOM     25  O   UNL     1      -0.049   2.072   0.777  1.00  0.00    -0.275 OA
ATOM     26  H   UNL     1      -0.148   0.655   2.739  1.00  0.00     0.172 HD
ENDBRANCH  18  22
ENDBRANCH  16  17
ENDBRANCH  10  16
ENDBRANCH   8   9
ENDBRANCH   5   8
ENDBRANCH   3   4
ENDBRANCH   2   3
ENDBRANCH   1   2
BRANCH   1  27
ATOM     27  C   UNL     1      10.021   1.144   0.621  1.00  0.00     0.002 C 
BRANCH  27  28
ATOM     28  C   UNL     1      10.847  -0.077   1.042  1.00  0.00     0.021 C 
BRANCH  28  29
ATOM     29  C   UNL     1      10.702  -1.307   0.146  1.00  0.00     0.116 C 
BRANCH  29  30
ATOM     30  N   UNL     1      11.073  -1.023  -1.231  1.00  0.00    -0.352 N 
ATOM     31  C   UNL     1      12.090  -1.540  -1.993  1.00  0.00     0.251 C 
ATOM     32  H   UNL     1      10.508  -0.359  -1.686  1.00  0.00     0.163 HD
ATOM     33  O   UNL     1      12.381  -1.003  -3.059  1.00  0.00    -0.269 OA
BRANCH  31  34
ATOM     34  C   UNL     1      12.841  -2.731  -1.539  1.00  0.00     0.039 A 
ATOM     35  C   UNL     1      14.231  -2.744  -1.682  1.00  0.00     0.014 A 
ATOM     36  C   UNL     1      12.182  -3.850  -1.020  1.00  0.00     0.014 A 
ATOM     37  C   UNL     1      14.963  -3.857  -1.260  1.00  0.00     0.010 A 
ATOM     38  C   UNL     1      12.919  -4.934  -0.543  1.00  0.00     0.010 A 
ATOM     39  C   UNL     1      14.316  -4.952  -0.664  1.00  0.00    -0.014 A 
BRANCH  39  40
ATOM     40  C   UNL     1      15.098  -6.103  -0.139  1.00  0.00     0.031 A 
ATOM     41  C   UNL     1      14.950  -7.476  -0.739  1.00  0.00     0.074 A 
ATOM     42  C   UNL     1      15.890  -5.923   0.938  1.00  0.00     0.049 A 
ATOM     43  N   UNL     1      15.551  -8.588  -0.403  1.00  0.00    -0.248 NA
ATOM     44  C   UNL     1      13.986  -7.628  -1.842  1.00  0.00     0.031 C 
ATOM     45  C   UNL     1      16.042  -4.666   1.674  1.00  0.00     0.029 A 
ATOM     46  N   UNL     1      16.695  -6.803   1.618  1.00  0.00    -0.354 N 
ATOM     47  C   UNL     1      15.015  -9.576  -1.221  1.00  0.00     0.074 A 
ATOM     48  C   UNL     1      14.024  -8.937  -2.059  1.00  0.00     0.031 C 
ATOM     49  C   UNL     1      16.882  -4.857   2.704  1.00  0.00     0.029 A 
ATOM     50  C   UNL     1      17.315  -6.250   2.715  1.00  0.00     0.049 A 
ATOM     51  H   UNL     1      16.816  -7.742   1.347  1.00  0.00     0.167 HD
ATOM     52  C   UNL     1      15.337 -10.890  -1.286  1.00  0.00     0.034 A 
ATOM     53  C   UNL     1      18.138  -6.802   3.628  1.00  0.00     0.034 A 
ATOM     54  C   UNL     1      16.366 -11.510  -0.494  1.00  0.00     0.049 A 
ATOM     55  C   UNL     1      18.538  -8.245   3.476  1.00  0.00     0.074 A 
ATOM     56  C   UNL     1      16.853 -12.803  -0.581  1.00  0.00     0.029 A 
ATOM     57  N   UNL     1      17.057 -10.891   0.533  1.00  0.00    -0.354 N 
ATOM     58  N   UNL     1      18.175  -9.109   2.560  1.00  0.00    -0.248 NA
ATOM     59  C   UNL     1      19.495  -8.778   4.457  1.00  0.00     0.031 C 
ATOM     60  C   UNL     1      17.823 -12.973   0.412  1.00  0.00     0.029 A 
ATOM     61  C   UNL     1      17.955 -11.779   1.101  1.00  0.00     0.049 A 
ATOM     62  H   UNL     1      16.930  -9.957   0.818  1.00  0.00     0.167 HD
ATOM     63  C   UNL     1      18.879 -10.275   2.836  1.00  0.00     0.074 A 
ATOM     64  C   UNL     1      19.715  -9.997   3.985  1.00  0.00     0.031 C 
ATOM     65  C   UNL     1      18.821 -11.476   2.210  1.00  0.00     0.034 A 
BRANCH  52  66
ATOM     66  C   UNL     1      14.618 -11.752  -2.291  1.00  0.00     0.023 A 
ATOM     67  C   UNL     1      14.939 -11.637  -3.658  1.00  0.00     0.012 A 
ATOM     68  C   UNL     1      13.713 -12.747  -1.872  1.00  0.00     0.148 A 
ATOM     69  C   UNL     1      14.357 -12.489  -4.596  1.00  0.00     0.002 A 
ATOM     70  C   UNL     1      13.168 -13.618  -2.808  1.00  0.00     0.091 A 
ATOM     71  F   UNL     1      13.410 -12.827  -0.568  1.00  0.00    -0.205 F 
ATOM     72  C   UNL     1      13.483 -13.486  -4.171  1.00  0.00     0.022 A 
BRANCH  70  73
ATOM     73  S   UNL     1      12.093 -14.985  -2.357  1.00  0.00     0.127 S 
ATOM     74  O   UNL     1      10.823 -14.570  -2.951  1.00  0.00    -0.237 OA
ATOM     75  O   UNL     1      12.738 -16.116  -3.023  1.00  0.00    -0.237 OA
ATOM     76  O   UNL     1      12.106 -15.045  -0.901  1.00  0.00    -0.744 OA
ENDBRANCH  70  73
ENDBRANCH  52  66
BRANCH  53  77
ATOM     77  C   UNL     1      18.689  -5.972   4.737  1.00  0.00     0.023 A 
ATOM     78  C   UNL     1      20.060  -5.651   4.751  1.00  0.00     0.012 A 
ATOM     79  C   UNL     1      17.862  -5.491   5.770  1.00  0.00     0.148 A 
ATOM     80  C   UNL     1      20.605  -4.902   5.794  1.00  0.00     0.002 A 
ATOM     81  C   UNL     1      18.401  -4.696   6.775  1.00  0.00     0.091 A 
ATOM     82  F   UNL     1      16.562  -5.820   5.753  1.00  0.00    -0.205 F 
ATOM     83  C   UNL     1      19.775  -4.416   6.801  1.00  0.00     0.022 A 
BRANCH  81  84
ATOM     84  S   UNL     1      17.368  -3.919   8.023  1.00  0.00     0.127 S 
ATOM     85  O   UNL     1      17.561  -4.804   9.168  1.00  0.00    -0.237 OA
ATOM     86  O   UNL     1      17.983  -2.598   8.155  1.00  0.00    -0.237 OA
ATOM     87  O   UNL     1      16.029  -3.894   7.449  1.00  0.00    -0.744 OA
ENDBRANCH  81  84
ENDBRANCH  53  77
BRANCH  65  88
ATOM     88  C   UNL     1      19.701 -12.580   2.737  1.00  0.00     0.023 A 
ATOM     89  C   UNL     1      19.387 -13.193   3.966  1.00  0.00     0.012 A 
ATOM     90  C   UNL     1      20.798 -13.050   1.990  1.00  0.00     0.148 A 
ATOM     91  C   UNL     1      20.174 -14.232   4.462  1.00  0.00     0.002 A 
ATOM     92  C   UNL     1      21.549 -14.118   2.466  1.00  0.00     0.091 A 
ATOM     93  F   UNL     1      21.093 -12.442   0.832  1.00  0.00    -0.205 F 
ATOM     94  C   UNL     1      21.246 -14.702   3.707  1.00  0.00     0.022 A 
BRANCH  92  95
ATOM     95  S   UNL     1      22.887 -14.848   1.515  1.00  0.00     0.127 S 
ATOM     96  O   UNL     1      24.064 -14.311   2.196  1.00  0.00    -0.237 OA
ATOM     97  O   UNL     1      22.668 -16.281   1.714  1.00  0.00    -0.237 OA
ATOM     98  O   UNL     1      22.692 -14.395   0.144  1.00  0.00    -0.744 OA
ENDBRANCH  92  95
ENDBRANCH  65  88
ENDBRANCH  39  40
ENDBRANCH  31  34
ENDBRANCH  29  30
ENDBRANCH  28  29
ENDBRANCH  27  28
ENDBRANCH   1  27
TORSDOF 20
