REMARK SMILES COc1ccc(C(=O)CCCC(=O)NCCCCCCNC(=O)c2ccc(-c3c4nc(c(-c5cccc(S(=O)(=O)[O-])c5F)c5ccc([nH]5)c(-c5cccc(S(=O)(=O)[O-])c5F)c5nc(c(-c6cccc(S(=O)(=O)[O-])c6F)c6ccc3[nH]6)C=C5)C=C4)cc2)cc1
REMARK SMILES IDX 16 1 15 2 14 3 12 4 13 5 11 7 10 8 9 9 7 10 8 11 6 12 3 13
REMARK SMILES IDX 4 14 88 15 5 16 87 17 2 18 1 19 17 20 18 21 19 22 20 23
REMARK SMILES IDX 21 24 22 25 23 27 24 28 25 29 86 30 26 31 85 32 27 33 28 34
REMARK SMILES IDX 29 35 79 36 30 37 84 38 78 39 80 40 31 41 83 42 77 43 76 44
REMARK SMILES IDX 32 46 64 47 44 48 63 49 45 50 48 51 62 52 81 53 46 54 47 55
REMARK SMILES IDX 61 57 82 58 49 59 33 60 34 61 42 62 35 63 37 64 43 65 36 66
REMARK SMILES IDX 38 67 39 68 40 69 41 70 65 71 66 72 74 73 67 74 69 75 75 76
REMARK SMILES IDX 68 77 70 78 71 79 72 80 73 81 50 82 51 83 59 84 52 85 54 86
REMARK SMILES IDX 60 87 53 88 55 89 56 90 57 91 58 92
REMARK H PARENT 14 6 21 26 80 45 48 56
REMARK Flexibility Score: inf
ROOT
ATOM      1  C   UNL     1       5.028  -3.465   5.920  1.00  0.00     0.021 C 
ENDROOT
BRANCH   1   2
ATOM      2  C   UNL     1       4.584  -3.006   4.533  1.00  0.00     0.116 C 
BRANCH   2   3
ATOM      3  N   UNL     1       5.550  -3.365   3.514  1.00  0.00    -0.356 N 
ATOM      4  C   UNL     1       5.544  -4.145   2.412  1.00  0.00     0.220 C 
ATOM      5  O   UNL     1       6.596  -4.129   1.756  1.00  0.00    -0.275 OA
ATOM      6  H   UNL     1       6.423  -2.934   3.661  1.00  0.00     0.163 HD
BRANCH   4   7
ATOM      7  C   UNL     1       4.351  -4.916   1.849  1.00  0.00     0.100 C 
BRANCH   7   8
ATOM      8  C   UNL     1       3.567  -5.965   2.631  1.00  0.00     0.018 C 
BRANCH   8   9
ATOM      9  C   UNL     1       2.678  -5.658   3.832  1.00  0.00     0.081 C 
BRANCH   9  10
ATOM     10  C   UNL     1       1.278  -5.028   3.745  1.00  0.00     0.162 C 
ATOM     11  O   UNL     1       0.349  -5.623   4.304  1.00  0.00    -0.294 OA
BRANCH  10  12
ATOM     12  C   UNL     1       0.942  -3.697   3.125  1.00  0.00     0.018 A 
ATOM     13  C   UNL     1       0.130  -1.267   1.895  1.00  0.00     0.118 A 
ATOM     14  C   UNL     1      -0.784  -2.041   2.605  1.00  0.00     0.047 A 
ATOM     15  C   UNL     1       1.458  -1.663   1.869  1.00  0.00     0.047 A 
ATOM     16  C   UNL     1      -0.386  -3.248   3.202  1.00  0.00     0.015 A 
ATOM     17  C   UNL     1       1.849  -2.853   2.494  1.00  0.00     0.015 A 
BRANCH  13  18
ATOM     18  O   UNL     1      -0.354  -0.136   1.301  1.00  0.00    -0.497 OA
ATOM     19  C   UNL     1       0.372   0.305   0.156  1.00  0.00     0.278 C 
ENDBRANCH  13  18
ENDBRANCH  10  12
ENDBRANCH   9  10
ENDBRANCH   8   9
ENDBRANCH   7   8
ENDBRANCH   4   7
ENDBRANCH   2   3
ENDBRANCH   1   2
BRANCH   1  20
ATOM     20  C   UNL     1       5.612  -2.327   6.758  1.00  0.00     0.002 C 
BRANCH  20  21
ATOM     21  C   UNL     1       4.600  -1.243   7.154  1.00  0.00     0.002 C 
BRANCH  21  22
ATOM     22  C   UNL     1       3.389  -1.725   7.959  1.00  0.00     0.021 C 
BRANCH  22  23
ATOM     23  C   UNL     1       3.721  -2.521   9.218  1.00  0.00     0.116 C 
BRANCH  23  24
ATOM     24  N   UNL     1       4.621  -1.798  10.103  1.00  0.00    -0.352 N 
ATOM     25  C   UNL     1       4.507  -1.533  11.443  1.00  0.00     0.251 C 
ATOM     26  H   UNL     1       5.435  -1.446   9.675  1.00  0.00     0.163 HD
ATOM     27  O   UNL     1       5.285  -0.747  11.975  1.00  0.00    -0.269 OA
BRANCH  25  28
ATOM     28  C   UNL     1       3.448  -2.185  12.242  1.00  0.00     0.039 A 
ATOM     29  C   UNL     1       2.746  -1.423  13.179  1.00  0.00     0.014 A 
ATOM     30  C   UNL     1       3.172  -3.547  12.092  1.00  0.00     0.014 A 
ATOM     31  C   UNL     1       1.740  -2.020  13.942  1.00  0.00     0.010 A 
ATOM     32  C   UNL     1       2.122  -4.122  12.801  1.00  0.00     0.010 A 
ATOM     33  C   UNL     1       1.409  -3.371  13.746  1.00  0.00    -0.014 A 
BRANCH  33  34
ATOM     34  C   UNL     1       0.337  -4.022  14.540  1.00  0.00     0.031 A 
ATOM     35  C   UNL     1       0.675  -5.146  15.482  1.00  0.00     0.074 A 
ATOM     36  C   UNL     1      -0.946  -3.652  14.357  1.00  0.00     0.049 A 
ATOM     37  N   UNL     1      -0.122  -5.865  16.228  1.00  0.00    -0.248 NA
ATOM     38  C   UNL     1       2.093  -5.530  15.579  1.00  0.00     0.031 C 
ATOM     39  C   UNL     1      -1.405  -2.627  13.418  1.00  0.00     0.029 A 
ATOM     40  N   UNL     1      -2.100  -4.112  14.938  1.00  0.00    -0.354 N 
ATOM     41  C   UNL     1       0.688  -6.806  16.852  1.00  0.00     0.074 A 
ATOM     42  C   UNL     1       2.034  -6.593  16.367  1.00  0.00     0.031 C 
ATOM     43  C   UNL     1      -2.742  -2.528  13.495  1.00  0.00     0.029 A 
ATOM     44  C   UNL     1      -3.237  -3.496  14.469  1.00  0.00     0.049 A 
ATOM     45  H   UNL     1      -2.114  -4.815  15.627  1.00  0.00     0.167 HD
ATOM     46  C   UNL     1       0.352  -7.741  17.774  1.00  0.00     0.034 A 
ATOM     47  C   UNL     1      -4.530  -3.689  14.791  1.00  0.00     0.034 A 
ATOM     48  C   UNL     1      -0.980  -7.918  18.286  1.00  0.00     0.049 A 
ATOM     49  C   UNL     1      -4.873  -4.701  15.851  1.00  0.00     0.074 A 
ATOM     50  C   UNL     1      -1.416  -8.784  19.272  1.00  0.00     0.029 A 
ATOM     51  N   UNL     1      -2.093  -7.213  17.851  1.00  0.00    -0.354 N 
ATOM     52  N   UNL     1      -4.073  -5.480  16.539  1.00  0.00    -0.248 NA
ATOM     53  C   UNL     1      -6.293  -4.832  16.209  1.00  0.00     0.031 C 
ATOM     54  C   UNL     1      -2.797  -8.611  19.425  1.00  0.00     0.029 A 
ATOM     55  C   UNL     1      -3.216  -7.622  18.549  1.00  0.00     0.049 A 
ATOM     56  H   UNL     1      -2.085  -6.523  17.149  1.00  0.00     0.167 HD
ATOM     57  C   UNL     1      -4.884  -6.160  17.441  1.00  0.00     0.074 A 
ATOM     58  C   UNL     1      -6.237  -5.688  17.221  1.00  0.00     0.031 C 
ATOM     59  C   UNL     1      -4.544  -7.098  18.359  1.00  0.00     0.034 A 
BRANCH  46  60
ATOM     60  C   UNL     1       1.459  -8.600  18.329  1.00  0.00     0.023 A 
ATOM     61  C   UNL     1       2.423  -8.022  19.182  1.00  0.00     0.012 A 
ATOM     62  C   UNL     1       1.533  -9.977  18.040  1.00  0.00     0.148 A 
ATOM     63  C   UNL     1       3.465  -8.788  19.703  1.00  0.00     0.002 A 
ATOM     64  C   UNL     1       2.549 -10.744  18.601  1.00  0.00     0.091 A 
ATOM     65  F   UNL     1       0.623 -10.507  17.210  1.00  0.00    -0.205 F 
ATOM     66  C   UNL     1       3.522 -10.149  19.420  1.00  0.00     0.022 A 
BRANCH  64  67
ATOM     67  S   UNL     1       2.663 -12.521  18.361  1.00  0.00     0.127 S 
ATOM     68  O   UNL     1       3.790 -12.622  17.435  1.00  0.00    -0.237 OA
ATOM     69  O   UNL     1       2.942 -12.999  19.715  1.00  0.00    -0.237 OA
ATOM     70  O   UNL     1       1.373 -12.935  17.828  1.00  0.00    -0.744 OA
ENDBRANCH  64  67
ENDBRANCH  46  60
BRANCH  47  71
ATOM     71  C   UNL     1      -5.586  -2.837  14.174  1.00  0.00     0.023 A 
ATOM     72  C   UNL     1      -6.232  -1.867  14.966  1.00  0.00     0.012 A 
ATOM     73  C   UNL     1      -5.930  -2.953  12.814  1.00  0.00     0.148 A 
ATOM     74  C   UNL     1      -7.225  -1.050  14.424  1.00  0.00     0.002 A 
ATOM     75  C   UNL     1      -6.883  -2.101  12.267  1.00  0.00     0.091 A 
ATOM     76  F   UNL     1      -5.309  -3.887  12.080  1.00  0.00    -0.205 F 
ATOM     77  C   UNL     1      -7.543  -1.160  13.073  1.00  0.00     0.022 A 
BRANCH  75  78
ATOM     78  S   UNL     1      -7.269  -2.083  10.512  1.00  0.00     0.127 S 
ATOM     79  O   UNL     1      -8.617  -2.643  10.497  1.00  0.00    -0.237 OA
ATOM     80  O   UNL     1      -7.191  -0.655  10.201  1.00  0.00    -0.237 OA
ATOM     81  O   UNL     1      -6.239  -2.893   9.875  1.00  0.00    -0.744 OA
ENDBRANCH  75  78
ENDBRANCH  47  71
BRANCH  59  82
ATOM     82  C   UNL     1      -5.641  -7.647  19.233  1.00  0.00     0.023 A 
ATOM     83  C   UNL     1      -6.594  -8.532  18.692  1.00  0.00     0.012 A 
ATOM     84  C   UNL     1      -5.681  -7.341  20.608  1.00  0.00     0.148 A 
ATOM     85  C   UNL     1      -7.593  -9.076  19.499  1.00  0.00     0.002 A 
ATOM     86  C   UNL     1      -6.649  -7.926  21.416  1.00  0.00     0.091 A 
ATOM     87  F   UNL     1      -4.778  -6.481  21.101  1.00  0.00    -0.205 F 
ATOM     88  C   UNL     1      -7.613  -8.783  20.861  1.00  0.00     0.022 A 
BRANCH  86  89
ATOM     89  S   UNL     1      -6.688  -7.682  23.195  1.00  0.00     0.127 S 
ATOM     90  O   UNL     1      -7.808  -6.755  23.345  1.00  0.00    -0.237 OA
ATOM     91  O   UNL     1      -6.945  -9.035  23.691  1.00  0.00    -0.237 OA
ATOM     92  O   UNL     1      -5.380  -7.149  23.553  1.00  0.00    -0.744 OA
ENDBRANCH  86  89
ENDBRANCH  59  82
ENDBRANCH  33  34
ENDBRANCH  25  28
ENDBRANCH  23  24
ENDBRANCH  22  23
ENDBRANCH  21  22
ENDBRANCH  20  21
ENDBRANCH   1  20
TORSDOF 21
