REMARK SMILES C[C@@H]1C[N@@H+](Cc2cccc(C(=O)NCCCCCCNC(=O)c3ccc(-c4c5nc(c(-c6cccc(S(=O)(=O)[O-])c6F)c6ccc([nH]6)c(-c6cccc(S(=O)(=O)[O-])c6F)c6nc(c(-c7cccc(S(=O)(=O)[O-])c7F)c7ccc4[nH]7)C=C6)C=C5)cc3)c2)CCN1C(=O)OC(C)(C)C
REMARK SMILES IDX 15 1 14 2 13 3 11 4 12 5 10 7 6 8 7 9 86 10 8 11 9 12 5 13
REMARK SMILES IDX 4 14 1 15 2 16 3 17 89 18 88 19 87 20 90 22 91 23 92 24
REMARK SMILES IDX 93 25 94 26 95 27 96 28 16 29 17 30 18 31 19 32 20 33 21 34
REMARK SMILES IDX 22 36 23 37 24 38 85 39 25 40 84 41 26 42 27 43 28 44 78 45
REMARK SMILES IDX 29 46 83 47 77 48 79 49 30 50 82 51 76 52 75 53 31 55 63 56
REMARK SMILES IDX 43 57 62 58 44 59 47 60 61 61 80 62 45 63 46 64 60 66 81 67
REMARK SMILES IDX 48 68 32 69 33 70 41 71 34 72 36 73 42 74 35 75 37 76 38 77
REMARK SMILES IDX 39 78 40 79 64 80 65 81 73 82 66 83 68 84 74 85 67 86 69 87
REMARK SMILES IDX 70 88 71 89 72 90 49 91 50 92 58 93 51 94 53 95 59 96 52 97
REMARK SMILES IDX 54 98 55 99 56 100 57 101
REMARK H PARENT 13 6 4 21 20 35 79 54 47 65
REMARK Flexibility Score: inf
ROOT
ATOM      1  C   UNL     1       2.827   6.101  -3.656  1.00  0.00     0.021 C 
ENDROOT
BRANCH   1   2
ATOM      2  C   UNL     1       1.706   5.206  -4.179  1.00  0.00     0.116 C 
BRANCH   2   3
ATOM      3  N   UNL     1       1.718   5.144  -5.625  1.00  0.00    -0.352 N 
ATOM      4  C   UNL     1       2.083   4.166  -6.515  1.00  0.00     0.251 C 
ATOM      5  O   UNL     1       1.920   4.414  -7.712  1.00  0.00    -0.269 OA
ATOM      6  H   UNL     1       1.400   5.971  -6.056  1.00  0.00     0.163 HD
BRANCH   4   7
ATOM      7  C   UNL     1       2.576   2.810  -6.120  1.00  0.00     0.040 A 
ATOM      8  C   UNL     1       3.386   1.157  -4.508  1.00  0.00     0.007 A 
ATOM      9  C   UNL     1       3.164   0.141  -5.445  1.00  0.00     0.009 A 
ATOM     10  C   UNL     1       3.199   2.496  -4.908  1.00  0.00     0.023 A 
ATOM     11  C   UNL     1       2.688   0.451  -6.718  1.00  0.00     0.001 A 
ATOM     12  C   UNL     1       2.360   1.770  -7.037  1.00  0.00     0.014 A 
BRANCH   8  13
ATOM     13  C   UNL     1       3.751   0.811  -3.070  1.00  0.00     0.299 C 
BRANCH  13  14
ATOM     14  N   UNL     1       2.669   0.911  -2.064  1.00  0.00    -0.328 N 
ATOM     15  C   UNL     1       0.801  -0.415   0.139  1.00  0.00     0.037 C 
ATOM     16  C   UNL     1       0.383   0.126  -1.232  1.00  0.00     0.140 C 
ATOM     17  C   UNL     1       1.536  -0.022  -2.286  1.00  0.00     0.287 C 
ATOM     18  N   UNL     1      -0.013   1.542  -1.132  1.00  0.00    -0.294 N 
ATOM     19  C   UNL     1       1.087   2.451  -0.830  1.00  0.00     0.185 C 
ATOM     20  C   UNL     1       2.164   2.287  -1.906  1.00  0.00     0.284 C 
ATOM     21  H   UNL     1       3.120   0.625  -1.195  1.00  0.00     0.348 HD
BRANCH  18  22
ATOM     22  C   UNL     1      -1.237   2.065  -1.513  1.00  0.00     0.410 C 
ATOM     23  O   UNL     1      -1.453   3.267  -1.593  1.00  0.00    -0.224 OA
BRANCH  22  24
ATOM     24  O   UNL     1      -2.161   1.107  -1.799  1.00  0.00    -0.444 OA
BRANCH  24  25
ATOM     25  C   UNL     1      -3.530   1.483  -2.116  1.00  0.00     0.106 C 
ATOM     26  C   UNL     1      -4.199   2.202  -0.936  1.00  0.00     0.056 C 
ATOM     27  C   UNL     1      -3.617   2.308  -3.407  1.00  0.00     0.056 C 
ATOM     28  C   UNL     1      -4.268   0.154  -2.349  1.00  0.00     0.056 C 
ENDBRANCH  24  25
ENDBRANCH  22  24
ENDBRANCH  18  22
ENDBRANCH  13  14
ENDBRANCH   8  13
ENDBRANCH   4   7
ENDBRANCH   2   3
ENDBRANCH   1   2
BRANCH   1  29
ATOM     29  C   UNL     1       2.382   7.557  -3.497  1.00  0.00     0.002 C 
BRANCH  29  30
ATOM     30  C   UNL     1       1.275   7.767  -2.454  1.00  0.00     0.002 C 
BRANCH  30  31
ATOM     31  C   UNL     1       1.613   7.280  -1.042  1.00  0.00     0.021 C 
BRANCH  31  32
ATOM     32  C   UNL     1       2.843   7.941  -0.427  1.00  0.00     0.116 C 
BRANCH  32  33
ATOM     33  N   UNL     1       2.703   9.388  -0.378  1.00  0.00    -0.352 N 
ATOM     34  C   UNL     1       2.778  10.241   0.691  1.00  0.00     0.251 C 
ATOM     35  H   UNL     1       2.528   9.820  -1.246  1.00  0.00     0.163 HD
ATOM     36  O   UNL     1       2.377  11.396   0.573  1.00  0.00    -0.269 OA
BRANCH  34  37
ATOM     37  C   UNL     1       3.342   9.779   1.976  1.00  0.00     0.039 A 
ATOM     38  C   UNL     1       2.752  10.217   3.163  1.00  0.00     0.014 A 
ATOM     39  C   UNL     1       4.474   8.958   2.015  1.00  0.00     0.014 A 
ATOM     40  C   UNL     1       3.280   9.808   4.388  1.00  0.00     0.010 A 
ATOM     41  C   UNL     1       4.948   8.486   3.236  1.00  0.00     0.010 A 
ATOM     42  C   UNL     1       4.370   8.921   4.436  1.00  0.00    -0.014 A 
BRANCH  42  43
ATOM     43  C   UNL     1       4.902   8.448   5.738  1.00  0.00     0.031 A 
ATOM     44  C   UNL     1       6.311   8.773   6.156  1.00  0.00     0.074 A 
ATOM     45  C   UNL     1       4.123   7.683   6.529  1.00  0.00     0.049 A 
ATOM     46  N   UNL     1       6.932   8.463   7.265  1.00  0.00    -0.248 NA
ATOM     47  C   UNL     1       7.142   9.521   5.197  1.00  0.00     0.031 C 
ATOM     48  C   UNL     1       2.771   7.229   6.196  1.00  0.00     0.029 A 
ATOM     49  N   UNL     1       4.360   7.141   7.766  1.00  0.00    -0.354 N 
ATOM     50  C   UNL     1       8.227   8.950   7.127  1.00  0.00     0.074 A 
ATOM     51  C   UNL     1       8.316   9.542   5.811  1.00  0.00     0.031 C 
ATOM     52  C   UNL     1       2.291   6.494   7.211  1.00  0.00     0.029 A 
ATOM     53  C   UNL     1       3.310   6.397   8.251  1.00  0.00     0.049 A 
ATOM     54  H   UNL     1       5.202   7.271   8.260  1.00  0.00     0.167 HD
ATOM     55  C   UNL     1       9.241   8.932   8.025  1.00  0.00     0.034 A 
ATOM     56  C   UNL     1       3.182   5.712   9.403  1.00  0.00     0.034 A 
ATOM     57  C   UNL     1       9.138   8.368   9.344  1.00  0.00     0.049 A 
ATOM     58  C   UNL     1       4.309   5.743  10.398  1.00  0.00     0.074 A 
ATOM     59  C   UNL     1      10.078   8.375  10.359  1.00  0.00     0.029 A 
ATOM     60  N   UNL     1       8.034   7.683   9.828  1.00  0.00    -0.354 N 
ATOM     61  N   UNL     1       5.468   6.349  10.314  1.00  0.00    -0.248 NA
ATOM     62  C   UNL     1       4.093   5.030  11.665  1.00  0.00     0.031 C 
ATOM     63  C   UNL     1       9.558   7.660  11.443  1.00  0.00     0.029 A 
ATOM     64  C   UNL     1       8.275   7.248  11.121  1.00  0.00     0.049 A 
ATOM     65  H   UNL     1       7.201   7.528   9.327  1.00  0.00     0.167 HD
ATOM     66  C   UNL     1       6.106   6.121  11.528  1.00  0.00     0.074 A 
ATOM     67  C   UNL     1       5.191   5.343  12.339  1.00  0.00     0.031 C 
ATOM     68  C   UNL     1       7.341   6.509  11.932  1.00  0.00     0.034 A 
BRANCH  55  69
ATOM     69  C   UNL     1      10.545   9.577   7.625  1.00  0.00     0.023 A 
ATOM     70  C   UNL     1      10.620  10.978   7.487  1.00  0.00     0.012 A 
ATOM     71  C   UNL     1      11.709   8.804   7.446  1.00  0.00     0.148 A 
ATOM     72  C   UNL     1      11.821  11.596   7.141  1.00  0.00     0.002 A 
ATOM     73  C   UNL     1      12.914   9.431   7.150  1.00  0.00     0.091 A 
ATOM     74  F   UNL     1      11.616   7.471   7.562  1.00  0.00    -0.205 F 
ATOM     75  C   UNL     1      12.969  10.825   6.984  1.00  0.00     0.022 A 
BRANCH  73  76
ATOM     76  S   UNL     1      14.465   8.536   7.010  1.00  0.00     0.127 S 
ATOM     77  O   UNL     1      14.751   8.664   5.581  1.00  0.00    -0.237 OA
ATOM     78  O   UNL     1      15.347   9.315   7.880  1.00  0.00    -0.237 OA
ATOM     79  O   UNL     1      14.193   7.183   7.472  1.00  0.00    -0.744 OA
ENDBRANCH  73  76
ENDBRANCH  55  69
BRANCH  56  80
ATOM     80  C   UNL     1       1.915   4.985   9.701  1.00  0.00     0.023 A 
ATOM     81  C   UNL     1       1.069   5.450  10.726  1.00  0.00     0.012 A 
ATOM     82  C   UNL     1       1.536   3.850   8.959  1.00  0.00     0.148 A 
ATOM     83  C   UNL     1      -0.113   4.775  11.033  1.00  0.00     0.002 A 
ATOM     84  C   UNL     1       0.330   3.217   9.230  1.00  0.00     0.091 A 
ATOM     85  F   UNL     1       2.360   3.420   7.992  1.00  0.00    -0.205 F 
ATOM     86  C   UNL     1      -0.487   3.666  10.279  1.00  0.00     0.022 A 
BRANCH  84  87
ATOM     87  S   UNL     1      -0.294   1.865   8.226  1.00  0.00     0.127 S 
ATOM     88  O   UNL     1      -0.197   0.738   9.150  1.00  0.00    -0.237 OA
ATOM     89  O   UNL     1      -1.657   2.309   7.936  1.00  0.00    -0.237 OA
ATOM     90  O   UNL     1       0.579   1.803   7.061  1.00  0.00    -0.744 OA
ENDBRANCH  84  87
ENDBRANCH  56  80
BRANCH  68  91
ATOM     91  C   UNL     1       7.765   6.135  13.329  1.00  0.00     0.023 A 
ATOM     92  C   UNL     1       8.034   4.789  13.651  1.00  0.00     0.012 A 
ATOM     93  C   UNL     1       7.941   7.128  14.313  1.00  0.00     0.148 A 
ATOM     94  C   UNL     1       8.426   4.433  14.941  1.00  0.00     0.002 A 
ATOM     95  C   UNL     1       8.386   6.772  15.580  1.00  0.00     0.091 A 
ATOM     96  F   UNL     1       7.663   8.401  13.995  1.00  0.00    -0.205 F 
ATOM     97  C   UNL     1       8.612   5.425  15.901  1.00  0.00     0.022 A 
BRANCH  95  98
ATOM     98  S   UNL     1       8.749   7.991  16.849  1.00  0.00     0.127 S 
ATOM     99  O   UNL     1       7.637   7.795  17.777  1.00  0.00    -0.237 OA
ATOM    100  O   UNL     1      10.048   7.539  17.349  1.00  0.00    -0.237 OA
ATOM    101  O   UNL     1       8.779   9.280  16.171  1.00  0.00    -0.744 OA
ENDBRANCH  95  98
ENDBRANCH  68  91
ENDBRANCH  42  43
ENDBRANCH  34  37
ENDBRANCH  32  33
ENDBRANCH  31  32
ENDBRANCH  30  31
ENDBRANCH  29  30
ENDBRANCH   1  29
TORSDOF 21
