REMARK SMILES [NH3+][C@]1(C(=O)NCCCCCCNC(=O)c2ccc(-c3c4nc(c(-c5cccc(S(=O)(=O)[O-])c5F)c5ccc([nH]5)c(-c5cccc(S(=O)(=O)[O-])c5F)c5nc(c(-c6cccc(S(=O)(=O)[O-])c6F)c6ccc3[nH]6)C=C5)C=C4)cc2)CCC[C@@H](Sc2ccc(F)c(F)c2)C1
REMARK SMILES IDX 9 1 8 2 7 3 6 4 5 5 3 6 4 7 2 9 78 10 91 11 79 12 81 13
REMARK SMILES IDX 80 14 1 15 82 19 83 20 84 21 90 22 85 23 88 24 86 25 89 26
REMARK SMILES IDX 87 27 10 28 11 29 12 30 13 31 14 33 15 34 16 35 77 36 17 37
REMARK SMILES IDX 76 38 18 39 19 40 20 41 70 42 21 43 75 44 69 45 71 46 22 47
REMARK SMILES IDX 74 48 68 49 67 50 23 52 55 53 35 54 54 55 36 56 39 57 53 58
REMARK SMILES IDX 72 59 37 60 38 61 52 63 73 64 40 65 24 66 25 67 33 68 26 69
REMARK SMILES IDX 28 70 34 71 27 72 29 73 30 74 31 75 32 76 56 77 57 78 65 79
REMARK SMILES IDX 58 80 60 81 66 82 59 83 61 84 62 85 63 86 64 87 41 88 42 89
REMARK SMILES IDX 50 90 43 91 45 92 51 93 44 94 46 95 47 96 48 97 49 98
REMARK H PARENT 5 8 1 16 1 17 1 18 12 32 71 51 39 62
REMARK Flexibility Score: inf
ROOT
ATOM      1  C   UNL     1      -3.429   3.522  -4.333  1.00  0.00     0.002 C 
ENDROOT
BRANCH   1   2
ATOM      2  C   UNL     1      -2.002   3.345  -3.830  1.00  0.00     0.002 C 
BRANCH   2   3
ATOM      3  C   UNL     1      -1.817   3.202  -2.316  1.00  0.00     0.021 C 
BRANCH   3   4
ATOM      4  C   UNL     1      -2.698   2.194  -1.563  1.00  0.00     0.116 C 
BRANCH   4   5
ATOM      5  N   UNL     1      -2.416   0.793  -1.846  1.00  0.00    -0.351 N 
ATOM      6  C   UNL     1      -1.761  -0.197  -1.156  1.00  0.00     0.281 C 
ATOM      7  O   UNL     1      -1.815  -1.331  -1.644  1.00  0.00    -0.268 OA
ATOM      8  H   UNL     1      -2.769   0.494  -2.715  1.00  0.00     0.163 HD
BRANCH   6   9
ATOM      9  C   UNL     1      -1.031   0.065   0.203  1.00  0.00     0.175 C 
ATOM     10  C   UNL     1      -0.354  -1.224   0.742  1.00  0.00     0.079 C 
ATOM     11  C   UNL     1      -0.001   1.210   0.150  1.00  0.00     0.093 C 
ATOM     12  C   UNL     1       0.976  -1.574   0.081  1.00  0.00     0.008 C 
ATOM     13  C   UNL     1       1.395   0.881  -0.425  1.00  0.00     0.058 C 
ATOM     14  C   UNL     1       1.963  -0.420   0.128  1.00  0.00     0.015 C 
BRANCH   9  15
ATOM     15  N   UNL     1      -2.099   0.339   1.203  1.00  0.00    -0.345 N 
ATOM     16  H   UNL     1      -2.763  -0.436   1.213  1.00  0.00     0.345 HD
ATOM     17  H   UNL     1      -2.586   1.200   0.954  1.00  0.00     0.345 HD
ATOM     18  H   UNL     1      -1.681   0.440   2.128  1.00  0.00     0.345 HD
ENDBRANCH   9  15
BRANCH  13  19
ATOM     19  S   UNL     1       1.734   1.190  -2.227  1.00  0.00    -0.122 SA
BRANCH  19  20
ATOM     20  C   UNL     1       1.086  -0.193  -3.136  1.00  0.00     0.011 A 
ATOM     21  C   UNL     1       1.781  -1.393  -3.308  1.00  0.00     0.018 A 
ATOM     22  C   UNL     1      -0.111  -0.024  -3.828  1.00  0.00     0.057 A 
ATOM     23  C   UNL     1       1.216  -2.439  -4.055  1.00  0.00     0.043 A 
ATOM     24  C   UNL     1      -0.684  -1.061  -4.553  1.00  0.00     0.159 A 
ATOM     25  C   UNL     1      -0.029  -2.274  -4.654  1.00  0.00     0.158 A 
ATOM     26  F   UNL     1      -1.878  -0.872  -5.136  1.00  0.00    -0.204 F 
ATOM     27  F   UNL     1      -0.575  -3.284  -5.346  1.00  0.00    -0.204 F 
ENDBRANCH  19  20
ENDBRANCH  13  19
ENDBRANCH   6   9
ENDBRANCH   4   5
ENDBRANCH   3   4
ENDBRANCH   2   3
ENDBRANCH   1   2
BRANCH   1  28
ATOM     28  C   UNL     1      -4.179   4.710  -3.739  1.00  0.00     0.021 C 
BRANCH  28  29
ATOM     29  C   UNL     1      -3.497   6.062  -3.922  1.00  0.00     0.116 C 
BRANCH  29  30
ATOM     30  N   UNL     1      -3.332   6.421  -5.322  1.00  0.00    -0.352 N 
ATOM     31  C   UNL     1      -3.739   7.547  -5.990  1.00  0.00     0.251 C 
ATOM     32  H   UNL     1      -2.858   5.756  -5.872  1.00  0.00     0.163 HD
ATOM     33  O   UNL     1      -3.658   7.585  -7.219  1.00  0.00    -0.269 OA
BRANCH  31  34
ATOM     34  C   UNL     1      -4.291   8.705  -5.252  1.00  0.00     0.039 A 
ATOM     35  C   UNL     1      -5.403   9.365  -5.780  1.00  0.00     0.014 A 
ATOM     36  C   UNL     1      -3.715   9.156  -4.060  1.00  0.00     0.014 A 
ATOM     37  C   UNL     1      -5.966  10.440  -5.087  1.00  0.00     0.010 A 
ATOM     38  C   UNL     1      -4.327  10.175  -3.330  1.00  0.00     0.010 A 
ATOM     39  C   UNL     1      -5.453  10.835  -3.839  1.00  0.00    -0.014 A 
BRANCH  39  40
ATOM     40  C   UNL     1      -6.118  11.915  -3.062  1.00  0.00     0.031 A 
ATOM     41  C   UNL     1      -5.402  13.200  -2.744  1.00  0.00     0.074 A 
ATOM     42  C   UNL     1      -7.372  11.719  -2.606  1.00  0.00     0.049 A 
ATOM     43  N   UNL     1      -5.859  14.267  -2.139  1.00  0.00    -0.248 NA
ATOM     44  C   UNL     1      -3.985  13.295  -3.130  1.00  0.00     0.031 C 
ATOM     45  C   UNL     1      -8.140  10.480  -2.757  1.00  0.00     0.029 A 
ATOM     46  N   UNL     1      -8.218  12.551  -1.918  1.00  0.00    -0.354 N 
ATOM     47  C   UNL     1      -4.787  15.147  -2.052  1.00  0.00     0.074 A 
ATOM     48  C   UNL     1      -3.644  14.474  -2.629  1.00  0.00     0.031 C 
ATOM     49  C   UNL     1      -9.352  10.644  -2.204  1.00  0.00     0.029 A 
ATOM     50  C   UNL     1      -9.441  11.986  -1.639  1.00  0.00     0.049 A 
ATOM     51  H   UNL     1      -7.973  13.466  -1.649  1.00  0.00     0.167 HD
ATOM     52  C   UNL     1      -4.761  16.413  -1.568  1.00  0.00     0.034 A 
ATOM     53  C   UNL     1     -10.518  12.493  -1.008  1.00  0.00     0.034 A 
ATOM     54  C   UNL     1      -5.908  17.093  -1.025  1.00  0.00     0.049 A 
ATOM     55  C   UNL     1     -10.482  13.919  -0.532  1.00  0.00     0.074 A 
ATOM     56  C   UNL     1      -6.007  18.405  -0.595  1.00  0.00     0.029 A 
ATOM     57  N   UNL     1      -7.152  16.514  -0.823  1.00  0.00    -0.354 N 
ATOM     58  N   UNL     1      -9.513  14.797  -0.627  1.00  0.00    -0.248 NA
ATOM     59  C   UNL     1     -11.704  14.438   0.099  1.00  0.00     0.031 C 
ATOM     60  C   UNL     1      -7.302  18.610  -0.106  1.00  0.00     0.029 A 
ATOM     61  C   UNL     1      -8.020  17.436  -0.261  1.00  0.00     0.049 A 
ATOM     62  H   UNL     1      -7.384  15.584  -1.047  1.00  0.00     0.167 HD
ATOM     63  C   UNL     1     -10.015  15.978  -0.092  1.00  0.00     0.074 A 
ATOM     64  C   UNL     1     -11.387  15.711   0.291  1.00  0.00     0.031 C 
ATOM     65  C   UNL     1      -9.393  17.170   0.085  1.00  0.00     0.034 A 
BRANCH  52  66
ATOM     66  C   UNL     1      -3.460  17.170  -1.654  1.00  0.00     0.023 A 
ATOM     67  C   UNL     1      -2.985  17.595  -2.912  1.00  0.00     0.012 A 
ATOM     68  C   UNL     1      -2.741  17.518  -0.493  1.00  0.00     0.148 A 
ATOM     69  C   UNL     1      -1.799  18.321  -3.018  1.00  0.00     0.002 A 
ATOM     70  C   UNL     1      -1.584  18.282  -0.603  1.00  0.00     0.091 A 
ATOM     71  F   UNL     1      -3.196  17.090   0.693  1.00  0.00    -0.205 F 
ATOM     72  C   UNL     1      -1.106  18.674  -1.864  1.00  0.00     0.022 A 
BRANCH  70  73
ATOM     73  S   UNL     1      -0.662  18.856   0.828  1.00  0.00     0.127 S 
ATOM     74  O   UNL     1       0.557  18.051   0.734  1.00  0.00    -0.237 OA
ATOM     75  O   UNL     1      -0.477  20.276   0.525  1.00  0.00    -0.237 OA
ATOM     76  O   UNL     1      -1.502  18.585   1.984  1.00  0.00    -0.744 OA
ENDBRANCH  70  73
ENDBRANCH  52  66
BRANCH  53  77
ATOM     77  C   UNL     1     -11.749  11.667  -0.858  1.00  0.00     0.023 A 
ATOM     78  C   UNL     1     -12.904  12.000  -1.592  1.00  0.00     0.012 A 
ATOM     79  C   UNL     1     -11.771  10.538  -0.017  1.00  0.00     0.148 A 
ATOM     80  C   UNL     1     -14.070  11.245  -1.464  1.00  0.00     0.002 A 
ATOM     81  C   UNL     1     -12.917   9.755   0.060  1.00  0.00     0.091 A 
ATOM     82  F   UNL     1     -10.666  10.244   0.682  1.00  0.00    -0.205 F 
ATOM     83  C   UNL     1     -14.074  10.117  -0.648  1.00  0.00     0.022 A 
BRANCH  81  84
ATOM     84  S   UNL     1     -12.963   8.211   0.977  1.00  0.00     0.127 S 
ATOM     85  O   UNL     1     -13.822   8.561   2.107  1.00  0.00    -0.237 OA
ATOM     86  O   UNL     1     -13.569   7.301   0.003  1.00  0.00    -0.237 OA
ATOM     87  O   UNL     1     -11.580   7.905   1.302  1.00  0.00    -0.744 OA
ENDBRANCH  81  84
ENDBRANCH  53  77
BRANCH  65  88
ATOM     88  C   UNL     1     -10.196  18.283   0.709  1.00  0.00     0.023 A 
ATOM     89  C   UNL     1     -10.553  18.210   2.071  1.00  0.00     0.012 A 
ATOM     90  C   UNL     1     -10.566  19.417  -0.040  1.00  0.00     0.148 A 
ATOM     91  C   UNL     1     -11.306  19.223   2.664  1.00  0.00     0.002 A 
ATOM     92  C   UNL     1     -11.272  20.447   0.571  1.00  0.00     0.091 A 
ATOM     93  F   UNL     1     -10.235  19.463  -1.339  1.00  0.00    -0.205 F 
ATOM     94  C   UNL     1     -11.657  20.345   1.917  1.00  0.00     0.022 A 
BRANCH  92  95
ATOM     95  S   UNL     1     -11.683  21.971  -0.288  1.00  0.00     0.127 S 
ATOM     96  O   UNL     1     -13.111  21.794  -0.542  1.00  0.00    -0.237 OA
ATOM     97  O   UNL     1     -11.363  22.989   0.713  1.00  0.00    -0.237 OA
ATOM     98  O   UNL     1     -10.833  22.002  -1.471  1.00  0.00    -0.744 OA
ENDBRANCH  92  95
ENDBRANCH  65  88
ENDBRANCH  39  40
ENDBRANCH  31  34
ENDBRANCH  29  30
ENDBRANCH  28  29
ENDBRANCH   1  28
TORSDOF 19
