REMARK SMILES Cc1ccc(S(=O)(=O)N2C[C@@H](CC(=O)NCCCCCCNC(=O)c3ccc(-c4c5nc(c(-c6cccc(S(=O)(=O)[O-])c6F)c6ccc([nH]6)c(-c6cccc(S(=O)(=O)[O-])c6F)c6nc(c(-c7cccc(S(=O)(=O)[O-])c7F)c7ccc4[nH]7)C=C6)C=C5)cc3)c3ccccc32)c(C)c1
REMARK SMILES IDX 18 1 17 2 16 3 15 4 13 5 14 6 12 8 11 9 9 10 10 11 93 12
REMARK SMILES IDX 88 13 92 14 89 15 91 16 90 17 6 18 7 19 8 20 5 21 1 22 2 23
REMARK SMILES IDX 3 24 96 25 4 26 94 27 95 28 19 29 20 30 21 31 22 32 23 33
REMARK SMILES IDX 24 35 25 36 26 37 87 38 27 39 86 40 28 41 29 42 30 43 80 44
REMARK SMILES IDX 31 45 85 46 79 47 81 48 32 49 84 50 78 51 77 52 33 54 65 55
REMARK SMILES IDX 45 56 64 57 46 58 49 59 63 60 82 61 47 62 48 63 62 65 83 66
REMARK SMILES IDX 50 67 34 68 35 69 43 70 36 71 38 72 44 73 37 74 39 75 40 76
REMARK SMILES IDX 41 77 42 78 66 79 67 80 75 81 68 82 70 83 76 84 69 85 71 86
REMARK SMILES IDX 72 87 73 88 74 89 51 90 52 91 60 92 53 93 55 94 61 95 54 96
REMARK SMILES IDX 56 97 57 98 58 99 59 100
REMARK H PARENT 15 7 22 34 81 53 49 64
REMARK Flexibility Score: inf
ROOT
ATOM      1  C   UNL     1       0.609  -9.050   2.897  1.00  0.00     0.002 C 
ENDROOT
BRANCH   1   2
ATOM      2  C   UNL     1      -0.061  -7.942   2.090  1.00  0.00     0.021 C 
BRANCH   2   3
ATOM      3  C   UNL     1       0.243  -7.939   0.595  1.00  0.00     0.116 C 
BRANCH   3   4
ATOM      4  N   UNL     1      -0.814  -8.640  -0.118  1.00  0.00    -0.356 N 
ATOM      5  C   UNL     1      -1.902  -8.127  -0.759  1.00  0.00     0.220 C 
ATOM      6  O   UNL     1      -2.836  -8.883  -1.034  1.00  0.00    -0.275 OA
ATOM      7  H   UNL     1      -0.733  -9.620  -0.139  1.00  0.00     0.163 HD
BRANCH   5   8
ATOM      8  C   UNL     1      -1.926  -6.676  -1.190  1.00  0.00     0.110 C 
BRANCH   8   9
ATOM      9  C   UNL     1      -2.985  -5.829  -0.470  1.00  0.00     0.051 C 
ATOM     10  N   UNL     1      -2.162  -3.537  -0.475  1.00  0.00    -0.265 N 
ATOM     11  C   UNL     1      -3.119  -4.464  -1.181  1.00  0.00     0.144 C 
ATOM     12  C   UNL     1      -2.015  -4.080   0.849  1.00  0.00     0.055 A 
ATOM     13  C   UNL     1      -2.568  -5.363   0.898  1.00  0.00    -0.018 A 
ATOM     14  C   UNL     1      -1.401  -3.527   1.960  1.00  0.00     0.027 A 
ATOM     15  C   UNL     1      -2.690  -6.029   2.105  1.00  0.00     0.006 A 
ATOM     16  C   UNL     1      -1.452  -4.228   3.167  1.00  0.00     0.002 A 
ATOM     17  C   UNL     1      -2.126  -5.454   3.247  1.00  0.00     0.000 A 
BRANCH  10  18
ATOM     18  S   UNL     1      -2.629  -1.888  -0.598  1.00  0.00     0.264 S 
ATOM     19  O   UNL     1      -3.539  -1.617   0.494  1.00  0.00    -0.201 OA
ATOM     20  O   UNL     1      -3.032  -1.662  -1.976  1.00  0.00    -0.201 OA
BRANCH  18  21
ATOM     21  C   UNL     1      -1.137  -0.938  -0.367  1.00  0.00     0.090 A 
ATOM     22  C   UNL     1       2.548   1.254   0.091  1.00  0.00     0.044 C 
ATOM     23  C   UNL     1       1.270   0.478  -0.053  1.00  0.00    -0.051 A 
ATOM     24  C   UNL     1       1.293  -0.888  -0.329  1.00  0.00     0.005 A 
ATOM     25  C   UNL     1       0.035   1.134   0.044  1.00  0.00     0.008 A 
ATOM     26  C   UNL     1       0.100  -1.591  -0.496  1.00  0.00     0.023 A 
ATOM     27  C   UNL     1      -1.185   0.444  -0.105  1.00  0.00    -0.030 A 
ATOM     28  C   UNL     1      -2.440   1.271  -0.052  1.00  0.00     0.046 C 
ENDBRANCH  18  21
ENDBRANCH  10  18
ENDBRANCH   8   9
ENDBRANCH   5   8
ENDBRANCH   3   4
ENDBRANCH   2   3
ENDBRANCH   1   2
BRANCH   1  29
ATOM     29  C   UNL     1       2.114  -8.878   3.102  1.00  0.00     0.002 C 
BRANCH  29  30
ATOM     30  C   UNL     1       2.559  -7.517   3.649  1.00  0.00     0.021 C 
BRANCH  30  31
ATOM     31  C   UNL     1       1.835  -7.047   4.910  1.00  0.00     0.116 C 
BRANCH  31  32
ATOM     32  N   UNL     1       2.037  -7.956   6.025  1.00  0.00    -0.352 N 
ATOM     33  C   UNL     1       2.772  -7.787   7.172  1.00  0.00     0.251 C 
ATOM     34  H   UNL     1       1.578  -8.824   5.947  1.00  0.00     0.163 HD
ATOM     35  O   UNL     1       3.019  -8.756   7.884  1.00  0.00    -0.269 OA
BRANCH  33  36
ATOM     36  C   UNL     1       3.271  -6.446   7.550  1.00  0.00     0.039 A 
ATOM     37  C   UNL     1       4.579  -6.321   8.025  1.00  0.00     0.014 A 
ATOM     38  C   UNL     1       2.441  -5.323   7.481  1.00  0.00     0.014 A 
ATOM     39  C   UNL     1       5.067  -5.064   8.393  1.00  0.00     0.010 A 
ATOM     40  C   UNL     1       2.953  -4.061   7.776  1.00  0.00     0.010 A 
ATOM     41  C   UNL     1       4.265  -3.919   8.253  1.00  0.00    -0.014 A 
BRANCH  41  42
ATOM     42  C   UNL     1       4.776  -2.572   8.623  1.00  0.00     0.031 A 
ATOM     43  C   UNL     1       4.124  -1.793   9.735  1.00  0.00     0.074 A 
ATOM     44  C   UNL     1       5.782  -2.020   7.917  1.00  0.00     0.049 A 
ATOM     45  N   UNL     1       4.400  -0.591  10.172  1.00  0.00    -0.248 NA
ATOM     46  C   UNL     1       2.998  -2.437  10.432  1.00  0.00     0.031 C 
ATOM     47  C   UNL     1       6.453  -2.641   6.773  1.00  0.00     0.029 A 
ATOM     48  N   UNL     1       6.401  -0.801   8.042  1.00  0.00    -0.354 N 
ATOM     49  C   UNL     1       3.465  -0.321  11.165  1.00  0.00     0.074 A 
ATOM     50  C   UNL     1       2.590  -1.471  11.241  1.00  0.00     0.031 C 
ATOM     51  C   UNL     1       7.391  -1.802   6.305  1.00  0.00     0.029 A 
ATOM     52  C   UNL     1       7.370  -0.573   7.092  1.00  0.00     0.049 A 
ATOM     53  H   UNL     1       6.173  -0.151   8.746  1.00  0.00     0.167 HD
ATOM     54  C   UNL     1       3.357   0.770  11.961  1.00  0.00     0.034 A 
ATOM     55  C   UNL     1       8.146   0.506   6.873  1.00  0.00     0.034 A 
ATOM     56  C   UNL     1       4.250   1.896  11.908  1.00  0.00     0.049 A 
ATOM     57  C   UNL     1       8.031   1.691   7.794  1.00  0.00     0.074 A 
ATOM     58  C   UNL     1       4.274   3.014  12.723  1.00  0.00     0.029 A 
ATOM     59  N   UNL     1       5.272   2.054  10.985  1.00  0.00    -0.354 N 
ATOM     60  N   UNL     1       7.235   1.865   8.820  1.00  0.00    -0.248 NA
ATOM     61  C   UNL     1       8.951   2.812   7.552  1.00  0.00     0.031 C 
ATOM     62  C   UNL     1       5.290   3.863  12.273  1.00  0.00     0.029 A 
ATOM     63  C   UNL     1       5.928   3.253  11.205  1.00  0.00     0.049 A 
ATOM     64  H   UNL     1       5.499   1.408  10.278  1.00  0.00     0.167 HD
ATOM     65  C   UNL     1       7.588   3.091   9.374  1.00  0.00     0.074 A 
ATOM     66  C   UNL     1       8.681   3.609   8.577  1.00  0.00     0.031 C 
ATOM     67  C   UNL     1       7.050   3.734  10.440  1.00  0.00     0.034 A 
BRANCH  54  68
ATOM     68  C   UNL     1       2.255   0.781  12.990  1.00  0.00     0.023 A 
ATOM     69  C   UNL     1       2.324  -0.087  14.099  1.00  0.00     0.012 A 
ATOM     70  C   UNL     1       1.181   1.688  12.890  1.00  0.00     0.148 A 
ATOM     71  C   UNL     1       1.324  -0.082  15.070  1.00  0.00     0.002 A 
ATOM     72  C   UNL     1       0.214   1.722  13.888  1.00  0.00     0.091 A 
ATOM     73  F   UNL     1       1.121   2.493  11.820  1.00  0.00    -0.205 F 
ATOM     74  C   UNL     1       0.276   0.828  14.970  1.00  0.00     0.022 A 
BRANCH  72  75
ATOM     75  S   UNL     1      -1.129   2.914  13.897  1.00  0.00     0.127 S 
ATOM     76  O   UNL     1      -2.284   2.058  13.632  1.00  0.00    -0.237 OA
ATOM     77  O   UNL     1      -1.061   3.442  15.260  1.00  0.00    -0.237 OA
ATOM     78  O   UNL     1      -0.816   3.881  12.855  1.00  0.00    -0.744 OA
ENDBRANCH  72  75
ENDBRANCH  54  68
BRANCH  55  79
ATOM     79  C   UNL     1       9.147   0.494   5.768  1.00  0.00     0.023 A 
ATOM     80  C   UNL     1      10.521   0.457   6.075  1.00  0.00     0.012 A 
ATOM     81  C   UNL     1       8.744   0.501   4.419  1.00  0.00     0.148 A 
ATOM     82  C   UNL     1      11.477   0.468   5.059  1.00  0.00     0.002 A 
ATOM     83  C   UNL     1       9.700   0.452   3.411  1.00  0.00     0.091 A 
ATOM     84  F   UNL     1       7.432   0.543   4.148  1.00  0.00    -0.205 F 
ATOM     85  C   UNL     1      11.068   0.456   3.729  1.00  0.00     0.022 A 
BRANCH  83  86
ATOM     86  S   UNL     1       9.264   0.303   1.675  1.00  0.00     0.127 S 
ATOM     87  O   UNL     1       9.674   1.603   1.151  1.00  0.00    -0.237 OA
ATOM     88  O   UNL     1      10.095  -0.824   1.252  1.00  0.00    -0.237 OA
ATOM     89  O   UNL     1       7.832   0.036   1.649  1.00  0.00    -0.744 OA
ENDBRANCH  83  86
ENDBRANCH  55  79
BRANCH  67  90
ATOM     90  C   UNL     1       7.670   5.043  10.855  1.00  0.00     0.023 A 
ATOM     91  C   UNL     1       7.501   6.193  10.058  1.00  0.00     0.012 A 
ATOM     92  C   UNL     1       8.367   5.145  12.075  1.00  0.00     0.148 A 
ATOM     93  C   UNL     1       8.052   7.413  10.449  1.00  0.00     0.002 A 
ATOM     94  C   UNL     1       8.866   6.375  12.485  1.00  0.00     0.091 A 
ATOM     95  F   UNL     1       8.534   4.036  12.811  1.00  0.00    -0.205 F 
ATOM     96  C   UNL     1       8.723   7.507  11.667  1.00  0.00     0.022 A 
BRANCH  94  97
ATOM     97  S   UNL     1       9.652   6.609  14.083  1.00  0.00     0.127 S 
ATOM     98  O   UNL     1      11.055   6.770  13.703  1.00  0.00    -0.237 OA
ATOM     99  O   UNL     1       9.009   7.830  14.570  1.00  0.00    -0.237 OA
ATOM    100  O   UNL     1       9.347   5.415  14.859  1.00  0.00    -0.744 OA
ENDBRANCH  94  97
ENDBRANCH  67  90
ENDBRANCH  41  42
ENDBRANCH  33  36
ENDBRANCH  31  32
ENDBRANCH  30  31
ENDBRANCH  29  30
ENDBRANCH   1  29
TORSDOF 19
