REMARK SMILES Cc1c(-c2nn(-c3ccccc3)cc2/C=N/O)nnn1-c1ccc(C(=O)NCCCCCCNC(=O)c2ccc(-c3c4nc(c(-c5cccc(S(=O)(=O)[O-])c5F)c5ccc([nH]5)c(-c5cccc(S(=O)(=O)[O-])c5F)c5nc(c(-c6cccc(S(=O)(=O)[O-])c6F)c6ccc3[nH]6)C=C5)C=C4)cc2)cc1
REMARK SMILES IDX 30 1 29 2 28 3 27 4 25 5 26 6 24 8 21 9 22 10 101 11 23 12
REMARK SMILES IDX 100 13 20 14 1 15 2 16 3 17 18 18 19 19 4 20 5 21 14 22 6 23
REMARK SMILES IDX 13 24 15 25 16 26 17 27 7 29 8 30 12 31 9 32 11 33 10 34
REMARK SMILES IDX 31 35 32 36 33 37 34 38 35 39 36 41 37 42 38 43 99 44 39 45
REMARK SMILES IDX 98 46 40 47 41 48 42 49 92 50 43 51 97 52 91 53 93 54 44 55
REMARK SMILES IDX 96 56 90 57 89 58 45 60 77 61 57 62 76 63 58 64 61 65 75 66
REMARK SMILES IDX 94 67 59 68 60 69 74 71 95 72 62 73 46 74 47 75 55 76 48 77
REMARK SMILES IDX 50 78 56 79 49 80 51 81 52 82 53 83 54 84 78 85 79 86 87 87
REMARK SMILES IDX 80 88 82 89 88 90 81 91 83 92 84 93 85 94 86 95 63 96 64 97
REMARK SMILES IDX 72 98 65 99 67 100 73 101 66 102 68 103 69 104 70 105 71 106
REMARK H PARENT 27 7 17 28 34 40 93 59 61 70
REMARK Flexibility Score: inf
ROOT
ATOM      1  C   UNL     1       7.969   3.755   3.928  1.00  0.00     0.002 C 
ENDROOT
BRANCH   1   2
ATOM      2  C   UNL     1       6.904   3.328   2.908  1.00  0.00     0.021 C 
BRANCH   2   3
ATOM      3  C   UNL     1       5.584   2.911   3.559  1.00  0.00     0.116 C 
BRANCH   3   4
ATOM      4  N   UNL     1       4.803   4.082   3.903  1.00  0.00    -0.352 N 
ATOM      5  C   UNL     1       3.698   4.672   3.347  1.00  0.00     0.251 C 
ATOM      6  O   UNL     1       3.264   5.679   3.911  1.00  0.00    -0.269 OA
ATOM      7  H   UNL     1       5.134   4.551   4.703  1.00  0.00     0.163 HD
BRANCH   5   8
ATOM      8  C   UNL     1       2.955   4.117   2.176  1.00  0.00     0.039 A 
ATOM      9  C   UNL     1       1.318   3.015   0.174  1.00  0.00     0.067 A 
ATOM     10  C   UNL     1       0.811   4.012   1.009  1.00  0.00     0.029 A 
ATOM     11  C   UNL     1       2.659   2.636   0.270  1.00  0.00     0.029 A 
ATOM     12  C   UNL     1       1.619   4.528   2.026  1.00  0.00     0.016 A 
ATOM     13  C   UNL     1       3.483   3.236   1.229  1.00  0.00     0.016 A 
BRANCH   9  14
ATOM     14  N   UNL     1       0.480   2.420  -0.793  1.00  0.00    -0.217 N 
ATOM     15  C   UNL     1       0.928  -0.043  -0.353  1.00  0.00     0.069 C 
ATOM     16  C   UNL     1       0.374   1.085  -1.139  1.00  0.00     0.071 A 
ATOM     17  C   UNL     1      -0.462   1.116  -2.238  1.00  0.00     0.137 A 
ATOM     18  N   UNL     1      -0.958   2.374  -2.417  1.00  0.00    -0.128 NA
ATOM     19  N   UNL     1      -0.441   3.148  -1.470  1.00  0.00    -0.061 NA
BRANCH  17  20
ATOM     20  C   UNL     1      -0.962  -0.011  -3.012  1.00  0.00     0.124 A 
ATOM     21  N   UNL     1      -2.039  -0.702  -2.619  1.00  0.00    -0.165 NA
ATOM     22  C   UNL     1      -0.369  -0.550  -4.178  1.00  0.00     0.044 A 
ATOM     23  N   UNL     1      -2.062  -1.774  -3.436  1.00  0.00    -0.240 N 
ATOM     24  C   UNL     1      -1.070  -1.725  -4.385  1.00  0.00     0.125 A 
BRANCH  22  25
ATOM     25  C   UNL     1       0.705  -0.075  -5.015  1.00  0.00     0.166 C 
ATOM     26  N   UNL     1       1.323   1.019  -4.720  1.00  0.00    -0.097 NA
BRANCH  26  27
ATOM     27  O   UNL     1       2.278   1.274  -5.714  1.00  0.00    -0.411 OA
ATOM     28  H   UNL     1       2.821   2.036  -5.657  1.00  0.00     0.330 HD
ENDBRANCH  26  27
ENDBRANCH  22  25
BRANCH  23  29
ATOM     29  C   UNL     1      -3.012  -2.798  -3.234  1.00  0.00     0.065 A 
ATOM     30  C   UNL     1      -4.304  -2.453  -2.817  1.00  0.00     0.028 A 
ATOM     31  C   UNL     1      -2.656  -4.139  -3.410  1.00  0.00     0.028 A 
ATOM     32  C   UNL     1      -5.251  -3.452  -2.602  1.00  0.00     0.002 A 
ATOM     33  C   UNL     1      -3.595  -5.136  -3.135  1.00  0.00     0.002 A 
ATOM     34  C   UNL     1      -4.892  -4.793  -2.746  1.00  0.00     0.000 A 
ENDBRANCH  23  29
ENDBRANCH  17  20
ENDBRANCH   9  14
ENDBRANCH   5   8
ENDBRANCH   3   4
ENDBRANCH   2   3
ENDBRANCH   1   2
BRANCH   1  35
ATOM     35  C   UNL     1       8.328   2.693   4.982  1.00  0.00     0.002 C 
BRANCH  35  36
ATOM     36  C   UNL     1       8.691   1.306   4.430  1.00  0.00     0.021 C 
BRANCH  36  37
ATOM     37  C   UNL     1      10.003   1.305   3.663  1.00  0.00     0.116 C 
BRANCH  37  38
ATOM     38  N   UNL     1      11.141   1.532   4.552  1.00  0.00    -0.352 N 
ATOM     39  C   UNL     1      12.483   1.529   4.242  1.00  0.00     0.251 C 
ATOM     40  H   UNL     1      10.919   1.711   5.495  1.00  0.00     0.163 HD
ATOM     41  O   UNL     1      13.328   1.390   5.114  1.00  0.00    -0.269 OA
BRANCH  39  42
ATOM     42  C   UNL     1      12.879   1.702   2.834  1.00  0.00     0.039 A 
ATOM     43  C   UNL     1      13.921   0.949   2.288  1.00  0.00     0.014 A 
ATOM     44  C   UNL     1      12.179   2.627   2.061  1.00  0.00     0.014 A 
ATOM     45  C   UNL     1      14.209   1.090   0.935  1.00  0.00     0.010 A 
ATOM     46  C   UNL     1      12.368   2.662   0.704  1.00  0.00     0.010 A 
ATOM     47  C   UNL     1      13.417   1.939   0.148  1.00  0.00    -0.014 A 
BRANCH  47  48
ATOM     48  C   UNL     1      13.592   1.982  -1.297  1.00  0.00     0.031 A 
ATOM     49  C   UNL     1      13.426   0.663  -1.968  1.00  0.00     0.074 A 
ATOM     50  C   UNL     1      13.663   3.145  -1.982  1.00  0.00     0.049 A 
ATOM     51  N   UNL     1      14.326  -0.024  -2.589  1.00  0.00    -0.248 NA
ATOM     52  C   UNL     1      12.151  -0.052  -1.791  1.00  0.00     0.031 C 
ATOM     53  C   UNL     1      13.495   4.509  -1.462  1.00  0.00     0.029 A 
ATOM     54  N   UNL     1      13.737   3.347  -3.325  1.00  0.00    -0.354 N 
ATOM     55  C   UNL     1      13.661  -1.137  -3.101  1.00  0.00     0.074 A 
ATOM     56  C   UNL     1      12.407  -1.211  -2.400  1.00  0.00     0.031 C 
ATOM     57  C   UNL     1      13.200   5.344  -2.483  1.00  0.00     0.029 A 
ATOM     58  C   UNL     1      13.329   4.616  -3.730  1.00  0.00     0.049 A 
ATOM     59  H   UNL     1      14.050   2.658  -3.954  1.00  0.00     0.167 HD
ATOM     60  C   UNL     1      14.078  -1.741  -4.249  1.00  0.00     0.034 A 
ATOM     61  C   UNL     1      13.048   5.012  -4.996  1.00  0.00     0.034 A 
ATOM     62  C   UNL     1      15.415  -1.331  -4.598  1.00  0.00     0.049 A 
ATOM     63  C   UNL     1      13.700   4.046  -5.909  1.00  0.00     0.074 A 
ATOM     64  C   UNL     1      16.642  -1.361  -3.964  1.00  0.00     0.029 A 
ATOM     65  N   UNL     1      15.539  -0.411  -5.611  1.00  0.00    -0.354 N 
ATOM     66  N   UNL     1      14.993   3.908  -6.001  1.00  0.00    -0.248 NA
ATOM     67  C   UNL     1      12.911   2.917  -6.373  1.00  0.00     0.031 C 
ATOM     68  C   UNL     1      17.252  -0.116  -4.298  1.00  0.00     0.029 A 
ATOM     69  C   UNL     1      16.404   0.558  -5.179  1.00  0.00     0.049 A 
ATOM     70  H   UNL     1      15.089  -0.443  -6.486  1.00  0.00     0.167 HD
ATOM     71  C   UNL     1      15.183   2.534  -6.074  1.00  0.00     0.074 A 
ATOM     72  C   UNL     1      13.867   1.985  -6.404  1.00  0.00     0.031 C 
ATOM     73  C   UNL     1      16.307   1.948  -5.565  1.00  0.00     0.034 A 
BRANCH  60  74
ATOM     74  C   UNL     1      13.167  -2.389  -5.271  1.00  0.00     0.023 A 
ATOM     75  C   UNL     1      13.786  -3.072  -6.343  1.00  0.00     0.012 A 
ATOM     76  C   UNL     1      11.783  -2.129  -5.396  1.00  0.00     0.148 A 
ATOM     77  C   UNL     1      13.082  -3.416  -7.502  1.00  0.00     0.002 A 
ATOM     78  C   UNL     1      11.069  -2.547  -6.514  1.00  0.00     0.091 A 
ATOM     79  F   UNL     1      11.159  -1.358  -4.503  1.00  0.00    -0.205 F 
ATOM     80  C   UNL     1      11.720  -3.159  -7.586  1.00  0.00     0.022 A 
BRANCH  78  81
ATOM     81  S   UNL     1       9.295  -2.286  -6.650  1.00  0.00     0.127 S 
ATOM     82  O   UNL     1       9.231  -1.232  -7.657  1.00  0.00    -0.237 OA
ATOM     83  O   UNL     1       8.834  -3.601  -7.096  1.00  0.00    -0.237 OA
ATOM     84  O   UNL     1       8.847  -1.922  -5.311  1.00  0.00    -0.744 OA
ENDBRANCH  78  81
ENDBRANCH  60  74
BRANCH  61  85
ATOM     85  C   UNL     1      12.030   5.978  -5.474  1.00  0.00     0.023 A 
ATOM     86  C   UNL     1      12.139   6.531  -6.766  1.00  0.00     0.012 A 
ATOM     87  C   UNL     1      10.807   6.138  -4.784  1.00  0.00     0.148 A 
ATOM     88  C   UNL     1      11.058   7.193  -7.362  1.00  0.00     0.002 A 
ATOM     89  C   UNL     1       9.738   6.802  -5.378  1.00  0.00     0.091 A 
ATOM     90  F   UNL     1      10.660   5.555  -3.587  1.00  0.00    -0.205 F 
ATOM     91  C   UNL     1       9.855   7.322  -6.672  1.00  0.00     0.022 A 
BRANCH  89  92
ATOM     92  S   UNL     1       8.147   6.977  -4.556  1.00  0.00     0.127 S 
ATOM     93  O   UNL     1       7.873   8.404  -4.730  1.00  0.00    -0.237 OA
ATOM     94  O   UNL     1       7.299   6.088  -5.346  1.00  0.00    -0.237 OA
ATOM     95  O   UNL     1       8.367   6.573  -3.173  1.00  0.00    -0.744 OA
ENDBRANCH  89  92
ENDBRANCH  61  85
BRANCH  73  96
ATOM     96  C   UNL     1      17.451   2.836  -5.142  1.00  0.00     0.023 A 
ATOM     97  C   UNL     1      17.343   3.776  -4.095  1.00  0.00     0.012 A 
ATOM     98  C   UNL     1      18.717   2.580  -5.694  1.00  0.00     0.148 A 
ATOM     99  C   UNL     1      18.470   4.457  -3.623  1.00  0.00     0.002 A 
ATOM    100  C   UNL     1      19.841   3.222  -5.191  1.00  0.00     0.091 A 
ATOM    101  F   UNL     1      18.803   1.681  -6.686  1.00  0.00    -0.205 F 
ATOM    102  C   UNL     1      19.722   4.169  -4.162  1.00  0.00     0.022 A 
BRANCH 100 103
ATOM    103  S   UNL     1      21.489   2.797  -5.758  1.00  0.00     0.127 S 
ATOM    104  O   UNL     1      21.830   3.947  -6.592  1.00  0.00    -0.237 OA
ATOM    105  O   UNL     1      22.239   2.706  -4.504  1.00  0.00    -0.237 OA
ATOM    106  O   UNL     1      21.356   1.528  -6.463  1.00  0.00    -0.744 OA
ENDBRANCH 100 103
ENDBRANCH  73  96
ENDBRANCH  47  48
ENDBRANCH  39  42
ENDBRANCH  37  38
ENDBRANCH  36  37
ENDBRANCH  35  36
ENDBRANCH   1  35
TORSDOF 21
