REMARK SMILES O=C(C[NH+]1CCN(C(=O)c2ccc(F)c(F)c2F)CC1)NCCCCCCNC(=O)c1ccc(-c2c3nc(c(-c4cccc(S(=O)(=O)[O-])c4F)c4ccc([nH]4)c(-c4cccc(S(=O)(=O)[O-])c4F)c4nc(c(-c5cccc(S(=O)(=O)[O-])c5F)c5ccc2[nH]5)C=C4)C=C3)cc1
REMARK SMILES IDX 25 1 24 2 23 3 22 4 21 5 1 6 2 7 3 9 4 10 5 11 20 12 6 14
REMARK SMILES IDX 19 15 7 16 8 17 9 18 10 19 11 20 17 21 12 22 15 23 18 24
REMARK SMILES IDX 13 25 16 26 14 27 26 28 27 29 28 30 29 31 30 33 31 34 32 35
REMARK SMILES IDX 93 36 33 37 92 38 34 39 35 40 36 41 86 42 37 43 91 44 85 45
REMARK SMILES IDX 87 46 38 47 90 48 84 49 83 50 39 52 71 53 51 54 70 55 52 56
REMARK SMILES IDX 55 57 69 58 88 59 53 60 54 61 68 63 89 64 56 65 40 66 41 67
REMARK SMILES IDX 49 68 42 69 44 70 50 71 43 72 45 73 46 74 47 75 48 76 72 77
REMARK SMILES IDX 73 78 81 79 74 80 76 81 82 82 75 83 77 84 78 85 79 86 80 87
REMARK SMILES IDX 57 88 58 89 66 90 59 91 61 92 67 93 60 94 62 95 63 96 64 97
REMARK SMILES IDX 65 98
REMARK H PARENT 21 8 4 13 28 32 87 51 55 62
REMARK Flexibility Score: inf
ROOT
ATOM      1  C   UNL     1       4.460   2.230   3.610  1.00  0.00     0.002 C 
ENDROOT
BRANCH   1   2
ATOM      2  C   UNL     1       4.056   0.756   3.707  1.00  0.00     0.002 C 
BRANCH   2   3
ATOM      3  C   UNL     1       2.552   0.466   3.614  1.00  0.00     0.021 C 
BRANCH   3   4
ATOM      4  C   UNL     1       1.908   0.827   2.276  1.00  0.00     0.116 C 
BRANCH   4   5
ATOM      5  N   UNL     1       2.433   0.036   1.180  1.00  0.00    -0.351 N 
ATOM      6  O   UNL     1       1.127   1.037  -0.417  1.00  0.00    -0.269 OA
ATOM      7  C   UNL     1       2.010   0.238  -0.117  1.00  0.00     0.275 C 
ATOM      8  H   UNL     1       3.106  -0.658   1.365  1.00  0.00     0.163 HD
BRANCH   7   9
ATOM      9  C   UNL     1       2.750  -0.599  -1.162  1.00  0.00     0.363 C 
BRANCH   9  10
ATOM     10  N   UNL     1       3.927   0.035  -1.794  1.00  0.00    -0.324 N 
ATOM     11  C   UNL     1       4.144   1.473  -1.554  1.00  0.00     0.284 C 
ATOM     12  C   UNL     1       5.178  -0.703  -1.597  1.00  0.00     0.284 C 
ATOM     13  H   UNL     1       3.650  -0.022  -2.775  1.00  0.00     0.348 HD
ATOM     14  C   UNL     1       4.887   1.834  -0.251  1.00  0.00     0.181 C 
ATOM     15  C   UNL     1       5.825  -0.475  -0.224  1.00  0.00     0.181 C 
ATOM     16  N   UNL     1       6.014   0.948   0.074  1.00  0.00    -0.327 N 
ATOM     17  C   UNL     1       7.006   1.454   0.910  1.00  0.00     0.257 C 
ATOM     18  O   UNL     1       7.032   2.611   1.325  1.00  0.00    -0.269 OA
BRANCH  17  19
ATOM     19  C   UNL     1       8.128   0.587   1.294  1.00  0.00     0.079 A 
ATOM     20  C   UNL     1       9.066   0.204   0.324  1.00  0.00     0.020 A 
ATOM     21  C   UNL     1       8.289   0.206   2.625  1.00  0.00     0.174 A 
ATOM     22  C   UNL     1      10.148  -0.597   0.692  1.00  0.00     0.043 A 
ATOM     23  C   UNL     1       9.373  -0.582   2.987  1.00  0.00     0.195 A 
ATOM     24  F   UNL     1       7.390   0.558   3.555  1.00  0.00    -0.203 F 
ATOM     25  C   UNL     1      10.293  -0.983   2.023  1.00  0.00     0.161 A 
ATOM     26  F   UNL     1       9.527  -0.974   4.259  1.00  0.00    -0.200 F 
ATOM     27  F   UNL     1      11.332  -1.758   2.364  1.00  0.00    -0.204 F 
ENDBRANCH  17  19
ENDBRANCH   9  10
ENDBRANCH   7   9
ENDBRANCH   4   5
ENDBRANCH   3   4
ENDBRANCH   2   3
ENDBRANCH   1   2
BRANCH   1  28
ATOM     28  C   UNL     1       3.853   3.166   4.652  1.00  0.00     0.021 C 
BRANCH  28  29
ATOM     29  C   UNL     1       4.072   2.763   6.105  1.00  0.00     0.116 C 
BRANCH  29  30
ATOM     30  N   UNL     1       5.475   2.699   6.486  1.00  0.00    -0.352 N 
ATOM     31  C   UNL     1       6.080   3.131   7.641  1.00  0.00     0.251 C 
ATOM     32  H   UNL     1       6.075   2.287   5.822  1.00  0.00     0.163 HD
ATOM     33  O   UNL     1       7.304   3.079   7.753  1.00  0.00    -0.269 OA
BRANCH  31  34
ATOM     34  C   UNL     1       5.266   3.697   8.743  1.00  0.00     0.039 A 
ATOM     35  C   UNL     1       5.698   4.873   9.362  1.00  0.00     0.014 A 
ATOM     36  C   UNL     1       4.080   3.085   9.159  1.00  0.00     0.014 A 
ATOM     37  C   UNL     1       4.908   5.471  10.348  1.00  0.00     0.010 A 
ATOM     38  C   UNL     1       3.259   3.721  10.089  1.00  0.00     0.010 A 
ATOM     39  C   UNL     1       3.664   4.919  10.696  1.00  0.00    -0.014 A 
BRANCH  39  40
ATOM     40  C   UNL     1       2.769   5.597  11.669  1.00  0.00     0.031 A 
ATOM     41  C   UNL     1       2.411   4.936  12.973  1.00  0.00     0.074 A 
ATOM     42  C   UNL     1       2.206   6.777  11.341  1.00  0.00     0.049 A 
ATOM     43  N   UNL     1       1.647   5.380  13.939  1.00  0.00    -0.248 NA
ATOM     44  C   UNL     1       2.959   3.592  13.214  1.00  0.00     0.031 C 
ATOM     45  C   UNL     1       2.393   7.478  10.069  1.00  0.00     0.029 A 
ATOM     46  N   UNL     1       1.349   7.587  12.043  1.00  0.00    -0.354 N 
ATOM     47  C   UNL     1       1.589   4.359  14.879  1.00  0.00     0.074 A 
ATOM     48  C   UNL     1       2.370   3.259  14.355  1.00  0.00     0.031 C 
ATOM     49  C   UNL     1       1.689   8.622  10.089  1.00  0.00     0.029 A 
ATOM     50  C   UNL     1       0.987   8.728  11.364  1.00  0.00     0.049 A 
ATOM     51  H   UNL     1       1.023   7.372  12.947  1.00  0.00     0.167 HD
ATOM     52  C   UNL     1       0.970   4.346  16.084  1.00  0.00     0.034 A 
ATOM     53  C   UNL     1       0.192   9.751  11.733  1.00  0.00     0.034 A 
ATOM     54  C   UNL     1       0.247   5.462  16.632  1.00  0.00     0.049 A 
ATOM     55  C   UNL     1      -0.426   9.743  13.105  1.00  0.00     0.074 A 
ATOM     56  C   UNL     1      -0.307   5.594  17.893  1.00  0.00     0.029 A 
ATOM     57  N   UNL     1      -0.027   6.638  15.951  1.00  0.00    -0.354 N 
ATOM     58  N   UNL     1      -0.307   8.852  14.059  1.00  0.00    -0.248 NA
ATOM     59  C   UNL     1      -1.256  10.902  13.465  1.00  0.00     0.031 C 
ATOM     60  C   UNL     1      -0.930   6.846  17.969  1.00  0.00     0.029 A 
ATOM     61  C   UNL     1      -0.754   7.497  16.758  1.00  0.00     0.049 A 
ATOM     62  H   UNL     1       0.253   6.833  15.028  1.00  0.00     0.167 HD
ATOM     63  C   UNL     1      -1.018   9.356  15.142  1.00  0.00     0.074 A 
ATOM     64  C   UNL     1      -1.544  10.643  14.734  1.00  0.00     0.031 C 
ATOM     65  C   UNL     1      -1.230   8.796  16.359  1.00  0.00     0.034 A 
BRANCH  52  66
ATOM     66  C   UNL     1       1.106   3.102  16.923  1.00  0.00     0.023 A 
ATOM     67  C   UNL     1       2.343   2.812  17.535  1.00  0.00     0.012 A 
ATOM     68  C   UNL     1       0.009   2.247  17.145  1.00  0.00     0.148 A 
ATOM     69  C   UNL     1       2.498   1.671  18.322  1.00  0.00     0.002 A 
ATOM     70  C   UNL     1       0.160   1.133  17.964  1.00  0.00     0.091 A 
ATOM     71  F   UNL     1      -1.153   2.522  16.535  1.00  0.00    -0.205 F 
ATOM     72  C   UNL     1       1.405   0.838  18.544  1.00  0.00     0.022 A 
BRANCH  70  73
ATOM     73  S   UNL     1      -1.212   0.045  18.366  1.00  0.00     0.127 S 
ATOM     74  O   UNL     1      -0.959  -1.090  17.480  1.00  0.00    -0.237 OA
ATOM     75  O   UNL     1      -0.989  -0.230  19.786  1.00  0.00    -0.237 OA
ATOM     76  O   UNL     1      -2.418   0.811  18.084  1.00  0.00    -0.744 OA
ENDBRANCH  70  73
ENDBRANCH  52  66
BRANCH  53  77
ATOM     77  C   UNL     1       0.026  10.924  10.829  1.00  0.00     0.023 A 
ATOM     78  C   UNL     1       0.651  12.139  11.168  1.00  0.00     0.012 A 
ATOM     79  C   UNL     1      -0.706  10.839   9.629  1.00  0.00     0.148 A 
ATOM     80  C   UNL     1       0.532  13.257  10.343  1.00  0.00     0.002 A 
ATOM     81  C   UNL     1      -0.780  11.943   8.786  1.00  0.00     0.091 A 
ATOM     82  F   UNL     1      -1.305   9.677   9.331  1.00  0.00    -0.205 F 
ATOM     83  C   UNL     1      -0.174  13.156   9.148  1.00  0.00     0.022 A 
BRANCH  81  84
ATOM     84  S   UNL     1      -1.563  11.868   7.170  1.00  0.00     0.127 S 
ATOM     85  O   UNL     1      -2.779  12.650   7.393  1.00  0.00    -0.237 OA
ATOM     86  O   UNL     1      -0.563  12.517   6.319  1.00  0.00    -0.237 OA
ATOM     87  O   UNL     1      -1.759  10.455   6.894  1.00  0.00    -0.744 OA
ENDBRANCH  81  84
ENDBRANCH  53  77
BRANCH  65  88
ATOM     88  C   UNL     1      -2.056   9.577  17.348  1.00  0.00     0.023 A 
ATOM     89  C   UNL     1      -3.448   9.686  17.157  1.00  0.00     0.012 A 
ATOM     90  C   UNL     1      -1.468  10.153  18.491  1.00  0.00     0.148 A 
ATOM     91  C   UNL     1      -4.237  10.385  18.071  1.00  0.00     0.002 A 
ATOM     92  C   UNL     1      -2.268  10.810  19.421  1.00  0.00     0.091 A 
ATOM     93  F   UNL     1      -0.140  10.062  18.647  1.00  0.00    -0.205 F 
ATOM     94  C   UNL     1      -3.650  10.936  19.207  1.00  0.00     0.022 A 
BRANCH  92  95
ATOM     95  S   UNL     1      -1.599  11.465  20.954  1.00  0.00     0.127 S 
ATOM     96  O   UNL     1      -1.441  12.882  20.632  1.00  0.00    -0.237 OA
ATOM     97  O   UNL     1      -2.664  11.174  21.916  1.00  0.00    -0.237 OA
ATOM     98  O   UNL     1      -0.365  10.727  21.190  1.00  0.00    -0.744 OA
ENDBRANCH  92  95
ENDBRANCH  65  88
ENDBRANCH  39  40
ENDBRANCH  31  34
ENDBRANCH  29  30
ENDBRANCH  28  29
ENDBRANCH   1  28
TORSDOF 18
