REMARK SMILES CNC(=O)[C@H](C)S(=O)(=O)c1cc(C(=O)NCCCCCCNC(=O)c2ccc(-c3c4nc(c(-c5cccc(S(=O)(=O)[O-])c5F)c5ccc([nH]5)c(-c5cccc(S(=O)(=O)[O-])c5F)c5nc(c(-c6cccc(S(=O)(=O)[O-])c6F)c6ccc3[nH]6)C=C5)C=C4)cc2)c(C)cc1C
REMARK SMILES IDX 18 1 17 2 16 3 15 4 13 5 14 6 12 8 10 9 11 10 91 11 90 12
REMARK SMILES IDX 92 13 88 14 89 15 7 16 8 17 9 18 5 19 6 20 3 21 1 22 2 23
REMARK SMILES IDX 4 25 19 26 20 27 21 28 22 29 23 30 24 32 25 33 26 34 87 35
REMARK SMILES IDX 27 36 86 37 28 38 29 39 30 40 80 41 31 42 85 43 79 44 81 45
REMARK SMILES IDX 32 46 84 47 78 48 77 49 33 51 65 52 45 53 64 54 46 55 49 56
REMARK SMILES IDX 63 57 82 58 47 59 48 60 62 62 83 63 50 64 34 65 35 66 43 67
REMARK SMILES IDX 36 68 38 69 44 70 37 71 39 72 40 73 41 74 42 75 66 76 67 77
REMARK SMILES IDX 75 78 68 79 70 80 76 81 69 82 71 83 72 84 73 85 74 86 51 87
REMARK SMILES IDX 52 88 60 89 53 90 55 91 61 92 54 93 56 94 57 95 58 96 59 97
REMARK H PARENT 15 7 2 24 22 31 81 50 49 61
REMARK Flexibility Score: inf
ROOT
ATOM      1  C   UNL     1       3.902   0.971   7.396  1.00  0.00     0.002 C 
ENDROOT
BRANCH   1   2
ATOM      2  C   UNL     1       2.898   1.294   6.285  1.00  0.00     0.021 C 
BRANCH   2   3
ATOM      3  C   UNL     1       3.260   0.706   4.914  1.00  0.00     0.116 C 
BRANCH   3   4
ATOM      4  N   UNL     1       2.579  -0.562   4.750  1.00  0.00    -0.352 N 
ATOM      5  C   UNL     1       1.447  -0.968   4.100  1.00  0.00     0.251 C 
ATOM      6  O   UNL     1       1.124  -2.145   4.297  1.00  0.00    -0.269 OA
ATOM      7  H   UNL     1       3.037  -1.301   5.213  1.00  0.00     0.163 HD
BRANCH   5   8
ATOM      8  C   UNL     1       0.644  -0.172   3.111  1.00  0.00     0.044 A 
ATOM      9  C   UNL     1      -0.782  -0.460   1.102  1.00  0.00     0.071 A 
ATOM     10  C   UNL     1       0.061  -0.976   2.105  1.00  0.00     0.034 A 
ATOM     11  C   UNL     1      -0.999   0.917   1.022  1.00  0.00    -0.032 A 
ATOM     12  C   UNL     1      -0.457   1.715   2.042  1.00  0.00     0.009 A 
ATOM     13  C   UNL     1      -1.865   1.597   0.001  1.00  0.00     0.046 C 
ATOM     14  C   UNL     1       0.287   1.185   3.125  1.00  0.00    -0.038 A 
ATOM     15  C   UNL     1       0.517   2.140   4.257  1.00  0.00     0.045 C 
BRANCH   9  16
ATOM     16  S   UNL     1      -1.715  -1.661   0.156  1.00  0.00     0.190 S 
ATOM     17  O   UNL     1      -2.853  -0.991  -0.452  1.00  0.00    -0.223 OA
ATOM     18  O   UNL     1      -1.998  -2.768   1.054  1.00  0.00    -0.223 OA
BRANCH  16  19
ATOM     19  C   UNL     1      -0.681  -2.253  -1.158  1.00  0.00     0.199 C 
ATOM     20  C   UNL     1      -0.420  -1.172  -2.204  1.00  0.00     0.036 C 
BRANCH  19  21
ATOM     21  C   UNL     1       0.616  -2.790  -0.607  1.00  0.00     0.238 C 
ATOM     22  C   UNL     1      -0.336  -5.038   0.118  1.00  0.00     0.142 C 
ATOM     23  N   UNL     1       0.703  -4.058  -0.114  1.00  0.00    -0.358 N 
ATOM     24  H   UNL     1       1.612  -4.352   0.121  1.00  0.00     0.163 HD
ATOM     25  O   UNL     1       1.649  -2.117  -0.617  1.00  0.00    -0.274 OA
ENDBRANCH  19  21
ENDBRANCH  16  19
ENDBRANCH   9  16
ENDBRANCH   5   8
ENDBRANCH   3   4
ENDBRANCH   2   3
ENDBRANCH   1   2
BRANCH   1  26
ATOM     26  C   UNL     1       5.204   1.773   7.333  1.00  0.00     0.002 C 
BRANCH  26  27
ATOM     27  C   UNL     1       5.043   3.297   7.302  1.00  0.00     0.021 C 
BRANCH  27  28
ATOM     28  C   UNL     1       4.210   3.892   8.437  1.00  0.00     0.116 C 
BRANCH  28  29
ATOM     29  N   UNL     1       4.827   3.675   9.736  1.00  0.00    -0.352 N 
ATOM     30  C   UNL     1       5.258   4.594  10.661  1.00  0.00     0.251 C 
ATOM     31  H   UNL     1       4.954   2.732   9.990  1.00  0.00     0.163 HD
ATOM     32  O   UNL     1       5.951   4.230  11.608  1.00  0.00    -0.269 OA
BRANCH  30  33
ATOM     33  C   UNL     1       4.900   6.023  10.515  1.00  0.00     0.039 A 
ATOM     34  C   UNL     1       5.891   6.992  10.696  1.00  0.00     0.014 A 
ATOM     35  C   UNL     1       3.585   6.408  10.235  1.00  0.00     0.014 A 
ATOM     36  C   UNL     1       5.576   8.345  10.543  1.00  0.00     0.010 A 
ATOM     37  C   UNL     1       3.285   7.754  10.030  1.00  0.00     0.010 A 
ATOM     38  C   UNL     1       4.275   8.736  10.186  1.00  0.00    -0.014 A 
BRANCH  38  39
ATOM     39  C   UNL     1       3.933  10.163   9.957  1.00  0.00     0.031 A 
ATOM     40  C   UNL     1       2.966  10.869  10.867  1.00  0.00     0.074 A 
ATOM     41  C   UNL     1       4.421  10.796   8.871  1.00  0.00     0.049 A 
ATOM     42  N   UNL     1       2.500  12.089  10.787  1.00  0.00    -0.248 NA
ATOM     43  C   UNL     1       2.434  10.097  12.002  1.00  0.00     0.031 C 
ATOM     44  C   UNL     1       5.302  10.195   7.869  1.00  0.00     0.029 A 
ATOM     45  N   UNL     1       4.218  12.073   8.412  1.00  0.00    -0.354 N 
ATOM     46  C   UNL     1       1.595  12.220  11.833  1.00  0.00     0.074 A 
ATOM     47  C   UNL     1       1.559  10.947  12.521  1.00  0.00     0.031 C 
ATOM     48  C   UNL     1       5.560  11.100   6.911  1.00  0.00     0.029 A 
ATOM     49  C   UNL     1       4.849  12.338   7.219  1.00  0.00     0.049 A 
ATOM     50  H   UNL     1       3.672  12.738   8.892  1.00  0.00     0.167 HD
ATOM     51  C   UNL     1       0.882  13.309  12.207  1.00  0.00     0.034 A 
ATOM     52  C   UNL     1       4.854  13.450   6.458  1.00  0.00     0.034 A 
ATOM     53  C   UNL     1       0.963  14.590  11.558  1.00  0.00     0.049 A 
ATOM     54  C   UNL     1       4.102  14.665   6.930  1.00  0.00     0.074 A 
ATOM     55  C   UNL     1       0.357  15.779  11.922  1.00  0.00     0.029 A 
ATOM     56  N   UNL     1       1.697  14.850  10.411  1.00  0.00    -0.354 N 
ATOM     57  N   UNL     1       3.386  14.819   8.017  1.00  0.00    -0.248 NA
ATOM     58  C   UNL     1       4.190  15.870   6.093  1.00  0.00     0.031 C 
ATOM     59  C   UNL     1       0.720  16.758  10.991  1.00  0.00     0.029 A 
ATOM     60  C   UNL     1       1.557  16.179  10.051  1.00  0.00     0.049 A 
ATOM     61  H   UNL     1       2.238  14.187   9.925  1.00  0.00     0.167 HD
ATOM     62  C   UNL     1       2.963  16.143   8.010  1.00  0.00     0.074 A 
ATOM     63  C   UNL     1       3.522  16.754   6.822  1.00  0.00     0.031 C 
ATOM     64  C   UNL     1       2.167  16.789   8.897  1.00  0.00     0.034 A 
BRANCH  51  65
ATOM     65  C   UNL     1       0.002  13.183  13.422  1.00  0.00     0.023 A 
ATOM     66  C   UNL     1       0.595  13.149  14.700  1.00  0.00     0.012 A 
ATOM     67  C   UNL     1      -1.402  13.160  13.311  1.00  0.00     0.148 A 
ATOM     68  C   UNL     1      -0.192  13.063  15.848  1.00  0.00     0.002 A 
ATOM     69  C   UNL     1      -2.182  13.111  14.462  1.00  0.00     0.091 A 
ATOM     70  F   UNL     1      -1.948  13.168  12.086  1.00  0.00    -0.205 F 
ATOM     71  C   UNL     1      -1.579  13.055  15.729  1.00  0.00     0.022 A 
BRANCH  69  72
ATOM     72  S   UNL     1      -3.977  13.167  14.412  1.00  0.00     0.127 S 
ATOM     73  O   UNL     1      -4.323  11.770  14.667  1.00  0.00    -0.237 OA
ATOM     74  O   UNL     1      -4.292  14.083  15.509  1.00  0.00    -0.237 OA
ATOM     75  O   UNL     1      -4.321  13.670  13.089  1.00  0.00    -0.744 OA
ENDBRANCH  69  72
ENDBRANCH  51  65
BRANCH  52  76
ATOM     76  C   UNL     1       5.669  13.488   5.212  1.00  0.00     0.023 A 
ATOM     77  C   UNL     1       6.851  14.253   5.189  1.00  0.00     0.012 A 
ATOM     78  C   UNL     1       5.312  12.739   4.074  1.00  0.00     0.148 A 
ATOM     79  C   UNL     1       7.651  14.291   4.047  1.00  0.00     0.002 A 
ATOM     80  C   UNL     1       6.141  12.741   2.957  1.00  0.00     0.091 A 
ATOM     81  F   UNL     1       4.175  12.031   4.107  1.00  0.00    -0.205 F 
ATOM     82  C   UNL     1       7.304  13.527   2.936  1.00  0.00     0.022 A 
BRANCH  80  83
ATOM     83  S   UNL     1       5.834  11.678   1.541  1.00  0.00     0.127 S 
ATOM     84  O   UNL     1       5.268  12.617   0.578  1.00  0.00    -0.237 OA
ATOM     85  O   UNL     1       7.178  11.198   1.218  1.00  0.00    -0.237 OA
ATOM     86  O   UNL     1       4.935  10.639   2.028  1.00  0.00    -0.744 OA
ENDBRANCH  80  83
ENDBRANCH  52  76
BRANCH  64  87
ATOM     87  C   UNL     1       1.861  18.239   8.633  1.00  0.00     0.023 A 
ATOM     88  C   UNL     1       0.938  18.579   7.625  1.00  0.00     0.012 A 
ATOM     89  C   UNL     1       2.422  19.256   9.430  1.00  0.00     0.148 A 
ATOM     90  C   UNL     1       0.596  19.911   7.397  1.00  0.00     0.002 A 
ATOM     91  C   UNL     1       2.046  20.578   9.224  1.00  0.00     0.091 A 
ATOM     92  F   UNL     1       3.316  18.914  10.370  1.00  0.00    -0.205 F 
ATOM     93  C   UNL     1       1.139  20.908   8.204  1.00  0.00     0.022 A 
BRANCH  91  94
ATOM     94  S   UNL     1       2.633  21.912  10.275  1.00  0.00     0.127 S 
ATOM     95  O   UNL     1       3.672  22.513   9.443  1.00  0.00    -0.237 OA
ATOM     96  O   UNL     1       1.433  22.734  10.442  1.00  0.00    -0.237 OA
ATOM     97  O   UNL     1       3.096  21.274  11.501  1.00  0.00    -0.744 OA
ENDBRANCH  91  94
ENDBRANCH  64  87
ENDBRANCH  38  39
ENDBRANCH  30  33
ENDBRANCH  28  29
ENDBRANCH  27  28
ENDBRANCH  26  27
ENDBRANCH   1  26
TORSDOF 19
