REMARK SMILES Cc1c(Cl)cc2c(c1C)O[C@@H](C(F)(F)F)C(C(=O)NCCCCCCNC(=O)c1ccc(-c3c4nc(c(-c5cccc(S(=O)(=O)[O-])c5F)c5ccc([nH]5)c(-c5cccc(S(=O)(=O)[O-])c5F)c5nc(c(-c6cccc(S(=O)(=O)[O-])c6F)c6ccc3[nH]6)C=C5)C=C4)cc1)=C2
REMARK SMILES IDX 23 1 22 2 21 3 20 4 19 5 17 6 18 7 16 9 1 10 2 11 3 12 8 13
REMARK SMILES IDX 4 14 5 15 7 16 9 17 6 18 10 19 92 20 11 21 12 22 13 23 14 24
REMARK SMILES IDX 15 25 24 26 25 27 26 28 27 29 28 31 29 32 30 33 91 34 31 35
REMARK SMILES IDX 90 36 32 37 33 38 34 39 84 40 35 41 89 42 83 43 85 44 36 45
REMARK SMILES IDX 88 46 82 47 81 48 37 50 69 51 49 52 68 53 50 54 53 55 67 56
REMARK SMILES IDX 86 57 51 58 52 59 66 61 87 62 54 63 38 64 39 65 47 66 40 67
REMARK SMILES IDX 42 68 48 69 41 70 43 71 44 72 45 73 46 74 70 75 71 76 79 77
REMARK SMILES IDX 72 78 74 79 80 80 73 81 75 82 76 83 77 84 78 85 55 86 56 87
REMARK SMILES IDX 64 88 57 89 59 90 65 91 58 92 60 93 61 94 62 95 63 96
REMARK H PARENT 19 8 26 30 85 49 53 60
REMARK Flexibility Score: inf
ROOT
ATOM      1  C   UNL     1      -4.354   5.495   9.384  1.00  0.00     0.002 C 
ENDROOT
BRANCH   1   2
ATOM      2  C   UNL     1      -2.840   5.525   9.146  1.00  0.00     0.002 C 
BRANCH   2   3
ATOM      3  C   UNL     1      -2.323   4.479   8.157  1.00  0.00     0.021 C 
BRANCH   3   4
ATOM      4  C   UNL     1      -2.945   4.588   6.768  1.00  0.00     0.116 C 
BRANCH   4   5
ATOM      5  N   UNL     1      -2.233   5.544   5.935  1.00  0.00    -0.352 N 
ATOM      6  C   UNL     1      -1.471   5.519   4.816  1.00  0.00     0.251 C 
ATOM      7  O   UNL     1      -1.073   6.622   4.426  1.00  0.00    -0.270 OA
ATOM      8  H   UNL     1      -2.333   6.461   6.279  1.00  0.00     0.163 HD
BRANCH   6   9
ATOM      9  C   UNL     1      -1.096   4.290   4.053  1.00  0.00     0.067 C 
ATOM     10  C   UNL     1       1.182  -0.142  -0.201  1.00  0.00     0.046 C 
ATOM     11  C   UNL     1       0.730   1.038   0.620  1.00  0.00    -0.026 A 
ATOM     12  C   UNL     1       1.153   2.337   0.254  1.00  0.00     0.045 A 
ATOM     13  C   UNL     1      -0.128   0.902   1.733  1.00  0.00    -0.004 A 
ATOM     14  Cl  UNL     1       2.160   2.607  -1.131  1.00  0.00    -0.084 Cl
ATOM     15  C   UNL     1       0.771   3.468   0.985  1.00  0.00     0.032 A 
ATOM     16  C   UNL     1      -0.477   2.055   2.467  1.00  0.00     0.131 A 
ATOM     17  C   UNL     1      -0.676  -0.416   2.228  1.00  0.00     0.049 C 
ATOM     18  C   UNL     1      -0.041   3.329   2.104  1.00  0.00     0.019 A 
ATOM     19  O   UNL     1      -1.308   1.863   3.534  1.00  0.00    -0.475 OA
ATOM     20  C   UNL     1      -0.471   4.489   2.878  1.00  0.00     0.025 C 
ATOM     21  C   UNL     1      -1.329   2.893   4.548  1.00  0.00     0.314 C 
BRANCH  21  22
ATOM     22  C   UNL     1      -0.399   2.501   5.710  1.00  0.00     0.429 C 
ATOM     23  F   UNL     1       0.042   3.571   6.410  1.00  0.00    -0.167 F 
ATOM     24  F   UNL     1      -1.047   1.700   6.591  1.00  0.00    -0.167 F 
ATOM     25  F   UNL     1       0.703   1.836   5.292  1.00  0.00    -0.167 F 
ENDBRANCH  21  22
ENDBRANCH   6   9
ENDBRANCH   4   5
ENDBRANCH   3   4
ENDBRANCH   2   3
ENDBRANCH   1   2
BRANCH   1  26
ATOM     26  C   UNL     1      -4.931   4.119   9.726  1.00  0.00     0.021 C 
BRANCH  26  27
ATOM     27  C   UNL     1      -4.289   3.456  10.941  1.00  0.00     0.116 C 
BRANCH  27  28
ATOM     28  N   UNL     1      -4.463   4.260  12.140  1.00  0.00    -0.352 N 
ATOM     29  C   UNL     1      -5.186   3.975  13.269  1.00  0.00     0.251 C 
ATOM     30  H   UNL     1      -3.998   5.128  12.141  1.00  0.00     0.163 HD
ATOM     31  O   UNL     1      -5.441   4.863  14.081  1.00  0.00    -0.269 OA
BRANCH  29  32
ATOM     32  C   UNL     1      -5.658   2.596  13.499  1.00  0.00     0.039 A 
ATOM     33  C   UNL     1      -6.977   2.386  13.902  1.00  0.00     0.014 A 
ATOM     34  C   UNL     1      -4.790   1.515  13.318  1.00  0.00     0.014 A 
ATOM     35  C   UNL     1      -7.438   1.082  14.086  1.00  0.00     0.010 A 
ATOM     36  C   UNL     1      -5.273   0.216  13.425  1.00  0.00     0.010 A 
ATOM     37  C   UNL     1      -6.596  -0.013  13.830  1.00  0.00    -0.014 A 
BRANCH  37  38
ATOM     38  C   UNL     1      -7.075  -1.405  14.012  1.00  0.00     0.031 A 
ATOM     39  C   UNL     1      -6.457  -2.279  15.069  1.00  0.00     0.074 A 
ATOM     40  C   UNL     1      -8.030  -1.895  13.197  1.00  0.00     0.049 A 
ATOM     41  N   UNL     1      -6.730  -3.521  15.371  1.00  0.00    -0.248 NA
ATOM     42  C   UNL     1      -5.378  -1.689  15.880  1.00  0.00     0.031 C 
ATOM     43  C   UNL     1      -8.659  -1.161  12.098  1.00  0.00     0.029 A 
ATOM     44  N   UNL     1      -8.629  -3.129  13.159  1.00  0.00    -0.354 N 
ATOM     45  C   UNL     1      -5.848  -3.866  16.388  1.00  0.00     0.074 A 
ATOM     46  C   UNL     1      -4.997  -2.721  16.619  1.00  0.00     0.031 C 
ATOM     47  C   UNL     1      -9.569  -1.951  11.507  1.00  0.00     0.029 A 
ATOM     48  C   UNL     1      -9.568  -3.256  12.162  1.00  0.00     0.049 A 
ATOM     49  H   UNL     1      -8.408  -3.855  13.786  1.00  0.00     0.167 HD
ATOM     50  C   UNL     1      -5.781  -5.017  17.096  1.00  0.00     0.034 A 
ATOM     51  C   UNL     1     -10.342  -4.305  11.817  1.00  0.00     0.034 A 
ATOM     52  C   UNL     1      -6.657  -6.137  16.889  1.00  0.00     0.049 A 
ATOM     53  C   UNL     1     -10.248  -5.575  12.622  1.00  0.00     0.074 A 
ATOM     54  C   UNL     1      -6.715  -7.322  17.599  1.00  0.00     0.029 A 
ATOM     55  N   UNL     1      -7.624  -6.214  15.898  1.00  0.00    -0.354 N 
ATOM     56  N   UNL     1      -9.511  -5.830  13.676  1.00  0.00    -0.248 NA
ATOM     57  C   UNL     1     -11.112  -6.691  12.211  1.00  0.00     0.031 C 
ATOM     58  C   UNL     1      -7.697  -8.129  17.019  1.00  0.00     0.029 A 
ATOM     59  C   UNL     1      -8.273  -7.435  15.966  1.00  0.00     0.049 A 
ATOM     60  H   UNL     1      -7.820  -5.506  15.243  1.00  0.00     0.167 HD
ATOM     61  C   UNL     1      -9.838  -7.124  14.068  1.00  0.00     0.074 A 
ATOM     62  C   UNL     1     -10.863  -7.588  13.156  1.00  0.00     0.031 C 
ATOM     63  C   UNL     1      -9.322  -7.867  15.078  1.00  0.00     0.034 A 
BRANCH  50  64
ATOM     64  C   UNL     1      -4.769  -5.104  18.209  1.00  0.00     0.023 A 
ATOM     65  C   UNL     1      -4.966  -4.348  19.383  1.00  0.00     0.012 A 
ATOM     66  C   UNL     1      -3.678  -5.992  18.134  1.00  0.00     0.148 A 
ATOM     67  C   UNL     1      -4.080  -4.453  20.454  1.00  0.00     0.002 A 
ATOM     68  C   UNL     1      -2.827  -6.128  19.225  1.00  0.00     0.091 A 
ATOM     69  F   UNL     1      -3.496  -6.687  17.002  1.00  0.00    -0.205 F 
ATOM     70  C   UNL     1      -3.020  -5.352  20.380  1.00  0.00     0.022 A 
BRANCH  68  71
ATOM     71  S   UNL     1      -1.484  -7.320  19.269  1.00  0.00     0.127 S 
ATOM     72  O   UNL     1      -0.313  -6.443  19.301  1.00  0.00    -0.237 OA
ATOM     73  O   UNL     1      -1.748  -8.031  20.520  1.00  0.00    -0.237 OA
ATOM     74  O   UNL     1      -1.620  -8.127  18.065  1.00  0.00    -0.744 OA
ENDBRANCH  68  71
ENDBRANCH  50  64
BRANCH  51  75
ATOM     75  C   UNL     1     -11.325  -4.167  10.704  1.00  0.00     0.023 A 
ATOM     76  C   UNL     1     -12.702  -4.161  10.999  1.00  0.00     0.012 A 
ATOM     77  C   UNL     1     -10.909  -3.991   9.370  1.00  0.00     0.148 A 
ATOM     78  C   UNL     1     -13.648  -4.006   9.984  1.00  0.00     0.002 A 
ATOM     79  C   UNL     1     -11.853  -3.778   8.372  1.00  0.00     0.091 A 
ATOM     80  F   UNL     1      -9.595  -4.011   9.107  1.00  0.00    -0.205 F 
ATOM     81  C   UNL     1     -13.224  -3.802   8.674  1.00  0.00     0.022 A 
BRANCH  79  82
ATOM     82  S   UNL     1     -11.400  -3.366   6.683  1.00  0.00     0.127 S 
ATOM     83  O   UNL     1     -11.864  -4.543   5.952  1.00  0.00    -0.237 OA
ATOM     84  O   UNL     1     -12.178  -2.149   6.452  1.00  0.00    -0.237 OA
ATOM     85  O   UNL     1      -9.957  -3.163   6.698  1.00  0.00    -0.744 OA
ENDBRANCH  79  82
ENDBRANCH  51  75
BRANCH  63  86
ATOM     86  C   UNL     1      -9.846  -9.268  15.266  1.00  0.00     0.023 A 
ATOM     87  C   UNL     1      -9.491 -10.270  14.342  1.00  0.00     0.012 A 
ATOM     88  C   UNL     1     -10.580  -9.618  16.418  1.00  0.00     0.148 A 
ATOM     89  C   UNL     1      -9.876 -11.594  14.549  1.00  0.00     0.002 A 
ATOM     90  C   UNL     1     -10.912 -10.948  16.645  1.00  0.00     0.091 A 
ATOM     91  F   UNL     1     -10.917  -8.648  17.280  1.00  0.00    -0.205 F 
ATOM     92  C   UNL     1     -10.572 -11.935  15.706  1.00  0.00     0.022 A 
BRANCH  90  93
ATOM     93  S   UNL     1     -11.711 -11.504  18.156  1.00  0.00     0.127 S 
ATOM     94  O   UNL     1     -13.022 -11.923  17.662  1.00  0.00    -0.237 OA
ATOM     95  O   UNL     1     -10.839 -12.600  18.579  1.00  0.00    -0.237 OA
ATOM     96  O   UNL     1     -11.723 -10.356  19.052  1.00  0.00    -0.744 OA
ENDBRANCH  90  93
ENDBRANCH  63  86
ENDBRANCH  37  38
ENDBRANCH  29  32
ENDBRANCH  27  28
ENDBRANCH  26  27
ENDBRANCH   1  26
TORSDOF 17
