REMARK SMILES CC(C)(C[N@H+]1C[C@@H]2C[NH2+]C[C@H]2C1(C)C)C(=O)NCCCCCCNC(=O)c1ccc(-c2c3nc(c(-c4cccc(S(=O)(=O)[O-])c4F)c4ccc([nH]4)c(-c4cccc(S(=O)(=O)[O-])c4F)c4nc(c(-c5cccc(S(=O)(=O)[O-])c5F)c5ccc2[nH]5)C=C4)C=C3)cc1
REMARK SMILES IDX 21 1 20 2 19 3 18 4 17 5 15 6 16 7 2 9 1 10 3 11 4 12 5 13
REMARK SMILES IDX 6 14 12 15 7 17 11 18 13 19 14 20 8 21 10 22 9 23 22 26
REMARK SMILES IDX 23 27 24 28 25 29 26 31 27 32 28 33 89 34 29 35 88 36 30 37
REMARK SMILES IDX 31 38 32 39 82 40 33 41 87 42 81 43 83 44 34 45 86 46 80 47
REMARK SMILES IDX 79 48 35 50 67 51 47 52 66 53 48 54 51 55 65 56 84 57 49 58
REMARK SMILES IDX 50 59 64 61 85 62 52 63 36 64 37 65 45 66 38 67 40 68 46 69
REMARK SMILES IDX 39 70 41 71 42 72 43 73 44 74 68 75 69 76 77 77 70 78 72 79
REMARK SMILES IDX 78 80 71 81 73 82 74 83 75 84 76 85 53 86 54 87 62 88 55 89
REMARK SMILES IDX 57 90 63 91 56 92 58 93 59 94 60 95 61 96
REMARK H PARENT 17 8 5 16 9 24 9 25 24 30 83 49 51 60
REMARK Flexibility Score: inf
ROOT
ATOM      1  C   UNL     1       0.179  -5.062   5.632  1.00  0.00     0.002 C 
ENDROOT
BRANCH   1   2
ATOM      2  C   UNL     1      -0.599  -4.617   4.396  1.00  0.00     0.002 C 
BRANCH   2   3
ATOM      3  C   UNL     1      -1.085  -3.165   4.432  1.00  0.00     0.021 C 
BRANCH   3   4
ATOM      4  C   UNL     1      -0.085  -2.068   4.055  1.00  0.00     0.116 C 
BRANCH   4   5
ATOM      5  N   UNL     1       0.810  -2.409   2.965  1.00  0.00    -0.355 N 
ATOM      6  C   UNL     1       1.208  -1.785   1.829  1.00  0.00     0.231 C 
ATOM      7  O   UNL     1       2.115  -2.370   1.221  1.00  0.00    -0.274 OA
ATOM      8  H   UNL     1       1.222  -3.296   3.076  1.00  0.00     0.163 HD
BRANCH   6   9
ATOM      9  C   UNL     1       0.639  -0.451   1.303  1.00  0.00     0.092 C 
ATOM     10  C   UNL     1       1.591   0.056   0.187  1.00  0.00     0.027 C 
ATOM     11  C   UNL     1       0.771   0.638   2.402  1.00  0.00     0.027 C 
BRANCH   9  12
ATOM     12  C   UNL     1      -0.861  -0.513   0.821  1.00  0.00     0.279 C 
BRANCH  12  13
ATOM     13  N   UNL     1      -1.409  -1.248  -0.336  1.00  0.00    -0.329 N 
ATOM     14  C   UNL     1      -0.653  -1.263  -1.602  1.00  0.00     0.272 C 
ATOM     15  C   UNL     1      -2.049  -2.594  -0.170  1.00  0.00     0.101 C 
ATOM     16  H   UNL     1      -2.167  -0.568  -0.397  1.00  0.00     0.348 HD
ATOM     17  C   UNL     1      -0.132  -2.670  -1.566  1.00  0.00     0.114 C 
ATOM     18  C   UNL     1      -1.410  -3.425  -1.288  1.00  0.00     0.119 C 
ATOM     19  C   UNL     1      -1.940  -3.278   1.177  1.00  0.00     0.079 C 
ATOM     20  C   UNL     1      -3.556  -2.409  -0.451  1.00  0.00     0.079 C 
ATOM     21  C   UNL     1       0.412  -3.456  -2.724  1.00  0.00     0.270 C 
ATOM     22  C   UNL     1      -0.848  -4.823  -1.192  1.00  0.00     0.271 C 
ATOM     23  N   UNL     1       0.123  -4.865  -2.324  1.00  0.00    -0.345 N 
ATOM     24  H   UNL     1       0.983  -5.326  -2.028  1.00  0.00     0.346 HD
ATOM     25  H   UNL     1      -0.265  -5.388  -3.110  1.00  0.00     0.346 HD
ENDBRANCH  12  13
ENDBRANCH   9  12
ENDBRANCH   6   9
ENDBRANCH   4   5
ENDBRANCH   3   4
ENDBRANCH   2   3
ENDBRANCH   1   2
BRANCH   1  26
ATOM     26  C   UNL     1      -0.531  -4.818   6.968  1.00  0.00     0.021 C 
BRANCH  26  27
ATOM     27  C   UNL     1      -1.993  -5.255   7.027  1.00  0.00     0.116 C 
BRANCH  27  28
ATOM     28  N   UNL     1      -2.144  -6.698   6.959  1.00  0.00    -0.352 N 
ATOM     29  C   UNL     1      -2.880  -7.507   7.788  1.00  0.00     0.251 C 
ATOM     30  H   UNL     1      -1.661  -7.150   6.230  1.00  0.00     0.163 HD
ATOM     31  O   UNL     1      -2.779  -8.732   7.713  1.00  0.00    -0.269 OA
BRANCH  29  32
ATOM     32  C   UNL     1      -3.779  -6.896   8.789  1.00  0.00     0.039 A 
ATOM     33  C   UNL     1      -3.670  -7.288  10.124  1.00  0.00     0.014 A 
ATOM     34  C   UNL     1      -4.713  -5.925   8.410  1.00  0.00     0.014 A 
ATOM     35  C   UNL     1      -4.476  -6.679  11.089  1.00  0.00     0.010 A 
ATOM     36  C   UNL     1      -5.476  -5.281   9.383  1.00  0.00     0.010 A 
ATOM     37  C   UNL     1      -5.374  -5.659  10.730  1.00  0.00    -0.014 A 
BRANCH  37  38
ATOM     38  C   UNL     1      -6.200  -4.983  11.763  1.00  0.00     0.031 A 
ATOM     39  C   UNL     1      -7.697  -5.137  11.768  1.00  0.00     0.074 A 
ATOM     40  C   UNL     1      -5.606  -4.183  12.671  1.00  0.00     0.049 A 
ATOM     41  N   UNL     1      -8.571  -4.653  12.613  1.00  0.00    -0.248 NA
ATOM     42  C   UNL     1      -8.294  -5.916  10.671  1.00  0.00     0.031 C 
ATOM     43  C   UNL     1      -4.175  -3.872  12.714  1.00  0.00     0.029 A 
ATOM     44  N   UNL     1      -6.132  -3.471  13.720  1.00  0.00    -0.354 N 
ATOM     45  C   UNL     1      -9.818  -5.043  12.138  1.00  0.00     0.074 A 
ATOM     46  C   UNL     1      -9.590  -5.775  10.911  1.00  0.00     0.031 C 
ATOM     47  C   UNL     1      -3.938  -3.038  13.740  1.00  0.00     0.029 A 
ATOM     48  C   UNL     1      -5.196  -2.747  14.421  1.00  0.00     0.049 A 
ATOM     49  H   UNL     1      -7.089  -3.478  13.949  1.00  0.00     0.167 HD
ATOM     50  C   UNL     1     -11.038  -4.840  12.689  1.00  0.00     0.034 A 
ATOM     51  C   UNL     1      -5.334  -1.947  15.496  1.00  0.00     0.034 A 
ATOM     52  C   UNL     1     -11.258  -4.155  13.934  1.00  0.00     0.049 A 
ATOM     53  C   UNL     1      -6.690  -1.802  16.132  1.00  0.00     0.074 A 
ATOM     54  C   UNL     1     -12.444  -3.988  14.627  1.00  0.00     0.029 A 
ATOM     55  N   UNL     1     -10.272  -3.519  14.672  1.00  0.00    -0.354 N 
ATOM     56  N   UNL     1      -7.831  -2.339  15.774  1.00  0.00    -0.248 NA
ATOM     57  C   UNL     1      -6.770  -0.977  17.347  1.00  0.00     0.031 C 
ATOM     58  C   UNL     1     -12.178  -3.236  15.777  1.00  0.00     0.029 A 
ATOM     59  C   UNL     1     -10.823  -2.950  15.808  1.00  0.00     0.049 A 
ATOM     60  H   UNL     1      -9.320  -3.477  14.424  1.00  0.00     0.167 HD
ATOM     61  C   UNL     1      -8.757  -1.944  16.733  1.00  0.00     0.074 A 
ATOM     62  C   UNL     1      -8.036  -1.146  17.704  1.00  0.00     0.031 C 
ATOM     63  C   UNL     1     -10.087  -2.201  16.794  1.00  0.00     0.034 A 
BRANCH  50  64
ATOM     64  C   UNL     1     -12.232  -5.427  11.982  1.00  0.00     0.023 A 
ATOM     65  C   UNL     1     -12.436  -6.822  12.013  1.00  0.00     0.012 A 
ATOM     66  C   UNL     1     -13.183  -4.604  11.349  1.00  0.00     0.148 A 
ATOM     67  C   UNL     1     -13.551  -7.392  11.399  1.00  0.00     0.002 A 
ATOM     68  C   UNL     1     -14.313  -5.176  10.775  1.00  0.00     0.091 A 
ATOM     69  F   UNL     1     -12.961  -3.282  11.310  1.00  0.00    -0.205 F 
ATOM     70  C   UNL     1     -14.494  -6.569  10.791  1.00  0.00     0.022 A 
BRANCH  68  71
ATOM     71  S   UNL     1     -15.624  -4.196  10.032  1.00  0.00     0.127 S 
ATOM     72  O   UNL     1     -15.427  -4.471   8.609  1.00  0.00    -0.237 OA
ATOM     73  O   UNL     1     -16.826  -4.799  10.608  1.00  0.00    -0.237 OA
ATOM     74  O   UNL     1     -15.378  -2.821  10.444  1.00  0.00    -0.744 OA
ENDBRANCH  68  71
ENDBRANCH  50  64
BRANCH  51  75
ATOM     75  C   UNL     1      -4.135  -1.292  16.092  1.00  0.00     0.023 A 
ATOM     76  C   UNL     1      -3.648  -1.739  17.336  1.00  0.00     0.012 A 
ATOM     77  C   UNL     1      -3.456  -0.257  15.421  1.00  0.00     0.148 A 
ATOM     78  C   UNL     1      -2.527  -1.146  17.916  1.00  0.00     0.002 A 
ATOM     79  C   UNL     1      -2.306   0.292  15.979  1.00  0.00     0.091 A 
ATOM     80  F   UNL     1      -3.942   0.166  14.246  1.00  0.00    -0.205 F 
ATOM     81  C   UNL     1      -1.849  -0.139  17.234  1.00  0.00     0.022 A 
BRANCH  79  82
ATOM     82  S   UNL     1      -1.299   1.493  15.101  1.00  0.00     0.127 S 
ATOM     83  O   UNL     1      -1.642   2.733  15.791  1.00  0.00    -0.237 OA
ATOM     84  O   UNL     1       0.056   1.000  15.354  1.00  0.00    -0.237 OA
ATOM     85  O   UNL     1      -1.714   1.402  13.707  1.00  0.00    -0.744 OA
ENDBRANCH  79  82
ENDBRANCH  51  75
BRANCH  63  86
ATOM     86  C   UNL     1     -10.853  -1.630  17.958  1.00  0.00     0.023 A 
ATOM     87  C   UNL     1     -11.113  -0.246  18.008  1.00  0.00     0.012 A 
ATOM     88  C   UNL     1     -11.367  -2.467  18.968  1.00  0.00     0.148 A 
ATOM     89  C   UNL     1     -11.841   0.301  19.064  1.00  0.00     0.002 A 
ATOM     90  C   UNL     1     -12.131  -1.920  19.993  1.00  0.00     0.091 A 
ATOM     91  F   UNL     1     -11.092  -3.778  18.917  1.00  0.00    -0.205 F 
ATOM     92  C   UNL     1     -12.359  -0.536  20.049  1.00  0.00     0.022 A 
BRANCH  90  93
ATOM     93  S   UNL     1     -12.912  -2.940  21.249  1.00  0.00     0.127 S 
ATOM     94  O   UNL     1     -12.011  -2.757  22.386  1.00  0.00    -0.237 OA
ATOM     95  O   UNL     1     -14.222  -2.305  21.401  1.00  0.00    -0.237 OA
ATOM     96  O   UNL     1     -12.959  -4.285  20.692  1.00  0.00    -0.744 OA
ENDBRANCH  90  93
ENDBRANCH  63  86
ENDBRANCH  37  38
ENDBRANCH  29  32
ENDBRANCH  27  28
ENDBRANCH  26  27
ENDBRANCH   1  26
TORSDOF 18
