REMARK SMILES O=CN[C@@H](CCS[C@@H]1CCO[C@]2(CCOC2)C1)C(=O)NCCCCCCNC(=O)c1ccc(-c2c3nc(c(-c4cccc(S(=O)(=O)[O-])c4F)c4ccc([nH]4)c(-c4cccc(S(=O)(=O)[O-])c4F)c4nc(c(-c5cccc(S(=O)(=O)[O-])c5F)c5ccc2[nH]5)C=C4)C=C3)cc1
REMARK SMILES IDX 23 1 22 2 21 3 20 4 18 5 19 6 4 8 3 9 1 10 2 11 5 13 6 14
REMARK SMILES IDX 7 15 8 16 9 17 17 18 10 19 12 20 11 21 13 22 16 23 14 24
REMARK SMILES IDX 15 25 24 26 25 27 26 28 27 29 28 30 29 32 30 33 31 34 92 35
REMARK SMILES IDX 32 36 91 37 33 38 34 39 35 40 85 41 36 42 90 43 84 44 86 45
REMARK SMILES IDX 37 46 89 47 83 48 82 49 38 51 70 52 50 53 69 54 51 55 54 56
REMARK SMILES IDX 68 57 87 58 52 59 53 60 67 62 88 63 55 64 39 65 40 66 48 67
REMARK SMILES IDX 41 68 43 69 49 70 42 71 44 72 45 73 46 74 47 75 71 76 72 77
REMARK SMILES IDX 80 78 73 79 75 80 81 81 74 82 76 83 77 84 78 85 79 86 56 87
REMARK SMILES IDX 57 88 65 89 58 90 60 91 66 92 59 93 61 94 62 95 63 96 64 97
REMARK H PARENT 20 7 3 12 27 31 86 50 54 61
REMARK Flexibility Score: inf
ROOT
ATOM      1  C   UNL     1       2.409  -3.771   4.694  1.00  0.00     0.002 C 
ENDROOT
BRANCH   1   2
ATOM      2  C   UNL     1       1.387  -2.699   4.295  1.00  0.00     0.021 C 
BRANCH   2   3
ATOM      3  C   UNL     1       1.926  -1.353   3.838  1.00  0.00     0.116 C 
BRANCH   3   4
ATOM      4  N   UNL     1       2.704  -1.476   2.624  1.00  0.00    -0.354 N 
ATOM      5  C   UNL     1       3.115  -0.448   1.837  1.00  0.00     0.242 C 
ATOM      6  O   UNL     1       3.032  -0.606   0.612  1.00  0.00    -0.273 OA
ATOM      7  H   UNL     1       2.957  -2.385   2.344  1.00  0.00     0.163 HD
BRANCH   5   8
ATOM      8  C   UNL     1       3.457   0.928   2.395  1.00  0.00     0.171 C 
BRANCH   8   9
ATOM      9  N   UNL     1       2.144   1.568   2.475  1.00  0.00    -0.347 N 
ATOM     10  O   UNL     1       0.174   1.870   1.365  1.00  0.00    -0.279 OA
ATOM     11  C   UNL     1       1.386   1.749   1.339  1.00  0.00     0.337 C 
ATOM     12  H   UNL     1       1.801   1.872   3.346  1.00  0.00     0.164 HD
ENDBRANCH   8   9
BRANCH   8  13
ATOM     13  C   UNL     1       4.314   1.013   3.667  1.00  0.00     0.046 C 
BRANCH  13  14
ATOM     14  C   UNL     1       5.133  -0.201   4.168  1.00  0.00     0.072 C 
BRANCH  14  15
ATOM     15  S   UNL     1       6.550  -0.849   3.215  1.00  0.00    -0.158 SA
BRANCH  15  16
ATOM     16  C   UNL     1       6.004  -2.442   2.412  1.00  0.00     0.052 C 
ATOM     17  C   UNL     1       7.129  -3.498   2.411  1.00  0.00     0.043 C 
ATOM     18  C   UNL     1       5.630  -2.302   0.938  1.00  0.00     0.052 C 
ATOM     19  C   UNL     1       8.212  -3.236   1.350  1.00  0.00     0.162 C 
ATOM     20  C   UNL     1       6.768  -1.901  -0.005  1.00  0.00     0.095 C 
ATOM     21  O   UNL     1       7.692  -2.993   0.031  1.00  0.00    -0.372 OA
ATOM     22  C   UNL     1       7.490  -0.569   0.163  1.00  0.00     0.066 C 
ATOM     23  C   UNL     1       6.171  -1.649  -1.407  1.00  0.00     0.195 C 
ATOM     24  C   UNL     1       6.551   0.440  -0.442  1.00  0.00     0.163 C 
ATOM     25  O   UNL     1       5.919  -0.230  -1.535  1.00  0.00    -0.378 OA
ENDBRANCH  15  16
ENDBRANCH  14  15
ENDBRANCH  13  14
ENDBRANCH   8  13
ENDBRANCH   5   8
ENDBRANCH   3   4
ENDBRANCH   2   3
ENDBRANCH   1   2
BRANCH   1  26
ATOM     26  C   UNL     1       3.422  -3.461   5.799  1.00  0.00     0.002 C 
BRANCH  26  27
ATOM     27  C   UNL     1       2.913  -2.767   7.060  1.00  0.00     0.021 C 
BRANCH  27  28
ATOM     28  C   UNL     1       1.680  -3.373   7.714  1.00  0.00     0.116 C 
BRANCH  28  29
ATOM     29  N   UNL     1       1.843  -4.747   8.146  1.00  0.00    -0.352 N 
ATOM     30  C   UNL     1       1.235  -5.372   9.213  1.00  0.00     0.251 C 
ATOM     31  H   UNL     1       2.462  -5.299   7.615  1.00  0.00     0.163 HD
ATOM     32  O   UNL     1       1.515  -6.535   9.486  1.00  0.00    -0.269 OA
BRANCH  30  33
ATOM     33  C   UNL     1       0.282  -4.614  10.059  1.00  0.00     0.039 A 
ATOM     34  C   UNL     1       0.440  -4.656  11.446  1.00  0.00     0.014 A 
ATOM     35  C   UNL     1      -0.731  -3.830   9.496  1.00  0.00     0.014 A 
ATOM     36  C   UNL     1      -0.371  -3.862  12.261  1.00  0.00     0.010 A 
ATOM     37  C   UNL     1      -1.484  -2.980  10.304  1.00  0.00     0.010 A 
ATOM     38  C   UNL     1      -1.316  -2.988  11.696  1.00  0.00    -0.014 A 
BRANCH  38  39
ATOM     39  C   UNL     1      -2.110  -2.069  12.555  1.00  0.00     0.031 A 
ATOM     40  C   UNL     1      -3.610  -2.185  12.628  1.00  0.00     0.074 A 
ATOM     41  C   UNL     1      -1.482  -1.083  13.226  1.00  0.00     0.049 A 
ATOM     42  N   UNL     1      -4.453  -1.494  13.351  1.00  0.00    -0.248 NA
ATOM     43  C   UNL     1      -4.250  -3.184  11.757  1.00  0.00     0.031 C 
ATOM     44  C   UNL     1      -0.049  -0.790  13.154  1.00  0.00     0.029 A 
ATOM     45  N   UNL     1      -1.970  -0.132  14.089  1.00  0.00    -0.354 N 
ATOM     46  C   UNL     1      -5.718  -1.953  13.005  1.00  0.00     0.074 A 
ATOM     47  C   UNL     1      -5.536  -2.953  11.976  1.00  0.00     0.031 C 
ATOM     48  C   UNL     1       0.229   0.254  13.951  1.00  0.00     0.029 A 
ATOM     49  C   UNL     1      -1.004   0.716  14.580  1.00  0.00     0.049 A 
ATOM     50  H   UNL     1      -2.921  -0.064  14.333  1.00  0.00     0.167 HD
ATOM     51  C   UNL     1      -6.921  -1.603  13.521  1.00  0.00     0.034 A 
ATOM     52  C   UNL     1      -1.098   1.743  15.448  1.00  0.00     0.034 A 
ATOM     53  C   UNL     1      -7.097  -0.644  14.578  1.00  0.00     0.049 A 
ATOM     54  C   UNL     1      -2.433   2.056  16.067  1.00  0.00     0.074 A 
ATOM     55  C   UNL     1      -8.261  -0.296  15.241  1.00  0.00     0.029 A 
ATOM     56  N   UNL     1      -6.082   0.126  15.124  1.00  0.00    -0.354 N 
ATOM     57  N   UNL     1      -3.592   1.476  15.867  1.00  0.00    -0.248 NA
ATOM     58  C   UNL     1      -2.466   3.134  17.066  1.00  0.00     0.031 C 
ATOM     59  C   UNL     1      -7.952   0.699  16.175  1.00  0.00     0.029 A 
ATOM     60  C   UNL     1      -6.593   0.955  16.109  1.00  0.00     0.049 A 
ATOM     61  H   UNL     1      -5.137   0.090  14.851  1.00  0.00     0.167 HD
ATOM     62  C   UNL     1      -4.485   2.098  16.732  1.00  0.00     0.074 A 
ATOM     63  C   UNL     1      -3.724   3.076  17.482  1.00  0.00     0.031 C 
ATOM     64  C   UNL     1      -5.817   1.894  16.878  1.00  0.00     0.034 A 
BRANCH  51  65
ATOM     65  C   UNL     1      -8.142  -2.313  12.993  1.00  0.00     0.023 A 
ATOM     66  C   UNL     1      -8.354  -3.667  13.326  1.00  0.00     0.012 A 
ATOM     67  C   UNL     1      -9.104  -1.634  12.221  1.00  0.00     0.148 A 
ATOM     68  C   UNL     1      -9.485  -4.344  12.872  1.00  0.00     0.002 A 
ATOM     69  C   UNL     1     -10.252  -2.304  11.808  1.00  0.00     0.091 A 
ATOM     70  F   UNL     1      -8.876  -0.354  11.895  1.00  0.00    -0.205 F 
ATOM     71  C   UNL     1     -10.438  -3.660  12.123  1.00  0.00     0.022 A 
BRANCH  69  72
ATOM     72  S   UNL     1     -11.576  -1.492  10.905  1.00  0.00     0.127 S 
ATOM     73  O   UNL     1     -11.429  -2.082   9.575  1.00  0.00    -0.237 OA
ATOM     74  O   UNL     1     -12.763  -1.932  11.639  1.00  0.00    -0.237 OA
ATOM     75  O   UNL     1     -11.304  -0.065  10.991  1.00  0.00    -0.744 OA
ENDBRANCH  69  72
ENDBRANCH  51  65
BRANCH  52  76
ATOM     76  C   UNL     1       0.127   2.492  15.849  1.00  0.00     0.023 A 
ATOM     77  C   UNL     1       0.638   2.338  17.152  1.00  0.00     0.012 A 
ATOM     78  C   UNL     1       0.805   3.328  14.941  1.00  0.00     0.148 A 
ATOM     79  C   UNL     1       1.782   3.027  17.555  1.00  0.00     0.002 A 
ATOM     80  C   UNL     1       1.977   3.966  15.330  1.00  0.00     0.091 A 
ATOM     81  F   UNL     1       0.297   3.473  13.709  1.00  0.00    -0.205 F 
ATOM     82  C   UNL     1       2.458   3.832  16.642  1.00  0.00     0.022 A 
BRANCH  80  83
ATOM     83  S   UNL     1       2.985   4.905  14.176  1.00  0.00     0.127 S 
ATOM     84  O   UNL     1       2.713   6.279  14.589  1.00  0.00    -0.237 OA
ATOM     85  O   UNL     1       4.332   4.422  14.485  1.00  0.00    -0.237 OA
ATOM     86  O   UNL     1       2.509   4.532  12.851  1.00  0.00    -0.744 OA
ENDBRANCH  80  83
ENDBRANCH  52  76
BRANCH  64  87
ATOM     87  C   UNL     1      -6.539   2.736  17.898  1.00  0.00     0.023 A 
ATOM     88  C   UNL     1      -6.751   4.107  17.648  1.00  0.00     0.012 A 
ATOM     89  C   UNL     1      -7.050   2.164  19.080  1.00  0.00     0.148 A 
ATOM     90  C   UNL     1      -7.421   4.903  18.575  1.00  0.00     0.002 A 
ATOM     91  C   UNL     1      -7.760   2.953  19.977  1.00  0.00     0.091 A 
ATOM     92  F   UNL     1      -6.822   0.863  19.314  1.00  0.00    -0.205 F 
ATOM     93  C   UNL     1      -7.934   4.325  19.734  1.00  0.00     0.022 A 
BRANCH  91  94
ATOM     94  S   UNL     1      -8.534   2.268  21.446  1.00  0.00     0.127 S 
ATOM     95  O   UNL     1      -7.592   2.662  22.492  1.00  0.00    -0.237 OA
ATOM     96  O   UNL     1      -9.817   2.972  21.484  1.00  0.00    -0.237 OA
ATOM     97  O   UNL     1      -8.644   0.836  21.203  1.00  0.00    -0.744 OA
ENDBRANCH  91  94
ENDBRANCH  64  87
ENDBRANCH  38  39
ENDBRANCH  30  33
ENDBRANCH  28  29
ENDBRANCH  27  28
ENDBRANCH  26  27
ENDBRANCH   1  26
TORSDOF 21
