REMARK SMILES C[C@H](C(=O)NCCCCCCNC(=O)c1ccc(-c2c3nc(c(-c4cccc(S(=O)(=O)[O-])c4F)c4ccc([nH]4)c(-c4cccc(S(=O)(=O)[O-])c4F)c4nc(c(-c5cccc(S(=O)(=O)[O-])c5F)c5ccc2[nH]5)C=C4)C=C3)cc1)[N@@H+]1CCc2ccccc2C1
REMARK SMILES IDX 9 1 8 2 7 3 6 4 5 5 3 6 4 7 2 9 1 10 78 11 79 12 87 13 80 15
REMARK SMILES IDX 86 16 81 17 85 18 82 19 84 20 83 21 10 22 11 23 12 24 13 25
REMARK SMILES IDX 14 27 15 28 16 29 77 30 17 31 76 32 18 33 19 34 20 35 70 36
REMARK SMILES IDX 21 37 75 38 69 39 71 40 22 41 74 42 68 43 67 44 23 46 55 47
REMARK SMILES IDX 35 48 54 49 36 50 39 51 53 52 72 53 37 54 38 55 52 57 73 58
REMARK SMILES IDX 40 59 24 60 25 61 33 62 26 63 28 64 34 65 27 66 29 67 30 68
REMARK SMILES IDX 31 69 32 70 56 71 57 72 65 73 58 74 60 75 66 76 59 77 61 78
REMARK SMILES IDX 62 79 63 80 64 81 41 82 42 83 50 84 43 85 45 86 51 87 44 88
REMARK SMILES IDX 46 89 47 90 48 91 49 92
REMARK H PARENT 5 8 78 14 12 26 71 45 39 56
REMARK Flexibility Score: inf
ROOT
ATOM      1  C   UNL     1      -1.404   4.568   0.782  1.00  0.00     0.002 C 
ENDROOT
BRANCH   1   2
ATOM      2  C   UNL     1      -1.092   3.431   1.758  1.00  0.00     0.002 C 
BRANCH   2   3
ATOM      3  C   UNL     1      -1.672   2.070   1.349  1.00  0.00     0.021 C 
BRANCH   3   4
ATOM      4  C   UNL     1      -1.208   1.600  -0.030  1.00  0.00     0.116 C 
BRANCH   4   5
ATOM      5  N   UNL     1       0.221   1.361  -0.001  1.00  0.00    -0.351 N 
ATOM      6  C   UNL     1       0.901   0.196  -0.207  1.00  0.00     0.278 C 
ATOM      7  O   UNL     1       2.086   0.163   0.133  1.00  0.00    -0.268 OA
ATOM      8  H   UNL     1       0.778   2.148   0.194  1.00  0.00     0.163 HD
BRANCH   6   9
ATOM      9  C   UNL     1       0.200  -0.956  -0.950  1.00  0.00     0.271 C 
ATOM     10  C   UNL     1       1.268  -1.515  -1.920  1.00  0.00     0.086 C 
BRANCH   9  11
ATOM     11  N   UNL     1      -0.456  -1.978  -0.093  1.00  0.00    -0.321 N 
ATOM     12  C   UNL     1      -1.168  -1.544   1.137  1.00  0.00     0.267 C 
ATOM     13  C   UNL     1       0.297  -3.196   0.136  1.00  0.00     0.299 C 
ATOM     14  H   UNL     1      -1.216  -2.198  -0.737  1.00  0.00     0.349 HD
ATOM     15  C   UNL     1      -1.312  -2.641   2.261  1.00  0.00     0.097 C 
ATOM     16  C   UNL     1       0.951  -3.193   1.481  1.00  0.00     0.010 A 
ATOM     17  C   UNL     1       0.072  -3.171   2.571  1.00  0.00    -0.034 A 
ATOM     18  C   UNL     1       2.322  -3.154   1.687  1.00  0.00     0.010 A 
ATOM     19  C   UNL     1       0.544  -3.509   3.832  1.00  0.00     0.004 A 
ATOM     20  C   UNL     1       2.809  -3.351   2.973  1.00  0.00     0.001 A 
ATOM     21  C   UNL     1       1.924  -3.626   4.022  1.00  0.00     0.000 A 
ENDBRANCH   9  11
ENDBRANCH   6   9
ENDBRANCH   4   5
ENDBRANCH   3   4
ENDBRANCH   2   3
ENDBRANCH   1   2
BRANCH   1  22
ATOM     22  C   UNL     1      -2.892   4.734   0.471  1.00  0.00     0.021 C 
BRANCH  22  23
ATOM     23  C   UNL     1      -3.759   4.932   1.706  1.00  0.00     0.116 C 
BRANCH  23  24
ATOM     24  N   UNL     1      -3.428   6.168   2.400  1.00  0.00    -0.352 N 
ATOM     25  C   UNL     1      -4.269   7.205   2.727  1.00  0.00     0.251 C 
ATOM     26  H   UNL     1      -2.487   6.275   2.667  1.00  0.00     0.163 HD
ATOM     27  O   UNL     1      -3.827   8.277   3.112  1.00  0.00    -0.269 OA
BRANCH  25  28
ATOM     28  C   UNL     1      -5.723   6.992   2.588  1.00  0.00     0.039 A 
ATOM     29  C   UNL     1      -6.486   7.907   1.862  1.00  0.00     0.014 A 
ATOM     30  C   UNL     1      -6.306   5.846   3.137  1.00  0.00     0.014 A 
ATOM     31  C   UNL     1      -7.840   7.646   1.642  1.00  0.00     0.010 A 
ATOM     32  C   UNL     1      -7.630   5.552   2.849  1.00  0.00     0.010 A 
ATOM     33  C   UNL     1      -8.414   6.455   2.113  1.00  0.00    -0.014 A 
BRANCH  33  34
ATOM     34  C   UNL     1      -9.841   6.122   1.886  1.00  0.00     0.031 A 
ATOM     35  C   UNL     1     -10.749   5.947   3.071  1.00  0.00     0.074 A 
ATOM     36  C   UNL     1     -10.280   5.840   0.645  1.00  0.00     0.049 A 
ATOM     37  N   UNL     1     -11.969   5.484   3.116  1.00  0.00    -0.248 NA
ATOM     38  C   UNL     1     -10.189   6.301   4.386  1.00  0.00     0.031 C 
ATOM     39  C   UNL     1      -9.473   5.908  -0.574  1.00  0.00     0.029 A 
ATOM     40  N   UNL     1     -11.503   5.391   0.212  1.00  0.00    -0.354 N 
ATOM     41  C   UNL     1     -12.302   5.434   4.464  1.00  0.00     0.074 A 
ATOM     42  C   UNL     1     -11.144   5.886   5.204  1.00  0.00     0.031 C 
ATOM     43  C   UNL     1     -10.214   5.495  -1.614  1.00  0.00     0.029 A 
ATOM     44  C   UNL     1     -11.534   5.096  -1.131  1.00  0.00     0.049 A 
ATOM     45  H   UNL     1     -12.282   5.290   0.805  1.00  0.00     0.167 HD
ATOM     46  C   UNL     1     -13.472   5.064   5.034  1.00  0.00     0.034 A 
ATOM     47  C   UNL     1     -12.504   4.539  -1.883  1.00  0.00     0.034 A 
ATOM     48  C   UNL     1     -14.631   4.661   4.287  1.00  0.00     0.049 A 
ATOM     49  C   UNL     1     -13.816   4.181  -1.240  1.00  0.00     0.074 A 
ATOM     50  C   UNL     1     -15.897   4.366   4.757  1.00  0.00     0.029 A 
ATOM     51  N   UNL     1     -14.662   4.487   2.912  1.00  0.00    -0.354 N 
ATOM     52  N   UNL     1     -14.166   4.277   0.020  1.00  0.00    -0.248 NA
ATOM     53  C   UNL     1     -14.877   3.673  -2.120  1.00  0.00     0.031 C 
ATOM     54  C   UNL     1     -16.686   3.982   3.668  1.00  0.00     0.029 A 
ATOM     55  C   UNL     1     -15.922   4.077   2.515  1.00  0.00     0.049 A 
ATOM     56  H   UNL     1     -13.899   4.633   2.307  1.00  0.00     0.167 HD
ATOM     57  C   UNL     1     -15.498   3.883   0.078  1.00  0.00     0.074 A 
ATOM     58  C   UNL     1     -15.893   3.549  -1.275  1.00  0.00     0.031 C 
ATOM     59  C   UNL     1     -16.317   3.805   1.156  1.00  0.00     0.034 A 
BRANCH  46  60
ATOM     60  C   UNL     1     -13.558   5.111   6.538  1.00  0.00     0.023 A 
ATOM     61  C   UNL     1     -13.534   6.353   7.205  1.00  0.00     0.012 A 
ATOM     62  C   UNL     1     -13.680   3.927   7.290  1.00  0.00     0.148 A 
ATOM     63  C   UNL     1     -13.572   6.413   8.598  1.00  0.00     0.002 A 
ATOM     64  C   UNL     1     -13.771   3.998   8.675  1.00  0.00     0.091 A 
ATOM     65  F   UNL     1     -13.678   2.752   6.644  1.00  0.00    -0.205 F 
ATOM     66  C   UNL     1     -13.700   5.238   9.331  1.00  0.00     0.022 A 
BRANCH  64  67
ATOM     67  S   UNL     1     -14.024   2.543   9.697  1.00  0.00     0.127 S 
ATOM     68  O   UNL     1     -12.691   2.345  10.265  1.00  0.00    -0.237 OA
ATOM     69  O   UNL     1     -15.030   3.007  10.654  1.00  0.00    -0.237 OA
ATOM     70  O   UNL     1     -14.487   1.499   8.794  1.00  0.00    -0.744 OA
ENDBRANCH  64  67
ENDBRANCH  46  60
BRANCH  47  71
ATOM     71  C   UNL     1     -12.273   4.340  -3.341  1.00  0.00     0.023 A 
ATOM     72  C   UNL     1     -12.925   5.177  -4.266  1.00  0.00     0.012 A 
ATOM     73  C   UNL     1     -11.355   3.379  -3.809  1.00  0.00     0.148 A 
ATOM     74  C   UNL     1     -12.681   5.050  -5.634  1.00  0.00     0.002 A 
ATOM     75  C   UNL     1     -11.076   3.294  -5.168  1.00  0.00     0.091 A 
ATOM     76  F   UNL     1     -10.748   2.592  -2.909  1.00  0.00    -0.205 F 
ATOM     77  C   UNL     1     -11.749   4.118  -6.083  1.00  0.00     0.022 A 
BRANCH  75  78
ATOM     78  S   UNL     1      -9.794   2.222  -5.827  1.00  0.00     0.127 S 
ATOM     79  O   UNL     1     -10.571   1.291  -6.641  1.00  0.00    -0.237 OA
ATOM     80  O   UNL     1      -8.975   3.169  -6.586  1.00  0.00    -0.237 OA
ATOM     81  O   UNL     1      -9.127   1.641  -4.670  1.00  0.00    -0.744 OA
ENDBRANCH  75  78
ENDBRANCH  47  71
BRANCH  59  82
ATOM     82  C   UNL     1     -17.750   3.400   0.933  1.00  0.00     0.023 A 
ATOM     83  C   UNL     1     -18.073   2.055   0.675  1.00  0.00     0.012 A 
ATOM     84  C   UNL     1     -18.783   4.341   1.115  1.00  0.00     0.148 A 
ATOM     85  C   UNL     1     -19.407   1.654   0.589  1.00  0.00     0.002 A 
ATOM     86  C   UNL     1     -20.108   3.926   1.077  1.00  0.00     0.091 A 
ATOM     87  F   UNL     1     -18.449   5.620   1.342  1.00  0.00    -0.205 F 
ATOM     88  C   UNL     1     -20.422   2.585   0.805  1.00  0.00     0.022 A 
BRANCH  86  89
ATOM     89  S   UNL     1     -21.476   5.029   1.449  1.00  0.00     0.127 S 
ATOM     90  O   UNL     1     -22.135   5.135   0.148  1.00  0.00    -0.237 OA
ATOM     91  O   UNL     1     -22.222   4.268   2.451  1.00  0.00    -0.237 OA
ATOM     92  O   UNL     1     -20.879   6.262   1.944  1.00  0.00    -0.744 OA
ENDBRANCH  86  89
ENDBRANCH  59  82
ENDBRANCH  33  34
ENDBRANCH  25  28
ENDBRANCH  23  24
ENDBRANCH  22  23
ENDBRANCH   1  22
TORSDOF 17
