REMARK SMILES Cc1cccc(CN(C)c2ccc(C(=O)NCCCCCCNC(=O)c3ccc(-c4c5nc(c(-c6cccc(S(=O)(=O)[O-])c6F)c6ccc([nH]6)c(-c6cccc(S(=O)(=O)[O-])c6F)c6nc(c(-c7cccc(S(=O)(=O)[O-])c7F)c7ccc4[nH]7)C=C6)C=C5)cc3)cc2C)n1
REMARK SMILES IDX 19 1 18 2 17 3 16 4 14 5 15 6 13 8 10 9 11 10 90 11 12 12
REMARK SMILES IDX 89 13 91 14 8 15 9 16 7 17 6 18 1 19 2 20 3 21 92 22 4 23
REMARK SMILES IDX 5 24 20 25 21 26 22 27 23 28 24 29 25 31 26 32 27 33 88 34
REMARK SMILES IDX 28 35 87 36 29 37 30 38 31 39 81 40 32 41 86 42 80 43 82 44
REMARK SMILES IDX 33 45 85 46 79 47 78 48 34 50 66 51 46 52 65 53 47 54 50 55
REMARK SMILES IDX 64 56 83 57 48 58 49 59 63 61 84 62 51 63 35 64 36 65 44 66
REMARK SMILES IDX 37 67 39 68 45 69 38 70 40 71 41 72 42 73 43 74 67 75 68 76
REMARK SMILES IDX 76 77 69 78 71 79 77 80 70 81 72 82 73 83 74 84 75 85 52 86
REMARK SMILES IDX 53 87 61 88 54 89 56 90 62 91 55 92 57 93 58 94 59 95 60 96
REMARK H PARENT 16 7 23 30 82 49 50 60
REMARK Flexibility Score: inf
ROOT
ATOM      1  C   UNL     1      -0.490  -2.756   7.838  1.00  0.00     0.002 C 
ENDROOT
BRANCH   1   2
ATOM      2  C   UNL     1       0.011  -1.870   6.696  1.00  0.00     0.021 C 
BRANCH   2   3
ATOM      3  C   UNL     1      -0.992  -0.988   5.960  1.00  0.00     0.116 C 
BRANCH   3   4
ATOM      4  N   UNL     1      -1.685   0.008   6.757  1.00  0.00    -0.352 N 
ATOM      5  C   UNL     1      -2.232   1.226   6.390  1.00  0.00     0.251 C 
ATOM      6  O   UNL     1      -2.806   1.894   7.251  1.00  0.00    -0.269 OA
ATOM      7  H   UNL     1      -1.783  -0.219   7.710  1.00  0.00     0.163 HD
BRANCH   5   8
ATOM      8  C   UNL     1      -2.127   1.779   5.005  1.00  0.00     0.040 A 
ATOM      9  C   UNL     1      -1.709   2.925   2.395  1.00  0.00     0.040 A 
ATOM     10  C   UNL     1      -1.745   1.546   2.639  1.00  0.00     0.027 A 
ATOM     11  C   UNL     1      -2.016   3.740   3.505  1.00  0.00    -0.027 A 
ATOM     12  C   UNL     1      -2.015   0.980   3.885  1.00  0.00     0.016 A 
ATOM     13  C   UNL     1      -2.172   3.165   4.798  1.00  0.00     0.019 A 
ATOM     14  C   UNL     1      -2.212   5.229   3.392  1.00  0.00     0.046 C 
BRANCH   9  15
ATOM     15  N   UNL     1      -1.367   3.421   1.135  1.00  0.00    -0.368 N 
ATOM     16  C   UNL     1      -0.203   4.305   1.065  1.00  0.00     0.144 C 
BRANCH  15  17
ATOM     17  C   UNL     1      -1.724   2.721  -0.124  1.00  0.00     0.172 C 
BRANCH  17  18
ATOM     18  C   UNL     1      -1.022   1.387  -0.375  1.00  0.00     0.060 A 
ATOM     19  C   UNL     1       2.420   0.077  -0.147  1.00  0.00     0.067 C 
ATOM     20  C   UNL     1       0.927   0.111  -0.295  1.00  0.00     0.038 A 
ATOM     21  C   UNL     1       0.203  -1.075  -0.372  1.00  0.00     0.023 A 
ATOM     22  N   UNL     1       0.335   1.335  -0.304  1.00  0.00    -0.256 NA
ATOM     23  C   UNL     1      -1.178  -1.010  -0.505  1.00  0.00     0.004 A 
ATOM     24  C   UNL     1      -1.800   0.233  -0.528  1.00  0.00     0.026 A 
ENDBRANCH  17  18
ENDBRANCH  15  17
ENDBRANCH   9  15
ENDBRANCH   5   8
ENDBRANCH   3   4
ENDBRANCH   2   3
ENDBRANCH   1   2
BRANCH   1  25
ATOM     25  C   UNL     1      -1.709  -3.658   7.601  1.00  0.00     0.002 C 
BRANCH  25  26
ATOM     26  C   UNL     1      -1.792  -4.434   6.288  1.00  0.00     0.021 C 
BRANCH  26  27
ATOM     27  C   UNL     1      -0.627  -5.367   5.987  1.00  0.00     0.116 C 
BRANCH  27  28
ATOM     28  N   UNL     1      -0.900  -6.772   6.253  1.00  0.00    -0.352 N 
ATOM     29  C   UNL     1      -0.102  -7.877   6.003  1.00  0.00     0.251 C 
ATOM     30  H   UNL     1      -1.772  -6.964   6.667  1.00  0.00     0.163 HD
ATOM     31  O   UNL     1      -0.573  -9.003   6.141  1.00  0.00    -0.269 OA
BRANCH  29  32
ATOM     32  C   UNL     1       1.333  -7.683   5.684  1.00  0.00     0.039 A 
ATOM     33  C   UNL     1       2.278  -8.390   6.438  1.00  0.00     0.014 A 
ATOM     34  C   UNL     1       1.745  -6.669   4.822  1.00  0.00     0.014 A 
ATOM     35  C   UNL     1       3.584  -7.912   6.529  1.00  0.00     0.010 A 
ATOM     36  C   UNL     1       3.010  -6.144   4.971  1.00  0.00     0.010 A 
ATOM     37  C   UNL     1       3.900  -6.722   5.881  1.00  0.00    -0.014 A 
BRANCH  37  38
ATOM     38  C   UNL     1       5.105  -5.947   6.127  1.00  0.00     0.031 A 
ATOM     39  C   UNL     1       6.306  -6.154   5.305  1.00  0.00     0.074 A 
ATOM     40  C   UNL     1       5.029  -4.916   6.995  1.00  0.00     0.049 A 
ATOM     41  N   UNL     1       7.483  -5.732   5.617  1.00  0.00    -0.248 NA
ATOM     42  C   UNL     1       6.265  -6.905   4.061  1.00  0.00     0.031 C 
ATOM     43  C   UNL     1       5.931  -3.779   7.106  1.00  0.00     0.029 A 
ATOM     44  N   UNL     1       4.201  -4.812   8.118  1.00  0.00    -0.354 N 
ATOM     45  C   UNL     1       8.287  -5.896   4.508  1.00  0.00     0.074 A 
ATOM     46  C   UNL     1       7.510  -6.723   3.615  1.00  0.00     0.031 C 
ATOM     47  C   UNL     1       5.811  -3.256   8.336  1.00  0.00     0.029 A 
ATOM     48  C   UNL     1       4.964  -4.157   9.100  1.00  0.00     0.049 A 
ATOM     49  H   UNL     1       3.274  -5.133   8.203  1.00  0.00     0.167 HD
ATOM     50  C   UNL     1       9.445  -5.178   4.424  1.00  0.00     0.034 A 
ATOM     51  C   UNL     1       5.281  -4.713  10.306  1.00  0.00     0.034 A 
ATOM     52  C   UNL     1       9.694  -4.445   5.677  1.00  0.00     0.049 A 
ATOM     53  C   UNL     1       6.778  -4.795  10.547  1.00  0.00     0.074 A 
ATOM     54  C   UNL     1       9.467  -3.133   6.064  1.00  0.00     0.029 A 
ATOM     55  N   UNL     1       9.993  -5.148   6.838  1.00  0.00    -0.354 N 
ATOM     56  N   UNL     1       7.681  -4.520   9.647  1.00  0.00    -0.248 NA
ATOM     57  C   UNL     1       7.375  -5.229  11.808  1.00  0.00     0.031 C 
ATOM     58  C   UNL     1       9.530  -3.077   7.482  1.00  0.00     0.029 A 
ATOM     59  C   UNL     1       9.831  -4.343   7.956  1.00  0.00     0.049 A 
ATOM     60  H   UNL     1      10.281  -6.090   6.863  1.00  0.00     0.167 HD
ATOM     61  C   UNL     1       8.923  -4.863  10.113  1.00  0.00     0.074 A 
ATOM     62  C   UNL     1       8.685  -5.217  11.503  1.00  0.00     0.031 C 
ATOM     63  C   UNL     1      10.021  -4.896   9.295  1.00  0.00     0.034 A 
BRANCH  50  64
ATOM     64  C   UNL     1      10.198  -4.865   3.133  1.00  0.00     0.023 A 
ATOM     65  C   UNL     1      11.089  -3.765   3.155  1.00  0.00     0.012 A 
ATOM     66  C   UNL     1      10.048  -5.496   1.876  1.00  0.00     0.148 A 
ATOM     67  C   UNL     1      11.697  -3.257   2.000  1.00  0.00     0.002 A 
ATOM     68  C   UNL     1      10.604  -4.957   0.711  1.00  0.00     0.091 A 
ATOM     69  F   UNL     1       9.436  -6.676   1.790  1.00  0.00    -0.205 F 
ATOM     70  C   UNL     1      11.425  -3.831   0.768  1.00  0.00     0.022 A 
BRANCH  68  71
ATOM     71  S   UNL     1      10.245  -5.622  -0.928  1.00  0.00     0.127 S 
ATOM     72  O   UNL     1       9.774  -4.435  -1.644  1.00  0.00    -0.237 OA
ATOM     73  O   UNL     1      11.552  -6.114  -1.360  1.00  0.00    -0.237 OA
ATOM     74  O   UNL     1       9.224  -6.646  -0.740  1.00  0.00    -0.744 OA
ENDBRANCH  68  71
ENDBRANCH  50  64
BRANCH  51  75
ATOM     75  C   UNL     1       4.268  -5.696  10.794  1.00  0.00     0.023 A 
ATOM     76  C   UNL     1       2.966  -5.196  11.046  1.00  0.00     0.012 A 
ATOM     77  C   UNL     1       4.439  -7.080  10.619  1.00  0.00     0.148 A 
ATOM     78  C   UNL     1       1.850  -6.030  10.978  1.00  0.00     0.002 A 
ATOM     79  C   UNL     1       3.318  -7.909  10.560  1.00  0.00     0.091 A 
ATOM     80  F   UNL     1       5.676  -7.556  10.432  1.00  0.00    -0.205 F 
ATOM     81  C   UNL     1       2.024  -7.381  10.698  1.00  0.00     0.022 A 
BRANCH  79  82
ATOM     82  S   UNL     1       3.472  -9.658  10.170  1.00  0.00     0.127 S 
ATOM     83  O   UNL     1       3.565 -10.248  11.501  1.00  0.00    -0.237 OA
ATOM     84  O   UNL     1       2.224  -9.936   9.461  1.00  0.00    -0.237 OA
ATOM     85  O   UNL     1       4.661  -9.744   9.335  1.00  0.00    -0.744 OA
ENDBRANCH  79  82
ENDBRANCH  51  75
BRANCH  63  86
ATOM     86  C   UNL     1      11.374  -5.477   9.663  1.00  0.00     0.023 A 
ATOM     87  C   UNL     1      11.527  -6.458  10.662  1.00  0.00     0.012 A 
ATOM     88  C   UNL     1      12.528  -5.165   8.897  1.00  0.00     0.148 A 
ATOM     89  C   UNL     1      12.764  -7.056  10.931  1.00  0.00     0.002 A 
ATOM     90  C   UNL     1      13.729  -5.845   9.093  1.00  0.00     0.091 A 
ATOM     91  F   UNL     1      12.475  -4.191   7.977  1.00  0.00    -0.205 F 
ATOM     92  C   UNL     1      13.861  -6.768  10.131  1.00  0.00     0.022 A 
BRANCH  90  93
ATOM     93  S   UNL     1      15.082  -5.675   7.920  1.00  0.00     0.127 S 
ATOM     94  O   UNL     1      15.847  -4.569   8.491  1.00  0.00    -0.237 OA
ATOM     95  O   UNL     1      15.743  -6.979   8.004  1.00  0.00    -0.237 OA
ATOM     96  O   UNL     1      14.434  -5.420   6.640  1.00  0.00    -0.744 OA
ENDBRANCH  90  93
ENDBRANCH  63  86
ENDBRANCH  37  38
ENDBRANCH  29  32
ENDBRANCH  27  28
ENDBRANCH  26  27
ENDBRANCH  25  26
ENDBRANCH   1  25
TORSDOF 19
