REMARK SMILES O=C(NCCCCCCNC(=O)[C@@H]1CC=CC[C@H]1C(=O)N1CC[NH+](Cc2ccc3c(c2)OCO3)CC1)c1ccc(-c2c3nc(c(-c4cccc(S(=O)(=O)[O-])c4F)c4ccc([nH]4)c(-c4cccc(S(=O)(=O)[O-])c4F)c4nc(c(-c5cccc(S(=O)(=O)[O-])c5F)c5ccc2[nH]5)C=C4)C=C3)cc1
REMARK SMILES IDX 6 1 5 2 4 3 3 4 1 5 2 6 37 8 38 9 99 10 39 11 98 12 40 13
REMARK SMILES IDX 41 14 42 15 92 16 43 17 97 18 91 19 93 20 44 21 96 22 90 23
REMARK SMILES IDX 89 24 45 26 77 27 57 28 76 29 58 30 61 31 75 32 94 33 59 34
REMARK SMILES IDX 60 35 74 37 95 38 62 39 46 40 47 41 55 42 48 43 50 44 56 45
REMARK SMILES IDX 49 46 51 47 52 48 53 49 54 50 78 51 79 52 87 53 80 54 82 55
REMARK SMILES IDX 88 56 81 57 83 58 84 59 85 60 86 61 63 62 64 63 72 64 65 65
REMARK SMILES IDX 67 66 73 67 66 68 68 69 69 70 70 71 71 72 7 73 8 74 9 75
REMARK SMILES IDX 10 76 11 77 12 79 13 80 14 81 18 82 15 83 17 84 16 85 19 86
REMARK SMILES IDX 20 87 21 88 22 89 36 90 23 91 35 92 24 93 25 95 26 96 27 97
REMARK SMILES IDX 31 98 28 99 30 100 29 101 32 102 34 103 33 104
REMARK H PARENT 3 7 93 25 61 36 10 78 24 94
REMARK Flexibility Score: inf
ROOT
ATOM      1  C   UNL     1       7.887  10.957   1.403  1.00  0.00     0.002 C 
ENDROOT
BRANCH   1   2
ATOM      2  C   UNL     1       6.178  11.847   0.273  1.00  0.00     0.021 C 
BRANCH   2   3
ATOM      3  C   UNL     1       4.823  12.641   0.843  1.00  0.00     0.116 C 
BRANCH   3   4
ATOM      4  N   UNL     1       5.009  14.034   1.233  1.00  0.00    -0.352 N 
ATOM      5  O   UNL     1       4.601  16.248   0.886  1.00  0.00    -0.269 OA
ATOM      6  C   UNL     1       4.255  15.084   0.760  1.00  0.00     0.251 C 
ATOM      7  H   UNL     1       5.724  14.238   1.879  1.00  0.00     0.163 HD
BRANCH   6   8
ATOM      8  C   UNL     1       2.978  14.687   0.142  1.00  0.00     0.039 A 
ATOM      9  C   UNL     1       2.178  13.820   0.898  1.00  0.00     0.014 A 
ATOM     10  C   UNL     1       2.706  14.953  -1.198  1.00  0.00     0.014 A 
ATOM     11  C   UNL     1       1.165  13.119   0.279  1.00  0.00     0.010 A 
ATOM     12  C   UNL     1       1.580  14.366  -1.774  1.00  0.00     0.010 A 
ATOM     13  C   UNL     1       0.796  13.466  -1.028  1.00  0.00    -0.014 A 
BRANCH  13  14
ATOM     14  C   UNL     1      -0.561  13.084  -1.472  1.00  0.00     0.031 A 
ATOM     15  C   UNL     1      -0.799  12.239  -2.679  1.00  0.00     0.074 A 
ATOM     16  C   UNL     1      -1.580  13.592  -0.747  1.00  0.00     0.049 A 
ATOM     17  N   UNL     1      -1.941  11.914  -3.223  1.00  0.00    -0.248 NA
ATOM     18  C   UNL     1       0.377  11.695  -3.378  1.00  0.00     0.031 C 
ATOM     19  C   UNL     1      -1.425  14.469   0.424  1.00  0.00     0.029 A 
ATOM     20  N   UNL     1      -2.936  13.471  -0.880  1.00  0.00    -0.354 N 
ATOM     21  C   UNL     1      -1.629  11.186  -4.362  1.00  0.00     0.074 A 
ATOM     22  C   UNL     1      -0.185  11.085  -4.416  1.00  0.00     0.031 C 
ATOM     23  C   UNL     1      -2.627  14.781   0.915  1.00  0.00     0.029 A 
ATOM     24  C   UNL     1      -3.635  14.233   0.028  1.00  0.00     0.049 A 
ATOM     25  H   UNL     1      -3.367  12.899  -1.555  1.00  0.00     0.167 HD
ATOM     26  C   UNL     1      -2.484  10.668  -5.274  1.00  0.00     0.034 A 
ATOM     27  C   UNL     1      -4.943  14.530   0.099  1.00  0.00     0.034 A 
ATOM     28  C   UNL     1      -3.917  10.771  -5.173  1.00  0.00     0.049 A 
ATOM     29  C   UNL     1      -5.847  13.937  -0.932  1.00  0.00     0.074 A 
ATOM     30  C   UNL     1      -4.877  10.204  -5.992  1.00  0.00     0.029 A 
ATOM     31  N   UNL     1      -4.596  11.512  -4.216  1.00  0.00    -0.354 N 
ATOM     32  N   UNL     1      -5.547  13.130  -1.919  1.00  0.00    -0.248 NA
ATOM     33  C   UNL     1      -7.269  14.280  -0.835  1.00  0.00     0.031 C 
ATOM     34  C   UNL     1      -6.132  10.642  -5.561  1.00  0.00     0.029 A 
ATOM     35  C   UNL     1      -5.959  11.446  -4.446  1.00  0.00     0.049 A 
ATOM     36  H   UNL     1      -4.170  12.011  -3.481  1.00  0.00     0.167 HD
ATOM     37  C   UNL     1      -6.745  12.856  -2.558  1.00  0.00     0.074 A 
ATOM     38  C   UNL     1      -7.780  13.550  -1.815  1.00  0.00     0.031 C 
ATOM     39  C   UNL     1      -6.969  12.120  -3.671  1.00  0.00     0.034 A 
BRANCH  26  40
ATOM     40  C   UNL     1      -1.919   9.945  -6.467  1.00  0.00     0.023 A 
ATOM     41  C   UNL     1      -1.391   8.648  -6.324  1.00  0.00     0.012 A 
ATOM     42  C   UNL     1      -2.037  10.508  -7.755  1.00  0.00     0.148 A 
ATOM     43  C   UNL     1      -0.981   7.923  -7.444  1.00  0.00     0.002 A 
ATOM     44  C   UNL     1      -1.666   9.764  -8.868  1.00  0.00     0.091 A 
ATOM     45  F   UNL     1      -2.526  11.751  -7.865  1.00  0.00    -0.205 F 
ATOM     46  C   UNL     1      -1.131   8.475  -8.714  1.00  0.00     0.022 A 
BRANCH  44  47
ATOM     47  S   UNL     1      -1.897  10.350 -10.551  1.00  0.00     0.127 S 
ATOM     48  O   UNL     1      -0.515  10.449 -11.020  1.00  0.00    -0.237 OA
ATOM     49  O   UNL     1      -2.667   9.260 -11.149  1.00  0.00    -0.237 OA
ATOM     50  O   UNL     1      -2.606  11.617 -10.445  1.00  0.00    -0.744 OA
ENDBRANCH  44  47
ENDBRANCH  26  40
BRANCH  27  51
ATOM     51  C   UNL     1      -5.442  15.456   1.151  1.00  0.00     0.023 A 
ATOM     52  C   UNL     1      -6.300  14.972   2.154  1.00  0.00     0.012 A 
ATOM     53  C   UNL     1      -5.043  16.809   1.179  1.00  0.00     0.148 A 
ATOM     54  C   UNL     1      -6.786  15.828   3.143  1.00  0.00     0.002 A 
ATOM     55  C   UNL     1      -5.475  17.637   2.205  1.00  0.00     0.091 A 
ATOM     56  F   UNL     1      -4.229  17.255   0.211  1.00  0.00    -0.205 F 
ATOM     57  C   UNL     1      -6.366  17.155   3.175  1.00  0.00     0.022 A 
BRANCH  55  58
ATOM     58  S   UNL     1      -4.857  19.312   2.404  1.00  0.00     0.127 S 
ATOM     59  O   UNL     1      -5.991  20.105   1.940  1.00  0.00    -0.237 OA
ATOM     60  O   UNL     1      -4.608  19.376   3.845  1.00  0.00    -0.237 OA
ATOM     61  O   UNL     1      -3.652  19.381   1.588  1.00  0.00    -0.744 OA
ENDBRANCH  55  58
ENDBRANCH  27  51
BRANCH  39  62
ATOM     62  C   UNL     1      -8.394  12.016  -4.136  1.00  0.00     0.023 A 
ATOM     63  C   UNL     1      -9.023  13.134  -4.718  1.00  0.00     0.012 A 
ATOM     64  C   UNL     1      -9.090  10.797  -4.038  1.00  0.00     0.148 A 
ATOM     65  C   UNL     1     -10.339  13.049  -5.165  1.00  0.00     0.002 A 
ATOM     66  C   UNL     1     -10.381  10.704  -4.537  1.00  0.00     0.091 A 
ATOM     67  F   UNL     1      -8.474   9.754  -3.462  1.00  0.00    -0.205 F 
ATOM     68  C   UNL     1     -11.013  11.832  -5.086  1.00  0.00     0.022 A 
BRANCH  66  69
ATOM     69  S   UNL     1     -11.292   9.159  -4.568  1.00  0.00     0.127 S 
ATOM     70  O   UNL     1     -12.369   9.430  -3.616  1.00  0.00    -0.237 OA
ATOM     71  O   UNL     1     -11.716   9.080  -5.965  1.00  0.00    -0.237 OA
ATOM     72  O   UNL     1     -10.351   8.125  -4.159  1.00  0.00    -0.744 OA
ENDBRANCH  66  69
ENDBRANCH  39  62
ENDBRANCH  13  14
ENDBRANCH   6   8
ENDBRANCH   3   4
ENDBRANCH   2   3
ENDBRANCH   1   2
BRANCH   1  73
ATOM     73  C   UNL     1       8.237  11.017   3.102  1.00  0.00     0.002 C 
BRANCH  73  74
ATOM     74  C   UNL     1       7.863   9.755   3.883  1.00  0.00     0.021 C 
BRANCH  74  75
ATOM     75  C   UNL     1       8.512   8.480   3.374  1.00  0.00     0.116 C 
BRANCH  75  76
ATOM     76  N   UNL     1       9.812   8.189   3.904  1.00  0.00    -0.356 N 
ATOM     77  C   UNL     1      10.296   6.948   4.201  1.00  0.00     0.224 C 
ATOM     78  H   UNL     1      10.409   8.954   4.069  1.00  0.00     0.163 HD
ATOM     79  O   UNL     1      11.489   6.864   4.498  1.00  0.00    -0.275 OA
BRANCH  77  80
ATOM     80  C   UNL     1       9.350   5.722   4.190  1.00  0.00     0.095 C 
ATOM     81  C   UNL     1       9.868   4.770   5.293  1.00  0.00     0.041 C 
ATOM     82  C   UNL     1       9.282   5.051   2.799  1.00  0.00     0.095 C 
ATOM     83  C   UNL     1       9.381   3.363   5.202  1.00  0.00    -0.030 C 
ATOM     84  C   UNL     1       8.847   3.567   2.780  1.00  0.00     0.041 C 
ATOM     85  C   UNL     1       8.938   2.823   4.066  1.00  0.00    -0.030 C 
BRANCH  82  86
ATOM     86  C   UNL     1       8.471   5.733   1.680  1.00  0.00     0.227 C 
ATOM     87  O   UNL     1       9.080   6.266   0.746  1.00  0.00    -0.275 OA
ATOM     88  N   UNL     1       7.080   5.562   1.628  1.00  0.00    -0.331 N 
ATOM     89  C   UNL     1       6.512   5.470   0.281  1.00  0.00     0.181 C 
ATOM     90  C   UNL     1       6.200   6.117   2.656  1.00  0.00     0.181 C 
ATOM     91  C   UNL     1       4.991   5.222   0.214  1.00  0.00     0.284 C 
ATOM     92  C   UNL     1       4.702   5.811   2.519  1.00  0.00     0.284 C 
ATOM     93  N   UNL     1       4.167   5.968   1.169  1.00  0.00    -0.328 N 
ATOM     94  H   UNL     1       3.245   5.531   1.164  1.00  0.00     0.348 HD
BRANCH  93  95
ATOM     95  C   UNL     1       3.740   7.318   0.773  1.00  0.00     0.299 C 
BRANCH  95  96
ATOM     96  C   UNL     1       4.816   8.395   0.585  1.00  0.00     0.010 A 
ATOM     97  C   UNL     1       5.568   8.378  -0.747  1.00  0.00     0.013 A 
ATOM     98  C   UNL     1       5.013   9.344   1.634  1.00  0.00     0.060 A 
ATOM     99  C   UNL     1       6.673   9.173  -1.175  1.00  0.00     0.051 A 
ATOM    100  C   UNL     1       6.066  10.138   1.319  1.00  0.00     0.166 A 
ATOM    101  C   UNL     1       6.990  10.033  -0.187  1.00  0.00     0.165 A 
ATOM    102  O   UNL     1       6.372  11.765   2.119  1.00  0.00    -0.454 OA
ATOM    103  O   UNL     1       7.948  11.547  -0.439  1.00  0.00    -0.454 OA
ATOM    104  C   UNL     1       7.624  12.769   1.025  1.00  0.00     0.468 C 
ENDBRANCH  95  96
ENDBRANCH  93  95
ENDBRANCH  82  86
ENDBRANCH  77  80
ENDBRANCH  75  76
ENDBRANCH  74  75
ENDBRANCH  73  74
ENDBRANCH   1  73
TORSDOF 19
