REMARK SMILES Cc1csc(NC(=O)[C@@H]2CC=CC[C@H]2C(=O)NCCCCCCNC(=O)c2ccc(-c3c4nc(c(-c5cccc(S(=O)(=O)[O-])c5F)c5ccc([nH]5)c(-c5cccc(S(=O)(=O)[O-])c5F)c5nc(c(-c6cccc(S(=O)(=O)[O-])c6F)c6ccc3[nH]6)C=C5)C=C4)cc2)n1
REMARK SMILES IDX 21 1 20 2 19 3 18 4 17 5 15 6 16 7 14 9 9 10 10 11 11 12
REMARK SMILES IDX 13 13 12 14 7 15 6 16 8 18 5 19 1 20 2 21 3 22 90 23 4 24
REMARK SMILES IDX 22 25 23 26 24 27 25 28 26 30 27 31 28 32 89 33 29 34 88 35
REMARK SMILES IDX 30 36 31 37 32 38 82 39 33 40 87 41 81 42 83 43 34 44 86 45
REMARK SMILES IDX 80 46 79 47 35 49 67 50 47 51 66 52 48 53 51 54 65 55 84 56
REMARK SMILES IDX 49 57 50 58 64 60 85 61 52 62 36 63 37 64 45 65 38 66 40 67
REMARK SMILES IDX 46 68 39 69 41 70 42 71 43 72 44 73 68 74 69 75 77 76 70 77
REMARK SMILES IDX 72 78 78 79 71 80 73 81 74 82 75 83 76 84 53 85 54 86 62 87
REMARK SMILES IDX 55 88 57 89 63 90 56 91 58 92 59 93 60 94 61 95
REMARK H PARENT 17 8 6 17 24 29 83 48 51 59
REMARK Flexibility Score: inf
ROOT
ATOM      1  C   UNL     1       4.233   0.895  -1.522  1.00  0.00     0.002 C 
ENDROOT
BRANCH   1   2
ATOM      2  C   UNL     1       3.293   0.944  -0.312  1.00  0.00     0.002 C 
BRANCH   2   3
ATOM      3  C   UNL     1       2.479   2.237  -0.192  1.00  0.00     0.021 C 
BRANCH   3   4
ATOM      4  C   UNL     1       1.627   2.520  -1.426  1.00  0.00     0.116 C 
BRANCH   4   5
ATOM      5  N   UNL     1       0.539   1.564  -1.513  1.00  0.00    -0.356 N 
ATOM      6  C   UNL     1      -0.809   1.746  -1.486  1.00  0.00     0.224 C 
ATOM      7  O   UNL     1      -1.527   0.756  -1.651  1.00  0.00    -0.275 OA
ATOM      8  H   UNL     1       0.823   0.626  -1.608  1.00  0.00     0.163 HD
BRANCH   6   9
ATOM      9  C   UNL     1      -1.412   3.145  -1.412  1.00  0.00     0.095 C 
ATOM     10  C   UNL     1      -1.043   3.959  -0.129  1.00  0.00     0.095 C 
ATOM     11  C   UNL     1      -1.272   5.449  -0.372  1.00  0.00     0.041 C 
ATOM     12  C   UNL     1      -0.949   6.007  -1.715  1.00  0.00    -0.030 C 
ATOM     13  C   UNL     1      -1.123   3.790  -2.792  1.00  0.00     0.041 C 
ATOM     14  C   UNL     1      -0.886   5.258  -2.813  1.00  0.00    -0.030 C 
BRANCH  10  15
ATOM     15  C   UNL     1      -1.715   3.298   1.112  1.00  0.00     0.230 C 
ATOM     16  N   UNL     1      -2.208   3.874   2.235  1.00  0.00    -0.302 N 
ATOM     17  H   UNL     1      -2.491   3.233   2.926  1.00  0.00     0.172 HD
ATOM     18  O   UNL     1      -1.759   2.056   1.156  1.00  0.00    -0.274 OA
BRANCH  16  19
ATOM     19  C   UNL     1      -2.384   5.176   2.579  1.00  0.00     0.189 A 
ATOM     20  C   UNL     1      -2.468   8.606   1.643  1.00  0.00     0.068 C 
ATOM     21  C   UNL     1      -2.627   7.363   2.438  1.00  0.00     0.051 A 
ATOM     22  C   UNL     1      -3.384   7.136   3.570  1.00  0.00     0.092 A 
ATOM     23  N   UNL     1      -1.986   6.245   1.965  1.00  0.00    -0.225 NA
ATOM     24  S   UNL     1      -3.337   5.456   3.969  1.00  0.00    -0.105 S 
ENDBRANCH  16  19
ENDBRANCH  10  15
ENDBRANCH   6   9
ENDBRANCH   4   5
ENDBRANCH   3   4
ENDBRANCH   2   3
ENDBRANCH   1   2
BRANCH   1  25
ATOM     25  C   UNL     1       5.207   2.072  -1.618  1.00  0.00     0.021 C 
BRANCH  25  26
ATOM     26  C   UNL     1       6.111   2.231  -0.402  1.00  0.00     0.116 C 
BRANCH  26  27
ATOM     27  N   UNL     1       6.950   1.059  -0.200  1.00  0.00    -0.352 N 
ATOM     28  C   UNL     1       8.315   0.984  -0.084  1.00  0.00     0.251 C 
ATOM     29  H   UNL     1       6.472   0.201  -0.138  1.00  0.00     0.163 HD
ATOM     30  O   UNL     1       8.881  -0.101  -0.142  1.00  0.00    -0.269 OA
BRANCH  28  31
ATOM     31  C   UNL     1       9.096   2.225   0.099  1.00  0.00     0.039 A 
ATOM     32  C   UNL     1      10.262   2.409  -0.646  1.00  0.00     0.014 A 
ATOM     33  C   UNL     1       8.673   3.203   1.004  1.00  0.00     0.014 A 
ATOM     34  C   UNL     1      10.980   3.599  -0.517  1.00  0.00     0.010 A 
ATOM     35  C   UNL     1       9.344   4.419   1.070  1.00  0.00     0.010 A 
ATOM     36  C   UNL     1      10.512   4.624   0.321  1.00  0.00    -0.014 A 
BRANCH  36  37
ATOM     37  C   UNL     1      11.229   5.920   0.426  1.00  0.00     0.031 A 
ATOM     38  C   UNL     1      11.812   6.358   1.742  1.00  0.00     0.074 A 
ATOM     39  C   UNL     1      11.283   6.738  -0.643  1.00  0.00     0.049 A 
ATOM     40  N   UNL     1      12.433   7.470   2.038  1.00  0.00    -0.248 NA
ATOM     41  C   UNL     1      11.653   5.439   2.881  1.00  0.00     0.031 C 
ATOM     42  C   UNL     1      10.688   6.459  -1.952  1.00  0.00     0.029 A 
ATOM     43  N   UNL     1      11.844   7.981  -0.791  1.00  0.00    -0.354 N 
ATOM     44  C   UNL     1      12.704   7.402   3.400  1.00  0.00     0.074 A 
ATOM     45  C   UNL     1      12.147   6.156   3.879  1.00  0.00     0.031 C 
ATOM     46  C   UNL     1      10.925   7.495  -2.771  1.00  0.00     0.029 A 
ATOM     47  C   UNL     1      11.657   8.525  -2.040  1.00  0.00     0.049 A 
ATOM     48  H   UNL     1      12.335   8.440  -0.071  1.00  0.00     0.167 HD
ATOM     49  C   UNL     1      13.380   8.282   4.176  1.00  0.00     0.034 A 
ATOM     50  C   UNL     1      12.025   9.721  -2.538  1.00  0.00     0.034 A 
ATOM     51  C   UNL     1      13.961   9.503   3.687  1.00  0.00     0.049 A 
ATOM     52  C   UNL     1      12.800  10.669  -1.665  1.00  0.00     0.074 A 
ATOM     53  C   UNL     1      14.743  10.418   4.369  1.00  0.00     0.029 A 
ATOM     54  N   UNL     1      13.813   9.989   2.397  1.00  0.00    -0.354 N 
ATOM     55  N   UNL     1      13.186  10.517  -0.421  1.00  0.00    -0.248 NA
ATOM     56  C   UNL     1      13.220  11.939  -2.273  1.00  0.00     0.031 C 
ATOM     57  C   UNL     1      15.036  11.475   3.501  1.00  0.00     0.029 A 
ATOM     58  C   UNL     1      14.472  11.199   2.266  1.00  0.00     0.049 A 
ATOM     59  H   UNL     1      13.312   9.539   1.678  1.00  0.00     0.167 HD
ATOM     60  C   UNL     1      13.925  11.652  -0.109  1.00  0.00     0.074 A 
ATOM     61  C   UNL     1      13.948  12.475  -1.302  1.00  0.00     0.031 C 
ATOM     62  C   UNL     1      14.523  11.988   1.061  1.00  0.00     0.034 A 
BRANCH  49  63
ATOM     63  C   UNL     1      13.559   7.933   5.632  1.00  0.00     0.023 A 
ATOM     64  C   UNL     1      14.399   6.860   5.997  1.00  0.00     0.012 A 
ATOM     65  C   UNL     1      12.928   8.687   6.640  1.00  0.00     0.148 A 
ATOM     66  C   UNL     1      14.571   6.514   7.337  1.00  0.00     0.002 A 
ATOM     67  C   UNL     1      13.143   8.368   7.976  1.00  0.00     0.091 A 
ATOM     68  F   UNL     1      12.116   9.690   6.276  1.00  0.00    -0.205 F 
ATOM     69  C   UNL     1      13.951   7.274   8.326  1.00  0.00     0.022 A 
BRANCH  67  70
ATOM     70  S   UNL     1      12.458   9.336   9.325  1.00  0.00     0.127 S 
ATOM     71  O   UNL     1      11.434   8.431   9.846  1.00  0.00    -0.237 OA
ATOM     72  O   UNL     1      13.618   9.511  10.199  1.00  0.00    -0.237 OA
ATOM     73  O   UNL     1      11.960  10.565   8.724  1.00  0.00    -0.744 OA
ENDBRANCH  67  70
ENDBRANCH  49  63
BRANCH  50  74
ATOM     74  C   UNL     1      11.722  10.057  -3.958  1.00  0.00     0.023 A 
ATOM     75  C   UNL     1      12.773  10.119  -4.893  1.00  0.00     0.012 A 
ATOM     76  C   UNL     1      10.401  10.277  -4.393  1.00  0.00     0.148 A 
ATOM     77  C   UNL     1      12.518  10.422  -6.231  1.00  0.00     0.002 A 
ATOM     78  C   UNL     1      10.147  10.524  -5.736  1.00  0.00     0.091 A 
ATOM     79  F   UNL     1       9.417  10.219  -3.485  1.00  0.00    -0.205 F 
ATOM     80  C   UNL     1      11.206  10.615  -6.654  1.00  0.00     0.022 A 
BRANCH  78  81
ATOM     81  S   UNL     1       8.483  10.657  -6.397  1.00  0.00     0.127 S 
ATOM     82  O   UNL     1       8.435  12.059  -6.807  1.00  0.00    -0.237 OA
ATOM     83  O   UNL     1       8.519   9.693  -7.497  1.00  0.00    -0.237 OA
ATOM     84  O   UNL     1       7.592  10.291  -5.304  1.00  0.00    -0.744 OA
ENDBRANCH  78  81
ENDBRANCH  50  74
BRANCH  62  85
ATOM     85  C   UNL     1      15.289  13.285   1.108  1.00  0.00     0.023 A 
ATOM     86  C   UNL     1      14.599  14.513   1.095  1.00  0.00     0.012 A 
ATOM     87  C   UNL     1      16.692  13.282   1.241  1.00  0.00     0.148 A 
ATOM     88  C   UNL     1      15.296  15.718   1.178  1.00  0.00     0.002 A 
ATOM     89  C   UNL     1      17.375  14.484   1.376  1.00  0.00     0.091 A 
ATOM     90  F   UNL     1      17.333  12.104   1.234  1.00  0.00    -0.205 F 
ATOM     91  C   UNL     1      16.680  15.704   1.330  1.00  0.00     0.022 A 
BRANCH  89  92
ATOM     92  S   UNL     1      19.144  14.560   1.677  1.00  0.00     0.127 S 
ATOM     93  O   UNL     1      19.641  15.085   0.406  1.00  0.00    -0.237 OA
ATOM     94  O   UNL     1      19.227  15.498   2.798  1.00  0.00    -0.237 OA
ATOM     95  O   UNL     1      19.558  13.200   1.995  1.00  0.00    -0.744 OA
ENDBRANCH  89  92
ENDBRANCH  62  85
ENDBRANCH  36  37
ENDBRANCH  28  31
ENDBRANCH  26  27
ENDBRANCH  25  26
ENDBRANCH   1  25
TORSDOF 18
