REMARK SMILES COc1cc(/C=C/C(=O)NCCCCCCNC(=O)c2ccc(-c3c4nc(c(-c5cccc(S(=O)(=O)[O-])c5F)c5ccc([nH]5)c(-c5cccc(S(=O)(=O)[O-])c5F)c5nc(c(-c6cccc(S(=O)(=O)[O-])c6F)c6ccc3[nH]6)C=C5)C=C4)cc2)cc(OC)c1O
REMARK SMILES IDX 14 1 13 2 12 3 11 4 10 5 8 6 9 7 7 9 6 10 5 11 3 12 4 13
REMARK SMILES IDX 87 14 84 15 83 16 2 17 1 18 88 19 85 21 86 22 15 23 16 24
REMARK SMILES IDX 17 25 18 26 19 28 20 29 21 30 82 31 22 32 81 33 23 34 24 35
REMARK SMILES IDX 25 36 75 37 26 38 80 39 74 40 76 41 27 42 79 43 73 44 72 45
REMARK SMILES IDX 28 47 60 48 40 49 59 50 41 51 44 52 58 53 77 54 42 55 43 56
REMARK SMILES IDX 57 58 78 59 45 60 29 61 30 62 38 63 31 64 33 65 39 66 32 67
REMARK SMILES IDX 34 68 35 69 36 70 37 71 61 72 62 73 70 74 63 75 65 76 71 77
REMARK SMILES IDX 64 78 66 79 67 80 68 81 69 82 46 83 47 84 55 85 48 86 50 87
REMARK SMILES IDX 56 88 49 89 51 90 52 91 53 92 54 93
REMARK H PARENT 10 8 88 20 17 27 76 46 44 57
REMARK Flexibility Score: inf
ROOT
ATOM      1  C   UNL     1      -3.277  -2.905  10.857  1.00  0.00     0.002 C 
ENDROOT
BRANCH   1   2
ATOM      2  C   UNL     1      -1.883  -2.361  10.518  1.00  0.00     0.002 C 
BRANCH   2   3
ATOM      3  C   UNL     1      -1.506  -2.433   9.031  1.00  0.00     0.021 C 
BRANCH   3   4
ATOM      4  C   UNL     1      -2.430  -1.614   8.129  1.00  0.00     0.116 C 
BRANCH   4   5
ATOM      5  N   UNL     1      -2.101  -0.203   8.226  1.00  0.00    -0.353 N 
ATOM      6  C   UNL     1      -1.597   0.666   7.314  1.00  0.00     0.243 C 
ATOM      7  O   UNL     1      -1.442   1.846   7.625  1.00  0.00    -0.270 OA
ATOM      8  H   UNL     1      -2.274   0.194   9.110  1.00  0.00     0.163 HD
BRANCH   6   9
ATOM      9  C   UNL     1      -1.317   0.250   5.921  1.00  0.00     0.072 C 
ATOM     10  C   UNL     1      -0.685  -0.874   5.551  1.00  0.00     0.014 C 
BRANCH  10  11
ATOM     11  C   UNL     1      -0.411  -1.230   4.152  1.00  0.00    -0.018 A 
ATOM     12  C   UNL     1       0.383  -0.669   1.915  1.00  0.00     0.165 A 
ATOM     13  C   UNL     1       0.036  -0.291   3.219  1.00  0.00     0.058 A 
ATOM     14  C   UNL     1       0.298  -2.022   1.545  1.00  0.00     0.200 A 
ATOM     15  C   UNL     1      -0.177  -2.975   2.457  1.00  0.00     0.165 A 
ATOM     16  C   UNL     1      -0.522  -2.565   3.754  1.00  0.00     0.058 A 
BRANCH  12  17
ATOM     17  O   UNL     1       0.835   0.384   1.163  1.00  0.00    -0.493 OA
ATOM     18  C   UNL     1       0.859   0.252  -0.251  1.00  0.00     0.278 C 
ENDBRANCH  12  17
BRANCH  14  19
ATOM     19  O   UNL     1       0.764  -2.423   0.325  1.00  0.00    -0.502 OA
ATOM     20  H   UNL     1       1.082  -1.789  -0.288  1.00  0.00     0.293 HD
ENDBRANCH  14  19
BRANCH  15  21
ATOM     21  O   UNL     1      -0.312  -4.327   2.288  1.00  0.00    -0.493 OA
ATOM     22  C   UNL     1      -0.065  -4.895   1.011  1.00  0.00     0.278 C 
ENDBRANCH  15  21
ENDBRANCH  10  11
ENDBRANCH   6   9
ENDBRANCH   4   5
ENDBRANCH   3   4
ENDBRANCH   2   3
ENDBRANCH   1   2
BRANCH   1  23
ATOM     23  C   UNL     1      -3.548  -4.334  10.376  1.00  0.00     0.021 C 
BRANCH  23  24
ATOM     24  C   UNL     1      -2.601  -5.382  10.952  1.00  0.00     0.116 C 
BRANCH  24  25
ATOM     25  N   UNL     1      -2.735  -5.491  12.397  1.00  0.00    -0.352 N 
ATOM     26  C   UNL     1      -3.050  -6.588  13.159  1.00  0.00     0.251 C 
ATOM     27  H   UNL     1      -2.578  -4.659  12.899  1.00  0.00     0.163 HD
ATOM     28  O   UNL     1      -3.354  -6.450  14.339  1.00  0.00    -0.269 OA
BRANCH  26  29
ATOM     29  C   UNL     1      -3.029  -7.935  12.549  1.00  0.00     0.039 A 
ATOM     30  C   UNL     1      -4.076  -8.820  12.820  1.00  0.00     0.014 A 
ATOM     31  C   UNL     1      -1.970  -8.327  11.725  1.00  0.00     0.014 A 
ATOM     32  C   UNL     1      -4.085 -10.082  12.222  1.00  0.00     0.010 A 
ATOM     33  C   UNL     1      -2.017  -9.557  11.075  1.00  0.00     0.010 A 
ATOM     34  C   UNL     1      -3.070 -10.450  11.323  1.00  0.00    -0.014 A 
BRANCH  34  35
ATOM     35  C   UNL     1      -3.097 -11.760  10.624  1.00  0.00     0.031 A 
ATOM     36  C   UNL     1      -2.007 -12.770  10.862  1.00  0.00     0.074 A 
ATOM     37  C   UNL     1      -4.056 -12.004   9.709  1.00  0.00     0.049 A 
ATOM     38  N   UNL     1      -1.832 -13.940  10.304  1.00  0.00    -0.248 NA
ATOM     39  C   UNL     1      -0.963 -12.408  11.834  1.00  0.00     0.031 C 
ATOM     40  C   UNL     1      -5.122 -11.072   9.334  1.00  0.00     0.029 A 
ATOM     41  N   UNL     1      -4.274 -13.097   8.909  1.00  0.00    -0.354 N 
ATOM     42  C   UNL     1      -0.645 -14.438  10.828  1.00  0.00     0.074 A 
ATOM     43  C   UNL     1      -0.124 -13.428  11.723  1.00  0.00     0.031 C 
ATOM     44  C   UNL     1      -5.881 -11.634   8.380  1.00  0.00     0.029 A 
ATOM     45  C   UNL     1      -5.341 -12.950   8.054  1.00  0.00     0.049 A 
ATOM     46  H   UNL     1      -3.718 -13.909   8.943  1.00  0.00     0.167 HD
ATOM     47  C   UNL     1      -0.057 -15.638  10.608  1.00  0.00     0.034 A 
ATOM     48  C   UNL     1      -5.826 -13.778   7.108  1.00  0.00     0.034 A 
ATOM     49  C   UNL     1      -0.600 -16.654   9.747  1.00  0.00     0.049 A 
ATOM     50  C   UNL     1      -5.173 -15.119   6.908  1.00  0.00     0.074 A 
ATOM     51  C   UNL     1      -0.129 -17.936   9.525  1.00  0.00     0.029 A 
ATOM     52  N   UNL     1      -1.730 -16.502   8.958  1.00  0.00    -0.354 N 
ATOM     53  N   UNL     1      -4.143 -15.637   7.531  1.00  0.00    -0.248 NA
ATOM     54  C   UNL     1      -5.772 -16.005   5.899  1.00  0.00     0.031 C 
ATOM     55  C   UNL     1      -0.960 -18.550   8.582  1.00  0.00     0.029 A 
ATOM     56  C   UNL     1      -1.965 -17.661   8.239  1.00  0.00     0.049 A 
ATOM     57  H   UNL     1      -2.284 -15.689   8.916  1.00  0.00     0.167 HD
ATOM     58  C   UNL     1      -3.991 -16.920   7.017  1.00  0.00     0.074 A 
ATOM     59  C   UNL     1      -5.050 -17.108   6.046  1.00  0.00     0.031 C 
ATOM     60  C   UNL     1      -3.052 -17.852   7.312  1.00  0.00     0.034 A 
BRANCH  47  61
ATOM     61  C   UNL     1       1.220 -15.938  11.351  1.00  0.00     0.023 A 
ATOM     62  C   UNL     1       1.177 -16.165  12.742  1.00  0.00     0.012 A 
ATOM     63  C   UNL     1       2.449 -16.048  10.672  1.00  0.00     0.148 A 
ATOM     64  C   UNL     1       2.341 -16.458  13.452  1.00  0.00     0.002 A 
ATOM     65  C   UNL     1       3.598 -16.387  11.378  1.00  0.00     0.091 A 
ATOM     66  F   UNL     1       2.475 -15.809   9.353  1.00  0.00    -0.205 F 
ATOM     67  C   UNL     1       3.548 -16.579  12.769  1.00  0.00     0.022 A 
BRANCH  65  68
ATOM     68  S   UNL     1       5.186 -16.645  10.579  1.00  0.00     0.127 S 
ATOM     69  O   UNL     1       5.932 -15.467  11.020  1.00  0.00    -0.237 OA
ATOM     70  O   UNL     1       5.629 -17.905  11.175  1.00  0.00    -0.237 OA
ATOM     71  O   UNL     1       4.910 -16.712   9.151  1.00  0.00    -0.744 OA
ENDBRANCH  65  68
ENDBRANCH  47  61
BRANCH  48  72
ATOM     72  C   UNL     1      -7.033 -13.388   6.326  1.00  0.00     0.023 A 
ATOM     73  C   UNL     1      -8.249 -14.061   6.553  1.00  0.00     0.012 A 
ATOM     74  C   UNL     1      -6.992 -12.339   5.388  1.00  0.00     0.148 A 
ATOM     75  C   UNL     1      -9.396 -13.717   5.837  1.00  0.00     0.002 A 
ATOM     76  C   UNL     1      -8.151 -11.965   4.718  1.00  0.00     0.091 A 
ATOM     77  F   UNL     1      -5.822 -11.719   5.179  1.00  0.00    -0.205 F 
ATOM     78  C   UNL     1      -9.350 -12.664   4.928  1.00  0.00     0.022 A 
BRANCH  76  79
ATOM     79  S   UNL     1      -8.217 -10.538   3.629  1.00  0.00     0.127 S 
ATOM     80  O   UNL     1      -8.373 -11.167   2.320  1.00  0.00    -0.237 OA
ATOM     81  O   UNL     1      -9.403  -9.837   4.122  1.00  0.00    -0.237 OA
ATOM     82  O   UNL     1      -6.966  -9.823   3.842  1.00  0.00    -0.744 OA
ENDBRANCH  76  79
ENDBRANCH  48  72
BRANCH  60  83
ATOM     83  C   UNL     1      -3.139 -19.179   6.603  1.00  0.00     0.023 A 
ATOM     84  C   UNL     1      -2.804 -19.268   5.237  1.00  0.00     0.012 A 
ATOM     85  C   UNL     1      -3.483 -20.349   7.309  1.00  0.00     0.148 A 
ATOM     86  C   UNL     1      -2.842 -20.495   4.577  1.00  0.00     0.002 A 
ATOM     87  C   UNL     1      -3.470 -21.576   6.656  1.00  0.00     0.091 A 
ATOM     88  F   UNL     1      -3.817 -20.241   8.603  1.00  0.00    -0.205 F 
ATOM     89  C   UNL     1      -3.163 -21.649   5.288  1.00  0.00     0.022 A 
BRANCH  87  90
ATOM     90  S   UNL     1      -3.774 -23.126   7.513  1.00  0.00     0.127 S 
ATOM     91  O   UNL     1      -5.098 -23.489   7.009  1.00  0.00    -0.237 OA
ATOM     92  O   UNL     1      -2.683 -23.969   7.025  1.00  0.00    -0.237 OA
ATOM     93  O   UNL     1      -3.709 -22.818   8.935  1.00  0.00    -0.744 OA
ENDBRANCH  87  90
ENDBRANCH  60  83
ENDBRANCH  34  35
ENDBRANCH  26  29
ENDBRANCH  24  25
ENDBRANCH  23  24
ENDBRANCH   1  23
TORSDOF 20
