REMARK SMILES CC(C)c1ccc2c(c1)c(SC(C)(C)C)c(CC(C)(C)C(=O)NCCCCCCNC(=O)c1ccc(-c3c4nc(c(-c5cccc(S(=O)(=O)[O-])c5F)c5ccc([nH]5)c(-c5cccc(S(=O)(=O)[O-])c5F)c5nc(c(-c6cccc(S(=O)(=O)[O-])c6F)c6ccc3[nH]6)C=C5)C=C4)cc1)n2Cc1ccc(Cl)cc1
REMARK SMILES IDX 26 1 25 2 24 3 23 4 21 5 22 6 18 8 19 9 20 10 17 11 16 12
REMARK SMILES IDX 4 13 5 14 9 15 6 16 8 17 7 18 10 19 96 20 2 21 1 22 3 23
REMARK SMILES IDX 11 24 12 25 13 26 14 27 15 28 97 29 98 30 99 31 104 32
REMARK SMILES IDX 100 33 103 34 101 35 102 36 27 37 28 38 29 39 30 40 31 41
REMARK SMILES IDX 32 43 33 44 34 45 95 46 35 47 94 48 36 49 37 50 38 51 88 52
REMARK SMILES IDX 39 53 93 54 87 55 89 56 40 57 92 58 86 59 85 60 41 62 73 63
REMARK SMILES IDX 53 64 72 65 54 66 57 67 71 68 90 69 55 70 56 71 70 73 91 74
REMARK SMILES IDX 58 75 42 76 43 77 51 78 44 79 46 80 52 81 45 82 47 83 48 84
REMARK SMILES IDX 49 85 50 86 74 87 75 88 83 89 76 90 78 91 84 92 77 93 79 94
REMARK SMILES IDX 80 95 81 96 82 97 59 98 60 99 68 100 61 101 63 102 69 103
REMARK SMILES IDX 62 104 64 105 65 106 66 107 67 108
REMARK H PARENT 23 7 30 42 89 61 57 72
REMARK Flexibility Score: inf
ROOT
ATOM      1  C   UNL     1      -8.220   3.302   8.168  1.00  0.00     0.002 C 
ENDROOT
BRANCH   1   2
ATOM      2  C   UNL     1      -8.338   3.752   6.720  1.00  0.00     0.021 C 
BRANCH   2   3
ATOM      3  C   UNL     1      -7.050   3.494   5.981  1.00  0.00     0.116 C 
BRANCH   3   4
ATOM      4  N   UNL     1      -6.899   2.088   5.644  1.00  0.00    -0.356 N 
ATOM      5  C   UNL     1      -6.620   1.528   4.423  1.00  0.00     0.226 C 
ATOM      6  O   UNL     1      -6.152   0.396   4.419  1.00  0.00    -0.275 OA
ATOM      7  H   UNL     1      -7.010   1.456   6.390  1.00  0.00     0.163 HD
BRANCH   5   8
ATOM      8  C   UNL     1      -6.679   2.436   3.192  1.00  0.00     0.049 C 
ATOM      9  C   UNL     1      -5.345   3.186   3.474  1.00  0.00     0.022 C 
ATOM     10  C   UNL     1      -8.068   3.151   3.199  1.00  0.00     0.022 C 
BRANCH   8  11
ATOM     11  C   UNL     1      -6.676   1.814   1.765  1.00  0.00     0.071 C 
BRANCH  11  12
ATOM     12  C   UNL     1      -5.439   1.162   1.333  1.00  0.00     0.034 A 
ATOM     13  C   UNL     1      -1.122  -0.484   1.214  1.00  0.00    -0.045 A 
ATOM     14  C   UNL     1      -1.824  -1.673   1.425  1.00  0.00     0.006 A 
ATOM     15  C   UNL     1      -1.852   0.699   0.984  1.00  0.00     0.015 A 
ATOM     16  C   UNL     1      -3.223  -1.703   1.470  1.00  0.00     0.027 A 
ATOM     17  C   UNL     1      -3.271   0.711   1.029  1.00  0.00     0.014 A 
ATOM     18  C   UNL     1      -3.929  -0.498   1.312  1.00  0.00     0.050 A 
ATOM     19  C   UNL     1      -4.266   1.751   0.888  1.00  0.00     0.037 A 
ATOM     20  N   UNL     1      -5.286  -0.220   1.400  1.00  0.00    -0.339 N 
BRANCH  13  21
ATOM     21  C   UNL     1       0.397  -0.487   1.278  1.00  0.00     0.013 C 
ATOM     22  C   UNL     1       1.026   0.007  -0.025  1.00  0.00     0.012 C 
ATOM     23  C   UNL     1       0.915   0.320   2.474  1.00  0.00     0.012 C 
ENDBRANCH  13  21
BRANCH  19  24
ATOM     24  S   UNL     1      -3.804   3.434   0.500  1.00  0.00    -0.118 SA
BRANCH  24  25
ATOM     25  C   UNL     1      -5.119   4.754   0.233  1.00  0.00     0.012 C 
ATOM     26  C   UNL     1      -5.903   4.454  -1.049  1.00  0.00     0.023 C 
ATOM     27  C   UNL     1      -6.129   5.230   1.307  1.00  0.00     0.023 C 
ATOM     28  C   UNL     1      -4.268   6.041   0.043  1.00  0.00     0.023 C 
ENDBRANCH  24  25
ENDBRANCH  19  24
BRANCH  20  29
ATOM     29  C   UNL     1      -6.363  -1.253   1.347  1.00  0.00     0.158 C 
BRANCH  29  30
ATOM     30  C   UNL     1      -7.268  -1.443   2.559  1.00  0.00    -0.028 A 
ATOM     31  C   UNL     1      -8.511  -0.783   2.660  1.00  0.00     0.007 A 
ATOM     32  C   UNL     1      -6.887  -2.262   3.636  1.00  0.00     0.007 A 
ATOM     33  C   UNL     1      -9.225  -0.750   3.864  1.00  0.00     0.021 A 
ATOM     34  C   UNL     1      -7.639  -2.287   4.824  1.00  0.00     0.021 A 
ATOM     35  C   UNL     1      -8.769  -1.482   4.952  1.00  0.00     0.041 A 
ATOM     36  Cl  UNL     1      -9.585  -1.362   6.462  1.00  0.00    -0.084 Cl
ENDBRANCH  29  30
ENDBRANCH  20  29
ENDBRANCH  11  12
ENDBRANCH   8  11
ENDBRANCH   5   8
ENDBRANCH   3   4
ENDBRANCH   2   3
ENDBRANCH   1   2
BRANCH   1  37
ATOM     37  C   UNL     1      -7.075   3.986   8.932  1.00  0.00     0.002 C 
BRANCH  37  38
ATOM     38  C   UNL     1      -7.087   5.520   8.857  1.00  0.00     0.021 C 
BRANCH  38  39
ATOM     39  C   UNL     1      -8.443   6.126   9.216  1.00  0.00     0.116 C 
BRANCH  39  40
ATOM     40  N   UNL     1      -8.956   5.638  10.476  1.00  0.00    -0.352 N 
ATOM     41  C   UNL     1      -8.700   5.915  11.786  1.00  0.00     0.251 C 
ATOM     42  H   UNL     1      -9.649   4.948  10.362  1.00  0.00     0.163 HD
ATOM     43  O   UNL     1      -9.324   5.240  12.608  1.00  0.00    -0.269 OA
BRANCH  41  44
ATOM     44  C   UNL     1      -7.698   6.902  12.257  1.00  0.00     0.039 A 
ATOM     45  C   UNL     1      -7.020   7.818  11.450  1.00  0.00     0.014 A 
ATOM     46  C   UNL     1      -7.410   6.868  13.632  1.00  0.00     0.014 A 
ATOM     47  C   UNL     1      -5.998   8.593  11.973  1.00  0.00     0.010 A 
ATOM     48  C   UNL     1      -6.416   7.671  14.170  1.00  0.00     0.010 A 
ATOM     49  C   UNL     1      -5.676   8.491  13.325  1.00  0.00    -0.014 A 
BRANCH  49  50
ATOM     50  C   UNL     1      -4.637   9.374  13.837  1.00  0.00     0.031 A 
ATOM     51  C   UNL     1      -4.944  10.826  13.678  1.00  0.00     0.074 A 
ATOM     52  C   UNL     1      -3.558   8.906  14.497  1.00  0.00     0.049 A 
ATOM     53  N   UNL     1      -4.283  11.719  13.013  1.00  0.00    -0.248 NA
ATOM     54  C   UNL     1      -6.235  11.306  14.205  1.00  0.00     0.031 C 
ATOM     55  C   UNL     1      -3.305   7.528  14.929  1.00  0.00     0.029 A 
ATOM     56  N   UNL     1      -2.525   9.595  15.056  1.00  0.00    -0.354 N 
ATOM     57  C   UNL     1      -4.956  12.919  13.239  1.00  0.00     0.074 A 
ATOM     58  C   UNL     1      -6.226  12.583  13.827  1.00  0.00     0.031 C 
ATOM     59  C   UNL     1      -2.360   7.533  15.896  1.00  0.00     0.029 A 
ATOM     60  C   UNL     1      -1.851   8.883  16.048  1.00  0.00     0.049 A 
ATOM     61  H   UNL     1      -2.277  10.509  14.786  1.00  0.00     0.167 HD
ATOM     62  C   UNL     1      -4.333  14.126  13.169  1.00  0.00     0.034 A 
ATOM     63  C   UNL     1      -1.014   9.403  16.981  1.00  0.00     0.034 A 
ATOM     64  C   UNL     1      -3.087  14.065  12.466  1.00  0.00     0.049 A 
ATOM     65  C   UNL     1      -0.566  10.716  16.464  1.00  0.00     0.074 A 
ATOM     66  C   UNL     1      -2.701  13.752  11.180  1.00  0.00     0.029 A 
ATOM     67  N   UNL     1      -1.955  13.990  13.237  1.00  0.00    -0.354 N 
ATOM     68  N   UNL     1       0.173  10.868  15.402  1.00  0.00    -0.248 NA
ATOM     69  C   UNL     1      -1.272  11.902  16.918  1.00  0.00     0.031 C 
ATOM     70  C   UNL     1      -1.462  13.062  11.325  1.00  0.00     0.029 A 
ATOM     71  C   UNL     1      -1.137  13.042  12.684  1.00  0.00     0.049 A 
ATOM     72  H   UNL     1      -1.764  14.523  14.043  1.00  0.00     0.167 HD
ATOM     73  C   UNL     1      -0.320  12.019  14.806  1.00  0.00     0.074 A 
ATOM     74  C   UNL     1      -1.121  12.671  15.838  1.00  0.00     0.031 C 
ATOM     75  C   UNL     1      -0.266  12.184  13.454  1.00  0.00     0.034 A 
BRANCH  62  76
ATOM     76  C   UNL     1      -4.684  15.274  14.075  1.00  0.00     0.023 A 
ATOM     77  C   UNL     1      -4.283  16.576  13.718  1.00  0.00     0.012 A 
ATOM     78  C   UNL     1      -5.169  15.081  15.390  1.00  0.00     0.148 A 
ATOM     79  C   UNL     1      -4.380  17.639  14.625  1.00  0.00     0.002 A 
ATOM     80  C   UNL     1      -5.340  16.149  16.257  1.00  0.00     0.091 A 
ATOM     81  F   UNL     1      -5.344  13.835  15.850  1.00  0.00    -0.205 F 
ATOM     82  C   UNL     1      -4.928  17.431  15.887  1.00  0.00     0.022 A 
BRANCH  80  83
ATOM     83  S   UNL     1      -6.082  15.936  17.878  1.00  0.00     0.127 S 
ATOM     84  O   UNL     1      -4.924  16.079  18.752  1.00  0.00    -0.237 OA
ATOM     85  O   UNL     1      -7.036  17.042  17.918  1.00  0.00    -0.237 OA
ATOM     86  O   UNL     1      -6.704  14.614  17.844  1.00  0.00    -0.744 OA
ENDBRANCH  80  83
ENDBRANCH  62  76
BRANCH  63  87
ATOM     87  C   UNL     1      -0.811   9.033  18.408  1.00  0.00     0.023 A 
ATOM     88  C   UNL     1       0.270   9.612  19.110  1.00  0.00     0.012 A 
ATOM     89  C   UNL     1      -1.818   8.392  19.163  1.00  0.00     0.148 A 
ATOM     90  C   UNL     1       0.308   9.620  20.509  1.00  0.00     0.002 A 
ATOM     91  C   UNL     1      -1.767   8.389  20.556  1.00  0.00     0.091 A 
ATOM     92  F   UNL     1      -2.877   7.873  18.529  1.00  0.00    -0.205 F 
ATOM     93  C   UNL     1      -0.717   9.022  21.233  1.00  0.00     0.022 A 
BRANCH  91  94
ATOM     94  S   UNL     1      -3.059   7.637  21.556  1.00  0.00     0.127 S 
ATOM     95  O   UNL     1      -2.282   6.916  22.566  1.00  0.00    -0.237 OA
ATOM     96  O   UNL     1      -3.776   8.806  22.057  1.00  0.00    -0.237 OA
ATOM     97  O   UNL     1      -3.805   6.772  20.651  1.00  0.00    -0.744 OA
ENDBRANCH  91  94
ENDBRANCH  63  87
BRANCH  75  98
ATOM     98  C   UNL     1       0.596  11.235  12.663  1.00  0.00     0.023 A 
ATOM     99  C   UNL     1       0.267   9.875  12.487  1.00  0.00     0.012 A 
ATOM    100  C   UNL     1       1.661  11.783  11.932  1.00  0.00     0.148 A 
ATOM    101  C   UNL     1       0.993   9.078  11.596  1.00  0.00     0.002 A 
ATOM    102  C   UNL     1       2.354  10.999  11.021  1.00  0.00     0.091 A 
ATOM    103  F   UNL     1       1.947  13.081  12.114  1.00  0.00    -0.205 F 
ATOM    104  C   UNL     1       2.027   9.644  10.852  1.00  0.00     0.022 A 
BRANCH 102 105
ATOM    105  S   UNL     1       3.620  11.691   9.956  1.00  0.00     0.127 S 
ATOM    106  O   UNL     1       4.830  11.041  10.456  1.00  0.00    -0.237 OA
ATOM    107  O   UNL     1       3.188  11.245   8.630  1.00  0.00    -0.237 OA
ATOM    108  O   UNL     1       3.568  13.136  10.146  1.00  0.00    -0.744 OA
ENDBRANCH 102 105
ENDBRANCH  75  98
ENDBRANCH  49  50
ENDBRANCH  41  44
ENDBRANCH  39  40
ENDBRANCH  38  39
ENDBRANCH  37  38
ENDBRANCH   1  37
TORSDOF 23
