REMARK SMILES O=C(NCCCCCCNC(=O)c1cc(Cl)c2c(c1)[C@H]1C=CC[C@H]1[C@H](c1ccc(S(=O)(=O)N3CCOCC3)cc1)N2)c1ccc(-c2c3nc(c(-c4cccc(S(=O)(=O)[O-])c4F)c4ccc([nH]4)c(-c4cccc(S(=O)(=O)[O-])c4F)c4nc(c(-c5cccc(S(=O)(=O)[O-])c5F)c5ccc2[nH]5)C=C4)C=C3)cc1
REMARK SMILES IDX 6 1 5 2 4 3 3 4 1 5 2 6 42 8 43 9 104 10 44 11 103 12 45 13
REMARK SMILES IDX 46 14 47 15 97 16 48 17 102 18 96 19 98 20 49 21 101 22
REMARK SMILES IDX 95 23 94 24 50 26 82 27 62 28 81 29 63 30 66 31 80 32 99 33
REMARK SMILES IDX 64 34 65 35 79 37 100 38 67 39 51 40 52 41 60 42 53 43 55 44
REMARK SMILES IDX 61 45 54 46 56 47 57 48 58 49 59 50 83 51 84 52 92 53 85 54
REMARK SMILES IDX 87 55 93 56 86 57 88 58 89 59 90 60 91 61 68 62 69 63 77 64
REMARK SMILES IDX 70 65 72 66 78 67 71 68 73 69 74 70 75 71 76 72 7 73 8 74
REMARK SMILES IDX 9 75 10 76 11 77 12 79 13 80 14 81 19 82 15 83 18 84 16 85
REMARK SMILES IDX 17 86 20 87 41 88 21 89 24 90 25 91 22 93 23 94 26 95 27 96
REMARK SMILES IDX 40 97 28 98 39 99 29 100 30 101 31 102 32 103 33 104 34 105
REMARK SMILES IDX 38 106 35 107 37 108 36 109
REMARK H PARENT 3 7 98 25 66 36 10 78 41 92
REMARK Flexibility Score: inf
ROOT
ATOM      1  C   UNL     1       4.306   1.991  -3.087  1.00  0.00     0.002 C 
ENDROOT
BRANCH   1   2
ATOM      2  C   UNL     1       4.816   0.796  -2.277  1.00  0.00     0.021 C 
BRANCH   2   3
ATOM      3  C   UNL     1       4.503   0.871  -0.786  1.00  0.00     0.116 C 
BRANCH   3   4
ATOM      4  N   UNL     1       3.071   0.931  -0.551  1.00  0.00    -0.352 N 
ATOM      5  O   UNL     1       1.055   0.090  -0.003  1.00  0.00    -0.269 OA
ATOM      6  C   UNL     1       2.274   0.043   0.123  1.00  0.00     0.251 C 
ATOM      7  H   UNL     1       2.610   1.716  -0.927  1.00  0.00     0.163 HD
BRANCH   6   8
ATOM      8  C   UNL     1       2.901  -0.964   1.002  1.00  0.00     0.039 A 
ATOM      9  C   UNL     1       3.885  -0.578   1.917  1.00  0.00     0.014 A 
ATOM     10  C   UNL     1       2.476  -2.293   0.935  1.00  0.00     0.014 A 
ATOM     11  C   UNL     1       4.506  -1.538   2.706  1.00  0.00     0.010 A 
ATOM     12  C   UNL     1       3.062  -3.247   1.770  1.00  0.00     0.010 A 
ATOM     13  C   UNL     1       4.092  -2.878   2.649  1.00  0.00    -0.014 A 
BRANCH  13  14
ATOM     14  C   UNL     1       4.690  -3.852   3.591  1.00  0.00     0.031 A 
ATOM     15  C   UNL     1       5.606  -4.938   3.115  1.00  0.00     0.074 A 
ATOM     16  C   UNL     1       4.409  -3.729   4.902  1.00  0.00     0.049 A 
ATOM     17  N   UNL     1       6.309  -5.779   3.828  1.00  0.00    -0.248 NA
ATOM     18  C   UNL     1       5.756  -5.110   1.661  1.00  0.00     0.031 C 
ATOM     19  C   UNL     1       3.487  -2.743   5.470  1.00  0.00     0.029 A 
ATOM     20  N   UNL     1       4.868  -4.424   5.990  1.00  0.00    -0.354 N 
ATOM     21  C   UNL     1       6.967  -6.593   2.917  1.00  0.00     0.074 A 
ATOM     22  C   UNL     1       6.574  -6.153   1.596  1.00  0.00     0.031 C 
ATOM     23  C   UNL     1       3.467  -2.880   6.803  1.00  0.00     0.029 A 
ATOM     24  C   UNL     1       4.354  -3.977   7.182  1.00  0.00     0.049 A 
ATOM     25  H   UNL     1       5.505  -5.172   5.923  1.00  0.00     0.167 HD
ATOM     26  C   UNL     1       7.831  -7.604   3.165  1.00  0.00     0.034 A 
ATOM     27  C   UNL     1       4.569  -4.395   8.444  1.00  0.00     0.034 A 
ATOM     28  C   UNL     1       8.229  -8.022   4.481  1.00  0.00     0.049 A 
ATOM     29  C   UNL     1       5.545  -5.505   8.696  1.00  0.00     0.074 A 
ATOM     30  C   UNL     1       9.168  -8.979   4.825  1.00  0.00     0.029 A 
ATOM     31  N   UNL     1       7.698  -7.536   5.664  1.00  0.00    -0.354 N 
ATOM     32  N   UNL     1       6.274  -6.162   7.827  1.00  0.00    -0.248 NA
ATOM     33  C   UNL     1       5.754  -5.916  10.091  1.00  0.00     0.031 C 
ATOM     34  C   UNL     1       9.179  -9.096   6.216  1.00  0.00     0.029 A 
ATOM     35  C   UNL     1       8.271  -8.188   6.740  1.00  0.00     0.049 A 
ATOM     36  H   UNL     1       7.014  -6.831   5.729  1.00  0.00     0.167 HD
ATOM     37  C   UNL     1       7.041  -7.051   8.568  1.00  0.00     0.074 A 
ATOM     38  C   UNL     1       6.694  -6.846   9.960  1.00  0.00     0.031 C 
ATOM     39  C   UNL     1       7.947  -7.954   8.125  1.00  0.00     0.034 A 
BRANCH  26  40
ATOM     40  C   UNL     1       8.446  -8.316   1.993  1.00  0.00     0.023 A 
ATOM     41  C   UNL     1       9.487  -7.697   1.274  1.00  0.00     0.012 A 
ATOM     42  C   UNL     1       8.070  -9.636   1.676  1.00  0.00     0.148 A 
ATOM     43  C   UNL     1      10.139  -8.377   0.247  1.00  0.00     0.002 A 
ATOM     44  C   UNL     1       8.743 -10.318   0.670  1.00  0.00     0.091 A 
ATOM     45  F   UNL     1       7.069 -10.198   2.368  1.00  0.00    -0.205 F 
ATOM     46  C   UNL     1       9.775  -9.689  -0.047  1.00  0.00     0.022 A 
BRANCH  44  47
ATOM     47  S   UNL     1       8.387 -12.027   0.248  1.00  0.00     0.127 S 
ATOM     48  O   UNL     1       7.835 -11.886  -1.099  1.00  0.00    -0.237 OA
ATOM     49  O   UNL     1       9.714 -12.639   0.303  1.00  0.00    -0.237 OA
ATOM     50  O   UNL     1       7.450 -12.505   1.254  1.00  0.00    -0.744 OA
ENDBRANCH  44  47
ENDBRANCH  26  40
BRANCH  27  51
ATOM     51  C   UNL     1       3.874  -3.687   9.551  1.00  0.00     0.023 A 
ATOM     52  C   UNL     1       4.574  -2.725  10.302  1.00  0.00     0.012 A 
ATOM     53  C   UNL     1       2.492  -3.861   9.759  1.00  0.00     0.148 A 
ATOM     54  C   UNL     1       3.905  -1.939  11.240  1.00  0.00     0.002 A 
ATOM     55  C   UNL     1       1.825  -3.050  10.668  1.00  0.00     0.091 A 
ATOM     56  F   UNL     1       1.853  -4.777   9.019  1.00  0.00    -0.205 F 
ATOM     57  C   UNL     1       2.531  -2.092  11.414  1.00  0.00     0.022 A 
BRANCH  55  58
ATOM     58  S   UNL     1       0.043  -3.098  10.886  1.00  0.00     0.127 S 
ATOM     59  O   UNL     1      -0.074  -3.432  12.304  1.00  0.00    -0.237 OA
ATOM     60  O   UNL     1      -0.333  -1.726  10.543  1.00  0.00    -0.237 OA
ATOM     61  O   UNL     1      -0.445  -4.115   9.966  1.00  0.00    -0.744 OA
ENDBRANCH  55  58
ENDBRANCH  27  51
BRANCH  39  62
ATOM     62  C   UNL     1       8.665  -8.809   9.131  1.00  0.00     0.023 A 
ATOM     63  C   UNL     1       8.029  -9.955   9.644  1.00  0.00     0.012 A 
ATOM     64  C   UNL     1      10.028  -8.583   9.409  1.00  0.00     0.148 A 
ATOM     65  C   UNL     1       8.745 -10.873  10.412  1.00  0.00     0.002 A 
ATOM     66  C   UNL     1      10.743  -9.519  10.145  1.00  0.00     0.091 A 
ATOM     67  F   UNL     1      10.606  -7.483   8.904  1.00  0.00    -0.205 F 
ATOM     68  C   UNL     1      10.102 -10.664  10.648  1.00  0.00     0.022 A 
BRANCH  66  69
ATOM     69  S   UNL     1      12.510  -9.380  10.435  1.00  0.00     0.127 S 
ATOM     70  O   UNL     1      12.568  -9.305  11.895  1.00  0.00    -0.237 OA
ATOM     71  O   UNL     1      13.014 -10.630   9.867  1.00  0.00    -0.237 OA
ATOM     72  O   UNL     1      12.943  -8.174   9.742  1.00  0.00    -0.744 OA
ENDBRANCH  66  69
ENDBRANCH  39  62
ENDBRANCH  13  14
ENDBRANCH   6   8
ENDBRANCH   3   4
ENDBRANCH   2   3
ENDBRANCH   1   2
BRANCH   1  73
ATOM     73  C   UNL     1       4.797   3.356  -2.595  1.00  0.00     0.002 C 
BRANCH  73  74
ATOM     74  C   UNL     1       6.318   3.502  -2.534  1.00  0.00     0.021 C 
BRANCH  74  75
ATOM     75  C   UNL     1       7.024   3.208  -3.852  1.00  0.00     0.116 C 
BRANCH  75  76
ATOM     76  N   UNL     1       6.604   4.120  -4.907  1.00  0.00    -0.352 N 
ATOM     77  C   UNL     1       7.387   4.905  -5.711  1.00  0.00     0.251 C 
ATOM     78  H   UNL     1       5.633   4.179  -5.061  1.00  0.00     0.163 HD
ATOM     79  O   UNL     1       6.906   5.771  -6.432  1.00  0.00    -0.269 OA
BRANCH  77  80
ATOM     80  C   UNL     1       8.841   4.700  -5.669  1.00  0.00     0.041 A 
ATOM     81  C   UNL     1       9.372   3.431  -5.894  1.00  0.00     0.036 A 
ATOM     82  C   UNL     1       9.663   5.778  -5.353  1.00  0.00     0.020 A 
ATOM     83  C   UNL     1      10.728   3.226  -5.690  1.00  0.00     0.065 A 
ATOM     84  C   UNL     1      11.040   5.577  -5.183  1.00  0.00    -0.015 A 
ATOM     85  Cl  UNL     1      11.349   1.621  -5.878  1.00  0.00    -0.082 Cl
ATOM     86  C   UNL     1      11.573   4.282  -5.297  1.00  0.00     0.057 A 
ATOM     87  C   UNL     1      11.924   6.759  -4.912  1.00  0.00     0.049 C 
ATOM     88  N   UNL     1      12.927   4.060  -5.108  1.00  0.00    -0.376 N 
ATOM     89  C   UNL     1      11.799   7.354  -3.533  1.00  0.00    -0.023 C 
ATOM     90  C   UNL     1      13.439   6.476  -5.005  1.00  0.00     0.031 C 
ATOM     91  C   UNL     1      13.752   5.057  -4.457  1.00  0.00     0.114 C 
ATOM     92  H   UNL     1      13.332   3.218  -5.418  1.00  0.00     0.161 HD
ATOM     93  C   UNL     1      12.972   7.852  -3.124  1.00  0.00    -0.030 C 
ATOM     94  C   UNL     1      14.024   7.634  -4.166  1.00  0.00     0.034 C 
BRANCH  91  95
ATOM     95  C   UNL     1      15.210   4.662  -4.633  1.00  0.00    -0.025 A 
ATOM     96  C   UNL     1      15.708   3.881  -5.698  1.00  0.00     0.007 A 
ATOM     97  C   UNL     1      16.110   5.106  -3.672  1.00  0.00     0.007 A 
ATOM     98  C   UNL     1      17.081   3.603  -5.818  1.00  0.00     0.022 A 
ATOM     99  C   UNL     1      17.461   4.858  -3.818  1.00  0.00     0.022 A 
ATOM    100  C   UNL     1      17.965   4.130  -4.880  1.00  0.00     0.082 A 
BRANCH 100 101
ATOM    101  S   UNL     1      19.723   3.920  -5.060  1.00  0.00     0.243 S 
ATOM    102  O   UNL     1      20.037   2.612  -4.525  1.00  0.00    -0.207 OA
ATOM    103  O   UNL     1      20.035   4.276  -6.427  1.00  0.00    -0.207 OA
BRANCH 101 104
ATOM    104  N   UNL     1      20.439   5.077  -4.065  1.00  0.00    -0.193 NA
ATOM    105  C   UNL     1      20.719   4.845  -2.630  1.00  0.00     0.131 C 
ATOM    106  C   UNL     1      20.597   6.480  -4.489  1.00  0.00     0.131 C 
ATOM    107  C   UNL     1      20.057   5.897  -1.716  1.00  0.00     0.177 C 
ATOM    108  C   UNL     1      19.796   7.406  -3.574  1.00  0.00     0.177 C 
ATOM    109  O   UNL     1      20.165   7.244  -2.197  1.00  0.00    -0.379 OA
ENDBRANCH 101 104
ENDBRANCH 100 101
ENDBRANCH  91  95
ENDBRANCH  77  80
ENDBRANCH  75  76
ENDBRANCH  74  75
ENDBRANCH  73  74
ENDBRANCH   1  73
TORSDOF 19
