REMARK SMILES CC(C)[N@H+](C)Cc1cc2c(cc1Cl)C=C(C(=O)NCCCCCCNC(=O)c1ccc(-c3c4nc(c(-c5cccc(S(=O)(=O)[O-])c5F)c5ccc([nH]5)c(-c5cccc(S(=O)(=O)[O-])c5F)c5nc(c(-c6cccc(S(=O)(=O)[O-])c6F)c6ccc3[nH]6)C=C5)C=C4)cc1)[C@@H](C(F)(F)F)O2
REMARK SMILES IDX 21 1 20 2 19 3 18 4 16 5 17 6 15 8 7 9 8 10 12 11 9 12 11 13
REMARK SMILES IDX 13 14 10 15 96 16 14 17 91 18 6 19 4 20 5 21 2 23 1 24 3 25
REMARK SMILES IDX 92 26 93 27 94 28 95 29 22 30 23 31 24 32 25 33 26 34 27 36
REMARK SMILES IDX 28 37 29 38 90 39 30 40 89 41 31 42 32 43 33 44 83 45 34 46
REMARK SMILES IDX 88 47 82 48 84 49 35 50 87 51 81 52 80 53 36 55 68 56 48 57
REMARK SMILES IDX 67 58 49 59 52 60 66 61 85 62 50 63 51 64 65 66 86 67 53 68
REMARK SMILES IDX 37 69 38 70 46 71 39 72 41 73 47 74 40 75 42 76 43 77 44 78
REMARK SMILES IDX 45 79 69 80 70 81 78 82 71 83 73 84 79 85 72 86 74 87 75 88
REMARK SMILES IDX 76 89 77 90 54 91 55 92 63 93 56 94 58 95 64 96 57 97 59 98
REMARK SMILES IDX 60 99 61 100 62 101
REMARK H PARENT 18 7 4 22 25 35 84 54 52 65
REMARK Flexibility Score: inf
ROOT
ATOM      1  C   UNL     1      -2.838  12.629   1.611  1.00  0.00     0.002 C 
ENDROOT
BRANCH   1   2
ATOM      2  C   UNL     1      -3.101  11.130   1.472  1.00  0.00     0.021 C 
BRANCH   2   3
ATOM      3  C   UNL     1      -2.100  10.393   0.597  1.00  0.00     0.116 C 
BRANCH   3   4
ATOM      4  N   UNL     1      -0.819  10.207   1.242  1.00  0.00    -0.352 N 
ATOM      5  C   UNL     1      -0.044   9.127   1.495  1.00  0.00     0.251 C 
ATOM      6  O   UNL     1       1.044   9.338   2.039  1.00  0.00    -0.270 OA
ATOM      7  H   UNL     1      -0.426  11.049   1.568  1.00  0.00     0.163 HD
BRANCH   5   8
ATOM      8  C   UNL     1      -0.467   7.732   1.196  1.00  0.00     0.067 C 
ATOM      9  C   UNL     1      -1.037   2.731   1.573  1.00  0.00     0.029 A 
ATOM     10  C   UNL     1      -1.401   3.700   0.620  1.00  0.00     0.058 A 
ATOM     11  C   UNL     1      -0.447   3.177   2.770  1.00  0.00     0.050 A 
ATOM     12  C   UNL     1      -1.091   5.043   0.808  1.00  0.00     0.128 A 
ATOM     13  C   UNL     1      -0.088   4.519   2.923  1.00  0.00     0.033 A 
ATOM     14  Cl  UNL     1      -0.143   2.179   4.151  1.00  0.00    -0.084 Cl
ATOM     15  C   UNL     1      -0.399   5.451   1.938  1.00  0.00     0.019 A 
ATOM     16  O   UNL     1      -1.476   5.883  -0.186  1.00  0.00    -0.475 OA
ATOM     17  C   UNL     1      -0.021   6.840   2.094  1.00  0.00     0.025 C 
ATOM     18  C   UNL     1      -1.299   7.314   0.007  1.00  0.00     0.314 C 
BRANCH   9  19
ATOM     19  C   UNL     1      -1.347   1.294   1.204  1.00  0.00     0.300 C 
BRANCH  19  20
ATOM     20  N   UNL     1      -0.504   0.308   1.866  1.00  0.00    -0.332 N 
ATOM     21  C   UNL     1      -1.273  -0.742   2.510  1.00  0.00     0.333 C 
ATOM     22  H   UNL     1      -0.078   0.858   2.611  1.00  0.00     0.348 HD
BRANCH  20  23
ATOM     23  C   UNL     1       0.743  -0.113   1.220  1.00  0.00     0.177 C 
ATOM     24  C   UNL     1       0.578  -0.844  -0.114  1.00  0.00     0.075 C 
ATOM     25  C   UNL     1       1.728   1.053   1.046  1.00  0.00     0.075 C 
ENDBRANCH  20  23
ENDBRANCH  19  20
ENDBRANCH   9  19
BRANCH  18  26
ATOM     26  C   UNL     1      -0.818   7.864  -1.346  1.00  0.00     0.429 C 
ATOM     27  F   UNL     1      -1.843   7.862  -2.237  1.00  0.00    -0.167 F 
ATOM     28  F   UNL     1      -0.371   9.136  -1.286  1.00  0.00    -0.167 F 
ATOM     29  F   UNL     1       0.179   7.117  -1.873  1.00  0.00    -0.167 F 
ENDBRANCH  18  26
ENDBRANCH   5   8
ENDBRANCH   3   4
ENDBRANCH   2   3
ENDBRANCH   1   2
BRANCH   1  30
ATOM     30  C   UNL     1      -2.639  13.387   0.294  1.00  0.00     0.002 C 
BRANCH  30  31
ATOM     31  C   UNL     1      -3.695  13.133  -0.784  1.00  0.00     0.021 C 
BRANCH  31  32
ATOM     32  C   UNL     1      -5.129  13.399  -0.350  1.00  0.00     0.116 C 
BRANCH  32  33
ATOM     33  N   UNL     1      -5.343  14.785   0.029  1.00  0.00    -0.352 N 
ATOM     34  C   UNL     1      -6.302  15.658  -0.423  1.00  0.00     0.251 C 
ATOM     35  H   UNL     1      -4.718  15.147   0.699  1.00  0.00     0.163 HD
ATOM     36  O   UNL     1      -6.246  16.849  -0.130  1.00  0.00    -0.269 OA
BRANCH  34  37
ATOM     37  C   UNL     1      -7.377  15.143  -1.295  1.00  0.00     0.039 A 
ATOM     38  C   UNL     1      -8.071  13.983  -0.941  1.00  0.00     0.014 A 
ATOM     39  C   UNL     1      -7.637  15.784  -2.508  1.00  0.00     0.014 A 
ATOM     40  C   UNL     1      -8.902  13.371  -1.871  1.00  0.00     0.010 A 
ATOM     41  C   UNL     1      -8.537  15.209  -3.407  1.00  0.00     0.010 A 
ATOM     42  C   UNL     1      -9.136  13.972  -3.118  1.00  0.00    -0.014 A 
BRANCH  42  43
ATOM     43  C   UNL     1     -10.000  13.291  -4.116  1.00  0.00     0.031 A 
ATOM     44  C   UNL     1      -9.436  12.837  -5.436  1.00  0.00     0.074 A 
ATOM     45  C   UNL     1     -11.295  13.065  -3.822  1.00  0.00     0.049 A 
ATOM     46  N   UNL     1     -10.054  12.276  -6.443  1.00  0.00    -0.248 NA
ATOM     47  C   UNL     1      -7.994  13.037  -5.659  1.00  0.00     0.031 C 
ATOM     48  C   UNL     1     -11.958  13.456  -2.576  1.00  0.00     0.029 A 
ATOM     49  N   UNL     1     -12.284  12.452  -4.548  1.00  0.00    -0.354 N 
ATOM     50  C   UNL     1      -9.095  12.103  -7.433  1.00  0.00     0.074 A 
ATOM     51  C   UNL     1      -7.848  12.613  -6.908  1.00  0.00     0.031 C 
ATOM     52  C   UNL     1     -13.236  13.052  -2.613  1.00  0.00     0.029 A 
ATOM     53  C   UNL     1     -13.499  12.429  -3.906  1.00  0.00     0.049 A 
ATOM     54  H   UNL     1     -12.138  12.066  -5.441  1.00  0.00     0.167 HD
ATOM     55  C   UNL     1      -9.238  11.553  -8.662  1.00  0.00     0.034 A 
ATOM     56  C   UNL     1     -14.700  11.980  -4.317  1.00  0.00     0.034 A 
ATOM     57  C   UNL     1     -10.464  10.995  -9.162  1.00  0.00     0.049 A 
ATOM     58  C   UNL     1     -14.831  11.381  -5.685  1.00  0.00     0.074 A 
ATOM     59  C   UNL     1     -10.690  10.375 -10.379  1.00  0.00     0.029 A 
ATOM     60  N   UNL     1     -11.668  10.985  -8.477  1.00  0.00    -0.354 N 
ATOM     61  N   UNL     1     -13.898  11.174  -6.583  1.00  0.00    -0.248 NA
ATOM     62  C   UNL     1     -16.172  10.945  -6.095  1.00  0.00     0.031 C 
ATOM     63  C   UNL     1     -12.035   9.996 -10.433  1.00  0.00     0.029 A 
ATOM     64  C   UNL     1     -12.642  10.371  -9.245  1.00  0.00     0.049 A 
ATOM     65  H   UNL     1     -11.810  11.358  -7.577  1.00  0.00     0.167 HD
ATOM     66  C   UNL     1     -14.537  10.576  -7.661  1.00  0.00     0.074 A 
ATOM     67  C   UNL     1     -15.931  10.431  -7.295  1.00  0.00     0.031 C 
ATOM     68  C   UNL     1     -14.016  10.199  -8.854  1.00  0.00     0.034 A 
BRANCH  55  69
ATOM     69  C   UNL     1      -8.027  11.479  -9.551  1.00  0.00     0.023 A 
ATOM     70  C   UNL     1      -7.077  10.460  -9.340  1.00  0.00     0.012 A 
ATOM     71  C   UNL     1      -7.886  12.344 -10.654  1.00  0.00     0.148 A 
ATOM     72  C   UNL     1      -5.998  10.308 -10.210  1.00  0.00     0.002 A 
ATOM     73  C   UNL     1      -6.825  12.167 -11.533  1.00  0.00     0.091 A 
ATOM     74  F   UNL     1      -8.797  13.312 -10.825  1.00  0.00    -0.205 F 
ATOM     75  C   UNL     1      -5.878  11.153 -11.311  1.00  0.00     0.022 A 
BRANCH  73  76
ATOM     76  S   UNL     1      -6.606  13.165 -13.011  1.00  0.00     0.127 S 
ATOM     77  O   UNL     1      -5.350  13.854 -12.718  1.00  0.00    -0.237 OA
ATOM     78  O   UNL     1      -6.513  12.146 -14.056  1.00  0.00    -0.237 OA
ATOM     79  O   UNL     1      -7.778  14.025 -13.096  1.00  0.00    -0.744 OA
ENDBRANCH  73  76
ENDBRANCH  55  69
BRANCH  56  80
ATOM     80  C   UNL     1     -15.860  12.063  -3.391  1.00  0.00     0.023 A 
ATOM     81  C   UNL     1     -16.322  10.892  -2.762  1.00  0.00     0.012 A 
ATOM     82  C   UNL     1     -16.448  13.302  -3.070  1.00  0.00     0.148 A 
ATOM     83  C   UNL     1     -17.356  10.953  -1.828  1.00  0.00     0.002 A 
ATOM     84  C   UNL     1     -17.447  13.360  -2.107  1.00  0.00     0.091 A 
ATOM     85  F   UNL     1     -15.988  14.399  -3.687  1.00  0.00    -0.205 F 
ATOM     86  C   UNL     1     -17.910  12.186  -1.493  1.00  0.00     0.022 A 
BRANCH  84  87
ATOM     87  S   UNL     1     -18.144  14.910  -1.527  1.00  0.00     0.127 S 
ATOM     88  O   UNL     1     -19.540  14.781  -1.936  1.00  0.00    -0.237 OA
ATOM     89  O   UNL     1     -17.913  14.818  -0.085  1.00  0.00    -0.237 OA
ATOM     90  O   UNL     1     -17.390  15.961  -2.196  1.00  0.00    -0.744 OA
ENDBRANCH  84  87
ENDBRANCH  56  80
BRANCH  68  91
ATOM     91  C   UNL     1     -14.948   9.588  -9.862  1.00  0.00     0.023 A 
ATOM     92  C   UNL     1     -15.799  10.425 -10.608  1.00  0.00     0.012 A 
ATOM     93  C   UNL     1     -14.905   8.209 -10.141  1.00  0.00     0.148 A 
ATOM     94  C   UNL     1     -16.606   9.894 -11.613  1.00  0.00     0.002 A 
ATOM     95  C   UNL     1     -15.686   7.692 -11.166  1.00  0.00     0.091 A 
ATOM     96  F   UNL     1     -14.093   7.434  -9.406  1.00  0.00    -0.205 F 
ATOM     97  C   UNL     1     -16.541   8.532 -11.900  1.00  0.00     0.022 A 
BRANCH  95  98
ATOM     98  S   UNL     1     -15.618   5.965 -11.657  1.00  0.00     0.127 S 
ATOM     99  O   UNL     1     -16.932   5.484 -11.233  1.00  0.00    -0.237 OA
ATOM    100  O   UNL     1     -15.442   6.062 -13.106  1.00  0.00    -0.237 OA
ATOM    101  O   UNL     1     -14.486   5.388 -10.946  1.00  0.00    -0.744 OA
ENDBRANCH  95  98
ENDBRANCH  68  91
ENDBRANCH  42  43
ENDBRANCH  34  37
ENDBRANCH  32  33
ENDBRANCH  31  32
ENDBRANCH  30  31
ENDBRANCH   1  30
TORSDOF 20
