REMARK SMILES O=C(C[NH+]1CCN(c2ncc(C(F)(F)F)cc2Cl)CC1)NCCCCCCNC(=O)c1ccc(-c2c3nc(c(-c4cccc(S(=O)(=O)[O-])c4F)c4ccc([nH]4)c(-c4cccc(S(=O)(=O)[O-])c4F)c4nc(c(-c5cccc(S(=O)(=O)[O-])c5F)c5ccc2[nH]5)C=C4)C=C3)cc1
REMARK SMILES IDX 24 1 23 2 22 3 21 4 1 5 2 6 3 8 4 9 5 10 20 11 6 13 19 14
REMARK SMILES IDX 7 15 8 16 9 17 17 18 10 19 16 20 18 21 11 22 12 23 13 24
REMARK SMILES IDX 14 25 15 26 25 27 26 28 27 29 28 30 29 31 30 33 31 34 32 35
REMARK SMILES IDX 93 36 33 37 92 38 34 39 35 40 36 41 86 42 37 43 91 44 85 45
REMARK SMILES IDX 87 46 38 47 90 48 84 49 83 50 39 52 71 53 51 54 70 55 52 56
REMARK SMILES IDX 55 57 69 58 88 59 53 60 54 61 68 63 89 64 56 65 40 66 41 67
REMARK SMILES IDX 49 68 42 69 44 70 50 71 43 72 45 73 46 74 47 75 48 76 72 77
REMARK SMILES IDX 73 78 81 79 74 80 76 81 82 82 75 83 77 84 78 85 79 86 80 87
REMARK SMILES IDX 57 88 58 89 66 90 59 91 61 92 67 93 60 94 62 95 63 96 64 97
REMARK SMILES IDX 65 98
REMARK H PARENT 21 7 4 12 28 32 87 51 55 62
REMARK Flexibility Score: inf
ROOT
ATOM      1  C   UNL     1       4.188   3.760   0.702  1.00  0.00     0.002 C 
ENDROOT
BRANCH   1   2
ATOM      2  C   UNL     1       2.676   3.511   0.827  1.00  0.00     0.021 C 
BRANCH   2   3
ATOM      3  C   UNL     1       2.115   2.480  -0.152  1.00  0.00     0.116 C 
BRANCH   3   4
ATOM      4  N   UNL     1       2.744   1.195   0.059  1.00  0.00    -0.351 N 
ATOM      5  O   UNL     1       0.957  -0.119  -0.537  1.00  0.00    -0.269 OA
ATOM      6  C   UNL     1       2.126  -0.010  -0.178  1.00  0.00     0.275 C 
ATOM      7  H   UNL     1       3.670   1.183   0.392  1.00  0.00     0.163 HD
BRANCH   6   8
ATOM      8  C   UNL     1       3.020  -1.219   0.122  1.00  0.00     0.363 C 
BRANCH   8   9
ATOM      9  N   UNL     1       3.928  -1.536  -1.003  1.00  0.00    -0.324 N 
ATOM     10  C   UNL     1       5.104  -0.634  -1.119  1.00  0.00     0.284 C 
ATOM     11  C   UNL     1       4.428  -2.929  -0.875  1.00  0.00     0.284 C 
ATOM     12  H   UNL     1       3.364  -1.407  -1.843  1.00  0.00     0.348 HD
ATOM     13  C   UNL     1       6.152  -0.761   0.018  1.00  0.00     0.179 C 
ATOM     14  C   UNL     1       5.483  -3.149   0.238  1.00  0.00     0.179 C 
ATOM     15  N   UNL     1       6.548  -2.159   0.117  1.00  0.00    -0.344 N 
BRANCH  15  16
ATOM     16  C   UNL     1       7.878  -2.480   0.205  1.00  0.00     0.147 A 
ATOM     17  N   UNL     1       8.591  -1.872   1.185  1.00  0.00    -0.237 NA
ATOM     18  C   UNL     1       8.509  -3.351  -0.699  1.00  0.00     0.084 A 
ATOM     19  C   UNL     1       9.912  -2.152   1.300  1.00  0.00     0.126 A 
ATOM     20  C   UNL     1       9.874  -3.609  -0.570  1.00  0.00     0.039 A 
ATOM     21  Cl  UNL     1       7.703  -4.061  -2.054  1.00  0.00    -0.080 Cl
ATOM     22  C   UNL     1      10.600  -3.007   0.457  1.00  0.00     0.075 A 
BRANCH  22  23
ATOM     23  C   UNL     1      12.060  -3.256   0.657  1.00  0.00     0.417 C 
ATOM     24  F   UNL     1      12.797  -2.113   0.644  1.00  0.00    -0.166 F 
ATOM     25  F   UNL     1      12.326  -3.862   1.846  1.00  0.00    -0.166 F 
ATOM     26  F   UNL     1      12.606  -4.061  -0.298  1.00  0.00    -0.166 F 
ENDBRANCH  22  23
ENDBRANCH  15  16
ENDBRANCH   8   9
ENDBRANCH   6   8
ENDBRANCH   3   4
ENDBRANCH   2   3
ENDBRANCH   1   2
BRANCH   1  27
ATOM     27  C   UNL     1       4.652   4.293  -0.656  1.00  0.00     0.002 C 
BRANCH  27  28
ATOM     28  C   UNL     1       4.005   5.610  -1.084  1.00  0.00     0.021 C 
BRANCH  28  29
ATOM     29  C   UNL     1       4.157   6.751  -0.083  1.00  0.00     0.116 C 
BRANCH  29  30
ATOM     30  N   UNL     1       5.547   7.130   0.124  1.00  0.00    -0.352 N 
ATOM     31  C   UNL     1       6.114   8.380   0.099  1.00  0.00     0.251 C 
ATOM     32  H   UNL     1       6.167   6.387   0.308  1.00  0.00     0.163 HD
ATOM     33  O   UNL     1       7.336   8.504   0.132  1.00  0.00    -0.269 OA
BRANCH  31  34
ATOM     34  C   UNL     1       5.248   9.576   0.006  1.00  0.00     0.039 A 
ATOM     35  C   UNL     1       5.577  10.582  -0.906  1.00  0.00     0.014 A 
ATOM     36  C   UNL     1       4.106   9.695   0.803  1.00  0.00     0.014 A 
ATOM     37  C   UNL     1       4.725  11.678  -1.062  1.00  0.00     0.010 A 
ATOM     38  C   UNL     1       3.220  10.747   0.589  1.00  0.00     0.010 A 
ATOM     39  C   UNL     1       3.521  11.753  -0.341  1.00  0.00    -0.014 A 
BRANCH  39  40
ATOM     40  C   UNL     1       2.558  12.862  -0.564  1.00  0.00     0.031 A 
ATOM     41  C   UNL     1       2.201  13.801   0.556  1.00  0.00     0.074 A 
ATOM     42  C   UNL     1       1.935  12.971  -1.754  1.00  0.00     0.049 A 
ATOM     43  N   UNL     1       1.350  14.794   0.559  1.00  0.00    -0.248 NA
ATOM     44  C   UNL     1       2.866  13.576   1.849  1.00  0.00     0.031 C 
ATOM     45  C   UNL     1       2.127  12.073  -2.894  1.00  0.00     0.029 A 
ATOM     46  N   UNL     1       0.991  13.867  -2.194  1.00  0.00    -0.354 N 
ATOM     47  C   UNL     1       1.350  15.290   1.857  1.00  0.00     0.074 A 
ATOM     48  C   UNL     1       2.257  14.463   2.623  1.00  0.00     0.031 C 
ATOM     49  C   UNL     1       1.332  12.463  -3.902  1.00  0.00     0.029 A 
ATOM     50  C   UNL     1       0.547  13.617  -3.471  1.00  0.00     0.049 A 
ATOM     51  H   UNL     1       0.664  14.617  -1.646  1.00  0.00     0.167 HD
ATOM     52  C   UNL     1       0.679  16.354   2.362  1.00  0.00     0.034 A 
ATOM     53  C   UNL     1      -0.394  14.235  -4.210  1.00  0.00     0.034 A 
ATOM     54  C   UNL     1      -0.202  17.189   1.591  1.00  0.00     0.049 A 
ATOM     55  C   UNL     1      -1.105  15.432  -3.641  1.00  0.00     0.074 A 
ATOM     56  C   UNL     1      -0.857  18.343   1.985  1.00  0.00     0.029 A 
ATOM     57  N   UNL     1      -0.569  16.953   0.275  1.00  0.00    -0.354 N 
ATOM     58  N   UNL     1      -0.969  15.988  -2.462  1.00  0.00    -0.248 NA
ATOM     59  C   UNL     1      -2.071  16.110  -4.517  1.00  0.00     0.031 C 
ATOM     60  C   UNL     1      -1.649  18.782   0.918  1.00  0.00     0.029 A 
ATOM     61  C   UNL     1      -1.455  17.926  -0.154  1.00  0.00     0.049 A 
ATOM     62  H   UNL     1      -0.246  16.202  -0.274  1.00  0.00     0.167 HD
ATOM     63  C   UNL     1      -1.806  17.097  -2.463  1.00  0.00     0.074 A 
ATOM     64  C   UNL     1      -2.429  17.146  -3.771  1.00  0.00     0.031 C 
ATOM     65  C   UNL     1      -2.043  17.989  -1.469  1.00  0.00     0.034 A 
BRANCH  52  66
ATOM     66  C   UNL     1       0.904  16.691   3.815  1.00  0.00     0.023 A 
ATOM     67  C   UNL     1       2.159  17.182   4.234  1.00  0.00     0.012 A 
ATOM     68  C   UNL     1      -0.131  16.554   4.761  1.00  0.00     0.148 A 
ATOM     69  C   UNL     1       2.396  17.480   5.575  1.00  0.00     0.002 A 
ATOM     70  C   UNL     1       0.097  16.902   6.087  1.00  0.00     0.091 A 
ATOM     71  F   UNL     1      -1.312  16.068   4.352  1.00  0.00    -0.205 F 
ATOM     72  C   UNL     1       1.363  17.349   6.499  1.00  0.00     0.022 A 
BRANCH  70  73
ATOM     73  S   UNL     1      -1.192  16.849   7.337  1.00  0.00     0.127 S 
ATOM     74  O   UNL     1      -0.786  15.690   8.131  1.00  0.00    -0.237 OA
ATOM     75  O   UNL     1      -1.024  18.137   8.009  1.00  0.00    -0.237 OA
ATOM     76  O   UNL     1      -2.447  16.703   6.612  1.00  0.00    -0.744 OA
ENDBRANCH  70  73
ENDBRANCH  52  66
BRANCH  53  77
ATOM     77  C   UNL     1      -0.673  13.758  -5.594  1.00  0.00     0.023 A 
ATOM     78  C   UNL     1      -0.266  14.537  -6.694  1.00  0.00     0.012 A 
ATOM     79  C   UNL     1      -1.290  12.513  -5.823  1.00  0.00     0.148 A 
ATOM     80  C   UNL     1      -0.490  14.096  -7.998  1.00  0.00     0.002 A 
ATOM     81  C   UNL     1      -1.459  12.053  -7.123  1.00  0.00     0.091 A 
ATOM     82  F   UNL     1      -1.674  11.791  -4.760  1.00  0.00    -0.205 F 
ATOM     83  C   UNL     1      -1.075  12.851  -8.213  1.00  0.00     0.022 A 
BRANCH  81  84
ATOM     84  S   UNL     1      -2.077  10.409  -7.494  1.00  0.00     0.127 S 
ATOM     85  O   UNL     1      -3.343  10.708  -8.158  1.00  0.00    -0.237 OA
ATOM     86  O   UNL     1      -1.028   9.888  -8.372  1.00  0.00    -0.237 OA
ATOM     87  O   UNL     1      -2.184   9.727  -6.212  1.00  0.00    -0.744 OA
ENDBRANCH  81  84
ENDBRANCH  53  77
BRANCH  65  88
ATOM     88  C   UNL     1      -2.994  19.122  -1.758  1.00  0.00     0.023 A 
ATOM     89  C   UNL     1      -4.375  18.871  -1.882  1.00  0.00     0.012 A 
ATOM     90  C   UNL     1      -2.524  20.449  -1.834  1.00  0.00     0.148 A 
ATOM     91  C   UNL     1      -5.268  19.918  -2.112  1.00  0.00     0.002 A 
ATOM     92  C   UNL     1      -3.425  21.491  -2.011  1.00  0.00     0.091 A 
ATOM     93  F   UNL     1      -1.205  20.666  -1.732  1.00  0.00    -0.205 F 
ATOM     94  C   UNL     1      -4.795  21.227  -2.164  1.00  0.00     0.022 A 
BRANCH  92  95
ATOM     95  S   UNL     1      -2.921  23.216  -1.992  1.00  0.00     0.127 S 
ATOM     96  O   UNL     1      -3.101  23.594  -3.393  1.00  0.00    -0.237 OA
ATOM     97  O   UNL     1      -3.889  23.811  -1.070  1.00  0.00    -0.237 OA
ATOM     98  O   UNL     1      -1.545  23.228  -1.516  1.00  0.00    -0.744 OA
ENDBRANCH  92  95
ENDBRANCH  65  88
ENDBRANCH  39  40
ENDBRANCH  31  34
ENDBRANCH  29  30
ENDBRANCH  28  29
ENDBRANCH  27  28
ENDBRANCH   1  27
TORSDOF 19
