REMARK SMILES CN(C)c1ccc(F)c(C(=O)NCCCCCCNC(=O)c2ccc(-c3c4nc(c(-c5cccc(S(=O)(=O)[O-])c5F)c5ccc([nH]5)c(-c5cccc(S(=O)(=O)[O-])c5F)c5nc(c(-c6cccc(S(=O)(=O)[O-])c6F)c6ccc3[nH]6)C=C5)C=C4)cc2)c1
REMARK SMILES IDX 16 1 15 2 14 3 13 4 12 5 10 6 11 7 9 9 4 10 5 11 85 12 6 13
REMARK SMILES IDX 7 14 8 15 2 16 1 17 3 18 17 19 18 20 19 21 20 22 21 24 22 25
REMARK SMILES IDX 23 26 84 27 24 28 83 29 25 30 26 31 27 32 77 33 28 34 82 35
REMARK SMILES IDX 76 36 78 37 29 38 81 39 75 40 74 41 30 43 62 44 42 45 61 46
REMARK SMILES IDX 43 47 46 48 60 49 79 50 44 51 45 52 59 54 80 55 47 56 31 57
REMARK SMILES IDX 32 58 40 59 33 60 35 61 41 62 34 63 36 64 37 65 38 66 39 67
REMARK SMILES IDX 63 68 64 69 72 70 65 71 67 72 73 73 66 74 68 75 69 76 70 77
REMARK SMILES IDX 71 78 48 79 49 80 57 81 50 82 52 83 58 84 51 85 53 86 54 87
REMARK SMILES IDX 55 88 56 89
REMARK H PARENT 12 8 19 23 78 42 46 53
REMARK Flexibility Score: inf
ROOT
ATOM      1  C   UNL     1       0.457  -5.684   9.051  1.00  0.00     0.002 C 
ENDROOT
BRANCH   1   2
ATOM      2  C   UNL     1       0.387  -4.160   9.173  1.00  0.00     0.002 C 
BRANCH   2   3
ATOM      3  C   UNL     1       1.284  -3.354   8.231  1.00  0.00     0.021 C 
BRANCH   3   4
ATOM      4  C   UNL     1       1.153  -3.653   6.741  1.00  0.00     0.116 C 
BRANCH   4   5
ATOM      5  N   UNL     1      -0.140  -3.298   6.188  1.00  0.00    -0.352 N 
ATOM      6  C   UNL     1      -0.476  -2.713   4.991  1.00  0.00     0.254 C 
ATOM      7  O   UNL     1      -1.671  -2.499   4.773  1.00  0.00    -0.269 OA
ATOM      8  H   UNL     1      -0.906  -3.512   6.769  1.00  0.00     0.163 HD
BRANCH   6   9
ATOM      9  C   UNL     1       0.520  -2.273   3.980  1.00  0.00     0.077 A 
ATOM     10  C   UNL     1       1.031  -0.666   2.176  1.00  0.00     0.037 A 
ATOM     11  C   UNL     1       2.265  -1.316   2.016  1.00  0.00     0.029 A 
ATOM     12  C   UNL     1       0.194  -1.141   3.201  1.00  0.00     0.042 A 
ATOM     13  C   UNL     1       2.597  -2.449   2.761  1.00  0.00     0.042 A 
ATOM     14  C   UNL     1       1.700  -2.951   3.694  1.00  0.00     0.136 A 
ATOM     15  F   UNL     1       2.000  -4.124   4.267  1.00  0.00    -0.206 F 
BRANCH  10  16
ATOM     16  N   UNL     1       0.661   0.374   1.331  1.00  0.00    -0.378 N 
ATOM     17  C   UNL     1       1.020   0.280  -0.081  1.00  0.00     0.143 C 
ATOM     18  C   UNL     1      -0.348   1.345   1.721  1.00  0.00     0.143 C 
ENDBRANCH  10  16
ENDBRANCH   6   9
ENDBRANCH   4   5
ENDBRANCH   3   4
ENDBRANCH   2   3
ENDBRANCH   1   2
BRANCH   1  19
ATOM     19  C   UNL     1       1.855  -6.306   9.085  1.00  0.00     0.021 C 
BRANCH  19  20
ATOM     20  C   UNL     1       2.721  -5.928  10.283  1.00  0.00     0.116 C 
BRANCH  20  21
ATOM     21  N   UNL     1       2.133  -6.327  11.550  1.00  0.00    -0.352 N 
ATOM     22  C   UNL     1       2.678  -7.069  12.571  1.00  0.00     0.251 C 
ATOM     23  H   UNL     1       1.209  -6.021  11.700  1.00  0.00     0.163 HD
ATOM     24  O   UNL     1       1.971  -7.441  13.501  1.00  0.00    -0.269 OA
BRANCH  22  25
ATOM     25  C   UNL     1       4.113  -7.436  12.539  1.00  0.00     0.039 A 
ATOM     26  C   UNL     1       4.481  -8.746  12.857  1.00  0.00     0.014 A 
ATOM     27  C   UNL     1       5.093  -6.495  12.209  1.00  0.00     0.014 A 
ATOM     28  C   UNL     1       5.824  -9.126  12.787  1.00  0.00     0.010 A 
ATOM     29  C   UNL     1       6.421  -6.894  12.070  1.00  0.00     0.010 A 
ATOM     30  C   UNL     1       6.802  -8.213  12.360  1.00  0.00    -0.014 A 
BRANCH  30  31
ATOM     31  C   UNL     1       8.223  -8.623  12.201  1.00  0.00     0.031 A 
ATOM     32  C   UNL     1       9.298  -7.981  13.039  1.00  0.00     0.074 A 
ATOM     33  C   UNL     1       8.554  -9.528  11.256  1.00  0.00     0.049 A 
ATOM     34  N   UNL     1      10.592  -8.166  12.997  1.00  0.00    -0.248 NA
ATOM     35  C   UNL     1       8.870  -6.991  14.043  1.00  0.00     0.031 C 
ATOM     36  C   UNL     1       7.612 -10.180  10.343  1.00  0.00     0.029 A 
ATOM     37  N   UNL     1       9.774 -10.043  10.892  1.00  0.00    -0.354 N 
ATOM     38  C   UNL     1      11.132  -7.304  13.944  1.00  0.00     0.074 A 
ATOM     39  C   UNL     1      10.031  -6.569  14.525  1.00  0.00     0.031 C 
ATOM     40  C   UNL     1       8.285 -11.016   9.537  1.00  0.00     0.029 A 
ATOM     41  C   UNL     1       9.710 -10.934   9.844  1.00  0.00     0.049 A 
ATOM     42  H   UNL     1      10.617  -9.799  11.339  1.00  0.00     0.167 HD
ATOM     43  C   UNL     1      12.425  -7.163  14.320  1.00  0.00     0.034 A 
ATOM     44  C   UNL     1      10.686 -11.603   9.198  1.00  0.00     0.034 A 
ATOM     45  C   UNL     1      13.512  -7.929  13.775  1.00  0.00     0.049 A 
ATOM     46  C   UNL     1      12.113 -11.428   9.647  1.00  0.00     0.074 A 
ATOM     47  C   UNL     1      14.847  -7.898  14.140  1.00  0.00     0.029 A 
ATOM     48  N   UNL     1      13.396  -8.864  12.760  1.00  0.00    -0.354 N 
ATOM     49  N   UNL     1      12.584 -10.701  10.631  1.00  0.00    -0.248 NA
ATOM     50  C   UNL     1      13.141 -12.187   8.920  1.00  0.00     0.031 C 
ATOM     51  C   UNL     1      15.542  -8.796  13.329  1.00  0.00     0.029 A 
ATOM     52  C   UNL     1      14.635  -9.413  12.483  1.00  0.00     0.049 A 
ATOM     53  H   UNL     1      12.556  -9.102  12.304  1.00  0.00     0.167 HD
ATOM     54  C   UNL     1      13.951 -10.950  10.668  1.00  0.00     0.074 A 
ATOM     55  C   UNL     1      14.232 -11.908   9.621  1.00  0.00     0.031 C 
ATOM     56  C   UNL     1      14.891 -10.419  11.487  1.00  0.00     0.034 A 
BRANCH  43  57
ATOM     57  C   UNL     1      12.751  -6.197  15.428  1.00  0.00     0.023 A 
ATOM     58  C   UNL     1      12.435  -6.544  16.757  1.00  0.00     0.012 A 
ATOM     59  C   UNL     1      13.502  -5.031  15.175  1.00  0.00     0.148 A 
ATOM     60  C   UNL     1      12.857  -5.744  17.818  1.00  0.00     0.002 A 
ATOM     61  C   UNL     1      13.957  -4.264  16.241  1.00  0.00     0.091 A 
ATOM     62  F   UNL     1      13.780  -4.716  13.902  1.00  0.00    -0.205 F 
ATOM     63  C   UNL     1      13.631  -4.615  17.561  1.00  0.00     0.022 A 
BRANCH  61  64
ATOM     64  S   UNL     1      15.035  -2.842  16.028  1.00  0.00     0.127 S 
ATOM     65  O   UNL     1      14.207  -1.762  16.565  1.00  0.00    -0.237 OA
ATOM     66  O   UNL     1      16.183  -3.202  16.859  1.00  0.00    -0.237 OA
ATOM     67  O   UNL     1      15.311  -2.752  14.601  1.00  0.00    -0.744 OA
ENDBRANCH  61  64
ENDBRANCH  43  57
BRANCH  44  68
ATOM     68  C   UNL     1      10.348 -12.552   8.096  1.00  0.00     0.023 A 
ATOM     69  C   UNL     1      10.561 -13.932   8.284  1.00  0.00     0.012 A 
ATOM     70  C   UNL     1       9.814 -12.102   6.873  1.00  0.00     0.148 A 
ATOM     71  C   UNL     1      10.287 -14.842   7.262  1.00  0.00     0.002 A 
ATOM     72  C   UNL     1       9.486 -13.020   5.881  1.00  0.00     0.091 A 
ATOM     73  F   UNL     1       9.632 -10.785   6.704  1.00  0.00    -0.205 F 
ATOM     74  C   UNL     1       9.741 -14.388   6.065  1.00  0.00     0.022 A 
BRANCH  72  75
ATOM     75  S   UNL     1       8.652 -12.539   4.364  1.00  0.00     0.127 S 
ATOM     76  O   UNL     1       9.717 -12.692   3.376  1.00  0.00    -0.237 OA
ATOM     77  O   UNL     1       7.583 -13.534   4.277  1.00  0.00    -0.237 OA
ATOM     78  O   UNL     1       8.186 -11.177   4.589  1.00  0.00    -0.744 OA
ENDBRANCH  72  75
ENDBRANCH  44  68
BRANCH  56  79
ATOM     79  C   UNL     1      16.316 -10.885  11.335  1.00  0.00     0.023 A 
ATOM     80  C   UNL     1      17.075 -10.466  10.226  1.00  0.00     0.012 A 
ATOM     81  C   UNL     1      16.934 -11.633  12.357  1.00  0.00     0.148 A 
ATOM     82  C   UNL     1      18.425 -10.803  10.125  1.00  0.00     0.002 A 
ATOM     83  C   UNL     1      18.292 -11.918  12.277  1.00  0.00     0.091 A 
ATOM     84  F   UNL     1      16.188 -12.032  13.398  1.00  0.00    -0.205 F 
ATOM     85  C   UNL     1      19.035 -11.513  11.156  1.00  0.00     0.022 A 
BRANCH  83  86
ATOM     86  S   UNL     1      19.189 -12.730  13.604  1.00  0.00     0.127 S 
ATOM     87  O   UNL     1      19.523 -14.016  12.993  1.00  0.00    -0.237 OA
ATOM     88  O   UNL     1      20.329 -11.834  13.798  1.00  0.00    -0.237 OA
ATOM     89  O   UNL     1      18.271 -12.798  14.732  1.00  0.00    -0.744 OA
ENDBRANCH  83  86
ENDBRANCH  56  79
ENDBRANCH  30  31
ENDBRANCH  22  25
ENDBRANCH  20  21
ENDBRANCH  19  20
ENDBRANCH   1  19
TORSDOF 17
