REMARK SMILES CN1C(=O)C[C@@H](C(=O)NCCCCCCNC(=O)c2ccc(-c3c4nc(c(-c5cccc(S(=O)(=O)[O-])c5F)c5ccc([nH]5)c(-c5cccc(S(=O)(=O)[O-])c5F)c5nc(c(-c6cccc(S(=O)(=O)[O-])c6F)c6ccc3[nH]6)C=C5)C=C4)cc2)C12CCN(c1ccc(Cl)cn1)CC2
REMARK SMILES IDX 13 1 12 2 11 3 10 4 9 5 7 6 8 7 6 9 1 10 2 11 3 12 82 13
REMARK SMILES IDX 4 14 5 15 83 16 94 17 84 18 93 19 85 20 86 21 87 22 92 23
REMARK SMILES IDX 88 24 91 25 89 26 90 27 14 28 15 29 16 30 17 31 18 33 19 34
REMARK SMILES IDX 20 35 81 36 21 37 80 38 22 39 23 40 24 41 74 42 25 43 79 44
REMARK SMILES IDX 73 45 75 46 26 47 78 48 72 49 71 50 27 52 59 53 39 54 58 55
REMARK SMILES IDX 40 56 43 57 57 58 76 59 41 60 42 61 56 63 77 64 44 65 28 66
REMARK SMILES IDX 29 67 37 68 30 69 32 70 38 71 31 72 33 73 34 74 35 75 36 76
REMARK SMILES IDX 60 77 61 78 69 79 62 80 64 81 70 82 63 83 65 84 66 85 67 86
REMARK SMILES IDX 68 87 45 88 46 89 54 90 47 91 49 92 55 93 48 94 50 95 51 96
REMARK SMILES IDX 52 97 53 98
REMARK H PARENT 9 8 16 32 75 51 43 62
REMARK Flexibility Score: inf
ROOT
ATOM      1  C   UNL     1      -2.410  -2.855  -3.297  1.00  0.00     0.002 C 
ENDROOT
BRANCH   1   2
ATOM      2  C   UNL     1      -2.196  -2.857  -1.783  1.00  0.00     0.002 C 
BRANCH   2   3
ATOM      3  C   UNL     1      -1.251  -1.766  -1.283  1.00  0.00     0.021 C 
BRANCH   3   4
ATOM      4  C   UNL     1      -1.728  -0.343  -1.578  1.00  0.00     0.116 C 
BRANCH   4   5
ATOM      5  N   UNL     1      -2.766   0.108  -0.669  1.00  0.00    -0.356 N 
ATOM      6  C   UNL     1      -2.824   1.094   0.258  1.00  0.00     0.226 C 
ATOM      7  O   UNL     1      -3.912   1.232   0.832  1.00  0.00    -0.275 OA
ATOM      8  H   UNL     1      -3.601  -0.409  -0.742  1.00  0.00     0.163 HD
BRANCH   6   9
ATOM      9  C   UNL     1      -1.663   2.009   0.664  1.00  0.00     0.113 C 
ATOM     10  C   UNL     1       1.698   0.512   0.025  1.00  0.00     0.147 C 
ATOM     11  N   UNL     1       0.501   1.326   0.132  1.00  0.00    -0.339 N 
ATOM     12  C   UNL     1       0.187   2.282  -0.829  1.00  0.00     0.223 C 
ATOM     13  C   UNL     1      -0.403   1.363   1.291  1.00  0.00     0.058 C 
ATOM     14  O   UNL     1       0.843   2.572  -1.810  1.00  0.00    -0.275 OA
ATOM     15  C   UNL     1      -1.151   2.878  -0.485  1.00  0.00     0.116 C 
ATOM     16  C   UNL     1      -0.656  -0.021   1.922  1.00  0.00     0.051 C 
ATOM     17  C   UNL     1       0.213   2.305   2.380  1.00  0.00     0.051 C 
ATOM     18  C   UNL     1      -1.486   0.068   3.188  1.00  0.00     0.120 C 
ATOM     19  C   UNL     1      -0.552   2.294   3.718  1.00  0.00     0.120 C 
ATOM     20  N   UNL     1      -0.749   0.913   4.098  1.00  0.00    -0.356 N 
BRANCH  20  21
ATOM     21  C   UNL     1      -0.504   0.450   5.364  1.00  0.00     0.128 A 
ATOM     22  C   UNL     1       0.277  -0.701   5.522  1.00  0.00     0.048 A 
ATOM     23  N   UNL     1      -1.059   1.075   6.420  1.00  0.00    -0.238 NA
ATOM     24  C   UNL     1       0.470  -1.250   6.786  1.00  0.00     0.026 A 
ATOM     25  C   UNL     1      -0.885   0.505   7.640  1.00  0.00     0.134 A 
ATOM     26  C   UNL     1      -0.141  -0.642   7.868  1.00  0.00     0.059 A 
ATOM     27  Cl  UNL     1       0.018  -1.304   9.443  1.00  0.00    -0.083 Cl
ENDBRANCH  20  21
ENDBRANCH   6   9
ENDBRANCH   4   5
ENDBRANCH   3   4
ENDBRANCH   2   3
ENDBRANCH   1   2
BRANCH   1  28
ATOM     28  C   UNL     1      -1.121  -2.833  -4.124  1.00  0.00     0.021 C 
BRANCH  28  29
ATOM     29  C   UNL     1      -0.147  -3.961  -3.800  1.00  0.00     0.116 C 
BRANCH  29  30
ATOM     30  N   UNL     1      -0.753  -5.266  -4.010  1.00  0.00    -0.352 N 
ATOM     31  C   UNL     1      -0.373  -6.263  -4.870  1.00  0.00     0.251 C 
ATOM     32  H   UNL     1      -1.545  -5.460  -3.458  1.00  0.00     0.163 HD
ATOM     33  O   UNL     1      -1.135  -7.194  -5.111  1.00  0.00    -0.269 OA
BRANCH  31  34
ATOM     34  C   UNL     1       0.958  -6.201  -5.504  1.00  0.00     0.039 A 
ATOM     35  C   UNL     1       1.075  -6.464  -6.870  1.00  0.00     0.014 A 
ATOM     36  C   UNL     1       2.087  -5.881  -4.744  1.00  0.00     0.014 A 
ATOM     37  C   UNL     1       2.324  -6.364  -7.484  1.00  0.00     0.010 A 
ATOM     38  C   UNL     1       3.313  -5.702  -5.373  1.00  0.00     0.010 A 
ATOM     39  C   UNL     1       3.448  -5.957  -6.745  1.00  0.00    -0.014 A 
BRANCH  39  40
ATOM     40  C   UNL     1       4.774  -5.792  -7.391  1.00  0.00     0.031 A 
ATOM     41  C   UNL     1       5.934  -6.651  -6.968  1.00  0.00     0.074 A 
ATOM     42  C   UNL     1       4.950  -4.818  -8.304  1.00  0.00     0.049 A 
ATOM     43  N   UNL     1       7.170  -6.636  -7.394  1.00  0.00    -0.248 NA
ATOM     44  C   UNL     1       5.678  -7.637  -5.905  1.00  0.00     0.031 C 
ATOM     45  C   UNL     1       3.919  -3.878  -8.748  1.00  0.00     0.029 A 
ATOM     46  N   UNL     1       6.066  -4.446  -9.010  1.00  0.00    -0.354 N 
ATOM     47  C   UNL     1       7.845  -7.582  -6.633  1.00  0.00     0.074 A 
ATOM     48  C   UNL     1       6.891  -8.120  -5.687  1.00  0.00     0.031 C 
ATOM     49  C   UNL     1       4.442  -3.055  -9.670  1.00  0.00     0.029 A 
ATOM     50  C   UNL     1       5.853  -3.382  -9.855  1.00  0.00     0.049 A 
ATOM     51  H   UNL     1       6.936  -4.897  -8.921  1.00  0.00     0.167 HD
ATOM     52  C   UNL     1       9.133  -7.992  -6.731  1.00  0.00     0.034 A 
ATOM     53  C   UNL     1       6.699  -2.744 -10.685  1.00  0.00     0.034 A 
ATOM     54  C   UNL     1      10.069  -7.467  -7.688  1.00  0.00     0.049 A 
ATOM     55  C   UNL     1       8.125  -3.214 -10.777  1.00  0.00     0.074 A 
ATOM     56  C   UNL     1      11.373  -7.864  -7.925  1.00  0.00     0.029 A 
ATOM     57  N   UNL     1       9.807  -6.418  -8.557  1.00  0.00    -0.354 N 
ATOM     58  N   UNL     1       8.708  -4.212 -10.157  1.00  0.00    -0.248 NA
ATOM     59  C   UNL     1       9.001  -2.490 -11.708  1.00  0.00     0.031 C 
ATOM     60  C   UNL     1      11.912  -7.027  -8.909  1.00  0.00     0.029 A 
ATOM     61  C   UNL     1      10.930  -6.138  -9.317  1.00  0.00     0.049 A 
ATOM     62  H   UNL     1       8.948  -5.942  -8.623  1.00  0.00     0.167 HD
ATOM     63  C   UNL     1      10.006  -4.262 -10.652  1.00  0.00     0.074 A 
ATOM     64  C   UNL     1      10.117  -3.202 -11.634  1.00  0.00     0.031 C 
ATOM     65  C   UNL     1      11.015  -5.106 -10.320  1.00  0.00     0.034 A 
BRANCH  52  66
ATOM     66  C   UNL     1       9.585  -9.082  -5.790  1.00  0.00     0.023 A 
ATOM     67  C   UNL     1       9.057 -10.384  -5.920  1.00  0.00     0.012 A 
ATOM     68  C   UNL     1      10.537  -8.825  -4.785  1.00  0.00     0.148 A 
ATOM     69  C   UNL     1       9.421 -11.394  -5.030  1.00  0.00     0.002 A 
ATOM     70  C   UNL     1      10.936  -9.850  -3.934  1.00  0.00     0.091 A 
ATOM     71  F   UNL     1      11.017  -7.579  -4.659  1.00  0.00    -0.205 F 
ATOM     72  C   UNL     1      10.366 -11.129  -4.043  1.00  0.00     0.022 A 
BRANCH  70  73
ATOM     73  S   UNL     1      12.207  -9.630  -2.685  1.00  0.00     0.127 S 
ATOM     74  O   UNL     1      11.413  -9.607  -1.458  1.00  0.00    -0.237 OA
ATOM     75  O   UNL     1      13.024 -10.831  -2.860  1.00  0.00    -0.237 OA
ATOM     76  O   UNL     1      12.883  -8.384  -3.020  1.00  0.00    -0.744 OA
ENDBRANCH  70  73
ENDBRANCH  52  66
BRANCH  53  77
ATOM     77  C   UNL     1       6.195  -1.648 -11.559  1.00  0.00     0.023 A 
ATOM     78  C   UNL     1       6.085  -1.875 -12.945  1.00  0.00     0.012 A 
ATOM     79  C   UNL     1       5.787  -0.409 -11.031  1.00  0.00     0.148 A 
ATOM     80  C   UNL     1       5.604  -0.877 -13.794  1.00  0.00     0.002 A 
ATOM     81  C   UNL     1       5.260   0.562 -11.874  1.00  0.00     0.091 A 
ATOM     82  F   UNL     1       5.902  -0.215  -9.709  1.00  0.00    -0.205 F 
ATOM     83  C   UNL     1       5.183   0.336 -13.258  1.00  0.00     0.022 A 
BRANCH  81  84
ATOM     84  S   UNL     1       4.580   2.109 -11.267  1.00  0.00     0.127 S 
ATOM     85  O   UNL     1       5.487   3.088 -11.860  1.00  0.00    -0.237 OA
ATOM     86  O   UNL     1       3.234   2.088 -11.840  1.00  0.00    -0.237 OA
ATOM     87  O   UNL     1       4.620   2.017  -9.814  1.00  0.00    -0.744 OA
ENDBRANCH  81  84
ENDBRANCH  53  77
BRANCH  65  88
ATOM     88  C   UNL     1      12.324  -4.950 -11.053  1.00  0.00     0.023 A 
ATOM     89  C   UNL     1      13.147  -3.835 -10.800  1.00  0.00     0.012 A 
ATOM     90  C   UNL     1      12.768  -5.949 -11.942  1.00  0.00     0.148 A 
ATOM     91  C   UNL     1      14.374  -3.699 -11.449  1.00  0.00     0.002 A 
ATOM     92  C   UNL     1      14.015  -5.834 -12.543  1.00  0.00     0.091 A 
ATOM     93  F   UNL     1      11.962  -6.994 -12.183  1.00  0.00    -0.205 F 
ATOM     94  C   UNL     1      14.813  -4.703 -12.309  1.00  0.00     0.022 A 
BRANCH  92  95
ATOM     95  S   UNL     1      14.707  -7.124 -13.584  1.00  0.00     0.127 S 
ATOM     96  O   UNL     1      14.671  -6.493 -14.902  1.00  0.00    -0.237 OA
ATOM     97  O   UNL     1      16.049  -7.287 -13.022  1.00  0.00    -0.237 OA
ATOM     98  O   UNL     1      13.839  -8.282 -13.423  1.00  0.00    -0.744 OA
ENDBRANCH  92  95
ENDBRANCH  65  88
ENDBRANCH  39  40
ENDBRANCH  31  34
ENDBRANCH  29  30
ENDBRANCH  28  29
ENDBRANCH   1  28
TORSDOF 17
