REMARK SMILES C[C@](O)(C(=O)NCCCCCCNC(=O)c1ccc(-c2c3nc(c(-c4cccc(S(=O)(=O)[O-])c4F)c4ccc([nH]4)c(-c4cccc(S(=O)(=O)[O-])c4F)c4nc(c(-c5cccc(S(=O)(=O)[O-])c5F)c5ccc2[nH]5)C=C4)C=C3)cc1)c1ccc(O)cc1
REMARK SMILES IDX 10 1 9 2 8 3 7 4 6 5 4 6 5 7 2 9 1 10 79 11 80 12 85 13
REMARK SMILES IDX 81 14 84 15 82 16 83 17 3 19 11 21 12 22 13 23 14 24 15 26
REMARK SMILES IDX 16 27 17 28 78 29 18 30 77 31 19 32 20 33 21 34 71 35 22 36
REMARK SMILES IDX 76 37 70 38 72 39 23 40 75 41 69 42 68 43 24 45 56 46 36 47
REMARK SMILES IDX 55 48 37 49 40 50 54 51 73 52 38 53 39 54 53 56 74 57 41 58
REMARK SMILES IDX 25 59 26 60 34 61 27 62 29 63 35 64 28 65 30 66 31 67 32 68
REMARK SMILES IDX 33 69 57 70 58 71 66 72 59 73 61 74 67 75 60 76 62 77 63 78
REMARK SMILES IDX 64 79 65 80 42 81 43 82 51 83 44 84 46 85 52 86 45 87 47 88
REMARK SMILES IDX 48 89 49 90 50 91
REMARK H PARENT 6 8 83 18 3 20 13 25 72 44 40 55
REMARK Flexibility Score: inf
ROOT
ATOM      1  C   UNL     1      -3.568   3.553   1.265  1.00  0.00     0.002 C 
ENDROOT
BRANCH   1   2
ATOM      2  C   UNL     1      -3.138   2.785   0.011  1.00  0.00     0.002 C 
BRANCH   2   3
ATOM      3  C   UNL     1      -1.633   2.516  -0.105  1.00  0.00     0.021 C 
BRANCH   3   4
ATOM      4  C   UNL     1      -1.024   1.791   1.091  1.00  0.00     0.116 C 
BRANCH   4   5
ATOM      5  N   UNL     1      -1.640   0.491   1.288  1.00  0.00    -0.353 N 
ATOM      6  C   UNL     1      -1.086  -0.737   1.520  1.00  0.00     0.256 C 
ATOM      7  O   UNL     1      -1.887  -1.631   1.806  1.00  0.00    -0.271 OA
ATOM      8  H   UNL     1      -2.624   0.495   1.248  1.00  0.00     0.163 HD
BRANCH   6   9
ATOM      9  C   UNL     1       0.475  -0.924   1.473  1.00  0.00     0.165 C 
ATOM     10  C   UNL     1       0.999  -0.207   2.743  1.00  0.00     0.058 C 
BRANCH   9  11
ATOM     11  C   UNL     1       0.985  -2.374   1.386  1.00  0.00    -0.007 A 
ATOM     12  C   UNL     1       0.182  -3.466   1.016  1.00  0.00     0.011 A 
ATOM     13  C   UNL     1       2.351  -2.646   1.626  1.00  0.00     0.011 A 
ATOM     14  C   UNL     1       0.684  -4.773   1.013  1.00  0.00     0.046 A 
ATOM     15  C   UNL     1       2.857  -3.949   1.631  1.00  0.00     0.046 A 
ATOM     16  C   UNL     1       2.009  -5.008   1.346  1.00  0.00     0.115 A 
BRANCH  16  17
ATOM     17  O   UNL     1       2.447  -6.298   1.375  1.00  0.00    -0.508 OA
ATOM     18  H   UNL     1       1.856  -6.998   1.179  1.00  0.00     0.293 HD
ENDBRANCH  16  17
ENDBRANCH   9  11
BRANCH   9  19
ATOM     19  O   UNL     1       1.046  -0.277   0.329  1.00  0.00    -0.376 OA
ATOM     20  H   UNL     1       0.730  -0.711  -0.479  1.00  0.00     0.212 HD
ENDBRANCH   9  19
ENDBRANCH   6   9
ENDBRANCH   4   5
ENDBRANCH   3   4
ENDBRANCH   2   3
ENDBRANCH   1   2
BRANCH   1  21
ATOM     21  C   UNL     1      -2.861   4.893   1.479  1.00  0.00     0.021 C 
BRANCH  21  22
ATOM     22  C   UNL     1      -2.971   5.864   0.309  1.00  0.00     0.116 C 
BRANCH  22  23
ATOM     23  N   UNL     1      -4.349   6.234   0.029  1.00  0.00    -0.352 N 
ATOM     24  C   UNL     1      -4.896   7.486  -0.101  1.00  0.00     0.251 C 
ATOM     25  H   UNL     1      -4.976   5.484  -0.083  1.00  0.00     0.163 HD
ATOM     26  O   UNL     1      -6.117   7.622  -0.154  1.00  0.00    -0.269 OA
BRANCH  24  27
ATOM     27  C   UNL     1      -4.013   8.670  -0.156  1.00  0.00     0.039 A 
ATOM     28  C   UNL     1      -4.333   9.789   0.615  1.00  0.00     0.014 A 
ATOM     29  C   UNL     1      -2.868   8.671  -0.958  1.00  0.00     0.014 A 
ATOM     30  C   UNL     1      -3.473  10.889   0.624  1.00  0.00     0.010 A 
ATOM     31  C   UNL     1      -1.973   9.735  -0.886  1.00  0.00     0.010 A 
ATOM     32  C   UNL     1      -2.269  10.859  -0.101  1.00  0.00    -0.014 A 
BRANCH  32  33
ATOM     33  C   UNL     1      -1.306  11.989  -0.039  1.00  0.00     0.031 A 
ATOM     34  C   UNL     1      -0.962  12.763  -1.284  1.00  0.00     0.074 A 
ATOM     35  C   UNL     1      -0.683  12.270   1.123  1.00  0.00     0.049 A 
ATOM     36  N   UNL     1      -0.110  13.743  -1.435  1.00  0.00    -0.248 NA
ATOM     37  C   UNL     1      -1.646  12.369  -2.528  1.00  0.00     0.031 C 
ATOM     38  C   UNL     1      -0.874  11.546   2.382  1.00  0.00     0.029 A 
ATOM     39  N   UNL     1       0.255  13.224   1.430  1.00  0.00    -0.354 N 
ATOM     40  C   UNL     1      -0.131  14.062  -2.788  1.00  0.00     0.074 A 
ATOM     41  C   UNL     1      -1.054  13.148  -3.422  1.00  0.00     0.031 C 
ATOM     42  C   UNL     1      -0.082  12.084   3.324  1.00  0.00     0.029 A 
ATOM     43  C   UNL     1       0.698  13.165   2.731  1.00  0.00     0.049 A 
ATOM     44  H   UNL     1       0.580  13.889   0.780  1.00  0.00     0.167 HD
ATOM     45  C   UNL     1       0.533  15.046  -3.439  1.00  0.00     0.034 A 
ATOM     46  C   UNL     1       1.636  13.890   3.372  1.00  0.00     0.034 A 
ATOM     47  C   UNL     1       1.424  15.977  -2.799  1.00  0.00     0.049 A 
ATOM     48  C   UNL     1       2.344  14.990   2.628  1.00  0.00     0.074 A 
ATOM     49  C   UNL     1       2.084  17.057  -3.358  1.00  0.00     0.029 A 
ATOM     50  N   UNL     1       1.790  15.933  -1.463  1.00  0.00    -0.354 N 
ATOM     51  N   UNL     1       2.194  15.374   1.383  1.00  0.00    -0.248 NA
ATOM     52  C   UNL     1       3.324  15.782   3.386  1.00  0.00     0.031 C 
ATOM     53  C   UNL     1       2.874  17.647  -2.368  1.00  0.00     0.029 A 
ATOM     54  C   UNL     1       2.676  16.959  -1.182  1.00  0.00     0.049 A 
ATOM     55  H   UNL     1       1.468  15.270  -0.811  1.00  0.00     0.167 HD
ATOM     56  C   UNL     1       3.029  16.474   1.221  1.00  0.00     0.074 A 
ATOM     57  C   UNL     1       3.664  16.709   2.501  1.00  0.00     0.031 C 
ATOM     58  C   UNL     1       3.260  17.215   0.109  1.00  0.00     0.034 A 
BRANCH  45  59
ATOM     59  C   UNL     1       0.288  15.203  -4.917  1.00  0.00     0.023 A 
ATOM     60  C   UNL     1      -0.954  15.695  -5.369  1.00  0.00     0.012 A 
ATOM     61  C   UNL     1       1.308  14.938  -5.853  1.00  0.00     0.148 A 
ATOM     62  C   UNL     1      -1.189  15.890  -6.730  1.00  0.00     0.002 A 
ATOM     63  C   UNL     1       1.083  15.181  -7.203  1.00  0.00     0.091 A 
ATOM     64  F   UNL     1       2.475  14.455  -5.405  1.00  0.00    -0.205 F 
ATOM     65  C   UNL     1      -0.168  15.645  -7.644  1.00  0.00     0.022 A 
BRANCH  63  66
ATOM     66  S   UNL     1       2.356  14.976  -8.453  1.00  0.00     0.127 S 
ATOM     67  O   UNL     1       1.833  13.849  -9.224  1.00  0.00    -0.237 OA
ATOM     68  O   UNL     1       2.312  16.263  -9.147  1.00  0.00    -0.237 OA
ATOM     69  O   UNL     1       3.593  14.713  -7.731  1.00  0.00    -0.744 OA
ENDBRANCH  63  66
ENDBRANCH  45  59
BRANCH  46  70
ATOM     70  C   UNL     1       1.935  13.630   4.810  1.00  0.00     0.023 A 
ATOM     71  C   UNL     1       1.594  14.595   5.777  1.00  0.00     0.012 A 
ATOM     72  C   UNL     1       2.551  12.433   5.223  1.00  0.00     0.148 A 
ATOM     73  C   UNL     1       1.902  14.394   7.123  1.00  0.00     0.002 A 
ATOM     74  C   UNL     1       2.801  12.213   6.572  1.00  0.00     0.091 A 
ATOM     75  F   UNL     1       2.878  11.531   4.287  1.00  0.00    -0.205 F 
ATOM     76  C   UNL     1       2.497  13.200   7.522  1.00  0.00     0.022 A 
BRANCH  74  77
ATOM     77  S   UNL     1       3.443  10.653   7.189  1.00  0.00     0.127 S 
ATOM     78  O   UNL     1       4.797  11.025   7.592  1.00  0.00    -0.237 OA
ATOM     79  O   UNL     1       2.527  10.365   8.293  1.00  0.00    -0.237 OA
ATOM     80  O   UNL     1       3.348   9.721   6.073  1.00  0.00    -0.744 OA
ENDBRANCH  74  77
ENDBRANCH  46  70
BRANCH  58  81
ATOM     81  C   UNL     1       4.204  18.383   0.230  1.00  0.00     0.023 A 
ATOM     82  C   UNL     1       5.586  18.162   0.388  1.00  0.00     0.012 A 
ATOM     83  C   UNL     1       3.724  19.703   0.115  1.00  0.00     0.148 A 
ATOM     84  C   UNL     1       6.471  19.236   0.468  1.00  0.00     0.002 A 
ATOM     85  C   UNL     1       4.617  20.767   0.141  1.00  0.00     0.091 A 
ATOM     86  F   UNL     1       2.403  19.894  -0.019  1.00  0.00    -0.205 F 
ATOM     87  C   UNL     1       5.989  20.536   0.332  1.00  0.00     0.022 A 
BRANCH  85  88
ATOM     88  S   UNL     1       4.101  22.466  -0.125  1.00  0.00     0.127 S 
ATOM     89  O   UNL     1       4.283  23.044   1.206  1.00  0.00    -0.237 OA
ATOM     90  O   UNL     1       5.063  22.927  -1.127  1.00  0.00    -0.237 OA
ATOM     91  O   UNL     1       2.724  22.401  -0.593  1.00  0.00    -0.744 OA
ENDBRANCH  85  88
ENDBRANCH  58  81
ENDBRANCH  32  33
ENDBRANCH  24  27
ENDBRANCH  22  23
ENDBRANCH  21  22
ENDBRANCH   1  21
TORSDOF 19
