REMARK SMILES O=C(NCCCCCCNC(=O)[C@@H]1CS[C@H](Cc2cccc(F)c2)C(=O)N1)c1ccc(-c2c3nc(c(-c4cccc(S(=O)(=O)[O-])c4F)c4ccc([nH]4)c(-c4cccc(S(=O)(=O)[O-])c4F)c4nc(c(-c5cccc(S(=O)(=O)[O-])c5F)c5ccc2[nH]5)C=C4)C=C3)cc1
REMARK SMILES IDX 6 1 5 2 4 3 3 4 1 5 2 6 28 8 29 9 90 10 30 11 89 12 31 13
REMARK SMILES IDX 32 14 33 15 83 16 34 17 88 18 82 19 84 20 35 21 87 22 81 23
REMARK SMILES IDX 80 24 36 26 68 27 48 28 67 29 49 30 52 31 66 32 85 33 50 34
REMARK SMILES IDX 51 35 65 37 86 38 53 39 37 40 38 41 46 42 39 43 41 44 47 45
REMARK SMILES IDX 40 46 42 47 43 48 44 49 45 50 69 51 70 52 78 53 71 54 73 55
REMARK SMILES IDX 79 56 72 57 74 58 75 59 76 60 77 61 54 62 55 63 63 64 56 65
REMARK SMILES IDX 58 66 64 67 57 68 59 69 60 70 61 71 62 72 7 73 8 74 9 75
REMARK SMILES IDX 10 76 11 77 12 79 13 80 14 81 27 82 15 83 25 84 16 86 26 87
REMARK SMILES IDX 17 88 18 89 19 90 24 91 20 92 22 93 21 94 23 95
REMARK H PARENT 3 7 84 25 52 36 10 78 27 85
REMARK Flexibility Score: inf
ROOT
ATOM      1  C   UNL     1       3.819  -1.238   3.648  1.00  0.00     0.002 C 
ENDROOT
BRANCH   1   2
ATOM      2  C   UNL     1       4.540  -0.385   2.597  1.00  0.00     0.021 C 
BRANCH   2   3
ATOM      3  C   UNL     1       4.364  -0.838   1.149  1.00  0.00     0.116 C 
BRANCH   3   4
ATOM      4  N   UNL     1       2.970  -0.844   0.751  1.00  0.00    -0.352 N 
ATOM      5  O   UNL     1       1.065  -0.060  -0.126  1.00  0.00    -0.269 OA
ATOM      6  C   UNL     1       2.294  -0.046  -0.135  1.00  0.00     0.251 C 
ATOM      7  H   UNL     1       2.419  -1.533   1.189  1.00  0.00     0.163 HD
BRANCH   6   8
ATOM      8  C   UNL     1       3.017   0.825  -1.092  1.00  0.00     0.039 A 
ATOM      9  C   UNL     1       4.143   0.373  -1.789  1.00  0.00     0.014 A 
ATOM     10  C   UNL     1       2.494   2.092  -1.369  1.00  0.00     0.014 A 
ATOM     11  C   UNL     1       4.789   1.214  -2.697  1.00  0.00     0.010 A 
ATOM     12  C   UNL     1       3.108   2.912  -2.321  1.00  0.00     0.010 A 
ATOM     13  C   UNL     1       4.266   2.483  -2.988  1.00  0.00    -0.014 A 
BRANCH  13  14
ATOM     14  C   UNL     1       4.870   3.331  -4.050  1.00  0.00     0.031 A 
ATOM     15  C   UNL     1       5.506   4.652  -3.714  1.00  0.00     0.074 A 
ATOM     16  C   UNL     1       4.791   2.926  -5.334  1.00  0.00     0.049 A 
ATOM     17  N   UNL     1       5.976   5.567  -4.522  1.00  0.00    -0.248 NA
ATOM     18  C   UNL     1       5.629   4.992  -2.287  1.00  0.00     0.031 C 
ATOM     19  C   UNL     1       4.184   1.673  -5.788  1.00  0.00     0.029 A 
ATOM     20  N   UNL     1       5.201   3.534  -6.495  1.00  0.00    -0.354 N 
ATOM     21  C   UNL     1       6.423   6.603  -3.710  1.00  0.00     0.074 A 
ATOM     22  C   UNL     1       6.163   6.207  -2.342  1.00  0.00     0.031 C 
ATOM     23  C   UNL     1       4.261   1.604  -7.126  1.00  0.00     0.029 A 
ATOM     24  C   UNL     1       4.873   2.828  -7.630  1.00  0.00     0.049 A 
ATOM     25  H   UNL     1       5.683   4.392  -6.514  1.00  0.00     0.167 HD
ATOM     26  C   UNL     1       7.010   7.769  -4.073  1.00  0.00     0.034 A 
ATOM     27  C   UNL     1       5.022   3.141  -8.932  1.00  0.00     0.034 A 
ATOM     28  C   UNL     1       7.293   8.146  -5.434  1.00  0.00     0.049 A 
ATOM     29  C   UNL     1       5.661   4.452  -9.299  1.00  0.00     0.074 A 
ATOM     30  C   UNL     1       7.906   9.299  -5.894  1.00  0.00     0.029 A 
ATOM     31  N   UNL     1       6.990   7.383  -6.550  1.00  0.00    -0.354 N 
ATOM     32  N   UNL     1       6.153   5.379  -8.514  1.00  0.00    -0.248 NA
ATOM     33  C   UNL     1       5.787   4.750 -10.733  1.00  0.00     0.031 C 
ATOM     34  C   UNL     1       7.965   9.239  -7.289  1.00  0.00     0.029 A 
ATOM     35  C   UNL     1       7.406   8.039  -7.698  1.00  0.00     0.049 A 
ATOM     36  H   UNL     1       6.545   6.505  -6.531  1.00  0.00     0.167 HD
ATOM     37  C   UNL     1       6.673   6.354  -9.357  1.00  0.00     0.074 A 
ATOM     38  C   UNL     1       6.466   5.889 -10.713  1.00  0.00     0.031 C 
ATOM     39  C   UNL     1       7.249   7.540  -9.039  1.00  0.00     0.034 A 
BRANCH  26  40
ATOM     40  C   UNL     1       7.450   8.717  -2.988  1.00  0.00     0.023 A 
ATOM     41  C   UNL     1       8.623   8.430  -2.261  1.00  0.00     0.012 A 
ATOM     42  C   UNL     1       6.793   9.947  -2.785  1.00  0.00     0.148 A 
ATOM     43  C   UNL     1       9.133   9.349  -1.345  1.00  0.00     0.002 A 
ATOM     44  C   UNL     1       7.329  10.874  -1.898  1.00  0.00     0.091 A 
ATOM     45  F   UNL     1       5.675  10.195  -3.481  1.00  0.00    -0.205 F 
ATOM     46  C   UNL     1       8.494  10.574  -1.173  1.00  0.00     0.022 A 
BRANCH  44  47
ATOM     47  S   UNL     1       6.633  12.514  -1.659  1.00  0.00     0.127 S 
ATOM     48  O   UNL     1       6.253  12.471  -0.247  1.00  0.00    -0.237 OA
ATOM     49  O   UNL     1       7.777  13.376  -1.956  1.00  0.00    -0.237 OA
ATOM     50  O   UNL     1       5.522  12.623  -2.593  1.00  0.00    -0.744 OA
ENDBRANCH  44  47
ENDBRANCH  26  40
BRANCH  27  51
ATOM     51  C   UNL     1       4.598   2.178  -9.989  1.00  0.00     0.023 A 
ATOM     52  C   UNL     1       5.579   1.563 -10.791  1.00  0.00     0.012 A 
ATOM     53  C   UNL     1       3.243   1.856 -10.197  1.00  0.00     0.148 A 
ATOM     54  C   UNL     1       5.218   0.672 -11.801  1.00  0.00     0.002 A 
ATOM     55  C   UNL     1       2.894   0.920 -11.164  1.00  0.00     0.091 A 
ATOM     56  F   UNL     1       2.319   2.466  -9.441  1.00  0.00    -0.205 F 
ATOM     57  C   UNL     1       3.877   0.341 -11.980  1.00  0.00     0.022 A 
BRANCH  55  58
ATOM     58  S   UNL     1       1.207   0.334 -11.364  1.00  0.00     0.127 S 
ATOM     59  O   UNL     1       0.790   1.031 -12.578  1.00  0.00    -0.237 OA
ATOM     60  O   UNL     1       1.401  -1.109 -11.518  1.00  0.00    -0.237 OA
ATOM     61  O   UNL     1       0.518   0.715 -10.139  1.00  0.00    -0.744 OA
ENDBRANCH  55  58
ENDBRANCH  27  51
BRANCH  39  62
ATOM     62  C   UNL     1       7.724   8.411 -10.172  1.00  0.00     0.023 A 
ATOM     63  C   UNL     1       6.783   9.073 -10.984  1.00  0.00     0.012 A 
ATOM     64  C   UNL     1       9.099   8.627 -10.391  1.00  0.00     0.148 A 
ATOM     65  C   UNL     1       7.201   9.909 -12.019  1.00  0.00     0.002 A 
ATOM     66  C   UNL     1       9.508   9.501 -11.392  1.00  0.00     0.091 A 
ATOM     67  F   UNL     1       9.982   7.973  -9.622  1.00  0.00    -0.205 F 
ATOM     68  C   UNL     1       8.562  10.132 -12.215  1.00  0.00     0.022 A 
BRANCH  66  69
ATOM     69  S   UNL     1      11.236   9.922 -11.647  1.00  0.00     0.127 S 
ATOM     70  O   UNL     1      11.568   9.122 -12.825  1.00  0.00    -0.237 OA
ATOM     71  O   UNL     1      11.177  11.364 -11.887  1.00  0.00    -0.237 OA
ATOM     72  O   UNL     1      11.921   9.546 -10.417  1.00  0.00    -0.744 OA
ENDBRANCH  66  69
ENDBRANCH  39  62
ENDBRANCH  13  14
ENDBRANCH   6   8
ENDBRANCH   3   4
ENDBRANCH   2   3
ENDBRANCH   1   2
BRANCH   1  73
ATOM     73  C   UNL     1       4.194  -2.725   3.689  1.00  0.00     0.002 C 
BRANCH  73  74
ATOM     74  C   UNL     1       5.690  -3.039   3.717  1.00  0.00     0.021 C 
BRANCH  74  75
ATOM     75  C   UNL     1       6.467  -2.354   4.832  1.00  0.00     0.116 C 
BRANCH  75  76
ATOM     76  N   UNL     1       6.520  -3.101   6.067  1.00  0.00    -0.354 N 
ATOM     77  C   UNL     1       7.599  -3.469   6.814  1.00  0.00     0.243 C 
ATOM     78  H   UNL     1       5.647  -3.388   6.421  1.00  0.00     0.163 HD
ATOM     79  O   UNL     1       7.375  -3.833   7.976  1.00  0.00    -0.273 OA
BRANCH  77  80
ATOM     80  C   UNL     1       9.067  -3.365   6.322  1.00  0.00     0.181 C 
ATOM     81  C   UNL     1       9.732  -2.032   6.641  1.00  0.00     0.105 C 
ATOM     82  N   UNL     1       9.312  -3.862   4.978  1.00  0.00    -0.343 N 
ATOM     83  S   UNL     1       9.488  -0.765   5.371  1.00  0.00    -0.146 SA
ATOM     84  C   UNL     1       9.686  -3.188   3.862  1.00  0.00     0.234 C 
ATOM     85  H   UNL     1       9.188  -4.832   4.860  1.00  0.00     0.164 HD
ATOM     86  C   UNL     1      10.017  -1.689   3.867  1.00  0.00     0.140 C 
ATOM     87  O   UNL     1       9.782  -3.859   2.829  1.00  0.00    -0.274 OA
BRANCH  86  88
ATOM     88  C   UNL     1       9.379  -1.084   2.589  1.00  0.00     0.060 C 
BRANCH  88  89
ATOM     89  C   UNL     1       9.586   0.394   2.370  1.00  0.00    -0.043 A 
ATOM     90  C   UNL     1      10.846   0.895   2.019  1.00  0.00     0.004 A 
ATOM     91  C   UNL     1       8.515   1.288   2.513  1.00  0.00     0.043 A 
ATOM     92  C   UNL     1      11.033   2.266   1.827  1.00  0.00     0.003 A 
ATOM     93  C   UNL     1       8.713   2.650   2.319  1.00  0.00     0.123 A 
ATOM     94  C   UNL     1       9.964   3.147   1.979  1.00  0.00     0.039 A 
ATOM     95  F   UNL     1       7.681   3.491   2.468  1.00  0.00    -0.207 F 
ENDBRANCH  88  89
ENDBRANCH  86  88
ENDBRANCH  77  80
ENDBRANCH  75  76
ENDBRANCH  74  75
ENDBRANCH  73  74
ENDBRANCH   1  73
TORSDOF 18
