REMARK SMILES Cc1c(Cl)cccc1NC(=O)C[C@](C)(C(=O)NCCCCCCNC(=O)c1ccc(-c2c3nc(c(-c4cccc(S(=O)(=O)[O-])c4F)c4ccc([nH]4)c(-c4cccc(S(=O)(=O)[O-])c4F)c4nc(c(-c5cccc(S(=O)(=O)[O-])c5F)c5ccc2[nH]5)C=C4)C=C3)cc1)c1ccccc1
REMARK SMILES IDX 20 1 19 2 18 3 17 4 15 5 16 6 13 8 14 9 12 10 10 11 9 12
REMARK SMILES IDX 11 14 8 15 1 16 2 17 3 18 4 19 5 20 7 21 6 22 90 23 91 24
REMARK SMILES IDX 95 25 92 26 94 27 93 28 21 29 22 30 23 31 24 32 25 33 26 35
REMARK SMILES IDX 27 36 28 37 89 38 29 39 88 40 30 41 31 42 32 43 82 44 33 45
REMARK SMILES IDX 87 46 81 47 83 48 34 49 86 50 80 51 79 52 35 54 67 55 47 56
REMARK SMILES IDX 66 57 48 58 51 59 65 60 84 61 49 62 50 63 64 65 85 66 52 67
REMARK SMILES IDX 36 68 37 69 45 70 38 71 40 72 46 73 39 74 41 75 42 76 43 77
REMARK SMILES IDX 44 78 68 79 69 80 77 81 70 82 72 83 78 84 71 85 73 86 74 87
REMARK SMILES IDX 75 88 76 89 53 90 54 91 62 92 55 93 57 94 63 95 56 96 58 97
REMARK SMILES IDX 59 98 60 99 61 100
REMARK H PARENT 17 7 9 13 24 34 83 53 51 64
REMARK Flexibility Score: inf
ROOT
ATOM      1  C   UNL     1      -5.750  -3.541   3.509  1.00  0.00     0.002 C 
ENDROOT
BRANCH   1   2
ATOM      2  C   UNL     1      -5.194  -2.168   3.118  1.00  0.00     0.021 C 
BRANCH   2   3
ATOM      3  C   UNL     1      -4.515  -2.140   1.560  1.00  0.00     0.116 C 
BRANCH   3   4
ATOM      4  N   UNL     1      -5.221  -1.391  -0.259  1.00  0.00    -0.355 N 
ATOM      5  C   UNL     1      -5.187  -0.526  -1.389  1.00  0.00     0.230 C 
ATOM      6  O   UNL     1      -6.142  -0.822  -2.134  1.00  0.00    -0.274 OA
ATOM      7  H   UNL     1      -6.019  -1.942  -0.429  1.00  0.00     0.163 HD
BRANCH   5   8
ATOM      8  C   UNL     1      -4.223   0.713  -1.771  1.00  0.00     0.080 C 
ATOM      9  C   UNL     1      -4.548   1.892  -0.776  1.00  0.00     0.027 C 
BRANCH   8  10
ATOM     10  C   UNL     1      -2.686   0.402  -1.840  1.00  0.00     0.121 C 
BRANCH  10  11
ATOM     11  C   UNL     1      -2.224  -1.012  -2.135  1.00  0.00     0.225 C 
ATOM     12  N   UNL     1      -2.328  -1.988  -1.188  1.00  0.00    -0.326 N 
ATOM     13  H   UNL     1      -1.695  -2.742  -1.216  1.00  0.00     0.169 HD
ATOM     14  O   UNL     1      -1.713  -1.302  -3.219  1.00  0.00    -0.275 OA
BRANCH  12  15
ATOM     15  C   UNL     1      -3.291  -1.963  -0.181  1.00  0.00     0.045 A 
ATOM     16  C   UNL     1      -4.014  -4.701  -0.694  1.00  0.00     0.048 C 
ATOM     17  C   UNL     1      -4.480  -3.330  -0.288  1.00  0.00    -0.009 A 
ATOM     18  C   UNL     1      -6.099  -3.154   0.476  1.00  0.00     0.046 A 
ATOM     19  Cl  UNL     1      -7.254  -4.427   0.366  1.00  0.00    -0.084 Cl
ATOM     20  C   UNL     1      -6.594  -1.593   1.231  1.00  0.00     0.021 A 
ATOM     21  C   UNL     1      -3.724  -0.412   0.692  1.00  0.00     0.026 A 
ATOM     22  C   UNL     1      -5.396  -0.236   1.393  1.00  0.00     0.004 A 
ENDBRANCH  12  15
ENDBRANCH  10  11
ENDBRANCH   8  10
BRANCH   8  23
ATOM     23  C   UNL     1      -4.528   1.404  -3.163  1.00  0.00    -0.032 A 
ATOM     24  C   UNL     1      -4.052   2.729  -3.373  1.00  0.00     0.005 A 
ATOM     25  C   UNL     1      -5.257   0.830  -4.207  1.00  0.00     0.005 A 
ATOM     26  C   UNL     1      -4.417   3.487  -4.481  1.00  0.00     0.000 A 
ATOM     27  C   UNL     1      -5.617   1.588  -5.330  1.00  0.00     0.000 A 
ATOM     28  C   UNL     1      -5.223   2.919  -5.453  1.00  0.00     0.000 A 
ENDBRANCH   8  23
ENDBRANCH   5   8
ENDBRANCH   3   4
ENDBRANCH   2   3
ENDBRANCH   1   2
BRANCH   1  29
ATOM     29  C   UNL     1      -4.746  -4.693   3.325  1.00  0.00     0.002 C 
BRANCH  29  30
ATOM     30  C   UNL     1      -3.479  -4.498   4.158  1.00  0.00     0.021 C 
BRANCH  30  31
ATOM     31  C   UNL     1      -3.826  -4.267   5.618  1.00  0.00     0.116 C 
BRANCH  31  32
ATOM     32  N   UNL     1      -4.879  -5.197   6.043  1.00  0.00    -0.352 N 
ATOM     33  C   UNL     1      -4.974  -5.887   7.210  1.00  0.00     0.251 C 
ATOM     34  H   UNL     1      -5.611  -5.340   5.400  1.00  0.00     0.163 HD
ATOM     35  O   UNL     1      -5.755  -6.814   7.363  1.00  0.00    -0.269 OA
BRANCH  33  36
ATOM     36  C   UNL     1      -4.091  -5.418   8.264  1.00  0.00     0.039 A 
ATOM     37  C   UNL     1      -3.135  -6.282   8.779  1.00  0.00     0.014 A 
ATOM     38  C   UNL     1      -4.108  -4.045   8.540  1.00  0.00     0.014 A 
ATOM     39  C   UNL     1      -2.172  -5.749   9.615  1.00  0.00     0.010 A 
ATOM     40  C   UNL     1      -3.061  -3.503   9.244  1.00  0.00     0.010 A 
ATOM     41  C   UNL     1      -2.130  -4.361   9.840  1.00  0.00    -0.014 A 
BRANCH  41  42
ATOM     42  C   UNL     1      -1.164  -3.793  10.789  1.00  0.00     0.031 A 
ATOM     43  C   UNL     1      -1.683  -3.100  12.014  1.00  0.00     0.074 A 
ATOM     44  C   UNL     1       0.150  -3.898  10.528  1.00  0.00     0.049 A 
ATOM     45  N   UNL     1      -1.011  -2.562  12.993  1.00  0.00    -0.248 NA
ATOM     46  C   UNL     1      -3.147  -2.956  12.144  1.00  0.00     0.031 C 
ATOM     47  C   UNL     1       0.733  -4.489   9.320  1.00  0.00     0.029 A 
ATOM     48  N   UNL     1       1.230  -3.515  11.270  1.00  0.00    -0.354 N 
ATOM     49  C   UNL     1      -1.964  -1.996  13.829  1.00  0.00     0.074 A 
ATOM     50  C   UNL     1      -3.252  -2.183  13.210  1.00  0.00     0.031 C 
ATOM     51  C   UNL     1       2.070  -4.470   9.427  1.00  0.00     0.029 A 
ATOM     52  C   UNL     1       2.432  -3.829  10.686  1.00  0.00     0.049 A 
ATOM     53  H   UNL     1       1.155  -3.059  12.140  1.00  0.00     0.167 HD
ATOM     54  C   UNL     1      -1.783  -1.410  15.031  1.00  0.00     0.034 A 
ATOM     55  C   UNL     1       3.683  -3.616  11.130  1.00  0.00     0.034 A 
ATOM     56  C   UNL     1      -0.494  -1.262  15.641  1.00  0.00     0.049 A 
ATOM     57  C   UNL     1       3.858  -2.974  12.477  1.00  0.00     0.074 A 
ATOM     58  C   UNL     1      -0.185  -0.745  16.882  1.00  0.00     0.029 A 
ATOM     59  N   UNL     1       0.703  -1.621  15.039  1.00  0.00    -0.354 N 
ATOM     60  N   UNL     1       2.942  -2.561  13.320  1.00  0.00    -0.248 NA
ATOM     61  C   UNL     1       5.236  -2.804  12.951  1.00  0.00     0.031 C 
ATOM     62  C   UNL     1       1.207  -0.742  17.010  1.00  0.00     0.029 A 
ATOM     63  C   UNL     1       1.759  -1.319  15.876  1.00  0.00     0.049 A 
ATOM     64  H   UNL     1       0.787  -2.031  14.148  1.00  0.00     0.167 HD
ATOM     65  C   UNL     1       3.629  -2.119  14.443  1.00  0.00     0.074 A 
ATOM     66  C   UNL     1       5.038  -2.335  14.175  1.00  0.00     0.031 C 
ATOM     67  C   UNL     1       3.147  -1.580  15.590  1.00  0.00     0.034 A 
BRANCH  54  68
ATOM     68  C   UNL     1      -3.006  -0.911  15.751  1.00  0.00     0.023 A 
ATOM     69  C   UNL     1      -3.971  -1.822  16.231  1.00  0.00     0.012 A 
ATOM     70  C   UNL     1      -3.194   0.467  15.961  1.00  0.00     0.148 A 
ATOM     71  C   UNL     1      -5.125  -1.367  16.866  1.00  0.00     0.002 A 
ATOM     72  C   UNL     1      -4.317   0.910  16.647  1.00  0.00     0.091 A 
ATOM     73  F   UNL     1      -2.283   1.319  15.470  1.00  0.00    -0.205 F 
ATOM     74  C   UNL     1      -5.292  -0.003  17.084  1.00  0.00     0.022 A 
BRANCH  72  75
ATOM     75  S   UNL     1      -4.582   2.638  17.050  1.00  0.00     0.127 S 
ATOM     76  O   UNL     1      -5.753   2.955  16.234  1.00  0.00    -0.237 OA
ATOM     77  O   UNL     1      -4.838   2.577  18.489  1.00  0.00    -0.237 OA
ATOM     78  O   UNL     1      -3.358   3.332  16.677  1.00  0.00    -0.744 OA
ENDBRANCH  72  75
ENDBRANCH  54  68
BRANCH  55  79
ATOM     79  C   UNL     1       4.848  -4.060  10.319  1.00  0.00     0.023 A 
ATOM     80  C   UNL     1       5.658  -5.117  10.775  1.00  0.00     0.012 A 
ATOM     81  C   UNL     1       5.139  -3.452   9.083  1.00  0.00     0.148 A 
ATOM     82  C   UNL     1       6.765  -5.533  10.033  1.00  0.00     0.002 A 
ATOM     83  C   UNL     1       6.207  -3.908   8.323  1.00  0.00     0.091 A 
ATOM     84  F   UNL     1       4.350  -2.451   8.668  1.00  0.00    -0.205 F 
ATOM     85  C   UNL     1       7.035  -4.934   8.805  1.00  0.00     0.022 A 
BRANCH  83  86
ATOM     86  S   UNL     1       6.552  -3.282   6.676  1.00  0.00     0.127 S 
ATOM     87  O   UNL     1       7.837  -2.616   6.874  1.00  0.00    -0.237 OA
ATOM     88  O   UNL     1       6.609  -4.516   5.894  1.00  0.00    -0.237 OA
ATOM     89  O   UNL     1       5.436  -2.407   6.343  1.00  0.00    -0.744 OA
ENDBRANCH  83  86
ENDBRANCH  55  79
BRANCH  67  90
ATOM     90  C   UNL     1       4.144  -1.241  16.665  1.00  0.00     0.023 A 
ATOM     91  C   UNL     1       5.043  -0.171  16.492  1.00  0.00     0.012 A 
ATOM     92  C   UNL     1       4.139  -1.956  17.878  1.00  0.00     0.148 A 
ATOM     93  C   UNL     1       5.957   0.150  17.494  1.00  0.00     0.002 A 
ATOM     94  C   UNL     1       5.007  -1.590  18.895  1.00  0.00     0.091 A 
ATOM     95  F   UNL     1       3.282  -2.979  18.015  1.00  0.00    -0.205 F 
ATOM     96  C   UNL     1       5.930  -0.550  18.698  1.00  0.00     0.022 A 
BRANCH  94  97
ATOM     97  S   UNL     1       4.970  -2.362  20.515  1.00  0.00     0.127 S 
ATOM     98  O   UNL     1       6.230  -3.104  20.518  1.00  0.00    -0.237 OA
ATOM     99  O   UNL     1       4.939  -1.203  21.407  1.00  0.00    -0.237 OA
ATOM    100  O   UNL     1       3.766  -3.182  20.544  1.00  0.00    -0.744 OA
ENDBRANCH  94  97
ENDBRANCH  67  90
ENDBRANCH  41  42
ENDBRANCH  33  36
ENDBRANCH  31  32
ENDBRANCH  30  31
ENDBRANCH  29  30
ENDBRANCH   1  29
TORSDOF 20
