REMARK SMILES Cc1cccc(CC(=O)N2CCC3(CCC(=O)N([C@H](C)C(=O)NCCCCCCNC(=O)c4ccc(-c5c6nc(c(-c7cccc(S(=O)(=O)[O-])c7F)c7ccc([nH]7)c(-c7cccc(S(=O)(=O)[O-])c7F)c7nc(c(-c8cccc(S(=O)(=O)[O-])c8F)c8ccc5[nH]8)C=C7)C=C6)cc4)C3)CC2)c1
REMARK SMILES IDX 26 1 25 2 24 3 23 4 21 5 22 6 19 8 20 9 18 10 8 11 9 12
REMARK SMILES IDX 10 13 11 14 98 15 12 16 97 17 13 18 14 19 96 20 15 21 16 22
REMARK SMILES IDX 17 23 7 24 6 25 1 26 2 27 3 28 99 29 4 30 5 31 27 32 28 33
REMARK SMILES IDX 29 34 30 35 31 36 32 38 33 39 34 40 95 41 35 42 94 43 36 44
REMARK SMILES IDX 37 45 38 46 88 47 39 48 93 49 87 50 89 51 40 52 92 53 86 54
REMARK SMILES IDX 85 55 41 57 73 58 53 59 72 60 54 61 57 62 71 63 90 64 55 65
REMARK SMILES IDX 56 66 70 68 91 69 58 70 42 71 43 72 51 73 44 74 46 75 52 76
REMARK SMILES IDX 45 77 47 78 48 79 49 80 50 81 74 82 75 83 83 84 76 85 78 86
REMARK SMILES IDX 84 87 77 88 79 89 80 90 81 91 82 92 59 93 60 94 68 95 61 96
REMARK SMILES IDX 63 97 69 98 62 99 64 100 65 101 66 102 67 103
REMARK H PARENT 23 7 30 37 89 56 57 67
REMARK Flexibility Score: inf
ROOT
ATOM      1  C   UNL     1      -3.877   5.417  -9.217  1.00  0.00     0.002 C 
ENDROOT
BRANCH   1   2
ATOM      2  C   UNL     1      -2.639   4.729  -8.631  1.00  0.00     0.021 C 
BRANCH   2   3
ATOM      3  C   UNL     1      -1.462   5.639  -8.325  1.00  0.00     0.116 C 
BRANCH   3   4
ATOM      4  N   UNL     1      -1.678   6.593  -7.259  1.00  0.00    -0.354 N 
ATOM      5  C   UNL     1      -0.738   7.254  -6.515  1.00  0.00     0.242 C 
ATOM      6  O   UNL     1      -1.091   8.271  -5.907  1.00  0.00    -0.273 OA
ATOM      7  H   UNL     1      -2.617   6.790  -7.041  1.00  0.00     0.163 HD
BRANCH   5   8
ATOM      8  C   UNL     1       0.730   6.755  -6.417  1.00  0.00     0.171 C 
ATOM      9  C   UNL     1       0.860   5.278  -6.038  1.00  0.00     0.042 C 
BRANCH   8  10
ATOM     10  N   UNL     1       1.671   7.146  -7.483  1.00  0.00    -0.330 N 
ATOM     11  C   UNL     1       7.908   5.242  -6.995  1.00  0.00     0.226 C 
ATOM     12  O   UNL     1       8.137   4.048  -6.775  1.00  0.00    -0.275 OA
ATOM     13  N   UNL     1       6.774   5.631  -7.693  1.00  0.00    -0.342 N 
ATOM     14  C   UNL     1       5.638   4.715  -7.783  1.00  0.00     0.120 C 
ATOM     15  C   UNL     1       6.592   6.864  -8.442  1.00  0.00     0.120 C 
ATOM     16  C   UNL     1       4.365   5.418  -7.284  1.00  0.00     0.030 C 
ATOM     17  C   UNL     1       5.418   7.640  -7.871  1.00  0.00     0.030 C 
ATOM     18  C   UNL     1       4.114   6.806  -7.944  1.00  0.00    -0.008 C 
ATOM     19  C   UNL     1       3.697   6.673  -9.434  1.00  0.00     0.019 C 
ATOM     20  C   UNL     1       3.019   7.569  -7.158  1.00  0.00     0.127 C 
ATOM     21  C   UNL     1       2.267   6.204  -9.610  1.00  0.00     0.101 C 
ATOM     22  C   UNL     1       1.345   7.092  -8.820  1.00  0.00     0.223 C 
ATOM     23  O   UNL     1       0.402   7.685  -9.326  1.00  0.00    -0.275 OA
BRANCH  11  24
ATOM     24  C   UNL     1       8.763   6.284  -6.275  1.00  0.00     0.135 C 
BRANCH  24  25
ATOM     25  C   UNL     1       9.322   7.438  -7.064  1.00  0.00    -0.038 A 
ATOM     26  C   UNL     1       8.813  11.214  -7.261  1.00  0.00     0.044 C 
ATOM     27  C   UNL     1       9.315   9.830  -7.547  1.00  0.00    -0.051 A 
ATOM     28  C   UNL     1      10.136   9.592  -8.655  1.00  0.00     0.003 A 
ATOM     29  C   UNL     1       8.934   8.751  -6.742  1.00  0.00     0.007 A 
ATOM     30  C   UNL     1      10.569   8.298  -8.951  1.00  0.00     0.001 A 
ATOM     31  C   UNL     1      10.168   7.222  -8.158  1.00  0.00     0.004 A 
ENDBRANCH  24  25
ENDBRANCH  11  24
ENDBRANCH   8  10
ENDBRANCH   5   8
ENDBRANCH   3   4
ENDBRANCH   2   3
ENDBRANCH   1   2
BRANCH   1  32
ATOM     32  C   UNL     1      -3.667   6.427 -10.358  1.00  0.00     0.002 C 
BRANCH  32  33
ATOM     33  C   UNL     1      -2.726   6.033 -11.497  1.00  0.00     0.021 C 
BRANCH  33  34
ATOM     34  C   UNL     1      -3.123   4.788 -12.272  1.00  0.00     0.116 C 
BRANCH  34  35
ATOM     35  N   UNL     1      -3.932   5.080 -13.442  1.00  0.00    -0.352 N 
ATOM     36  C   UNL     1      -4.330   4.247 -14.470  1.00  0.00     0.251 C 
ATOM     37  H   UNL     1      -4.245   6.011 -13.512  1.00  0.00     0.163 HD
ATOM     38  O   UNL     1      -4.822   4.749 -15.480  1.00  0.00    -0.269 OA
BRANCH  36  39
ATOM     39  C   UNL     1      -4.329   2.776 -14.274  1.00  0.00     0.039 A 
ATOM     40  C   UNL     1      -5.513   2.101 -14.602  1.00  0.00     0.014 A 
ATOM     41  C   UNL     1      -3.355   2.142 -13.509  1.00  0.00     0.014 A 
ATOM     42  C   UNL     1      -5.860   0.949 -13.906  1.00  0.00     0.010 A 
ATOM     43  C   UNL     1      -3.727   1.052 -12.756  1.00  0.00     0.010 A 
ATOM     44  C   UNL     1      -5.018   0.526 -12.888  1.00  0.00    -0.014 A 
BRANCH  44  45
ATOM     45  C   UNL     1      -5.402  -0.379 -11.821  1.00  0.00     0.031 A 
ATOM     46  C   UNL     1      -4.982  -1.786 -11.863  1.00  0.00     0.074 A 
ATOM     47  C   UNL     1      -5.869   0.179 -10.681  1.00  0.00     0.049 A 
ATOM     48  N   UNL     1      -5.321  -2.669 -10.990  1.00  0.00    -0.248 NA
ATOM     49  C   UNL     1      -4.169  -2.321 -12.948  1.00  0.00     0.031 C 
ATOM     50  C   UNL     1      -5.808  -0.369  -9.333  1.00  0.00     0.029 A 
ATOM     51  N   UNL     1      -6.708   1.293 -10.559  1.00  0.00    -0.354 N 
ATOM     52  C   UNL     1      -4.527  -3.773 -11.202  1.00  0.00     0.074 A 
ATOM     53  C   UNL     1      -3.949  -3.561 -12.505  1.00  0.00     0.031 C 
ATOM     54  C   UNL     1      -6.760   0.213  -8.588  1.00  0.00     0.029 A 
ATOM     55  C   UNL     1      -7.580   0.993  -9.498  1.00  0.00     0.049 A 
ATOM     56  H   UNL     1      -6.691   2.114 -11.103  1.00  0.00     0.167 HD
ATOM     57  C   UNL     1      -4.338  -4.637 -10.165  1.00  0.00     0.034 A 
ATOM     58  C   UNL     1      -8.931   0.855  -9.648  1.00  0.00     0.034 A 
ATOM     59  C   UNL     1      -5.310  -4.370  -9.090  1.00  0.00     0.049 A 
ATOM     60  C   UNL     1      -9.450  -0.505  -9.206  1.00  0.00     0.074 A 
ATOM     61  C   UNL     1      -5.232  -3.752  -7.853  1.00  0.00     0.029 A 
ATOM     62  N   UNL     1      -6.667  -4.527  -9.360  1.00  0.00    -0.354 N 
ATOM     63  N   UNL     1      -8.693  -1.514  -8.872  1.00  0.00    -0.248 NA
ATOM     64  C   UNL     1     -10.869  -0.839  -9.127  1.00  0.00     0.031 C 
ATOM     65  C   UNL     1      -6.559  -3.439  -7.436  1.00  0.00     0.029 A 
ATOM     66  C   UNL     1      -7.442  -3.902  -8.397  1.00  0.00     0.049 A 
ATOM     67  H   UNL     1      -7.028  -5.018 -10.134  1.00  0.00     0.167 HD
ATOM     68  C   UNL     1      -9.458  -2.636  -8.677  1.00  0.00     0.074 A 
ATOM     69  C   UNL     1     -10.820  -2.132  -8.759  1.00  0.00     0.031 C 
ATOM     70  C   UNL     1      -8.899  -3.881  -8.533  1.00  0.00     0.034 A 
BRANCH  57  71
ATOM     71  C   UNL     1      -3.135  -5.560  -9.983  1.00  0.00     0.023 A 
ATOM     72  C   UNL     1      -2.990  -6.183  -8.721  1.00  0.00     0.012 A 
ATOM     73  C   UNL     1      -2.073  -5.785 -10.895  1.00  0.00     0.148 A 
ATOM     74  C   UNL     1      -1.852  -6.922  -8.366  1.00  0.00     0.002 A 
ATOM     75  C   UNL     1      -0.941  -6.530 -10.549  1.00  0.00     0.091 A 
ATOM     76  F   UNL     1      -2.115  -5.272 -12.121  1.00  0.00    -0.205 F 
ATOM     77  C   UNL     1      -0.821  -7.090  -9.277  1.00  0.00     0.022 A 
BRANCH  75  78
ATOM     78  S   UNL     1       0.441  -6.780 -11.684  1.00  0.00     0.127 S 
ATOM     79  O   UNL     1       1.549  -6.161 -10.956  1.00  0.00    -0.237 OA
ATOM     80  O   UNL     1       0.510  -8.238 -11.773  1.00  0.00    -0.237 OA
ATOM     81  O   UNL     1       0.087  -6.109 -12.929  1.00  0.00    -0.744 OA
ENDBRANCH  75  78
ENDBRANCH  57  71
BRANCH  58  82
ATOM     82  C   UNL     1      -9.498   1.685 -10.751  1.00  0.00     0.023 A 
ATOM     83  C   UNL     1      -9.409   3.090 -10.602  1.00  0.00     0.012 A 
ATOM     84  C   UNL     1      -9.709   1.152 -12.035  1.00  0.00     0.148 A 
ATOM     85  C   UNL     1      -9.389   3.931 -11.716  1.00  0.00     0.002 A 
ATOM     86  C   UNL     1      -9.685   1.999 -13.144  1.00  0.00     0.091 A 
ATOM     87  F   UNL     1      -9.838  -0.175 -12.163  1.00  0.00    -0.205 F 
ATOM     88  C   UNL     1      -9.488   3.381 -12.988  1.00  0.00     0.022 A 
BRANCH  86  89
ATOM     89  S   UNL     1      -9.744   1.360 -14.825  1.00  0.00     0.127 S 
ATOM     90  O   UNL     1     -11.150   1.558 -15.164  1.00  0.00    -0.237 OA
ATOM     91  O   UNL     1      -8.810   2.240 -15.527  1.00  0.00    -0.237 OA
ATOM     92  O   UNL     1      -9.293  -0.019 -14.717  1.00  0.00    -0.744 OA
ENDBRANCH  86  89
ENDBRANCH  58  82
BRANCH  70  93
ATOM     93  C   UNL     1      -9.654  -5.208  -8.544  1.00  0.00     0.023 A 
ATOM     94  C   UNL     1     -10.964  -5.336  -9.043  1.00  0.00     0.012 A 
ATOM     95  C   UNL     1      -9.005  -6.419  -8.176  1.00  0.00     0.148 A 
ATOM     96  C   UNL     1     -11.618  -6.573  -9.121  1.00  0.00     0.002 A 
ATOM     97  C   UNL     1      -9.617  -7.658  -8.366  1.00  0.00     0.091 A 
ATOM     98  F   UNL     1      -7.788  -6.385  -7.614  1.00  0.00    -0.205 F 
ATOM     99  C   UNL     1     -10.937  -7.738  -8.807  1.00  0.00     0.022 A 
BRANCH  97 100
ATOM    100  S   UNL     1      -8.677  -9.185  -8.209  1.00  0.00     0.127 S 
ATOM    101  O   UNL     1      -8.899  -9.539  -6.809  1.00  0.00    -0.237 OA
ATOM    102  O   UNL     1      -9.341 -10.067  -9.171  1.00  0.00    -0.237 OA
ATOM    103  O   UNL     1      -7.315  -8.823  -8.577  1.00  0.00    -0.744 OA
ENDBRANCH  97 100
ENDBRANCH  70  93
ENDBRANCH  44  45
ENDBRANCH  36  39
ENDBRANCH  34  35
ENDBRANCH  33  34
ENDBRANCH  32  33
ENDBRANCH   1  32
TORSDOF 19
