REMARK SMILES CC(C)[NH2+]CC[C@H](c1ccccc1)c1cc(C(=O)NCCCCCCNC(=O)c2ccc(-c3c4nc(c(-c5cccc(S(=O)(=O)[O-])c5F)c5ccc([nH]5)c(-c5cccc(S(=O)(=O)[O-])c5F)c5nc(c(-c6cccc(S(=O)(=O)[O-])c6F)c6ccc3[nH]6)C=C5)C=C4)cc2)ccc1O
REMARK SMILES IDX 21 1 20 2 19 3 17 4 18 5 16 7 14 8 15 9 94 10 93 11 92 12
REMARK SMILES IDX 7 13 6 14 5 15 4 16 2 19 1 20 3 21 8 22 9 23 13 24 10 25
REMARK SMILES IDX 12 26 11 27 95 28 22 30 23 31 24 32 25 33 26 34 27 35 28 37
REMARK SMILES IDX 29 38 30 39 91 40 31 41 90 42 32 43 33 44 34 45 84 46 35 47
REMARK SMILES IDX 89 48 83 49 85 50 36 51 88 52 82 53 81 54 37 56 69 57 49 58
REMARK SMILES IDX 68 59 50 60 53 61 67 62 86 63 51 64 52 65 66 67 87 68 54 69
REMARK SMILES IDX 38 70 39 71 47 72 40 73 42 74 48 75 41 76 43 77 44 78 45 79
REMARK SMILES IDX 46 80 70 81 71 82 79 83 72 84 74 85 80 86 73 87 75 88 76 89
REMARK SMILES IDX 77 90 78 91 55 92 56 93 64 94 57 95 59 96 65 97 58 98 60 99
REMARK SMILES IDX 61 100 62 101 63 102
REMARK H PARENT 19 6 4 17 4 18 95 29 26 36 85 55 53 66
REMARK Flexibility Score: inf
ROOT
ATOM      1  C   UNL     1      -2.031   1.764  11.320  1.00  0.00     0.021 C 
ENDROOT
BRANCH   1   2
ATOM      2  C   UNL     1      -0.905   1.817  10.297  1.00  0.00     0.116 C 
BRANCH   2   3
ATOM      3  N   UNL     1      -0.397   0.513   9.925  1.00  0.00    -0.352 N 
ATOM      4  C   UNL     1      -0.002   0.048   8.698  1.00  0.00     0.251 C 
ATOM      5  O   UNL     1       0.381  -1.117   8.599  1.00  0.00    -0.269 OA
ATOM      6  H   UNL     1      -0.326  -0.135  10.662  1.00  0.00     0.163 HD
BRANCH   4   7
ATOM      7  C   UNL     1      -0.125   0.890   7.480  1.00  0.00     0.040 A 
ATOM      8  C   UNL     1      -0.859   0.945   5.132  1.00  0.00     0.002 A 
ATOM      9  C   UNL     1      -0.600   0.251   6.329  1.00  0.00     0.022 A 
ATOM     10  C   UNL     1      -0.650   2.334   5.151  1.00  0.00     0.119 A 
ATOM     11  C   UNL     1      -0.121   2.973   6.276  1.00  0.00     0.047 A 
ATOM     12  C   UNL     1       0.178   2.247   7.428  1.00  0.00     0.017 A 
BRANCH   8  13
ATOM     13  C   UNL     1      -1.407   0.213   3.905  1.00  0.00     0.059 C 
BRANCH  13  14
ATOM     14  C   UNL     1      -2.957   0.281   3.881  1.00  0.00     0.074 C 
BRANCH  14  15
ATOM     15  C   UNL     1      -3.565   0.554   2.492  1.00  0.00     0.261 C 
BRANCH  15  16
ATOM     16  N   UNL     1      -3.091  -0.259   1.380  1.00  0.00    -0.344 N 
ATOM     17  H   UNL     1      -3.085   0.329   0.546  1.00  0.00     0.346 HD
ATOM     18  H   UNL     1      -2.172  -0.598   1.664  1.00  0.00     0.346 HD
BRANCH  16  19
ATOM     19  C   UNL     1      -3.870  -1.459   1.073  1.00  0.00     0.176 C 
ATOM     20  C   UNL     1      -3.315  -2.015  -0.243  1.00  0.00     0.075 C 
ATOM     21  C   UNL     1      -3.794  -2.552   2.134  1.00  0.00     0.075 C 
ENDBRANCH  16  19
ENDBRANCH  15  16
ENDBRANCH  14  15
ENDBRANCH  13  14
BRANCH  13  22
ATOM     22  C   UNL     1      -0.852  -1.205   3.700  1.00  0.00    -0.040 A 
ATOM     23  C   UNL     1      -1.274  -2.301   4.475  1.00  0.00     0.004 A 
ATOM     24  C   UNL     1       0.126  -1.436   2.717  1.00  0.00     0.004 A 
ATOM     25  C   UNL     1      -0.711  -3.568   4.307  1.00  0.00     0.000 A 
ATOM     26  C   UNL     1       0.661  -2.713   2.523  1.00  0.00     0.000 A 
ATOM     27  C   UNL     1       0.253  -3.775   3.327  1.00  0.00     0.000 A 
ENDBRANCH  13  22
ENDBRANCH   8  13
BRANCH  10  28
ATOM     28  O   UNL     1      -0.943   3.168   4.109  1.00  0.00    -0.508 OA
ATOM     29  H   UNL     1      -1.302   2.819   3.317  1.00  0.00     0.293 HD
ENDBRANCH  10  28
ENDBRANCH   4   7
ENDBRANCH   2   3
ENDBRANCH   1   2
BRANCH   1  30
ATOM     30  C   UNL     1      -1.702   1.092  12.653  1.00  0.00     0.002 C 
BRANCH  30  31
ATOM     31  C   UNL     1      -0.416   1.551  13.343  1.00  0.00     0.002 C 
BRANCH  31  32
ATOM     32  C   UNL     1      -0.252   3.061  13.525  1.00  0.00     0.021 C 
BRANCH  32  33
ATOM     33  C   UNL     1      -1.420   3.770  14.195  1.00  0.00     0.116 C 
BRANCH  33  34
ATOM     34  N   UNL     1      -1.677   3.272  15.535  1.00  0.00    -0.352 N 
ATOM     35  C   UNL     1      -1.760   3.966  16.717  1.00  0.00     0.251 C 
ATOM     36  H   UNL     1      -1.811   2.299  15.606  1.00  0.00     0.163 HD
ATOM     37  O   UNL     1      -1.811   3.360  17.781  1.00  0.00    -0.269 OA
BRANCH  35  38
ATOM     38  C   UNL     1      -1.766   5.446  16.702  1.00  0.00     0.039 A 
ATOM     39  C   UNL     1      -0.961   6.131  17.615  1.00  0.00     0.014 A 
ATOM     40  C   UNL     1      -2.559   6.154  15.795  1.00  0.00     0.014 A 
ATOM     41  C   UNL     1      -0.913   7.527  17.583  1.00  0.00     0.010 A 
ATOM     42  C   UNL     1      -2.449   7.539  15.712  1.00  0.00     0.010 A 
ATOM     43  C   UNL     1      -1.634   8.242  16.612  1.00  0.00    -0.014 A 
BRANCH  43  44
ATOM     44  C   UNL     1      -1.545   9.722  16.523  1.00  0.00     0.031 A 
ATOM     45  C   UNL     1      -2.771  10.570  16.736  1.00  0.00     0.074 A 
ATOM     46  C   UNL     1      -0.379  10.300  16.174  1.00  0.00     0.049 A 
ATOM     47  N   UNL     1      -2.901  11.868  16.647  1.00  0.00    -0.248 NA
ATOM     48  C   UNL     1      -4.021   9.865  17.067  1.00  0.00     0.031 C 
ATOM     49  C   UNL     1       0.863   9.585  15.871  1.00  0.00     0.029 A 
ATOM     50  N   UNL     1      -0.053  11.621  15.990  1.00  0.00    -0.354 N 
ATOM     51  C   UNL     1      -4.246  12.133  16.875  1.00  0.00     0.074 A 
ATOM     52  C   UNL     1      -4.899  10.858  17.072  1.00  0.00     0.031 C 
ATOM     53  C   UNL     1       1.814  10.473  15.544  1.00  0.00     0.029 A 
ATOM     54  C   UNL     1       1.245  11.816  15.577  1.00  0.00     0.049 A 
ATOM     55  H   UNL     1      -0.688  12.359  16.139  1.00  0.00     0.167 HD
ATOM     56  C   UNL     1      -4.877  13.329  16.942  1.00  0.00     0.034 A 
ATOM     57  C   UNL     1       1.899  12.948  15.248  1.00  0.00     0.034 A 
ATOM     58  C   UNL     1      -4.218  14.597  16.779  1.00  0.00     0.049 A 
ATOM     59  C   UNL     1       1.180  14.265  15.351  1.00  0.00     0.074 A 
ATOM     60  C   UNL     1      -4.752  15.867  16.913  1.00  0.00     0.029 A 
ATOM     61  N   UNL     1      -2.886  14.759  16.432  1.00  0.00    -0.354 N 
ATOM     62  N   UNL     1      -0.055  14.505  15.721  1.00  0.00    -0.248 NA
ATOM     63  C   UNL     1       1.954  15.472  15.025  1.00  0.00     0.031 C 
ATOM     64  C   UNL     1      -3.752  16.796  16.611  1.00  0.00     0.029 A 
ATOM     65  C   UNL     1      -2.583  16.106  16.329  1.00  0.00     0.049 A 
ATOM     66  H   UNL     1      -2.249  14.024  16.280  1.00  0.00     0.167 HD
ATOM     67  C   UNL     1      -0.195  15.889  15.707  1.00  0.00     0.074 A 
ATOM     68  C   UNL     1       1.088  16.434  15.314  1.00  0.00     0.031 C 
ATOM     69  C   UNL     1      -1.291  16.639  15.982  1.00  0.00     0.034 A 
BRANCH  56  70
ATOM     70  C   UNL     1      -6.355  13.327  17.242  1.00  0.00     0.023 A 
ATOM     71  C   UNL     1      -6.807  12.961  18.526  1.00  0.00     0.012 A 
ATOM     72  C   UNL     1      -7.290  13.742  16.273  1.00  0.00     0.148 A 
ATOM     73  C   UNL     1      -8.168  12.971  18.831  1.00  0.00     0.002 A 
ATOM     74  C   UNL     1      -8.640  13.796  16.599  1.00  0.00     0.091 A 
ATOM     75  F   UNL     1      -6.844  14.068  15.052  1.00  0.00    -0.205 F 
ATOM     76  C   UNL     1      -9.082  13.398  17.871  1.00  0.00     0.022 A 
BRANCH  74  77
ATOM     77  S   UNL     1      -9.889  14.409  15.463  1.00  0.00     0.127 S 
ATOM     78  O   UNL     1     -10.631  13.187  15.154  1.00  0.00    -0.237 OA
ATOM     79  O   UNL     1     -10.614  15.369  16.294  1.00  0.00    -0.237 OA
ATOM     80  O   UNL     1      -9.164  14.996  14.345  1.00  0.00    -0.744 OA
ENDBRANCH  74  77
ENDBRANCH  56  70
BRANCH  57  81
ATOM     81  C   UNL     1       3.330  12.889  14.836  1.00  0.00     0.023 A 
ATOM     82  C   UNL     1       4.320  13.422  15.685  1.00  0.00     0.012 A 
ATOM     83  C   UNL     1       3.717  12.294  13.620  1.00  0.00     0.148 A 
ATOM     84  C   UNL     1       5.665  13.397  15.313  1.00  0.00     0.002 A 
ATOM     85  C   UNL     1       5.063  12.220  13.282  1.00  0.00     0.091 A 
ATOM     86  F   UNL     1       2.759  11.800  12.823  1.00  0.00    -0.205 F 
ATOM     87  C   UNL     1       6.037  12.788  14.117  1.00  0.00     0.022 A 
BRANCH  85  88
ATOM     88  S   UNL     1       5.645  11.341  11.828  1.00  0.00     0.127 S 
ATOM     89  O   UNL     1       6.133  12.434  10.993  1.00  0.00    -0.237 OA
ATOM     90  O   UNL     1       6.687  10.483  12.394  1.00  0.00    -0.237 OA
ATOM     91  O   UNL     1       4.488  10.620  11.313  1.00  0.00    -0.744 OA
ENDBRANCH  85  88
ENDBRANCH  57  81
BRANCH  69  92
ATOM     92  C   UNL     1      -1.148  18.138  15.909  1.00  0.00     0.023 A 
ATOM     93  C   UNL     1      -1.005  18.773  14.660  1.00  0.00     0.012 A 
ATOM     94  C   UNL     1      -1.228  18.921  17.078  1.00  0.00     0.148 A 
ATOM     95  C   UNL     1      -0.905  20.161  14.578  1.00  0.00     0.002 A 
ATOM     96  C   UNL     1      -1.182  20.307  16.984  1.00  0.00     0.091 A 
ATOM     97  F   UNL     1      -1.348  18.298  18.259  1.00  0.00    -0.205 F 
ATOM     98  C   UNL     1      -1.006  20.928  15.737  1.00  0.00     0.022 A 
BRANCH  96  99
ATOM     99  S   UNL     1      -1.403  21.378  18.408  1.00  0.00     0.127 S 
ATOM    100  O   UNL     1      -0.060  21.930  18.577  1.00  0.00    -0.237 OA
ATOM    101  O   UNL     1      -2.399  22.334  17.924  1.00  0.00    -0.237 OA
ATOM    102  O   UNL     1      -1.864  20.520  19.491  1.00  0.00    -0.744 OA
ENDBRANCH  96  99
ENDBRANCH  69  92
ENDBRANCH  43  44
ENDBRANCH  35  38
ENDBRANCH  33  34
ENDBRANCH  32  33
ENDBRANCH  31  32
ENDBRANCH  30  31
ENDBRANCH   1  30
TORSDOF 23
