REMARK SMILES CCn1c(=O)n(CC)c2cc(C(=O)NCCCCCCNC(=O)c3ccc(-c4c5nc(c(-c6cccc(S(=O)(=O)[O-])c6F)c6ccc([nH]6)c(-c6cccc(S(=O)(=O)[O-])c6F)c6nc(c(-c7cccc(S(=O)(=O)[O-])c7F)c7ccc4[nH]7)C=C6)C=C5)cc3)ccc21
REMARK SMILES IDX 18 1 17 2 16 3 15 4 14 5 12 6 13 7 11 9 3 10 4 11 89 12 5 13
REMARK SMILES IDX 6 14 9 15 88 16 10 17 87 18 2 19 1 20 7 21 8 22 19 23 20 24
REMARK SMILES IDX 21 25 22 26 23 28 24 29 25 30 86 31 26 32 85 33 27 34 28 35
REMARK SMILES IDX 29 36 79 37 30 38 84 39 78 40 80 41 31 42 83 43 77 44 76 45
REMARK SMILES IDX 32 47 64 48 44 49 63 50 45 51 48 52 62 53 81 54 46 55 47 56
REMARK SMILES IDX 61 58 82 59 49 60 33 61 34 62 42 63 35 64 37 65 43 66 36 67
REMARK SMILES IDX 38 68 39 69 40 70 41 71 65 72 66 73 74 74 67 75 69 76 75 77
REMARK SMILES IDX 68 78 70 79 71 80 72 81 73 82 50 83 51 84 59 85 52 86 54 87
REMARK SMILES IDX 60 88 53 89 55 90 56 91 57 92 58 93
REMARK H PARENT 14 8 21 27 80 46 48 57
REMARK Flexibility Score: inf
ROOT
ATOM      1  C   UNL     1      -5.673  -7.747   1.692  1.00  0.00     0.002 C 
ENDROOT
BRANCH   1   2
ATOM      2  C   UNL     1      -5.154  -7.601   0.255  1.00  0.00     0.002 C 
BRANCH   2   3
ATOM      3  C   UNL     1      -4.264  -6.372   0.026  1.00  0.00     0.021 C 
BRANCH   3   4
ATOM      4  C   UNL     1      -2.950  -6.443   0.807  1.00  0.00     0.116 C 
BRANCH   4   5
ATOM      5  N   UNL     1      -1.966  -7.181   0.042  1.00  0.00    -0.352 N 
ATOM      6  C   UNL     1      -0.954  -6.811  -0.801  1.00  0.00     0.251 C 
ATOM      7  O   UNL     1      -0.322  -7.720  -1.345  1.00  0.00    -0.269 OA
ATOM      8  H   UNL     1      -2.041  -8.157   0.152  1.00  0.00     0.163 HD
BRANCH   6   9
ATOM      9  C   UNL     1      -0.536  -5.399  -1.056  1.00  0.00     0.042 A 
ATOM     10  N   UNL     1       1.232  -1.696  -1.727  1.00  0.00    -0.292 N 
ATOM     11  C   UNL     1       2.475  -2.095  -2.264  1.00  0.00     0.329 A 
ATOM     12  C   UNL     1       0.472  -2.837  -1.450  1.00  0.00     0.069 A 
ATOM     13  O   UNL     1       3.384  -1.360  -2.635  1.00  0.00    -0.248 OA
ATOM     14  N   UNL     1       2.456  -3.507  -2.301  1.00  0.00    -0.292 N 
ATOM     15  C   UNL     1       1.232  -3.955  -1.783  1.00  0.00     0.070 A 
ATOM     16  C   UNL     1      -0.813  -2.957  -0.972  1.00  0.00     0.029 A 
ATOM     17  C   UNL     1       0.757  -5.235  -1.590  1.00  0.00     0.042 A 
ATOM     18  C   UNL     1      -1.326  -4.253  -0.816  1.00  0.00     0.016 A 
BRANCH  10  19
ATOM     19  C   UNL     1       0.839  -0.337  -1.451  1.00  0.00     0.124 C 
ATOM     20  C   UNL     1       1.187   0.073  -0.029  1.00  0.00     0.028 C 
ENDBRANCH  10  19
BRANCH  14  21
ATOM     21  C   UNL     1       3.499  -4.340  -2.846  1.00  0.00     0.124 C 
ATOM     22  C   UNL     1       4.253  -5.133  -1.792  1.00  0.00     0.028 C 
ENDBRANCH  14  21
ENDBRANCH   6   9
ENDBRANCH   4   5
ENDBRANCH   3   4
ENDBRANCH   2   3
ENDBRANCH   1   2
BRANCH   1  23
ATOM     23  C   UNL     1      -6.434  -6.530   2.231  1.00  0.00     0.021 C 
BRANCH  23  24
ATOM     24  C   UNL     1      -7.655  -6.150   1.394  1.00  0.00     0.116 C 
BRANCH  24  25
ATOM     25  N   UNL     1      -8.612  -7.227   1.259  1.00  0.00    -0.352 N 
ATOM     26  C   UNL     1      -9.615  -7.727   2.041  1.00  0.00     0.251 C 
ATOM     27  H   UNL     1      -8.519  -7.711   0.407  1.00  0.00     0.163 HD
ATOM     28  O   UNL     1     -10.262  -8.655   1.550  1.00  0.00    -0.269 OA
BRANCH  26  29
ATOM     29  C   UNL     1      -9.917  -7.289   3.430  1.00  0.00     0.039 A 
ATOM     30  C   UNL     1      -9.347  -6.195   4.082  1.00  0.00     0.014 A 
ATOM     31  C   UNL     1     -10.824  -8.098   4.141  1.00  0.00     0.014 A 
ATOM     32  C   UNL     1      -9.571  -5.992   5.438  1.00  0.00     0.010 A 
ATOM     33  C   UNL     1     -11.076  -7.882   5.489  1.00  0.00     0.010 A 
ATOM     34  C   UNL     1     -10.400  -6.863   6.149  1.00  0.00    -0.014 A 
BRANCH  34  35
ATOM     35  C   UNL     1     -10.633  -6.585   7.561  1.00  0.00     0.031 A 
ATOM     36  C   UNL     1     -11.262  -5.257   7.810  1.00  0.00     0.074 A 
ATOM     37  C   UNL     1     -10.389  -7.478   8.543  1.00  0.00     0.049 A 
ATOM     38  N   UNL     1     -10.741  -4.227   8.395  1.00  0.00    -0.248 NA
ATOM     39  C   UNL     1     -12.569  -4.993   7.185  1.00  0.00     0.031 C 
ATOM     40  C   UNL     1     -10.023  -8.891   8.402  1.00  0.00     0.029 A 
ATOM     41  N   UNL     1     -10.534  -7.338   9.891  1.00  0.00    -0.354 N 
ATOM     42  C   UNL     1     -11.749  -3.264   8.418  1.00  0.00     0.074 A 
ATOM     43  C   UNL     1     -12.774  -3.717   7.515  1.00  0.00     0.031 C 
ATOM     44  C   UNL     1     -10.220  -9.525   9.581  1.00  0.00     0.029 A 
ATOM     45  C   UNL     1     -10.581  -8.546  10.589  1.00  0.00     0.049 A 
ATOM     46  H   UNL     1     -10.599  -6.462  10.334  1.00  0.00     0.167 HD
ATOM     47  C   UNL     1     -11.790  -2.291   9.368  1.00  0.00     0.034 A 
ATOM     48  C   UNL     1     -10.957  -8.714  11.883  1.00  0.00     0.034 A 
ATOM     49  C   UNL     1     -10.539  -2.153  10.056  1.00  0.00     0.049 A 
ATOM     50  C   UNL     1     -10.805  -7.396  12.537  1.00  0.00     0.074 A 
ATOM     51  C   UNL     1      -9.256  -1.790   9.707  1.00  0.00     0.029 A 
ATOM     52  N   UNL     1     -10.448  -2.798  11.263  1.00  0.00    -0.354 N 
ATOM     53  N   UNL     1      -9.659  -6.810  12.730  1.00  0.00    -0.248 NA
ATOM     54  C   UNL     1     -11.977  -6.545  12.645  1.00  0.00     0.031 C 
ATOM     55  C   UNL     1      -8.410  -2.615  10.504  1.00  0.00     0.029 A 
ATOM     56  C   UNL     1      -9.219  -3.394  11.334  1.00  0.00     0.049 A 
ATOM     57  H   UNL     1     -11.146  -2.826  11.957  1.00  0.00     0.167 HD
ATOM     58  C   UNL     1      -9.929  -5.465  12.532  1.00  0.00     0.074 A 
ATOM     59  C   UNL     1     -11.382  -5.350  12.615  1.00  0.00     0.031 C 
ATOM     60  C   UNL     1      -8.971  -4.633  12.034  1.00  0.00     0.034 A 
BRANCH  47  61
ATOM     61  C   UNL     1     -13.070  -1.744   9.948  1.00  0.00     0.023 A 
ATOM     62  C   UNL     1     -13.010  -0.553  10.702  1.00  0.00     0.012 A 
ATOM     63  C   UNL     1     -14.266  -2.495  10.021  1.00  0.00     0.148 A 
ATOM     64  C   UNL     1     -14.089  -0.134  11.491  1.00  0.00     0.002 A 
ATOM     65  C   UNL     1     -15.360  -2.038  10.745  1.00  0.00     0.091 A 
ATOM     66  F   UNL     1     -14.305  -3.727   9.500  1.00  0.00    -0.205 F 
ATOM     67  C   UNL     1     -15.270  -0.868  11.500  1.00  0.00     0.022 A 
BRANCH  65  68
ATOM     68  S   UNL     1     -16.914  -2.939  10.771  1.00  0.00     0.127 S 
ATOM     69  O   UNL     1     -16.915  -3.478  12.127  1.00  0.00    -0.237 OA
ATOM     70  O   UNL     1     -17.881  -1.869  10.525  1.00  0.00    -0.237 OA
ATOM     71  O   UNL     1     -16.816  -3.914   9.692  1.00  0.00    -0.744 OA
ENDBRANCH  65  68
ENDBRANCH  47  61
BRANCH  48  72
ATOM     72  C   UNL     1     -11.681  -9.815  12.571  1.00  0.00     0.023 A 
ATOM     73  C   UNL     1     -11.749  -9.806  13.984  1.00  0.00     0.012 A 
ATOM     74  C   UNL     1     -12.573 -10.659  11.875  1.00  0.00     0.148 A 
ATOM     75  C   UNL     1     -12.721 -10.542  14.672  1.00  0.00     0.002 A 
ATOM     76  C   UNL     1     -13.534 -11.396  12.566  1.00  0.00     0.091 A 
ATOM     77  F   UNL     1     -12.549 -10.664  10.537  1.00  0.00    -0.205 F 
ATOM     78  C   UNL     1     -13.625 -11.323  13.963  1.00  0.00     0.022 A 
BRANCH  76  79
ATOM     79  S   UNL     1     -14.747 -12.418  11.719  1.00  0.00     0.127 S 
ATOM     80  O   UNL     1     -14.730 -13.642  12.521  1.00  0.00    -0.237 OA
ATOM     81  O   UNL     1     -15.961 -11.617  11.850  1.00  0.00    -0.237 OA
ATOM     82  O   UNL     1     -14.241 -12.586  10.362  1.00  0.00    -0.744 OA
ENDBRANCH  76  79
ENDBRANCH  48  72
BRANCH  60  83
ATOM     83  C   UNL     1      -7.555  -5.142  11.999  1.00  0.00     0.023 A 
ATOM     84  C   UNL     1      -7.128  -6.141  11.099  1.00  0.00     0.012 A 
ATOM     85  C   UNL     1      -6.601  -4.458  12.768  1.00  0.00     0.148 A 
ATOM     86  C   UNL     1      -5.770  -6.449  10.971  1.00  0.00     0.002 A 
ATOM     87  C   UNL     1      -5.252  -4.738  12.609  1.00  0.00     0.091 A 
ATOM     88  F   UNL     1      -7.036  -3.508  13.609  1.00  0.00    -0.205 F 
ATOM     89  C   UNL     1      -4.831  -5.736  11.714  1.00  0.00     0.022 A 
BRANCH  87  90
ATOM     90  S   UNL     1      -3.987  -3.784  13.448  1.00  0.00     0.127 S 
ATOM     91  O   UNL     1      -3.396  -4.779  14.341  1.00  0.00    -0.237 OA
ATOM     92  O   UNL     1      -3.129  -3.368  12.338  1.00  0.00    -0.237 OA
ATOM     93  O   UNL     1      -4.679  -2.687  14.114  1.00  0.00    -0.744 OA
ENDBRANCH  87  90
ENDBRANCH  60  83
ENDBRANCH  34  35
ENDBRANCH  26  29
ENDBRANCH  24  25
ENDBRANCH  23  24
ENDBRANCH   1  23
TORSDOF 18
