REMARK SMILES O=C(NCCCCCCNC(=O)[C@H]1CC[C@@H]2CCCC[C@H]2N1C(=O)N1CCSCC1)c1ccc(-c2c3nc(c(-c4cccc(S(=O)(=O)[O-])c4F)c4ccc([nH]4)c(-c4cccc(S(=O)(=O)[O-])c4F)c4nc(c(-c5cccc(S(=O)(=O)[O-])c5F)c5ccc2[nH]5)C=C4)C=C3)cc1
REMARK SMILES IDX 5 1 4 2 3 3 1 4 2 5 31 7 32 8 93 9 33 10 92 11 34 12 35 13
REMARK SMILES IDX 36 14 86 15 37 16 91 17 85 18 87 19 38 20 90 21 84 22 83 23
REMARK SMILES IDX 39 25 71 26 51 27 70 28 52 29 55 30 69 31 88 32 53 33 54 34
REMARK SMILES IDX 68 36 89 37 56 38 40 39 41 40 49 41 42 42 44 43 50 44 43 45
REMARK SMILES IDX 45 46 46 47 47 48 48 49 72 50 73 51 81 52 74 53 76 54 82 55
REMARK SMILES IDX 75 56 77 57 78 58 79 59 80 60 57 61 58 62 66 63 59 64 61 65
REMARK SMILES IDX 67 66 60 67 62 68 63 69 64 70 65 71 6 72 7 73 8 74 9 75
REMARK SMILES IDX 10 76 11 77 12 79 13 80 14 81 22 82 15 83 21 84 16 85 20 86
REMARK SMILES IDX 17 87 19 88 18 89 23 90 24 91 25 92 26 93 30 94 27 95 29 96
REMARK SMILES IDX 28 97
REMARK H PARENT 3 6 87 24 55 35 10 78
REMARK Flexibility Score: inf
ROOT
ATOM      1  C   UNL     1       4.811  10.432   3.437  1.00  0.00     0.021 C 
ENDROOT
BRANCH   1   2
ATOM      2  C   UNL     1       4.186  11.172   4.609  1.00  0.00     0.116 C 
BRANCH   2   3
ATOM      3  N   UNL     1       4.303  12.611   4.459  1.00  0.00    -0.352 N 
ATOM      4  O   UNL     1       3.517  14.688   4.066  1.00  0.00    -0.269 OA
ATOM      5  C   UNL     1       3.293  13.540   4.436  1.00  0.00     0.251 C 
ATOM      6  H   UNL     1       5.218  12.963   4.362  1.00  0.00     0.163 HD
BRANCH   5   7
ATOM      7  C   UNL     1       1.936  13.124   4.846  1.00  0.00     0.039 A 
ATOM      8  C   UNL     1       1.761  12.361   6.007  1.00  0.00     0.014 A 
ATOM      9  C   UNL     1       0.837  13.490   4.068  1.00  0.00     0.014 A 
ATOM     10  C   UNL     1       0.502  11.875   6.331  1.00  0.00     0.010 A 
ATOM     11  C   UNL     1      -0.442  13.076   4.447  1.00  0.00     0.010 A 
ATOM     12  C   UNL     1      -0.618  12.262   5.578  1.00  0.00    -0.014 A 
BRANCH  12  13
ATOM     13  C   UNL     1      -1.973  11.945   6.088  1.00  0.00     0.031 A 
ATOM     14  C   UNL     1      -2.920  11.066   5.326  1.00  0.00     0.074 A 
ATOM     15  C   UNL     1      -2.352  12.517   7.249  1.00  0.00     0.049 A 
ATOM     16  N   UNL     1      -4.145  10.729   5.633  1.00  0.00    -0.248 NA
ATOM     17  C   UNL     1      -2.442  10.494   4.057  1.00  0.00     0.031 C 
ATOM     18  C   UNL     1      -1.525  13.434   8.043  1.00  0.00     0.029 A 
ATOM     19  N   UNL     1      -3.525  12.440   7.954  1.00  0.00    -0.354 N 
ATOM     20  C   UNL     1      -4.605   9.949   4.580  1.00  0.00     0.074 A 
ATOM     21  C   UNL     1      -3.520   9.847   3.627  1.00  0.00     0.031 C 
ATOM     22  C   UNL     1      -2.214  13.834   9.119  1.00  0.00     0.029 A 
ATOM     23  C   UNL     1      -3.550  13.258   9.060  1.00  0.00     0.049 A 
ATOM     24  H   UNL     1      -4.274  11.857   7.694  1.00  0.00     0.167 HD
ATOM     25  C   UNL     1      -5.821   9.373   4.431  1.00  0.00     0.034 A 
ATOM     26  C   UNL     1      -4.551  13.553   9.909  1.00  0.00     0.034 A 
ATOM     27  C   UNL     1      -6.879   9.458   5.404  1.00  0.00     0.049 A 
ATOM     28  C   UNL     1      -5.883  12.892   9.711  1.00  0.00     0.074 A 
ATOM     29  C   UNL     1      -8.105   8.815   5.395  1.00  0.00     0.029 A 
ATOM     30  N   UNL     1      -6.855  10.254   6.538  1.00  0.00    -0.354 N 
ATOM     31  N   UNL     1      -6.237  12.010   8.808  1.00  0.00    -0.248 NA
ATOM     32  C   UNL     1      -6.948  13.247  10.658  1.00  0.00     0.031 C 
ATOM     33  C   UNL     1      -8.839   9.256   6.500  1.00  0.00     0.029 A 
ATOM     34  C   UNL     1      -8.058  10.149   7.215  1.00  0.00     0.049 A 
ATOM     35  H   UNL     1      -6.095  10.812   6.820  1.00  0.00     0.167 HD
ATOM     36  C   UNL     1      -7.560  11.696   9.085  1.00  0.00     0.074 A 
ATOM     37  C   UNL     1      -7.931  12.451  10.264  1.00  0.00     0.031 C 
ATOM     38  C   UNL     1      -8.401  10.877   8.409  1.00  0.00     0.034 A 
BRANCH  25  39
ATOM     39  C   UNL     1      -6.094   8.575   3.184  1.00  0.00     0.023 A 
ATOM     40  C   UNL     1      -5.551   7.282   3.047  1.00  0.00     0.012 A 
ATOM     41  C   UNL     1      -6.998   9.053   2.214  1.00  0.00     0.148 A 
ATOM     42  C   UNL     1      -5.896   6.481   1.958  1.00  0.00     0.002 A 
ATOM     43  C   UNL     1      -7.367   8.235   1.153  1.00  0.00     0.091 A 
ATOM     44  F   UNL     1      -7.490  10.292   2.357  1.00  0.00    -0.205 F 
ATOM     45  C   UNL     1      -6.812   6.951   1.021  1.00  0.00     0.022 A 
BRANCH  43  46
ATOM     46  S   UNL     1      -8.598   8.714  -0.064  1.00  0.00     0.127 S 
ATOM     47  O   UNL     1      -7.788   8.809  -1.279  1.00  0.00    -0.237 OA
ATOM     48  O   UNL     1      -9.518   7.577  -0.033  1.00  0.00    -0.237 OA
ATOM     49  O   UNL     1      -9.162   9.972   0.405  1.00  0.00    -0.744 OA
ENDBRANCH  43  46
ENDBRANCH  25  39
BRANCH  26  50
ATOM     50  C   UNL     1      -4.329  14.530  11.011  1.00  0.00     0.023 A 
ATOM     51  C   UNL     1      -4.350  14.092  12.348  1.00  0.00     0.012 A 
ATOM     52  C   UNL     1      -4.076  15.888  10.736  1.00  0.00     0.148 A 
ATOM     53  C   UNL     1      -4.159  14.996  13.393  1.00  0.00     0.002 A 
ATOM     54  C   UNL     1      -3.823  16.771  11.778  1.00  0.00     0.091 A 
ATOM     55  F   UNL     1      -4.077  16.291   9.457  1.00  0.00    -0.205 F 
ATOM     56  C   UNL     1      -3.885  16.332  13.108  1.00  0.00     0.022 A 
BRANCH  54  57
ATOM     57  S   UNL     1      -3.317  18.469  11.484  1.00  0.00     0.127 S 
ATOM     58  O   UNL     1      -4.548  19.201  11.766  1.00  0.00    -0.237 OA
ATOM     59  O   UNL     1      -2.253  18.647  12.473  1.00  0.00    -0.237 OA
ATOM     60  O   UNL     1      -2.856  18.500  10.102  1.00  0.00    -0.744 OA
ENDBRANCH  54  57
ENDBRANCH  26  50
BRANCH  38  61
ATOM     61  C   UNL     1      -9.806  10.745   8.932  1.00  0.00     0.023 A 
ATOM     62  C   UNL     1     -10.710  11.814   8.771  1.00  0.00     0.012 A 
ATOM     63  C   UNL     1     -10.248   9.544   9.518  1.00  0.00     0.148 A 
ATOM     64  C   UNL     1     -12.026  11.700   9.214  1.00  0.00     0.002 A 
ATOM     65  C   UNL     1     -11.575   9.419   9.910  1.00  0.00     0.091 A 
ATOM     66  F   UNL     1      -9.365   8.546   9.675  1.00  0.00    -0.205 F 
ATOM     67  C   UNL     1     -12.461  10.499   9.771  1.00  0.00     0.022 A 
BRANCH  65  68
ATOM     68  S   UNL     1     -12.252   7.885  10.553  1.00  0.00     0.127 S 
ATOM     69  O   UNL     1     -12.530   8.241  11.943  1.00  0.00    -0.237 OA
ATOM     70  O   UNL     1     -13.440   7.700   9.720  1.00  0.00    -0.237 OA
ATOM     71  O   UNL     1     -11.217   6.877  10.366  1.00  0.00    -0.744 OA
ENDBRANCH  65  68
ENDBRANCH  38  61
ENDBRANCH  12  13
ENDBRANCH   5   7
ENDBRANCH   2   3
ENDBRANCH   1   2
BRANCH   1  72
ATOM     72  C   UNL     1       6.330  10.556   3.367  1.00  0.00     0.002 C 
BRANCH  72  73
ATOM     73  C   UNL     1       7.065  10.097   4.629  1.00  0.00     0.002 C 
BRANCH  73  74
ATOM     74  C   UNL     1       6.702   8.690   5.118  1.00  0.00     0.021 C 
BRANCH  74  75
ATOM     75  C   UNL     1       6.871   7.593   4.069  1.00  0.00     0.116 C 
BRANCH  75  76
ATOM     76  N   UNL     1       8.205   7.590   3.492  1.00  0.00    -0.354 N 
ATOM     77  C   UNL     1       9.219   6.680   3.566  1.00  0.00     0.242 C 
ATOM     78  H   UNL     1       8.414   8.386   2.953  1.00  0.00     0.163 HD
ATOM     79  O   UNL     1      10.255   6.936   2.945  1.00  0.00    -0.273 OA
BRANCH  77  80
ATOM     80  C   UNL     1       9.037   5.373   4.357  1.00  0.00     0.176 C 
ATOM     81  C   UNL     1       9.373   4.255   3.353  1.00  0.00     0.036 C 
ATOM     82  N   UNL     1       9.633   5.071   5.689  1.00  0.00    -0.309 N 
ATOM     83  C   UNL     1       8.807   2.935   3.840  1.00  0.00     0.008 C 
ATOM     84  C   UNL     1       9.139   3.759   6.241  1.00  0.00     0.091 C 
ATOM     85  C   UNL     1       9.368   2.601   5.223  1.00  0.00     0.012 C 
ATOM     86  C   UNL     1       9.652   3.306   7.627  1.00  0.00     0.025 C 
ATOM     87  C   UNL     1       8.742   1.283   5.700  1.00  0.00     0.006 C 
ATOM     88  C   UNL     1       9.034   1.984   8.087  1.00  0.00     0.002 C 
ATOM     89  C   UNL     1       9.266   0.876   7.068  1.00  0.00     0.000 C 
BRANCH  82  90
ATOM     90  C   UNL     1      10.724   5.715   6.263  1.00  0.00     0.321 C 
ATOM     91  O   UNL     1      11.328   5.287   7.247  1.00  0.00    -0.248 OA
ATOM     92  N   UNL     1      11.175   6.896   5.700  1.00  0.00    -0.323 N 
ATOM     93  C   UNL     1      12.633   7.043   5.726  1.00  0.00     0.132 C 
ATOM     94  C   UNL     1      10.456   8.135   6.013  1.00  0.00     0.132 C 
ATOM     95  C   UNL     1      13.172   8.039   4.709  1.00  0.00     0.091 C 
ATOM     96  C   UNL     1      10.795   9.327   5.106  1.00  0.00     0.091 C 
ATOM     97  S   UNL     1      12.572   9.721   5.061  1.00  0.00    -0.158 SA
ENDBRANCH  82  90
ENDBRANCH  77  80
ENDBRANCH  75  76
ENDBRANCH  74  75
ENDBRANCH  73  74
ENDBRANCH  72  73
ENDBRANCH   1  72
TORSDOF 17
