REMARK SMILES O=C(NCCCCCCNC(=O)c1cccc(Nc2ccc([N+](=O)[O-])cc2)c1)c1ccc(-c2c3nc(c(-c4cccc(S(=O)(=O)[O-])c4F)c4ccc([nH]4)c(-c4cccc(S(=O)(=O)[O-])c4F)c4nc(c(-c5cccc(S(=O)(=O)[O-])c5F)c5ccc2[nH]5)C=C4)C=C3)cc1
REMARK SMILES IDX 6 1 5 2 4 3 3 4 1 5 2 6 29 8 30 9 91 10 31 11 90 12 32 13
REMARK SMILES IDX 33 14 34 15 84 16 35 17 89 18 83 19 85 20 36 21 88 22 82 23
REMARK SMILES IDX 81 24 37 26 69 27 49 28 68 29 50 30 53 31 67 32 86 33 51 34
REMARK SMILES IDX 52 35 66 37 87 38 54 39 38 40 39 41 47 42 40 43 42 44 48 45
REMARK SMILES IDX 41 46 43 47 44 48 45 49 46 50 70 51 71 52 79 53 72 54 74 55
REMARK SMILES IDX 80 56 73 57 75 58 76 59 77 60 78 61 55 62 56 63 64 64 57 65
REMARK SMILES IDX 59 66 65 67 58 68 60 69 61 70 62 71 63 72 7 73 8 74 9 75
REMARK SMILES IDX 10 76 11 77 12 79 13 80 14 81 28 82 15 83 17 84 16 85 18 86
REMARK SMILES IDX 19 88 20 89 27 90 21 91 26 92 22 93 23 94 24 95 25 96
REMARK H PARENT 3 7 85 25 53 36 10 78 18 87
REMARK Flexibility Score: inf
ROOT
ATOM      1  C   UNL     1       4.136  -2.142  -3.374  1.00  0.00     0.002 C 
ENDROOT
BRANCH   1   2
ATOM      2  C   UNL     1       4.598  -2.065  -1.919  1.00  0.00     0.021 C 
BRANCH   2   3
ATOM      3  C   UNL     1       4.362  -0.726  -1.232  1.00  0.00     0.116 C 
BRANCH   3   4
ATOM      4  N   UNL     1       2.953  -0.398  -1.106  1.00  0.00    -0.352 N 
ATOM      5  O   UNL     1       1.028   0.083  -0.038  1.00  0.00    -0.269 OA
ATOM      6  C   UNL     1       2.252  -0.008   0.011  1.00  0.00     0.251 C 
ATOM      7  H   UNL     1       2.426  -0.465  -1.935  1.00  0.00     0.163 HD
BRANCH   6   8
ATOM      8  C   UNL     1       2.975   0.269   1.273  1.00  0.00     0.039 A 
ATOM      9  C   UNL     1       4.147   1.030   1.273  1.00  0.00     0.014 A 
ATOM     10  C   UNL     1       2.472  -0.242   2.473  1.00  0.00     0.014 A 
ATOM     11  C   UNL     1       4.888   1.159   2.443  1.00  0.00     0.010 A 
ATOM     12  C   UNL     1       3.177  -0.040   3.664  1.00  0.00     0.010 A 
ATOM     13  C   UNL     1       4.408   0.634   3.655  1.00  0.00    -0.014 A 
BRANCH  13  14
ATOM     14  C   UNL     1       5.175   0.867   4.905  1.00  0.00     0.031 A 
ATOM     15  C   UNL     1       5.781  -0.271   5.679  1.00  0.00     0.074 A 
ATOM     16  C   UNL     1       5.326   2.134   5.340  1.00  0.00     0.049 A 
ATOM     17  N   UNL     1       6.514  -0.228   6.763  1.00  0.00    -0.248 NA
ATOM     18  C   UNL     1       5.530  -1.634   5.183  1.00  0.00     0.031 C 
ATOM     19  C   UNL     1       4.740   3.315   4.701  1.00  0.00     0.029 A 
ATOM     20  N   UNL     1       6.012   2.643   6.412  1.00  0.00    -0.354 N 
ATOM     21  C   UNL     1       6.780  -1.549   7.101  1.00  0.00     0.074 A 
ATOM     22  C   UNL     1       6.123  -2.375   6.110  1.00  0.00     0.031 C 
ATOM     23  C   UNL     1       5.113   4.412   5.375  1.00  0.00     0.029 A 
ATOM     24  C   UNL     1       5.926   4.011   6.518  1.00  0.00     0.049 A 
ATOM     25  H   UNL     1       6.517   2.083   7.045  1.00  0.00     0.167 HD
ATOM     26  C   UNL     1       7.518  -2.028   8.132  1.00  0.00     0.034 A 
ATOM     27  C   UNL     1       6.436   4.854   7.437  1.00  0.00     0.034 A 
ATOM     28  C   UNL     1       8.201  -1.201   9.092  1.00  0.00     0.049 A 
ATOM     29  C   UNL     1       7.280   4.295   8.546  1.00  0.00     0.074 A 
ATOM     30  C   UNL     1       9.028  -1.592  10.131  1.00  0.00     0.029 A 
ATOM     31  N   UNL     1       8.133   0.183   9.138  1.00  0.00    -0.354 N 
ATOM     32  N   UNL     1       7.633   3.052   8.765  1.00  0.00    -0.248 NA
ATOM     33  C   UNL     1       7.819   5.256   9.517  1.00  0.00     0.031 C 
ATOM     34  C   UNL     1       9.449  -0.445  10.813  1.00  0.00     0.029 A 
ATOM     35  C   UNL     1       8.896   0.662  10.190  1.00  0.00     0.049 A 
ATOM     36  H   UNL     1       7.617   0.744   8.514  1.00  0.00     0.167 HD
ATOM     37  C   UNL     1       8.453   3.083   9.886  1.00  0.00     0.074 A 
ATOM     38  C   UNL     1       8.568   4.473  10.281  1.00  0.00     0.031 C 
ATOM     39  C   UNL     1       9.040   2.052  10.542  1.00  0.00     0.034 A 
BRANCH  26  40
ATOM     40  C   UNL     1       7.673  -3.523   8.252  1.00  0.00     0.023 A 
ATOM     41  C   UNL     1       8.530  -4.204   7.364  1.00  0.00     0.012 A 
ATOM     42  C   UNL     1       7.037  -4.241   9.284  1.00  0.00     0.148 A 
ATOM     43  C   UNL     1       8.732  -5.578   7.484  1.00  0.00     0.002 A 
ATOM     44  C   UNL     1       7.272  -5.605   9.421  1.00  0.00     0.091 A 
ATOM     45  F   UNL     1       6.209  -3.581  10.107  1.00  0.00    -0.205 F 
ATOM     46  C   UNL     1       8.112  -6.276   8.517  1.00  0.00     0.022 A 
BRANCH  44  47
ATOM     47  S   UNL     1       6.576  -6.576  10.763  1.00  0.00     0.127 S 
ATOM     48  O   UNL     1       5.524  -7.320  10.073  1.00  0.00    -0.237 OA
ATOM     49  O   UNL     1       7.719  -7.388  11.185  1.00  0.00    -0.237 OA
ATOM     50  O   UNL     1       6.120  -5.613  11.756  1.00  0.00    -0.744 OA
ENDBRANCH  44  47
ENDBRANCH  26  40
BRANCH  27  51
ATOM     51  C   UNL     1       6.207   6.319   7.298  1.00  0.00     0.023 A 
ATOM     52  C   UNL     1       7.281   7.157   6.945  1.00  0.00     0.012 A 
ATOM     53  C   UNL     1       4.922   6.875   7.454  1.00  0.00     0.148 A 
ATOM     54  C   UNL     1       7.084   8.527   6.768  1.00  0.00     0.002 A 
ATOM     55  C   UNL     1       4.722   8.230   7.218  1.00  0.00     0.091 A 
ATOM     56  F   UNL     1       3.916   6.064   7.810  1.00  0.00    -0.205 F 
ATOM     57  C   UNL     1       5.803   9.060   6.889  1.00  0.00     0.022 A 
BRANCH  55  58
ATOM     58  S   UNL     1       3.081   8.961   7.207  1.00  0.00     0.127 S 
ATOM     59  O   UNL     1       3.055   9.656   8.491  1.00  0.00    -0.237 OA
ATOM     60  O   UNL     1       3.142   9.834   6.034  1.00  0.00    -0.237 OA
ATOM     61  O   UNL     1       2.160   7.841   7.068  1.00  0.00    -0.744 OA
ENDBRANCH  55  58
ENDBRANCH  27  51
BRANCH  39  62
ATOM     62  C   UNL     1       9.875   2.387  11.748  1.00  0.00     0.023 A 
ATOM     63  C   UNL     1       9.242   2.768  12.947  1.00  0.00     0.012 A 
ATOM     64  C   UNL     1      11.278   2.270  11.713  1.00  0.00     0.148 A 
ATOM     65  C   UNL     1       9.994   3.058  14.085  1.00  0.00     0.002 A 
ATOM     66  C   UNL     1      12.018   2.518  12.863  1.00  0.00     0.091 A 
ATOM     67  F   UNL     1      11.864   1.929  10.555  1.00  0.00    -0.205 F 
ATOM     68  C   UNL     1      11.379   2.922  14.046  1.00  0.00     0.022 A 
BRANCH  66  69
ATOM     69  S   UNL     1      13.798   2.280  12.922  1.00  0.00     0.127 S 
ATOM     70  O   UNL     1      14.285   3.656  12.838  1.00  0.00    -0.237 OA
ATOM     71  O   UNL     1      13.987   1.645  14.226  1.00  0.00    -0.237 OA
ATOM     72  O   UNL     1      14.121   1.427  11.786  1.00  0.00    -0.744 OA
ENDBRANCH  66  69
ENDBRANCH  39  62
ENDBRANCH  13  14
ENDBRANCH   6   8
ENDBRANCH   3   4
ENDBRANCH   2   3
ENDBRANCH   1   2
BRANCH   1  73
ATOM     73  C   UNL     1       4.697  -1.063  -4.305  1.00  0.00     0.002 C 
BRANCH  73  74
ATOM     74  C   UNL     1       6.223  -0.918  -4.317  1.00  0.00     0.021 C 
BRANCH  74  75
ATOM     75  C   UNL     1       7.000  -2.200  -4.607  1.00  0.00     0.116 C 
BRANCH  75  76
ATOM     76  N   UNL     1       6.672  -2.753  -5.910  1.00  0.00    -0.352 N 
ATOM     77  C   UNL     1       7.504  -3.064  -6.953  1.00  0.00     0.251 C 
ATOM     78  H   UNL     1       5.716  -2.928  -6.066  1.00  0.00     0.163 HD
ATOM     79  O   UNL     1       7.041  -3.357  -8.051  1.00  0.00    -0.269 OA
BRANCH  77  80
ATOM     80  C   UNL     1       8.967  -3.043  -6.762  1.00  0.00     0.041 A 
ATOM     81  C   UNL     1       9.749  -2.338  -7.678  1.00  0.00     0.014 A 
ATOM     82  C   UNL     1       9.566  -3.764  -5.720  1.00  0.00     0.039 A 
ATOM     83  C   UNL     1      11.130  -2.320  -7.523  1.00  0.00     0.003 A 
ATOM     84  C   UNL     1      10.956  -3.760  -5.556  1.00  0.00     0.039 A 
ATOM     85  C   UNL     1      11.724  -3.019  -6.466  1.00  0.00     0.026 A 
BRANCH  84  86
ATOM     86  N   UNL     1      11.518  -4.474  -4.482  1.00  0.00    -0.356 N 
ATOM     87  H   UNL     1      10.889  -5.058  -4.000  1.00  0.00     0.167 HD
BRANCH  86  88
ATOM     88  C   UNL     1      12.832  -4.489  -3.987  1.00  0.00     0.039 A 
ATOM     89  C   UNL     1      13.451  -5.725  -3.747  1.00  0.00     0.033 A 
ATOM     90  C   UNL     1      13.582  -3.318  -3.821  1.00  0.00     0.033 A 
ATOM     91  C   UNL     1      14.800  -5.795  -3.387  1.00  0.00     0.088 A 
ATOM     92  C   UNL     1      14.930  -3.371  -3.452  1.00  0.00     0.088 A 
ATOM     93  C   UNL     1      15.539  -4.614  -3.255  1.00  0.00     0.269 A 
BRANCH  93  94
ATOM     94  N   UNL     1      16.973  -4.685  -2.949  1.00  0.00     0.062 N 
ATOM     95  O   UNL     1      17.478  -5.809  -2.811  1.00  0.00    -0.258 OA
ATOM     96  O   UNL     1      17.601  -3.619  -2.876  1.00  0.00    -0.258 OA
ENDBRANCH  93  94
ENDBRANCH  86  88
ENDBRANCH  84  86
ENDBRANCH  77  80
ENDBRANCH  75  76
ENDBRANCH  74  75
ENDBRANCH  73  74
ENDBRANCH   1  73
TORSDOF 19
