REMARK SMILES O=C(N[C@]1(C(=O)NCCCCCCNC(=O)c2ccc(-c3c4nc(c(-c5cccc(S(=O)(=O)[O-])c5F)c5ccc([nH]5)c(-c5cccc(S(=O)(=O)[O-])c5F)c5nc(c(-c6cccc(S(=O)(=O)[O-])c6F)c6ccc3[nH]6)C=C5)C=C4)cc2)CC[C@H](c2ccccc2)CC1)OCC1c2ccccc2-c2ccccc21
REMARK SMILES IDX 10 1 9 2 8 3 7 4 5 5 6 6 4 8 80 9 90 10 81 11 89 12 82 13
REMARK SMILES IDX 3 14 1 15 2 16 91 18 92 19 93 20 94 21 105 22 95 23 99 24
REMARK SMILES IDX 100 25 104 26 96 27 98 28 101 29 103 30 97 31 102 32 83 33
REMARK SMILES IDX 84 34 88 35 85 36 87 37 86 38 11 39 12 40 13 41 14 42 15 43
REMARK SMILES IDX 16 45 17 46 18 47 79 48 19 49 78 50 20 51 21 52 22 53 72 54
REMARK SMILES IDX 23 55 77 56 71 57 73 58 24 59 76 60 70 61 69 62 25 64 57 65
REMARK SMILES IDX 37 66 56 67 38 68 41 69 55 70 74 71 39 72 40 73 54 75 75 76
REMARK SMILES IDX 42 77 26 78 27 79 35 80 28 81 30 82 36 83 29 84 31 85 32 86
REMARK SMILES IDX 33 87 34 88 58 89 59 90 67 91 60 92 62 93 68 94 61 95 63 96
REMARK SMILES IDX 64 97 65 98 66 99 43 100 44 101 52 102 45 103 47 104 53 105
REMARK SMILES IDX 46 106 48 107 49 108 50 109 51 110
REMARK H PARENT 7 7 3 17 14 44 73 63 41 74
REMARK Flexibility Score: inf
ROOT
ATOM      1  C   UNL     1       9.398  -2.572   1.555  1.00  0.00     0.002 C 
ENDROOT
BRANCH   1   2
ATOM      2  C   UNL     1       8.536  -1.548   2.287  1.00  0.00     0.021 C 
BRANCH   2   3
ATOM      3  C   UNL     1       7.591  -0.763   1.391  1.00  0.00     0.116 C 
BRANCH   3   4
ATOM      4  N   UNL     1       6.313  -1.391   1.211  1.00  0.00    -0.354 N 
ATOM      5  C   UNL     1       5.045  -0.925   1.201  1.00  0.00     0.245 C 
ATOM      6  O   UNL     1       4.218  -1.832   0.987  1.00  0.00    -0.272 OA
ATOM      7  H   UNL     1       6.373  -2.363   1.066  1.00  0.00     0.163 HD
BRANCH   5   8
ATOM      8  C   UNL     1       4.541   0.556   1.512  1.00  0.00     0.122 C 
ATOM      9  C   UNL     1       5.033   1.822   0.824  1.00  0.00     0.039 C 
ATOM     10  C   UNL     1       4.660   0.839   3.029  1.00  0.00     0.039 C 
ATOM     11  C   UNL     1       6.443   2.267   1.080  1.00  0.00     0.011 C 
ATOM     12  C   UNL     1       5.995   1.459   3.493  1.00  0.00     0.011 C 
ATOM     13  C   UNL     1       6.676   2.514   2.567  1.00  0.00     0.019 C 
BRANCH   8  14
ATOM     14  N   UNL     1       3.087   0.416   1.144  1.00  0.00    -0.307 N 
ATOM     15  O   UNL     1       1.241   0.138  -0.108  1.00  0.00    -0.225 OA
ATOM     16  C   UNL     1       2.432   0.454  -0.064  1.00  0.00     0.408 C 
ATOM     17  H   UNL     1       2.493   0.269   1.916  1.00  0.00     0.168 HD
BRANCH  16  18
ATOM     18  O   UNL     1       3.038   1.016  -1.148  1.00  0.00    -0.449 OA
BRANCH  18  19
ATOM     19  C   UNL     1       4.120   0.331  -1.814  1.00  0.00     0.248 C 
BRANCH  19  20
ATOM     20  C   UNL     1       4.973   1.261  -2.731  1.00  0.00     0.088 C 
ATOM     21  C   UNL     1       6.460   0.855  -2.723  1.00  0.00    -0.029 A 
ATOM     22  C   UNL     1       5.090   2.771  -2.455  1.00  0.00    -0.029 A 
ATOM     23  C   UNL     1       7.023  -0.411  -2.763  1.00  0.00     0.005 A 
ATOM     24  C   UNL     1       7.281   1.998  -2.598  1.00  0.00    -0.014 A 
ATOM     25  C   UNL     1       6.447   3.171  -2.500  1.00  0.00    -0.014 A 
ATOM     26  C   UNL     1       4.104   3.712  -2.199  1.00  0.00     0.005 A 
ATOM     27  C   UNL     1       8.413  -0.523  -2.652  1.00  0.00     0.000 A 
ATOM     28  C   UNL     1       8.658   1.886  -2.470  1.00  0.00     0.009 A 
ATOM     29  C   UNL     1       6.816   4.505  -2.386  1.00  0.00     0.009 A 
ATOM     30  C   UNL     1       4.479   5.053  -2.031  1.00  0.00     0.000 A 
ATOM     31  C   UNL     1       9.223   0.612  -2.492  1.00  0.00     0.001 A 
ATOM     32  C   UNL     1       5.819   5.451  -2.155  1.00  0.00     0.001 A 
ENDBRANCH  19  20
ENDBRANCH  18  19
ENDBRANCH  16  18
ENDBRANCH   8  14
BRANCH  13  33
ATOM     33  C   UNL     1       6.377   3.954   2.976  1.00  0.00    -0.045 A 
ATOM     34  C   UNL     1       5.728   4.887   2.146  1.00  0.00     0.004 A 
ATOM     35  C   UNL     1       6.869   4.406   4.209  1.00  0.00     0.004 A 
ATOM     36  C   UNL     1       5.579   6.218   2.531  1.00  0.00     0.000 A 
ATOM     37  C   UNL     1       6.708   5.735   4.601  1.00  0.00     0.000 A 
ATOM     38  C   UNL     1       6.066   6.641   3.761  1.00  0.00     0.000 A 
ENDBRANCH  13  33
ENDBRANCH   5   8
ENDBRANCH   3   4
ENDBRANCH   2   3
ENDBRANCH   1   2
BRANCH   1  39
ATOM     39  C   UNL     1      10.222  -2.017   0.389  1.00  0.00     0.002 C 
BRANCH  39  40
ATOM     40  C   UNL     1      11.048  -0.765   0.692  1.00  0.00     0.021 C 
BRANCH  40  41
ATOM     41  C   UNL     1      12.011  -0.919   1.860  1.00  0.00     0.116 C 
BRANCH  41  42
ATOM     42  N   UNL     1      12.905  -2.051   1.670  1.00  0.00    -0.352 N 
ATOM     43  C   UNL     1      14.274  -2.081   1.651  1.00  0.00     0.251 C 
ATOM     44  H   UNL     1      12.462  -2.920   1.536  1.00  0.00     0.163 HD
ATOM     45  O   UNL     1      14.860  -3.072   1.226  1.00  0.00    -0.269 OA
BRANCH  43  46
ATOM     46  C   UNL     1      15.033  -0.917   2.149  1.00  0.00     0.039 A 
ATOM     47  C   UNL     1      16.190  -0.516   1.479  1.00  0.00     0.014 A 
ATOM     48  C   UNL     1      14.608  -0.239   3.295  1.00  0.00     0.014 A 
ATOM     49  C   UNL     1      16.911   0.580   1.951  1.00  0.00     0.010 A 
ATOM     50  C   UNL     1      15.264   0.915   3.697  1.00  0.00     0.010 A 
ATOM     51  C   UNL     1      16.447   1.310   3.058  1.00  0.00    -0.014 A 
BRANCH  51  52
ATOM     52  C   UNL     1      17.214   2.451   3.611  1.00  0.00     0.031 A 
ATOM     53  C   UNL     1      17.732   2.382   5.024  1.00  0.00     0.074 A 
ATOM     54  C   UNL     1      17.376   3.568   2.877  1.00  0.00     0.049 A 
ATOM     55  N   UNL     1      18.378   3.286   5.711  1.00  0.00    -0.248 NA
ATOM     56  C   UNL     1      17.450   1.149   5.780  1.00  0.00     0.031 C 
ATOM     57  C   UNL     1      16.853   3.777   1.525  1.00  0.00     0.029 A 
ATOM     58  N   UNL     1      18.012   4.745   3.174  1.00  0.00    -0.354 N 
ATOM     59  C   UNL     1      18.531   2.755   6.986  1.00  0.00     0.074 A 
ATOM     60  C   UNL     1      17.870   1.470   6.993  1.00  0.00     0.031 C 
ATOM     61  C   UNL     1      17.211   4.999   1.100  1.00  0.00     0.029 A 
ATOM     62  C   UNL     1      17.957   5.671   2.159  1.00  0.00     0.049 A 
ATOM     63  H   UNL     1      18.465   4.912   4.032  1.00  0.00     0.167 HD
ATOM     64  C   UNL     1      19.190   3.273   8.049  1.00  0.00     0.034 A 
ATOM     65  C   UNL     1      18.457   6.920   2.093  1.00  0.00     0.034 A 
ATOM     66  C   UNL     1      19.890   4.527   8.013  1.00  0.00     0.049 A 
ATOM     67  C   UNL     1      19.233   7.453   3.267  1.00  0.00     0.074 A 
ATOM     68  C   UNL     1      20.677   5.103   8.994  1.00  0.00     0.029 A 
ATOM     69  N   UNL     1      19.881   5.404   6.939  1.00  0.00    -0.354 N 
ATOM     70  N   UNL     1      19.498   6.875   4.414  1.00  0.00    -0.248 NA
ATOM     71  C   UNL     1      19.813   8.795   3.123  1.00  0.00     0.031 C 
ATOM     72  C   UNL     1      21.111   6.347   8.527  1.00  0.00     0.029 A 
ATOM     73  C   UNL     1      20.636   6.524   7.236  1.00  0.00     0.049 A 
ATOM     74  H   UNL     1      19.406   5.252   6.090  1.00  0.00     0.167 HD
ATOM     75  C   UNL     1      20.317   7.758   5.107  1.00  0.00     0.074 A 
ATOM     76  C   UNL     1      20.510   8.907   4.245  1.00  0.00     0.031 C 
ATOM     77  C   UNL     1      20.858   7.633   6.344  1.00  0.00     0.034 A 
BRANCH  64  78
ATOM     78  C   UNL     1      19.205   2.468   9.324  1.00  0.00     0.023 A 
ATOM     79  C   UNL     1      19.904   1.244   9.380  1.00  0.00     0.012 A 
ATOM     80  C   UNL     1      18.542   2.935  10.476  1.00  0.00     0.148 A 
ATOM     81  C   UNL     1      19.899   0.473  10.542  1.00  0.00     0.002 A 
ATOM     82  C   UNL     1      18.588   2.188  11.647  1.00  0.00     0.091 A 
ATOM     83  F   UNL     1      17.862   4.088  10.401  1.00  0.00    -0.205 F 
ATOM     84  C   UNL     1      19.250   0.950  11.678  1.00  0.00     0.022 A 
BRANCH  82  85
ATOM     85  S   UNL     1      17.857   2.759  13.185  1.00  0.00     0.127 S 
ATOM     86  O   UNL     1      16.708   1.864  13.314  1.00  0.00    -0.237 OA
ATOM     87  O   UNL     1      18.933   2.512  14.146  1.00  0.00    -0.237 OA
ATOM     88  O   UNL     1      17.537   4.164  12.980  1.00  0.00    -0.744 OA
ENDBRANCH  82  85
ENDBRANCH  64  78
BRANCH  65  89
ATOM     89  C   UNL     1      18.319   7.711   0.839  1.00  0.00     0.023 A 
ATOM     90  C   UNL     1      19.459   7.948   0.045  1.00  0.00     0.012 A 
ATOM     91  C   UNL     1      17.070   8.198   0.409  1.00  0.00     0.148 A 
ATOM     92  C   UNL     1      19.364   8.684  -1.136  1.00  0.00     0.002 A 
ATOM     93  C   UNL     1      16.973   8.884  -0.796  1.00  0.00     0.091 A 
ATOM     94  F   UNL     1      15.999   7.962   1.179  1.00  0.00    -0.205 F 
ATOM     95  C   UNL     1      18.121   9.145  -1.561  1.00  0.00     0.022 A 
BRANCH  93  96
ATOM     96  S   UNL     1      15.400   9.406  -1.488  1.00  0.00     0.127 S 
ATOM     97  O   UNL     1      15.517  10.861  -1.435  1.00  0.00    -0.237 OA
ATOM     98  O   UNL     1      15.459   8.831  -2.832  1.00  0.00    -0.237 OA
ATOM     99  O   UNL     1      14.377   8.826  -0.628  1.00  0.00    -0.744 OA
ENDBRANCH  93  96
ENDBRANCH  65  89
BRANCH  77 100
ATOM    100  C   UNL     1      21.767   8.734   6.823  1.00  0.00     0.023 A 
ATOM    101  C   UNL     1      21.240   9.994   7.167  1.00  0.00     0.012 A 
ATOM    102  C   UNL     1      23.143   8.488   7.000  1.00  0.00     0.148 A 
ATOM    103  C   UNL     1      22.076  11.004   7.642  1.00  0.00     0.002 A 
ATOM    104  C   UNL     1      23.959   9.479   7.527  1.00  0.00     0.091 A 
ATOM    105  F   UNL     1      23.628   7.288   6.648  1.00  0.00    -0.205 F 
ATOM    106  C   UNL     1      23.431  10.743   7.834  1.00  0.00     0.022 A 
BRANCH 104 107
ATOM    107  S   UNL     1      25.691   9.194   7.908  1.00  0.00     0.127 S 
ATOM    108  O   UNL     1      26.357   9.957   6.854  1.00  0.00    -0.237 OA
ATOM    109  O   UNL     1      25.812   9.769   9.248  1.00  0.00    -0.237 OA
ATOM    110  O   UNL     1      25.882   7.751   7.852  1.00  0.00    -0.744 OA
ENDBRANCH 104 107
ENDBRANCH  77 100
ENDBRANCH  51  52
ENDBRANCH  43  46
ENDBRANCH  41  42
ENDBRANCH  40  41
ENDBRANCH  39  40
ENDBRANCH   1  39
TORSDOF 21
