REMARK SMILES COc1ccc(Br)cc1CNc1ccc(N2CCOCC2)c(C(=O)NCCCCCCNC(=O)c2ccc(-c3c4nc(c(-c5cccc(S(=O)(=O)[O-])c5F)c5ccc([nH]5)c(-c5cccc(S(=O)(=O)[O-])c5F)c5nc(c(-c6cccc(S(=O)(=O)[O-])c6F)c6ccc3[nH]6)C=C5)C=C4)cc2)c1
REMARK SMILES IDX 28 1 27 2 26 3 25 4 23 5 24 6 22 8 12 9 13 10 98 11 14 12
REMARK SMILES IDX 15 13 11 14 10 16 9 17 3 18 4 19 5 20 8 21 6 22 7 23 2 24
REMARK SMILES IDX 1 25 16 26 17 27 21 28 18 29 20 30 19 31 29 32 30 33 31 34
REMARK SMILES IDX 32 35 33 36 34 38 35 39 36 40 97 41 37 42 96 43 38 44 39 45
REMARK SMILES IDX 40 46 90 47 41 48 95 49 89 50 91 51 42 52 94 53 88 54 87 55
REMARK SMILES IDX 43 57 75 58 55 59 74 60 56 61 59 62 73 63 92 64 57 65 58 66
REMARK SMILES IDX 72 68 93 69 60 70 44 71 45 72 53 73 46 74 48 75 54 76 47 77
REMARK SMILES IDX 49 78 50 79 51 80 52 81 76 82 77 83 85 84 78 85 80 86 86 87
REMARK SMILES IDX 79 88 81 89 82 90 83 91 84 92 61 93 62 94 70 95 63 96 65 97
REMARK SMILES IDX 71 98 64 99 66 100 67 101 68 102 69 103
REMARK H PARENT 25 7 11 15 32 37 91 56 59 67
REMARK Flexibility Score: inf
ROOT
ATOM      1  C   UNL     1      -6.441   2.157  -4.300  1.00  0.00     0.002 C 
ENDROOT
BRANCH   1   2
ATOM      2  C   UNL     1      -5.881   2.191  -2.880  1.00  0.00     0.021 C 
BRANCH   2   3
ATOM      3  C   UNL     1      -5.066   3.419  -2.500  1.00  0.00     0.116 C 
BRANCH   3   4
ATOM      4  N   UNL     1      -5.764   4.688  -2.655  1.00  0.00    -0.352 N 
ATOM      5  C   UNL     1      -5.760   5.846  -1.895  1.00  0.00     0.253 C 
ATOM      6  O   UNL     1      -6.367   6.811  -2.357  1.00  0.00    -0.269 OA
ATOM      7  H   UNL     1      -6.348   4.730  -3.446  1.00  0.00     0.163 HD
BRANCH   5   8
ATOM      8  C   UNL     1      -5.074   5.913  -0.565  1.00  0.00     0.065 A 
ATOM      9  C   UNL     1      -3.255   5.008   0.808  1.00  0.00     0.035 A 
ATOM     10  C   UNL     1      -3.786   5.685   1.900  1.00  0.00     0.028 A 
ATOM     11  C   UNL     1      -3.858   5.228  -0.425  1.00  0.00     0.041 A 
ATOM     12  C   UNL     1      -4.886   6.535   1.751  1.00  0.00     0.029 A 
ATOM     13  C   UNL     1      -5.556   6.671   0.521  1.00  0.00     0.050 A 
BRANCH   9  14
ATOM     14  N   UNL     1      -2.148   4.212   0.973  1.00  0.00    -0.381 N 
ATOM     15  H   UNL     1      -1.802   4.115   1.889  1.00  0.00     0.160 HD
BRANCH  14  16
ATOM     16  C   UNL     1      -1.437   3.496  -0.080  1.00  0.00     0.152 C 
BRANCH  16  17
ATOM     17  C   UNL     1       0.045   3.585   0.191  1.00  0.00     0.014 A 
ATOM     18  C   UNL     1       0.889   2.472   0.046  1.00  0.00     0.123 A 
ATOM     19  C   UNL     1       2.259   2.617   0.286  1.00  0.00     0.048 A 
ATOM     20  C   UNL     1       2.789   3.854   0.673  1.00  0.00     0.019 A 
ATOM     21  C   UNL     1       0.597   4.833   0.546  1.00  0.00     0.025 A 
ATOM     22  C   UNL     1       1.955   4.958   0.800  1.00  0.00     0.018 A 
ATOM     23  Br  UNL     1       2.658   6.635   1.314  1.00  0.00    -0.051 Br
BRANCH  18  24
ATOM     24  O   UNL     1       0.294   1.315  -0.382  1.00  0.00    -0.496 OA
ATOM     25  C   UNL     1       0.962   0.097  -0.072  1.00  0.00     0.278 C 
ENDBRANCH  18  24
ENDBRANCH  16  17
ENDBRANCH  14  16
ENDBRANCH   9  14
BRANCH  13  26
ATOM     26  N   UNL     1      -6.573   7.596   0.436  1.00  0.00    -0.366 N 
ATOM     27  C   UNL     1      -7.976   7.232   0.254  1.00  0.00     0.145 C 
ATOM     28  C   UNL     1      -6.289   9.009   0.693  1.00  0.00     0.145 C 
ATOM     29  C   UNL     1      -8.680   8.232  -0.686  1.00  0.00     0.181 C 
ATOM     30  C   UNL     1      -7.019   9.864  -0.350  1.00  0.00     0.181 C 
ATOM     31  O   UNL     1      -8.435   9.604  -0.319  1.00  0.00    -0.378 OA
ENDBRANCH  13  26
ENDBRANCH   5   8
ENDBRANCH   3   4
ENDBRANCH   2   3
ENDBRANCH   1   2
BRANCH   1  32
ATOM     32  C   UNL     1      -5.439   2.387  -5.433  1.00  0.00     0.002 C 
BRANCH  32  33
ATOM     33  C   UNL     1      -4.194   1.497  -5.428  1.00  0.00     0.021 C 
BRANCH  33  34
ATOM     34  C   UNL     1      -4.456  -0.003  -5.348  1.00  0.00     0.116 C 
BRANCH  34  35
ATOM     35  N   UNL     1      -5.248  -0.493  -6.464  1.00  0.00    -0.352 N 
ATOM     36  C   UNL     1      -4.991  -1.533  -7.324  1.00  0.00     0.251 C 
ATOM     37  H   UNL     1      -6.090  -0.009  -6.627  1.00  0.00     0.163 HD
ATOM     38  O   UNL     1      -5.695  -1.698  -8.312  1.00  0.00    -0.269 OA
BRANCH  36  39
ATOM     39  C   UNL     1      -3.849  -2.439  -7.065  1.00  0.00     0.039 A 
ATOM     40  C   UNL     1      -3.013  -2.788  -8.128  1.00  0.00     0.014 A 
ATOM     41  C   UNL     1      -3.605  -2.946  -5.785  1.00  0.00     0.014 A 
ATOM     42  C   UNL     1      -1.901  -3.600  -7.896  1.00  0.00     0.010 A 
ATOM     43  C   UNL     1      -2.453  -3.690  -5.542  1.00  0.00     0.010 A 
ATOM     44  C   UNL     1      -1.593  -4.033  -6.596  1.00  0.00    -0.014 A 
BRANCH  44  45
ATOM     45  C   UNL     1      -0.367  -4.827  -6.323  1.00  0.00     0.031 A 
ATOM     46  C   UNL     1      -0.468  -6.223  -5.769  1.00  0.00     0.074 A 
ATOM     47  C   UNL     1       0.843  -4.262  -6.501  1.00  0.00     0.049 A 
ATOM     48  N   UNL     1       0.491  -7.049  -5.441  1.00  0.00    -0.248 NA
ATOM     49  C   UNL     1      -1.821  -6.750  -5.527  1.00  0.00     0.031 C 
ATOM     50  C   UNL     1       1.075  -2.887  -6.950  1.00  0.00     0.029 A 
ATOM     51  N   UNL     1       2.106  -4.762  -6.301  1.00  0.00    -0.354 N 
ATOM     52  C   UNL     1      -0.136  -8.175  -4.920  1.00  0.00     0.074 A 
ATOM     53  C   UNL     1      -1.559  -7.913  -4.947  1.00  0.00     0.031 C 
ATOM     54  C   UNL     1       2.396  -2.655  -6.994  1.00  0.00     0.029 A 
ATOM     55  C   UNL     1       3.105  -3.849  -6.546  1.00  0.00     0.049 A 
ATOM     56  H   UNL     1       2.280  -5.686  -6.009  1.00  0.00     0.167 HD
ATOM     57  C   UNL     1       0.417  -9.330  -4.482  1.00  0.00     0.034 A 
ATOM     58  C   UNL     1       4.442  -3.954  -6.412  1.00  0.00     0.034 A 
ATOM     59  C   UNL     1       1.830  -9.601  -4.490  1.00  0.00     0.049 A 
ATOM     60  C   UNL     1       5.033  -5.262  -5.964  1.00  0.00     0.074 A 
ATOM     61  C   UNL     1       2.482 -10.777  -4.163  1.00  0.00     0.029 A 
ATOM     62  N   UNL     1       2.812  -8.680  -4.824  1.00  0.00    -0.354 N 
ATOM     63  N   UNL     1       4.421  -6.374  -5.635  1.00  0.00    -0.248 NA
ATOM     64  C   UNL     1       6.500  -5.343  -5.903  1.00  0.00     0.031 C 
ATOM     65  C   UNL     1       3.860 -10.554  -4.259  1.00  0.00     0.029 A 
ATOM     66  C   UNL     1       4.065  -9.254  -4.690  1.00  0.00     0.049 A 
ATOM     67  H   UNL     1       2.642  -7.755  -5.115  1.00  0.00     0.167 HD
ATOM     68  C   UNL     1       5.425  -7.295  -5.361  1.00  0.00     0.074 A 
ATOM     69  C   UNL     1       6.686  -6.617  -5.583  1.00  0.00     0.031 C 
ATOM     70  C   UNL     1       5.313  -8.583  -4.951  1.00  0.00     0.034 A 
BRANCH  57  71
ATOM     71  C   UNL     1      -0.510 -10.410  -3.986  1.00  0.00     0.023 A 
ATOM     72  C   UNL     1      -1.341 -11.096  -4.895  1.00  0.00     0.012 A 
ATOM     73  C   UNL     1      -0.518 -10.784  -2.627  1.00  0.00     0.148 A 
ATOM     74  C   UNL     1      -2.192 -12.110  -4.456  1.00  0.00     0.002 A 
ATOM     75  C   UNL     1      -1.332 -11.829  -2.205  1.00  0.00     0.091 A 
ATOM     76  F   UNL     1       0.263 -10.107  -1.773  1.00  0.00    -0.205 F 
ATOM     77  C   UNL     1      -2.179 -12.483  -3.115  1.00  0.00     0.022 A 
BRANCH  75  78
ATOM     78  S   UNL     1      -1.326 -12.439  -0.516  1.00  0.00     0.127 S 
ATOM     79  O   UNL     1      -2.637 -12.001  -0.040  1.00  0.00    -0.237 OA
ATOM     80  O   UNL     1      -1.201 -13.884  -0.713  1.00  0.00    -0.237 OA
ATOM     81  O   UNL     1      -0.184 -11.812   0.134  1.00  0.00    -0.744 OA
ENDBRANCH  75  78
ENDBRANCH  57  71
BRANCH  58  82
ATOM     82  C   UNL     1       5.313  -2.793  -6.747  1.00  0.00     0.023 A 
ATOM     83  C   UNL     1       6.133  -2.841  -7.890  1.00  0.00     0.012 A 
ATOM     84  C   UNL     1       5.305  -1.630  -5.953  1.00  0.00     0.148 A 
ATOM     85  C   UNL     1       6.954  -1.761  -8.220  1.00  0.00     0.002 A 
ATOM     86  C   UNL     1       6.080  -0.537  -6.320  1.00  0.00     0.091 A 
ATOM     87  F   UNL     1       4.523  -1.610  -4.865  1.00  0.00    -0.205 F 
ATOM     88  C   UNL     1       6.920  -0.607  -7.442  1.00  0.00     0.022 A 
BRANCH  86  89
ATOM     89  S   UNL     1       6.000   1.034  -5.452  1.00  0.00     0.127 S 
ATOM     90  O   UNL     1       7.328   1.109  -4.848  1.00  0.00    -0.237 OA
ATOM     91  O   UNL     1       5.767   1.970  -6.551  1.00  0.00    -0.237 OA
ATOM     92  O   UNL     1       4.890   0.913  -4.516  1.00  0.00    -0.744 OA
ENDBRANCH  86  89
ENDBRANCH  58  82
BRANCH  70  93
ATOM     93  C   UNL     1       6.584  -9.365  -4.745  1.00  0.00     0.023 A 
ATOM     94  C   UNL     1       7.425  -9.072  -3.654  1.00  0.00     0.012 A 
ATOM     95  C   UNL     1       6.909 -10.438  -5.599  1.00  0.00     0.148 A 
ATOM     96  C   UNL     1       8.588  -9.811  -3.436  1.00  0.00     0.002 A 
ATOM     97  C   UNL     1       8.039 -11.204  -5.344  1.00  0.00     0.091 A 
ATOM     98  F   UNL     1       6.105 -10.691  -6.643  1.00  0.00    -0.205 F 
ATOM     99  C   UNL     1       8.888 -10.884  -4.273  1.00  0.00     0.022 A 
BRANCH  97 100
ATOM    100  S   UNL     1       8.451 -12.664  -6.307  1.00  0.00     0.127 S 
ATOM    101  O   UNL     1       9.631 -12.211  -7.043  1.00  0.00    -0.237 OA
ATOM    102  O   UNL     1       8.725 -13.654  -5.266  1.00  0.00    -0.237 OA
ATOM    103  O   UNL     1       7.280 -12.952  -7.123  1.00  0.00    -0.744 OA
ENDBRANCH  97 100
ENDBRANCH  70  93
ENDBRANCH  44  45
ENDBRANCH  36  39
ENDBRANCH  34  35
ENDBRANCH  33  34
ENDBRANCH  32  33
ENDBRANCH   1  32
TORSDOF 21
