REMARK SMILES O=C(NCCCCCCNC(=O)[C@H]1[NH2+]CC[C@H]1c1cccc(Oc2ccccc2)c1)c1ccc(-c2c3nc(c(-c4cccc(S(=O)(=O)[O-])c4F)c4ccc([nH]4)c(-c4cccc(S(=O)(=O)[O-])c4F)c4nc(c(-c5cccc(S(=O)(=O)[O-])c5F)c5ccc2[nH]5)C=C4)C=C3)cc1
REMARK SMILES IDX 6 1 5 2 4 3 3 4 1 5 2 6 31 8 32 9 93 10 33 11 92 12 34 13
REMARK SMILES IDX 35 14 36 15 86 16 37 17 91 18 85 19 87 20 38 21 90 22 84 23
REMARK SMILES IDX 83 24 39 26 71 27 51 28 70 29 52 30 55 31 69 32 88 33 53 34
REMARK SMILES IDX 54 35 68 37 89 38 56 39 40 40 41 41 49 42 42 43 44 44 50 45
REMARK SMILES IDX 43 46 45 47 46 48 47 49 48 50 72 51 73 52 81 53 74 54 76 55
REMARK SMILES IDX 82 56 75 57 77 58 78 59 79 60 80 61 57 62 58 63 66 64 59 65
REMARK SMILES IDX 61 66 67 67 60 68 62 69 63 70 64 71 65 72 7 73 8 74 9 75
REMARK SMILES IDX 10 76 11 77 12 79 13 80 14 81 17 82 15 83 16 86 18 87 19 88
REMARK SMILES IDX 30 89 20 90 22 91 21 92 23 93 24 94 25 95 29 96 26 97 28 98
REMARK SMILES IDX 27 99
REMARK H PARENT 3 7 87 25 55 36 10 78 14 84 14 85
REMARK Flexibility Score: inf
ROOT
ATOM      1  C   UNL     1       4.093  -3.437  -1.623  1.00  0.00     0.002 C 
ENDROOT
BRANCH   1   2
ATOM      2  C   UNL     1       4.475  -2.647  -0.370  1.00  0.00     0.021 C 
BRANCH   2   3
ATOM      3  C   UNL     1       4.349  -1.133  -0.506  1.00  0.00     0.116 C 
BRANCH   3   4
ATOM      4  N   UNL     1       2.972  -0.700  -0.676  1.00  0.00    -0.352 N 
ATOM      5  O   UNL     1       1.074   0.396  -0.147  1.00  0.00    -0.269 OA
ATOM      6  C   UNL     1       2.278   0.268   0.015  1.00  0.00     0.251 C 
ATOM      7  H   UNL     1       2.466  -1.163  -1.383  1.00  0.00     0.163 HD
BRANCH   6   8
ATOM      8  C   UNL     1       3.005   1.127   0.980  1.00  0.00     0.039 A 
ATOM      9  C   UNL     1       4.227   1.706   0.632  1.00  0.00     0.014 A 
ATOM     10  C   UNL     1       2.469   1.330   2.254  1.00  0.00     0.014 A 
ATOM     11  C   UNL     1       4.984   2.353   1.603  1.00  0.00     0.010 A 
ATOM     12  C   UNL     1       3.195   2.054   3.204  1.00  0.00     0.010 A 
ATOM     13  C   UNL     1       4.479   2.534   2.901  1.00  0.00    -0.014 A 
BRANCH  13  14
ATOM     14  C   UNL     1       5.302   3.258   3.905  1.00  0.00     0.031 A 
ATOM     15  C   UNL     1       5.802   2.573   5.150  1.00  0.00     0.074 A 
ATOM     16  C   UNL     1       5.620   4.547   3.674  1.00  0.00     0.049 A 
ATOM     17  N   UNL     1       6.589   3.042   6.085  1.00  0.00    -0.248 NA
ATOM     18  C   UNL     1       5.359   1.189   5.384  1.00  0.00     0.031 C 
ATOM     19  C   UNL     1       5.152   5.335   2.530  1.00  0.00     0.029 A 
ATOM     20  N   UNL     1       6.412   5.420   4.375  1.00  0.00    -0.354 N 
ATOM     21  C   UNL     1       6.698   2.036   7.038  1.00  0.00     0.074 A 
ATOM     22  C   UNL     1       5.892   0.928   6.571  1.00  0.00     0.031 C 
ATOM     23  C   UNL     1       5.697   6.558   2.586  1.00  0.00     0.029 A 
ATOM     24  C   UNL     1       6.517   6.659   3.788  1.00  0.00     0.049 A 
ATOM     25  H   UNL     1       6.862   5.182   5.218  1.00  0.00     0.167 HD
ATOM     26  C   UNL     1       7.417   2.028   8.186  1.00  0.00     0.034 A 
ATOM     27  C   UNL     1       7.198   7.756   4.171  1.00  0.00     0.034 A 
ATOM     28  C   UNL     1       8.259   3.112   8.621  1.00  0.00     0.049 A 
ATOM     29  C   UNL     1       8.033   7.696   5.418  1.00  0.00     0.074 A 
ATOM     30  C   UNL     1       9.084   3.169   9.732  1.00  0.00     0.029 A 
ATOM     31  N   UNL     1       8.384   4.330   7.970  1.00  0.00    -0.354 N 
ATOM     32  N   UNL     1       8.233   6.685   6.228  1.00  0.00    -0.248 NA
ATOM     33  C   UNL     1       8.761   8.917   5.787  1.00  0.00     0.031 C 
ATOM     34  C   UNL     1       9.699   4.426   9.757  1.00  0.00     0.029 A 
ATOM     35  C   UNL     1       9.269   5.146   8.655  1.00  0.00     0.049 A 
ATOM     36  H   UNL     1       7.913   4.577   7.141  1.00  0.00     0.167 HD
ATOM     37  C   UNL     1       9.132   7.137   7.186  1.00  0.00     0.074 A 
ATOM     38  C   UNL     1       9.457   8.506   6.839  1.00  0.00     0.031 C 
ATOM     39  C   UNL     1       9.628   6.485   8.266  1.00  0.00     0.034 A 
BRANCH  26  40
ATOM     40  C   UNL     1       7.366   0.789   9.042  1.00  0.00     0.023 A 
ATOM     41  C   UNL     1       8.064  -0.366   8.635  1.00  0.00     0.012 A 
ATOM     42  C   UNL     1       6.692   0.788  10.279  1.00  0.00     0.148 A 
ATOM     43  C   UNL     1       8.070  -1.511   9.432  1.00  0.00     0.002 A 
ATOM     44  C   UNL     1       6.734  -0.345  11.086  1.00  0.00     0.091 A 
ATOM     45  F   UNL     1       6.014   1.887  10.641  1.00  0.00    -0.205 F 
ATOM     46  C   UNL     1       7.415  -1.497  10.660  1.00  0.00     0.022 A 
BRANCH  44  47
ATOM     47  S   UNL     1       5.984  -0.394  12.718  1.00  0.00     0.127 S 
ATOM     48  O   UNL     1       4.784  -1.191  12.467  1.00  0.00    -0.237 OA
ATOM     49  O   UNL     1       7.010  -1.072  13.512  1.00  0.00    -0.237 OA
ATOM     50  O   UNL     1       5.753   0.994  13.091  1.00  0.00    -0.744 OA
ENDBRANCH  44  47
ENDBRANCH  26  40
BRANCH  27  51
ATOM     51  C   UNL     1       7.175   8.974   3.315  1.00  0.00     0.023 A 
ATOM     52  C   UNL     1       8.338   9.345   2.612  1.00  0.00     0.012 A 
ATOM     53  C   UNL     1       6.001   9.733   3.150  1.00  0.00     0.148 A 
ATOM     54  C   UNL     1       8.337  10.463   1.777  1.00  0.00     0.002 A 
ATOM     55  C   UNL     1       5.990  10.810   2.272  1.00  0.00     0.091 A 
ATOM     56  F   UNL     1       4.910   9.375   3.842  1.00  0.00    -0.205 F 
ATOM     57  C   UNL     1       7.161  11.187   1.597  1.00  0.00     0.022 A 
BRANCH  55  58
ATOM     58  S   UNL     1       4.482  11.701   1.876  1.00  0.00     0.127 S 
ATOM     59  O   UNL     1       4.649  12.930   2.645  1.00  0.00    -0.237 OA
ATOM     60  O   UNL     1       4.593  11.860   0.425  1.00  0.00    -0.237 OA
ATOM     61  O   UNL     1       3.395  10.826   2.296  1.00  0.00    -0.744 OA
ENDBRANCH  55  58
ENDBRANCH  27  51
BRANCH  39  62
ATOM     62  C   UNL     1      10.601   7.232   9.139  1.00  0.00     0.023 A 
ATOM     63  C   UNL     1      10.133   8.253   9.989  1.00  0.00     0.012 A 
ATOM     64  C   UNL     1      11.965   6.885   9.159  1.00  0.00     0.148 A 
ATOM     65  C   UNL     1      11.014   8.939  10.823  1.00  0.00     0.002 A 
ATOM     66  C   UNL     1      12.830   7.543  10.026  1.00  0.00     0.091 A 
ATOM     67  F   UNL     1      12.397   5.928   8.325  1.00  0.00    -0.205 F 
ATOM     68  C   UNL     1      12.359   8.577  10.850  1.00  0.00     0.022 A 
BRANCH  66  69
ATOM     69  S   UNL     1      14.556   7.071  10.183  1.00  0.00     0.127 S 
ATOM     70  O   UNL     1      15.219   8.080   9.360  1.00  0.00    -0.237 OA
ATOM     71  O   UNL     1      14.792   7.207  11.621  1.00  0.00    -0.237 OA
ATOM     72  O   UNL     1      14.635   5.702   9.691  1.00  0.00    -0.744 OA
ENDBRANCH  66  69
ENDBRANCH  39  62
ENDBRANCH  13  14
ENDBRANCH   6   8
ENDBRANCH   3   4
ENDBRANCH   2   3
ENDBRANCH   1   2
BRANCH   1  73
ATOM     73  C   UNL     1       4.853  -3.049  -2.897  1.00  0.00     0.002 C 
BRANCH  73  74
ATOM     74  C   UNL     1       6.384  -3.070  -2.780  1.00  0.00     0.021 C 
BRANCH  74  75
ATOM     75  C   UNL     1       6.961  -4.456  -2.498  1.00  0.00     0.116 C 
BRANCH  75  76
ATOM     76  N   UNL     1       6.852  -5.295  -3.676  1.00  0.00    -0.351 N 
ATOM     77  C   UNL     1       7.775  -6.000  -4.380  1.00  0.00     0.278 C 
ATOM     78  H   UNL     1       5.937  -5.368  -4.032  1.00  0.00     0.163 HD
ATOM     79  O   UNL     1       7.351  -6.677  -5.326  1.00  0.00    -0.268 OA
BRANCH  77  80
ATOM     80  C   UNL     1       9.264  -6.044  -4.019  1.00  0.00     0.280 C 
ATOM     81  N   UNL     1       9.911  -4.713  -3.882  1.00  0.00    -0.335 N 
ATOM     82  C   UNL     1       9.742  -6.945  -2.857  1.00  0.00     0.093 C 
ATOM     83  C   UNL     1      10.802  -4.791  -2.724  1.00  0.00     0.262 C 
ATOM     84  H   UNL     1       9.204  -3.993  -3.732  1.00  0.00     0.346 HD
ATOM     85  H   UNL     1      10.429  -4.470  -4.726  1.00  0.00     0.346 HD
ATOM     86  C   UNL     1      11.085  -6.274  -2.541  1.00  0.00     0.076 C 
BRANCH  82  87
ATOM     87  C   UNL     1       8.795  -7.172  -1.685  1.00  0.00    -0.034 A 
ATOM     88  C   UNL     1       9.066  -6.774  -0.368  1.00  0.00     0.004 A 
ATOM     89  C   UNL     1       7.599  -7.884  -1.916  1.00  0.00     0.051 A 
ATOM     90  C   UNL     1       8.172  -7.059   0.669  1.00  0.00     0.004 A 
ATOM     91  C   UNL     1       6.683  -8.148  -0.890  1.00  0.00     0.127 A 
ATOM     92  C   UNL     1       6.984  -7.739   0.407  1.00  0.00     0.047 A 
BRANCH  91  93
ATOM     93  O   UNL     1       5.478  -8.805  -1.031  1.00  0.00    -0.457 OA
BRANCH  93  94
ATOM     94  C   UNL     1       4.983  -9.001  -2.296  1.00  0.00     0.127 A 
ATOM     95  C   UNL     1       3.907  -8.222  -2.723  1.00  0.00     0.047 A 
ATOM     96  C   UNL     1       5.486 -10.019  -3.107  1.00  0.00     0.047 A 
ATOM     97  C   UNL     1       3.371  -8.425  -3.995  1.00  0.00     0.004 A 
ATOM     98  C   UNL     1       4.964 -10.204  -4.386  1.00  0.00     0.004 A 
ATOM     99  C   UNL     1       3.909  -9.406  -4.830  1.00  0.00     0.000 A 
ENDBRANCH  93  94
ENDBRANCH  91  93
ENDBRANCH  82  87
ENDBRANCH  77  80
ENDBRANCH  75  76
ENDBRANCH  74  75
ENDBRANCH  73  74
ENDBRANCH   1  73
TORSDOF 19
