REMARK SMILES O=C(/C=C/c1cc(F)cc(C[N@@H+]2CCC[C@H]2CO)c1)NCCCCCCNC(=O)c1ccc(-c2c3nc(c(-c4cccc(S(=O)(=O)[O-])c4F)c4ccc([nH]4)c(-c4cccc(S(=O)(=O)[O-])c4F)c4nc(c(-c5cccc(S(=O)(=O)[O-])c5F)c5ccc2[nH]5)C=C4)C=C3)cc1
REMARK SMILES IDX 22 1 21 2 20 3 1 4 2 5 3 7 4 8 5 9 6 10 19 11 7 12 10 13
REMARK SMILES IDX 8 14 9 15 11 16 12 17 13 18 16 19 14 21 15 22 17 23 18 24
REMARK SMILES IDX 23 26 24 27 25 28 26 29 27 30 28 31 29 33 30 34 31 35 92 36
REMARK SMILES IDX 32 37 91 38 33 39 34 40 35 41 85 42 36 43 90 44 84 45 86 46
REMARK SMILES IDX 37 47 89 48 83 49 82 50 38 52 70 53 50 54 69 55 51 56 54 57
REMARK SMILES IDX 68 58 87 59 52 60 53 61 67 63 88 64 55 65 39 66 40 67 48 68
REMARK SMILES IDX 41 69 43 70 49 71 42 72 44 73 45 74 46 75 47 76 71 77 72 78
REMARK SMILES IDX 80 79 73 80 75 81 81 82 74 83 76 84 77 85 78 86 79 87 56 88
REMARK SMILES IDX 57 89 65 90 58 91 60 92 66 93 59 94 61 95 62 96 63 97 64 98
REMARK H PARENT 20 6 12 20 18 25 27 32 86 51 54 62
REMARK Flexibility Score: inf
ROOT
ATOM      1  C   UNL     1       2.579   2.754  -2.036  1.00  0.00     0.021 C 
ENDROOT
BRANCH   1   2
ATOM      2  C   UNL     1       2.025   1.329  -2.084  1.00  0.00     0.116 C 
BRANCH   2   3
ATOM      3  N   UNL     1       2.679   0.470  -1.118  1.00  0.00    -0.353 N 
ATOM      4  O   UNL     1       0.912   0.293   0.347  1.00  0.00    -0.270 OA
ATOM      5  C   UNL     1       2.072   0.063   0.041  1.00  0.00     0.243 C 
ATOM      6  H   UNL     1       3.597   0.166  -1.302  1.00  0.00     0.163 HD
BRANCH   5   7
ATOM      7  C   UNL     1       2.913  -0.775   0.934  1.00  0.00     0.072 C 
ATOM      8  C   UNL     1       4.245  -0.655   1.037  1.00  0.00     0.014 C 
BRANCH   8   9
ATOM      9  C   UNL     1       5.071  -1.481   1.925  1.00  0.00    -0.022 A 
ATOM     10  C   UNL     1       4.848  -2.853   2.077  1.00  0.00     0.047 A 
ATOM     11  C   UNL     1       6.167  -0.892   2.575  1.00  0.00     0.018 A 
ATOM     12  C   UNL     1       5.734  -3.614   2.827  1.00  0.00     0.124 A 
ATOM     13  C   UNL     1       7.044  -1.654   3.366  1.00  0.00     0.010 A 
ATOM     14  F   UNL     1       5.521  -4.929   2.967  1.00  0.00    -0.207 F 
ATOM     15  C   UNL     1       6.840  -3.037   3.439  1.00  0.00     0.048 A 
BRANCH  13  16
ATOM     16  C   UNL     1       8.181  -0.987   4.109  1.00  0.00     0.299 C 
BRANCH  16  17
ATOM     17  N   UNL     1       8.022  -0.774   5.554  1.00  0.00    -0.327 N 
ATOM     18  C   UNL     1       8.026  -1.990   6.368  1.00  0.00     0.263 C 
ATOM     19  C   UNL     1       6.847   0.023   5.965  1.00  0.00     0.210 C 
ATOM     20  H   UNL     1       8.868  -0.234   5.737  1.00  0.00     0.348 HD
ATOM     21  C   UNL     1       6.578  -2.294   6.696  1.00  0.00     0.068 C 
ATOM     22  C   UNL     1       5.878  -0.950   6.645  1.00  0.00     0.073 C 
BRANCH  19  23
ATOM     23  C   UNL     1       7.295   1.135   6.942  1.00  0.00     0.220 C 
BRANCH  23  24
ATOM     24  O   UNL     1       7.697   2.300   6.224  1.00  0.00    -0.390 OA
ATOM     25  H   UNL     1       8.443   2.082   5.644  1.00  0.00     0.210 HD
ENDBRANCH  23  24
ENDBRANCH  19  23
ENDBRANCH  16  17
ENDBRANCH  13  16
ENDBRANCH   8   9
ENDBRANCH   5   7
ENDBRANCH   2   3
ENDBRANCH   1   2
BRANCH   1  26
ATOM     26  C   UNL     1       4.084   2.869  -2.315  1.00  0.00     0.002 C 
BRANCH  26  27
ATOM     27  C   UNL     1       4.552   2.314  -3.664  1.00  0.00     0.002 C 
BRANCH  27  28
ATOM     28  C   UNL     1       3.876   2.923  -4.894  1.00  0.00     0.021 C 
BRANCH  28  29
ATOM     29  C   UNL     1       4.025   4.436  -5.032  1.00  0.00     0.116 C 
BRANCH  29  30
ATOM     30  N   UNL     1       5.410   4.847  -5.215  1.00  0.00    -0.352 N 
ATOM     31  C   UNL     1       5.965   5.623  -6.205  1.00  0.00     0.251 C 
ATOM     32  H   UNL     1       6.040   4.522  -4.532  1.00  0.00     0.163 HD
ATOM     33  O   UNL     1       7.186   5.728  -6.290  1.00  0.00    -0.269 OA
BRANCH  31  34
ATOM     34  C   UNL     1       5.091   6.310  -7.182  1.00  0.00     0.039 A 
ATOM     35  C   UNL     1       5.404   6.233  -8.542  1.00  0.00     0.014 A 
ATOM     36  C   UNL     1       3.960   7.015  -6.762  1.00  0.00     0.014 A 
ATOM     37  C   UNL     1       4.537   6.793  -9.484  1.00  0.00     0.010 A 
ATOM     38  C   UNL     1       3.062   7.510  -7.705  1.00  0.00     0.010 A 
ATOM     39  C   UNL     1       3.335   7.396  -9.077  1.00  0.00    -0.014 A 
BRANCH  39  40
ATOM     40  C   UNL     1       2.330   7.866 -10.067  1.00  0.00     0.031 A 
ATOM     41  C   UNL     1       1.946   9.319 -10.137  1.00  0.00     0.074 A 
ATOM     42  C   UNL     1       1.699   6.965 -10.849  1.00  0.00     0.049 A 
ATOM     43  N   UNL     1       1.035   9.893 -10.880  1.00  0.00    -0.248 NA
ATOM     44  C   UNL     1       2.663  10.248  -9.246  1.00  0.00     0.031 C 
ATOM     45  C   UNL     1       1.940   5.520 -10.836  1.00  0.00     0.029 A 
ATOM     46  N   UNL     1       0.711   7.125 -11.789  1.00  0.00    -0.354 N 
ATOM     47  C   UNL     1       1.051  11.239 -10.533  1.00  0.00     0.074 A 
ATOM     48  C   UNL     1       2.041  11.394  -9.490  1.00  0.00     0.031 C 
ATOM     49  C   UNL     1       1.133   4.929 -11.730  1.00  0.00     0.029 A 
ATOM     50  C   UNL     1       0.286   5.942 -12.352  1.00  0.00     0.049 A 
ATOM     51  H   UNL     1       0.341   8.003 -12.038  1.00  0.00     0.167 HD
ATOM     52  C   UNL     1       0.327  12.256 -11.056  1.00  0.00     0.034 A 
ATOM     53  C   UNL     1      -0.684   5.696 -13.256  1.00  0.00     0.034 A 
ATOM     54  C   UNL     1      -0.631  12.105 -12.118  1.00  0.00     0.049 A 
ATOM     55  C   UNL     1      -1.468   6.850 -13.822  1.00  0.00     0.074 A 
ATOM     56  C   UNL     1      -1.369  13.090 -12.751  1.00  0.00     0.029 A 
ATOM     57  N   UNL     1      -0.989  10.901 -12.702  1.00  0.00    -0.354 N 
ATOM     58  N   UNL     1      -1.351   8.129 -13.565  1.00  0.00    -0.248 NA
ATOM     59  C   UNL     1      -2.494   6.531 -14.826  1.00  0.00     0.031 C 
ATOM     60  C   UNL     1      -2.193  12.479 -13.698  1.00  0.00     0.029 A 
ATOM     61  C   UNL     1      -1.938  11.118 -13.685  1.00  0.00     0.049 A 
ATOM     62  H   UNL     1      -0.621  10.021 -12.455  1.00  0.00     0.167 HD
ATOM     63  C   UNL     1      -2.255   8.771 -14.405  1.00  0.00     0.074 A 
ATOM     64  C   UNL     1      -2.901   7.740 -15.189  1.00  0.00     0.031 C 
ATOM     65  C   UNL     1      -2.531  10.094 -14.506  1.00  0.00     0.034 A 
BRANCH  52  66
ATOM     66  C   UNL     1       0.577  13.650 -10.542  1.00  0.00     0.023 A 
ATOM     67  C   UNL     1       1.763  14.318 -10.907  1.00  0.00     0.012 A 
ATOM     68  C   UNL     1      -0.413  14.344  -9.819  1.00  0.00     0.148 A 
ATOM     69  C   UNL     1       1.966  15.650 -10.552  1.00  0.00     0.002 A 
ATOM     70  C   UNL     1      -0.225  15.686  -9.509  1.00  0.00     0.091 A 
ATOM     71  F   UNL     1      -1.528  13.686  -9.469  1.00  0.00    -0.205 F 
ATOM     72  C   UNL     1       0.967  16.338  -9.868  1.00  0.00     0.022 A 
BRANCH  70  73
ATOM     73  S   UNL     1      -1.484  16.689  -8.711  1.00  0.00     0.127 S 
ATOM     74  O   UNL     1      -0.833  17.027  -7.446  1.00  0.00    -0.237 OA
ATOM     75  O   UNL     1      -1.621  17.806  -9.644  1.00  0.00    -0.237 OA
ATOM     76  O   UNL     1      -2.662  15.841  -8.592  1.00  0.00    -0.744 OA
ENDBRANCH  70  73
ENDBRANCH  52  66
BRANCH  53  77
ATOM     77  C   UNL     1      -0.924   4.303 -13.733  1.00  0.00     0.023 A 
ATOM     78  C   UNL     1      -0.604   3.964 -15.062  1.00  0.00     0.012 A 
ATOM     79  C   UNL     1      -1.435   3.309 -12.877  1.00  0.00     0.148 A 
ATOM     80  C   UNL     1      -0.820   2.671 -15.540  1.00  0.00     0.002 A 
ATOM     81  C   UNL     1      -1.590   2.007 -13.341  1.00  0.00     0.091 A 
ATOM     82  F   UNL     1      -1.746   3.652 -11.618  1.00  0.00    -0.205 F 
ATOM     83  C   UNL     1      -1.302   1.691 -14.677  1.00  0.00     0.022 A 
BRANCH  81  84
ATOM     84  S   UNL     1      -2.069   0.651 -12.265  1.00  0.00     0.127 S 
ATOM     85  O   UNL     1      -3.406   0.334 -12.760  1.00  0.00    -0.237 OA
ATOM     86  O   UNL     1      -1.045  -0.350 -12.570  1.00  0.00    -0.237 OA
ATOM     87  O   UNL     1      -2.005   1.181 -10.910  1.00  0.00    -0.744 OA
ENDBRANCH  81  84
ENDBRANCH  53  77
BRANCH  65  88
ATOM     88  C   UNL     1      -3.540  10.534 -15.535  1.00  0.00     0.023 A 
ATOM     89  C   UNL     1      -4.910  10.273 -15.336  1.00  0.00     0.012 A 
ATOM     90  C   UNL     1      -3.137  11.306 -16.644  1.00  0.00     0.148 A 
ATOM     91  C   UNL     1      -5.860  10.752 -16.237  1.00  0.00     0.002 A 
ATOM     92  C   UNL     1      -4.093  11.826 -17.507  1.00  0.00     0.091 A 
ATOM     93  F   UNL     1      -1.827  11.529 -16.825  1.00  0.00    -0.205 F 
ATOM     94  C   UNL     1      -5.454  11.540 -17.312  1.00  0.00     0.022 A 
BRANCH  92  95
ATOM     95  S   UNL     1      -3.675  12.940 -18.853  1.00  0.00     0.127 S 
ATOM     96  O   UNL     1      -3.945  12.105 -20.024  1.00  0.00    -0.237 OA
ATOM     97  O   UNL     1      -4.624  14.035 -18.654  1.00  0.00    -0.237 OA
ATOM     98  O   UNL     1      -2.279  13.304 -18.658  1.00  0.00    -0.744 OA
ENDBRANCH  92  95
ENDBRANCH  65  88
ENDBRANCH  39  40
ENDBRANCH  31  34
ENDBRANCH  29  30
ENDBRANCH  28  29
ENDBRANCH  27  28
ENDBRANCH  26  27
ENDBRANCH   1  26
TORSDOF 21
