REMARK SMILES C[C@@H](Sc1nc2ccccc2c(=O)n1N)C(=O)NCCCCCCNC(=O)c1ccc(-c2c3nc(c(-c4cccc(S(=O)(=O)[O-])c4F)c4ccc([nH]4)c(-c4cccc(S(=O)(=O)[O-])c4F)c4nc(c(-c5cccc(S(=O)(=O)[O-])c5F)c5ccc2[nH]5)C=C4)C=C3)cc1
REMARK SMILES IDX 21 1 20 2 19 3 18 4 16 5 17 6 2 8 1 9 3 10 4 11 5 12 14 13
REMARK SMILES IDX 6 14 12 15 7 16 11 17 13 18 8 19 10 20 9 21 15 22 22 25
REMARK SMILES IDX 23 26 24 27 25 28 26 29 27 31 28 32 29 33 90 34 30 35 89 36
REMARK SMILES IDX 31 37 32 38 33 39 83 40 34 41 88 42 82 43 84 44 35 45 87 46
REMARK SMILES IDX 81 47 80 48 36 50 68 51 48 52 67 53 49 54 52 55 66 56 85 57
REMARK SMILES IDX 50 58 51 59 65 61 86 62 53 63 37 64 38 65 46 66 39 67 41 68
REMARK SMILES IDX 47 69 40 70 42 71 43 72 44 73 45 74 69 75 70 76 78 77 71 78
REMARK SMILES IDX 73 79 79 80 72 81 74 82 75 83 76 84 77 85 54 86 55 87 63 88
REMARK SMILES IDX 56 89 58 90 64 91 57 92 59 93 60 94 61 95 62 96
REMARK H PARENT 18 7 15 23 15 24 25 30 84 49 52 60
REMARK Flexibility Score: inf
ROOT
ATOM      1  C   UNL     1      -3.137  -0.031   2.737  1.00  0.00     0.002 C 
ENDROOT
BRANCH   1   2
ATOM      2  C   UNL     1      -1.629  -0.009   2.465  1.00  0.00     0.021 C 
BRANCH   2   3
ATOM      3  C   UNL     1      -1.128  -1.246   1.724  1.00  0.00     0.116 C 
BRANCH   3   4
ATOM      4  N   UNL     1      -1.609  -1.244   0.354  1.00  0.00    -0.355 N 
ATOM      5  C   UNL     1      -0.926  -1.227  -0.825  1.00  0.00     0.233 C 
ATOM      6  O   UNL     1      -1.591  -1.199  -1.866  1.00  0.00    -0.274 OA
ATOM      7  H   UNL     1      -2.590  -1.257   0.261  1.00  0.00     0.163 HD
BRANCH   5   8
ATOM      8  C   UNL     1       0.604  -1.256  -0.875  1.00  0.00     0.141 C 
ATOM      9  C   UNL     1       1.242  -0.008  -0.276  1.00  0.00     0.030 C 
BRANCH   8  10
ATOM     10  S   UNL     1       1.151  -2.872  -0.212  1.00  0.00    -0.073 SA
BRANCH  10  11
ATOM     11  C   UNL     1       2.883  -2.684  -0.170  1.00  0.00     0.191 A 
ATOM     12  N   UNL     1       3.441  -2.643   0.994  1.00  0.00    -0.222 NA
ATOM     13  N   UNL     1       3.583  -2.678  -1.371  1.00  0.00    -0.202 N 
ATOM     14  C   UNL     1       4.841  -2.624   1.057  1.00  0.00     0.079 A 
ATOM     15  C   UNL     1       4.978  -2.671  -1.399  1.00  0.00     0.280 A 
ATOM     16  C   UNL     1       5.458  -2.635   2.310  1.00  0.00     0.029 A 
ATOM     17  C   UNL     1       5.645  -2.644  -0.085  1.00  0.00     0.068 A 
ATOM     18  O   UNL     1       5.634  -2.720  -2.440  1.00  0.00    -0.267 OA
ATOM     19  C   UNL     1       6.851  -2.666   2.417  1.00  0.00     0.002 A 
ATOM     20  C   UNL     1       7.041  -2.671   0.011  1.00  0.00     0.016 A 
ATOM     21  C   UNL     1       7.643  -2.684   1.269  1.00  0.00     0.001 A 
BRANCH  13  22
ATOM     22  N   UNL     1       2.913  -2.711  -2.639  1.00  0.00    -0.334 N 
ATOM     23  H   UNL     1       1.929  -2.717  -2.675  1.00  0.00     0.178 HD
ATOM     24  H   UNL     1       3.436  -2.728  -3.472  1.00  0.00     0.178 HD
ENDBRANCH  13  22
ENDBRANCH  10  11
ENDBRANCH   8  10
ENDBRANCH   5   8
ENDBRANCH   3   4
ENDBRANCH   2   3
ENDBRANCH   1   2
BRANCH   1  25
ATOM     25  C   UNL     1      -3.625  -1.238   3.546  1.00  0.00     0.002 C 
BRANCH  25  26
ATOM     26  C   UNL     1      -2.902  -1.454   4.878  1.00  0.00     0.021 C 
BRANCH  26  27
ATOM     27  C   UNL     1      -2.973  -0.266   5.830  1.00  0.00     0.116 C 
BRANCH  27  28
ATOM     28  N   UNL     1      -4.343   0.040   6.214  1.00  0.00    -0.352 N 
ATOM     29  C   UNL     1      -4.881   0.160   7.469  1.00  0.00     0.251 C 
ATOM     30  H   UNL     1      -4.971   0.179   5.469  1.00  0.00     0.163 HD
ATOM     31  O   UNL     1      -6.102   0.213   7.614  1.00  0.00    -0.269 OA
BRANCH  29  32
ATOM     32  C   UNL     1      -3.989   0.211   8.645  1.00  0.00     0.039 A 
ATOM     33  C   UNL     1      -4.304  -0.554   9.770  1.00  0.00     0.014 A 
ATOM     34  C   UNL     1      -2.842   1.011   8.634  1.00  0.00     0.014 A 
ATOM     35  C   UNL     1      -3.438  -0.558  10.865  1.00  0.00     0.010 A 
ATOM     36  C   UNL     1      -1.942   0.943   9.693  1.00  0.00     0.010 A 
ATOM     37  C   UNL     1      -2.235   0.166  10.824  1.00  0.00    -0.014 A 
BRANCH  37  38
ATOM     38  C   UNL     1      -1.268   0.117  11.950  1.00  0.00     0.031 A 
ATOM     39  C   UNL     1      -0.926   1.369  12.712  1.00  0.00     0.074 A 
ATOM     40  C   UNL     1      -0.638  -1.040  12.235  1.00  0.00     0.049 A 
ATOM     41  N   UNL     1      -0.075   1.531  13.692  1.00  0.00    -0.248 NA
ATOM     42  C   UNL     1      -1.609   2.608  12.303  1.00  0.00     0.031 C 
ATOM     43  C   UNL     1      -0.828  -2.304  11.522  1.00  0.00     0.029 A 
ATOM     44  N   UNL     1       0.308  -1.335  13.185  1.00  0.00    -0.354 N 
ATOM     45  C   UNL     1      -0.094   2.888  13.993  1.00  0.00     0.074 A 
ATOM     46  C   UNL     1      -1.012   3.512  13.066  1.00  0.00     0.031 C 
ATOM     47  C   UNL     1      -0.033  -3.240  12.065  1.00  0.00     0.029 A 
ATOM     48  C   UNL     1       0.748  -2.637  13.139  1.00  0.00     0.049 A 
ATOM     49  H   UNL     1       0.639  -0.676  13.838  1.00  0.00     0.167 HD
ATOM     50  C   UNL     1       0.572   3.551  14.968  1.00  0.00     0.034 A 
ATOM     51  C   UNL     1       1.684  -3.271  13.873  1.00  0.00     0.034 A 
ATOM     52  C   UNL     1       1.459   2.921  15.908  1.00  0.00     0.049 A 
ATOM     53  C   UNL     1       2.393  -2.515  14.964  1.00  0.00     0.074 A 
ATOM     54  C   UNL     1       2.114   3.489  16.986  1.00  0.00     0.029 A 
ATOM     55  N   UNL     1       1.829   1.585  15.874  1.00  0.00    -0.354 N 
ATOM     56  N   UNL     1       2.245  -1.267  15.335  1.00  0.00    -0.248 NA
ATOM     57  C   UNL     1       3.374  -3.266  15.761  1.00  0.00     0.031 C 
ATOM     58  C   UNL     1       2.909   2.504  17.582  1.00  0.00     0.029 A 
ATOM     59  C   UNL     1       2.717   1.313  16.901  1.00  0.00     0.049 A 
ATOM     60  H   UNL     1       1.508   0.927  15.216  1.00  0.00     0.167 HD
ATOM     61  C   UNL     1       3.081  -1.093  16.431  1.00  0.00     0.074 A 
ATOM     62  C   UNL     1       3.719  -2.370  16.676  1.00  0.00     0.031 C 
ATOM     63  C   UNL     1       3.309   0.026  17.163  1.00  0.00     0.034 A 
BRANCH  50  64
ATOM     64  C   UNL     1       0.334   5.035  15.093  1.00  0.00     0.023 A 
ATOM     65  C   UNL     1      -0.916   5.509  15.542  1.00  0.00     0.012 A 
ATOM     66  C   UNL     1       1.361   5.958  14.815  1.00  0.00     0.148 A 
ATOM     67  C   UNL     1      -1.154   6.876  15.672  1.00  0.00     0.002 A 
ATOM     68  C   UNL     1       1.133   7.317  14.995  1.00  0.00     0.091 A 
ATOM     69  F   UNL     1       2.538   5.492  14.371  1.00  0.00    -0.205 F 
ATOM     70  C   UNL     1      -0.128   7.779  15.409  1.00  0.00     0.022 A 
BRANCH  68  71
ATOM     71  S   UNL     1       2.414   8.555  14.764  1.00  0.00     0.127 S 
ATOM     72  O   UNL     1       1.954   9.231  13.552  1.00  0.00    -0.237 OA
ATOM     73  O   UNL     1       2.298   9.349  15.987  1.00  0.00    -0.237 OA
ATOM     74  O   UNL     1       3.664   7.820  14.633  1.00  0.00    -0.744 OA
ENDBRANCH  68  71
ENDBRANCH  50  64
BRANCH  51  75
ATOM     75  C   UNL     1       1.962  -4.717  13.640  1.00  0.00     0.023 A 
ATOM     76  C   UNL     1       1.588  -5.660  14.617  1.00  0.00     0.012 A 
ATOM     77  C   UNL     1       2.577  -5.163  12.455  1.00  0.00     0.148 A 
ATOM     78  C   UNL     1       1.854  -7.017  14.435  1.00  0.00     0.002 A 
ATOM     79  C   UNL     1       2.789  -6.522  12.255  1.00  0.00     0.091 A 
ATOM     80  F   UNL     1       2.933  -4.249  11.541  1.00  0.00    -0.205 F 
ATOM     81  C   UNL     1       2.446  -7.449  13.251  1.00  0.00     0.022 A 
BRANCH  79  82
ATOM     82  S   UNL     1       3.428  -7.182  10.711  1.00  0.00     0.127 S 
ATOM     83  O   UNL     1       4.742  -7.672  11.117  1.00  0.00    -0.237 OA
ATOM     84  O   UNL     1       2.448  -8.224  10.402  1.00  0.00    -0.237 OA
ATOM     85  O   UNL     1       3.432  -6.065   9.776  1.00  0.00    -0.744 OA
ENDBRANCH  79  82
ENDBRANCH  51  75
BRANCH  63  86
ATOM     86  C   UNL     1       4.254  -0.083  18.332  1.00  0.00     0.023 A 
ATOM     87  C   UNL     1       5.637  -0.238  18.111  1.00  0.00     0.012 A 
ATOM     88  C   UNL     1       3.774   0.040  19.652  1.00  0.00     0.148 A 
ATOM     89  C   UNL     1       6.523  -0.306  19.186  1.00  0.00     0.002 A 
ATOM     90  C   UNL     1       4.669   0.026  20.715  1.00  0.00     0.091 A 
ATOM     91  F   UNL     1       2.453   0.169  19.843  1.00  0.00    -0.205 F 
ATOM     92  C   UNL     1       6.041  -0.161  20.485  1.00  0.00     0.022 A 
BRANCH  90  93
ATOM     93  S   UNL     1       4.153   0.305  22.413  1.00  0.00     0.127 S 
ATOM     94  O   UNL     1       4.337  -1.020  23.001  1.00  0.00    -0.237 OA
ATOM     95  O   UNL     1       5.113   1.312  22.865  1.00  0.00    -0.237 OA
ATOM     96  O   UNL     1       2.775   0.771  22.344  1.00  0.00    -0.744 OA
ENDBRANCH  90  93
ENDBRANCH  63  86
ENDBRANCH  37  38
ENDBRANCH  29  32
ENDBRANCH  27  28
ENDBRANCH  26  27
ENDBRANCH  25  26
ENDBRANCH   1  25
TORSDOF 19
