REMARK SMILES C[C@]1(C(=O)NCCCCCCNC(=O)c2ccc(-c3c4nc(c(-c5cccc(S(=O)(=O)[O-])c5F)c5ccc([nH]5)c(-c5cccc(S(=O)(=O)[O-])c5F)c5nc(c(-c6cccc(S(=O)(=O)[O-])c6F)c6ccc3[nH]6)C=C5)C=C4)cc2)CCN(c2ccc([N+](=O)[O-])c(N)n2)C1
REMARK SMILES IDX 9 1 8 2 7 3 6 4 5 5 3 6 4 7 2 9 1 10 78 11 91 12 79 13 80 14
REMARK SMILES IDX 81 15 82 16 90 17 83 18 88 19 84 20 89 21 85 24 86 25 87 26
REMARK SMILES IDX 10 27 11 28 12 29 13 30 14 32 15 33 16 34 77 35 17 36 76 37
REMARK SMILES IDX 18 38 19 39 20 40 70 41 21 42 75 43 69 44 71 45 22 46 74 47
REMARK SMILES IDX 68 48 67 49 23 51 55 52 35 53 54 54 36 55 39 56 53 57 72 58
REMARK SMILES IDX 37 59 38 60 52 62 73 63 40 64 24 65 25 66 33 67 26 68 28 69
REMARK SMILES IDX 34 70 27 71 29 72 30 73 31 74 32 75 56 76 57 77 65 78 58 79
REMARK SMILES IDX 60 80 66 81 59 82 61 83 62 84 63 85 64 86 41 87 42 88 50 89
REMARK SMILES IDX 43 90 45 91 51 92 44 93 46 94 47 95 48 96 49 97
REMARK H PARENT 5 8 89 22 89 23 12 31 71 50 39 61
REMARK Flexibility Score: inf
ROOT
ATOM      1  C   UNL     1      -1.978  -4.006   1.183  1.00  0.00     0.002 C 
ENDROOT
BRANCH   1   2
ATOM      2  C   UNL     1      -1.793  -3.167  -0.085  1.00  0.00     0.002 C 
BRANCH   2   3
ATOM      3  C   UNL     1      -1.990  -1.658   0.108  1.00  0.00     0.021 C 
BRANCH   3   4
ATOM      4  C   UNL     1      -0.971  -1.027   1.060  1.00  0.00     0.116 C 
BRANCH   4   5
ATOM      5  N   UNL     1       0.300  -0.846   0.387  1.00  0.00    -0.356 N 
ATOM      6  C   UNL     1       0.811   0.239  -0.258  1.00  0.00     0.227 C 
ATOM      7  O   UNL     1       1.820   0.050  -0.942  1.00  0.00    -0.274 OA
ATOM      8  H   UNL     1       0.889  -1.635   0.397  1.00  0.00     0.163 HD
BRANCH   6   9
ATOM      9  C   UNL     1       0.206   1.634  -0.079  1.00  0.00     0.066 C 
ATOM     10  C   UNL     1      -1.287   1.731  -0.447  1.00  0.00     0.024 C 
ATOM     11  C   UNL     1       0.520   2.180   1.330  1.00  0.00     0.040 C 
ATOM     12  C   UNL     1       0.973   2.649  -0.954  1.00  0.00     0.134 C 
ATOM     13  C   UNL     1       0.550   3.704   1.174  1.00  0.00     0.119 C 
ATOM     14  N   UNL     1       0.742   3.903  -0.251  1.00  0.00    -0.355 N 
BRANCH  14  15
ATOM     15  C   UNL     1       1.049   5.118  -0.787  1.00  0.00     0.131 A 
ATOM     16  C   UNL     1       0.470   5.510  -1.988  1.00  0.00     0.054 A 
ATOM     17  N   UNL     1       1.898   5.931  -0.123  1.00  0.00    -0.207 NA
ATOM     18  C   UNL     1       0.752   6.767  -2.510  1.00  0.00     0.093 A 
ATOM     19  C   UNL     1       2.224   7.136  -0.645  1.00  0.00     0.204 A 
ATOM     20  C   UNL     1       1.654   7.590  -1.832  1.00  0.00     0.311 A 
BRANCH  19  21
ATOM     21  N   UNL     1       3.228   7.777   0.048  1.00  0.00    -0.378 N 
ATOM     22  H   UNL     1       3.543   8.661  -0.247  1.00  0.00     0.158 HD
ATOM     23  H   UNL     1       3.630   7.350   0.839  1.00  0.00     0.158 HD
ENDBRANCH  19  21
BRANCH  20  24
ATOM     24  N   UNL     1       1.949   8.913  -2.376  1.00  0.00     0.066 N 
ATOM     25  O   UNL     1       1.439   9.209  -3.468  1.00  0.00    -0.258 OA
ATOM     26  O   UNL     1       2.668   9.685  -1.723  1.00  0.00    -0.258 OA
ENDBRANCH  20  24
ENDBRANCH  14  15
ENDBRANCH   6   9
ENDBRANCH   4   5
ENDBRANCH   3   4
ENDBRANCH   2   3
ENDBRANCH   1   2
BRANCH   1  27
ATOM     27  C   UNL     1      -3.310  -3.794   1.908  1.00  0.00     0.021 C 
BRANCH  27  28
ATOM     28  C   UNL     1      -4.543  -4.103   1.065  1.00  0.00     0.116 C 
BRANCH  28  29
ATOM     29  N   UNL     1      -4.602  -5.509   0.694  1.00  0.00    -0.352 N 
ATOM     30  C   UNL     1      -5.586  -6.432   0.947  1.00  0.00     0.251 C 
ATOM     31  H   UNL     1      -3.826  -5.845   0.190  1.00  0.00     0.163 HD
ATOM     32  O   UNL     1      -5.369  -7.625   0.766  1.00  0.00    -0.269 OA
BRANCH  30  33
ATOM     33  C   UNL     1      -6.904  -5.982   1.446  1.00  0.00     0.039 A 
ATOM     34  C   UNL     1      -7.509  -6.683   2.492  1.00  0.00     0.014 A 
ATOM     35  C   UNL     1      -7.545  -4.880   0.873  1.00  0.00     0.014 A 
ATOM     36  C   UNL     1      -8.739  -6.249   2.994  1.00  0.00     0.010 A 
ATOM     37  C   UNL     1      -8.733  -4.407   1.423  1.00  0.00     0.010 A 
ATOM     38  C   UNL     1      -9.349  -5.092   2.481  1.00  0.00    -0.014 A 
BRANCH  38  39
ATOM     39  C   UNL     1     -10.632  -4.585   3.034  1.00  0.00     0.031 A 
ATOM     40  C   UNL     1     -11.857  -4.519   2.161  1.00  0.00     0.074 A 
ATOM     41  C   UNL     1     -10.674  -4.112   4.296  1.00  0.00     0.049 A 
ATOM     42  N   UNL     1     -13.044  -4.046   2.442  1.00  0.00    -0.248 NA
ATOM     43  C   UNL     1     -11.726  -5.026   0.784  1.00  0.00     0.031 C 
ATOM     44  C   UNL     1      -9.537  -4.053   5.217  1.00  0.00     0.029 A 
ATOM     45  N   UNL     1     -11.709  -3.562   5.012  1.00  0.00    -0.354 N 
ATOM     46  C   UNL     1     -13.788  -4.168   1.274  1.00  0.00     0.074 A 
ATOM     47  C   UNL     1     -12.910  -4.726   0.270  1.00  0.00     0.031 C 
ATOM     48  C   UNL     1      -9.936  -3.499   6.374  1.00  0.00     0.029 A 
ATOM     49  C   UNL     1     -11.345  -3.134   6.268  1.00  0.00     0.049 A 
ATOM     50  H   UNL     1     -12.625  -3.482   4.660  1.00  0.00     0.167 HD
ATOM     51  C   UNL     1     -15.093  -3.873   1.064  1.00  0.00     0.034 A 
ATOM     52  C   UNL     1     -12.062  -2.508   7.222  1.00  0.00     0.034 A 
ATOM     53  C   UNL     1     -15.975  -3.359   2.076  1.00  0.00     0.049 A 
ATOM     54  C   UNL     1     -13.519  -2.222   6.971  1.00  0.00     0.074 A 
ATOM     55  C   UNL     1     -17.331  -3.099   1.982  1.00  0.00     0.029 A 
ATOM     56  N   UNL     1     -15.592  -3.023   3.365  1.00  0.00    -0.354 N 
ATOM     57  N   UNL     1     -14.240  -2.483   5.908  1.00  0.00    -0.248 NA
ATOM     58  C   UNL     1     -14.271  -1.589   8.065  1.00  0.00     0.031 C 
ATOM     59  C   UNL     1     -17.763  -2.585   3.209  1.00  0.00     0.029 A 
ATOM     60  C   UNL     1     -16.683  -2.555   4.075  1.00  0.00     0.049 A 
ATOM     61  H   UNL     1     -14.678  -3.106   3.722  1.00  0.00     0.167 HD
ATOM     62  C   UNL     1     -15.536  -2.087   6.220  1.00  0.00     0.074 A 
ATOM     63  C   UNL     1     -15.504  -1.587   7.579  1.00  0.00     0.031 C 
ATOM     64  C   UNL     1     -16.649  -2.119   5.447  1.00  0.00     0.034 A 
BRANCH  51  65
ATOM     65  C   UNL     1     -15.668  -4.153  -0.300  1.00  0.00     0.023 A 
ATOM     66  C   UNL     1     -15.879  -5.488  -0.703  1.00  0.00     0.012 A 
ATOM     67  C   UNL     1     -16.071  -3.104  -1.149  1.00  0.00     0.148 A 
ATOM     68  C   UNL     1     -16.454  -5.775  -1.940  1.00  0.00     0.002 A 
ATOM     69  C   UNL     1     -16.686  -3.397  -2.361  1.00  0.00     0.091 A 
ATOM     70  F   UNL     1     -15.847  -1.842  -0.756  1.00  0.00    -0.205 F 
ATOM     71  C   UNL     1     -16.868  -4.731  -2.762  1.00  0.00     0.022 A 
BRANCH  69  72
ATOM     72  S   UNL     1     -17.329  -2.128  -3.458  1.00  0.00     0.127 S 
ATOM     73  O   UNL     1     -16.435  -2.253  -4.608  1.00  0.00    -0.237 OA
ATOM     74  O   UNL     1     -18.696  -2.592  -3.695  1.00  0.00    -0.237 OA
ATOM     75  O   UNL     1     -17.229  -0.873  -2.726  1.00  0.00    -0.744 OA
ENDBRANCH  69  72
ENDBRANCH  51  65
BRANCH  52  76
ATOM     76  C   UNL     1     -11.431  -2.152   8.525  1.00  0.00     0.023 A 
ATOM     77  C   UNL     1     -11.834  -2.821   9.697  1.00  0.00     0.012 A 
ATOM     78  C   UNL     1     -10.436  -1.159   8.611  1.00  0.00     0.148 A 
ATOM     79  C   UNL     1     -11.292  -2.478  10.936  1.00  0.00     0.002 A 
ATOM     80  C   UNL     1      -9.857  -0.863   9.839  1.00  0.00     0.091 A 
ATOM     81  F   UNL     1     -10.073  -0.524   7.487  1.00  0.00    -0.205 F 
ATOM     82  C   UNL     1     -10.298  -1.505  11.006  1.00  0.00     0.022 A 
BRANCH  80  83
ATOM     83  S   UNL     1      -8.480   0.279   9.999  1.00  0.00     0.127 S 
ATOM     84  O   UNL     1      -9.120   1.437  10.617  1.00  0.00    -0.237 OA
ATOM     85  O   UNL     1      -7.570  -0.462  10.873  1.00  0.00    -0.237 OA
ATOM     86  O   UNL     1      -7.978   0.476   8.646  1.00  0.00    -0.744 OA
ENDBRANCH  80  83
ENDBRANCH  52  76
BRANCH  64  87
ATOM     87  C   UNL     1     -17.942  -1.648   6.060  1.00  0.00     0.023 A 
ATOM     88  C   UNL     1     -18.148  -0.276   6.303  1.00  0.00     0.012 A 
ATOM     89  C   UNL     1     -18.981  -2.562   6.325  1.00  0.00     0.148 A 
ATOM     90  C   UNL     1     -19.356   0.176   6.833  1.00  0.00     0.002 A 
ATOM     91  C   UNL     1     -20.200  -2.099   6.804  1.00  0.00     0.091 A 
ATOM     92  F   UNL     1     -18.759  -3.866   6.104  1.00  0.00    -0.205 F 
ATOM     93  C   UNL     1     -20.385  -0.733   7.072  1.00  0.00     0.022 A 
BRANCH  91  94
ATOM     94  S   UNL     1     -21.614  -3.180   7.046  1.00  0.00     0.127 S 
ATOM     95  O   UNL     1     -21.698  -3.238   8.505  1.00  0.00    -0.237 OA
ATOM     96  O   UNL     1     -22.692  -2.430   6.403  1.00  0.00    -0.237 OA
ATOM     97  O   UNL     1     -21.276  -4.436   6.390  1.00  0.00    -0.744 OA
ENDBRANCH  91  94
ENDBRANCH  64  87
ENDBRANCH  38  39
ENDBRANCH  30  33
ENDBRANCH  28  29
ENDBRANCH  27  28
ENDBRANCH   1  27
TORSDOF 19
