REMARK SMILES CS(=O)(=O)c1ccc(/C=C(/C(=O)NCCCCCCNC(=O)c2ccc(-c3c4nc(c(-c5cccc(S(=O)(=O)[O-])c5F)c5ccc([nH]5)c(-c5cccc(S(=O)(=O)[O-])c5F)c5nc(c(-c6cccc(S(=O)(=O)[O-])c6F)c6ccc3[nH]6)C=C5)C=C4)cc2)c2ccc(-c3ccc(F)cc3F)cc2)cc1
REMARK SMILES IDX 17 1 16 2 15 3 14 4 13 5 11 6 12 7 10 9 9 10 8 11 5 12 6 13
REMARK SMILES IDX 101 14 7 15 100 16 2 17 1 18 3 19 4 20 86 21 87 22 99 23
REMARK SMILES IDX 88 24 98 25 89 26 90 27 91 28 96 29 92 30 95 31 97 32 93 33
REMARK SMILES IDX 94 34 18 35 19 36 20 37 21 38 22 40 23 41 24 42 85 43 25 44
REMARK SMILES IDX 84 45 26 46 27 47 28 48 78 49 29 50 83 51 77 52 79 53 30 54
REMARK SMILES IDX 82 55 76 56 75 57 31 59 63 60 43 61 62 62 44 63 47 64 61 65
REMARK SMILES IDX 80 66 45 67 46 68 60 70 81 71 48 72 32 73 33 74 41 75 34 76
REMARK SMILES IDX 36 77 42 78 35 79 37 80 38 81 39 82 40 83 64 84 65 85 73 86
REMARK SMILES IDX 66 87 68 88 74 89 67 90 69 91 70 92 71 93 72 94 49 95 50 96
REMARK SMILES IDX 58 97 51 98 53 99 59 100 52 101 54 102 55 103 56 104 57 105
REMARK H PARENT 13 8 20 39 79 58 47 69
REMARK Flexibility Score: inf
ROOT
ATOM      1  C   UNL     1       6.126  -9.765   5.340  1.00  0.00     0.002 C 
ENDROOT
BRANCH   1   2
ATOM      2  C   UNL     1       4.634  -9.583   5.643  1.00  0.00     0.002 C 
BRANCH   2   3
ATOM      3  C   UNL     1       4.049  -8.238   5.180  1.00  0.00     0.021 C 
BRANCH   3   4
ATOM      4  C   UNL     1       4.218  -8.000   3.677  1.00  0.00     0.116 C 
BRANCH   4   5
ATOM      5  N   UNL     1       3.308  -8.864   2.958  1.00  0.00    -0.352 N 
ATOM      6  C   UNL     1       2.111  -8.682   2.352  1.00  0.00     0.251 C 
ATOM      7  O   UNL     1       1.553  -9.712   1.960  1.00  0.00    -0.269 OA
ATOM      8  H   UNL     1       3.632  -9.792   2.895  1.00  0.00     0.163 HD
BRANCH   6   9
ATOM      9  C   UNL     1       1.509  -7.325   2.054  1.00  0.00     0.047 C 
ATOM     10  C   UNL     1       1.689  -6.232   2.834  1.00  0.00     0.022 C 
BRANCH  10  11
ATOM     11  C   UNL     1       1.289  -4.819   2.605  1.00  0.00    -0.025 A 
ATOM     12  C   UNL     1       0.748  -2.108   2.065  1.00  0.00     0.067 A 
ATOM     13  C   UNL     1      -0.211  -3.080   1.786  1.00  0.00     0.021 A 
ATOM     14  C   UNL     1       1.951  -2.463   2.674  1.00  0.00     0.021 A 
ATOM     15  C   UNL     1       0.052  -4.421   2.085  1.00  0.00     0.009 A 
ATOM     16  C   UNL     1       2.219  -3.814   2.931  1.00  0.00     0.009 A 
BRANCH  12  17
ATOM     17  S   UNL     1       0.396  -0.402   1.712  1.00  0.00     0.175 S 
ATOM     18  C   UNL     1       1.122  -0.139   0.115  1.00  0.00     0.163 C 
ATOM     19  O   UNL     1       1.112   0.406   2.675  1.00  0.00    -0.224 OA
ATOM     20  O   UNL     1      -1.046  -0.278   1.563  1.00  0.00    -0.224 OA
ENDBRANCH  12  17
ENDBRANCH  10  11
BRANCH   9  21
ATOM     21  C   UNL     1       0.521  -7.293   0.950  1.00  0.00    -0.013 A 
ATOM     22  C   UNL     1      -0.692  -7.968   1.149  1.00  0.00     0.009 A 
ATOM     23  C   UNL     1       0.693  -6.540  -0.214  1.00  0.00     0.009 A 
ATOM     24  C   UNL     1      -1.741  -7.827   0.247  1.00  0.00     0.009 A 
ATOM     25  C   UNL     1      -0.378  -6.376  -1.104  1.00  0.00     0.009 A 
ATOM     26  C   UNL     1      -1.625  -6.986  -0.869  1.00  0.00    -0.015 A 
BRANCH  26  27
ATOM     27  C   UNL     1      -2.804  -6.723  -1.716  1.00  0.00     0.018 A 
ATOM     28  C   UNL     1      -4.062  -6.483  -1.121  1.00  0.00     0.015 A 
ATOM     29  C   UNL     1      -2.739  -6.700  -3.117  1.00  0.00     0.133 A 
ATOM     30  C   UNL     1      -5.200  -6.257  -1.897  1.00  0.00     0.040 A 
ATOM     31  C   UNL     1      -3.868  -6.470  -3.900  1.00  0.00     0.079 A 
ATOM     32  F   UNL     1      -1.574  -6.916  -3.748  1.00  0.00    -0.206 F 
ATOM     33  C   UNL     1      -5.090  -6.256  -3.280  1.00  0.00     0.126 A 
ATOM     34  F   UNL     1      -6.182  -6.045  -4.026  1.00  0.00    -0.207 F 
ENDBRANCH  26  27
ENDBRANCH   9  21
ENDBRANCH   6   9
ENDBRANCH   4   5
ENDBRANCH   3   4
ENDBRANCH   2   3
ENDBRANCH   1   2
BRANCH   1  35
ATOM     35  C   UNL     1       7.017  -8.626   5.841  1.00  0.00     0.021 C 
BRANCH  35  36
ATOM     36  C   UNL     1       6.962  -8.421   7.349  1.00  0.00     0.116 C 
BRANCH  36  37
ATOM     37  N   UNL     1       7.480  -9.580   8.058  1.00  0.00    -0.352 N 
ATOM     38  C   UNL     1       8.477  -9.638   8.997  1.00  0.00     0.251 C 
ATOM     39  H   UNL     1       7.056 -10.440   7.833  1.00  0.00     0.163 HD
ATOM     40  O   UNL     1       8.963 -10.722   9.307  1.00  0.00    -0.269 OA
BRANCH  38  41
ATOM     41  C   UNL     1       8.960  -8.393   9.629  1.00  0.00     0.039 A 
ATOM     42  C   UNL     1      10.328  -8.235   9.856  1.00  0.00     0.014 A 
ATOM     43  C   UNL     1       8.059  -7.399  10.026  1.00  0.00     0.014 A 
ATOM     44  C   UNL     1      10.794  -7.071  10.469  1.00  0.00     0.010 A 
ATOM     45  C   UNL     1       8.534  -6.204  10.553  1.00  0.00     0.010 A 
ATOM     46  C   UNL     1       9.902  -6.043  10.815  1.00  0.00    -0.014 A 
BRANCH  46  47
ATOM     47  C   UNL     1      10.379  -4.816  11.500  1.00  0.00     0.031 A 
ATOM     48  C   UNL     1       9.895  -4.493  12.890  1.00  0.00     0.074 A 
ATOM     49  C   UNL     1      11.204  -3.968  10.857  1.00  0.00     0.049 A 
ATOM     50  N   UNL     1      10.191  -3.471  13.649  1.00  0.00    -0.248 NA
ATOM     51  C   UNL     1       8.926  -5.424  13.495  1.00  0.00     0.031 C 
ATOM     52  C   UNL     1      11.677  -4.129   9.480  1.00  0.00     0.029 A 
ATOM     53  N   UNL     1      11.775  -2.792  11.270  1.00  0.00    -0.354 N 
ATOM     54  C   UNL     1       9.421  -3.615  14.798  1.00  0.00     0.074 A 
ATOM     55  C   UNL     1       8.610  -4.797  14.617  1.00  0.00     0.031 C 
ATOM     56  C   UNL     1      12.477  -3.098   9.168  1.00  0.00     0.029 A 
ATOM     57  C   UNL     1      12.553  -2.191  10.310  1.00  0.00     0.049 A 
ATOM     58  H   UNL     1      11.642  -2.415  12.169  1.00  0.00     0.167 HD
ATOM     59  C   UNL     1       9.411  -2.852  15.917  1.00  0.00     0.034 A 
ATOM     60  C   UNL     1      13.250  -1.038  10.346  1.00  0.00     0.034 A 
ATOM     61  C   UNL     1      10.249  -1.699  16.107  1.00  0.00     0.049 A 
ATOM     62  C   UNL     1      13.269  -0.239  11.620  1.00  0.00     0.074 A 
ATOM     63  C   UNL     1      10.380  -0.905  17.232  1.00  0.00     0.029 A 
ATOM     64  N   UNL     1      11.093  -1.170  15.143  1.00  0.00    -0.354 N 
ATOM     65  N   UNL     1      12.652  -0.474  12.752  1.00  0.00    -0.248 NA
ATOM     66  C   UNL     1      14.120   0.959  11.637  1.00  0.00     0.031 C 
ATOM     67  C   UNL     1      11.280   0.124  16.936  1.00  0.00     0.029 A 
ATOM     68  C   UNL     1      11.745  -0.056  15.643  1.00  0.00     0.049 A 
ATOM     69  H   UNL     1      11.212  -1.532  14.235  1.00  0.00     0.167 HD
ATOM     70  C   UNL     1      13.073   0.518  13.630  1.00  0.00     0.074 A 
ATOM     71  C   UNL     1      14.013   1.346  12.901  1.00  0.00     0.031 C 
ATOM     72  C   UNL     1      12.713   0.730  14.921  1.00  0.00     0.034 A 
BRANCH  59  73
ATOM     73  C   UNL     1       8.490  -3.268  17.036  1.00  0.00     0.023 A 
ATOM     74  C   UNL     1       8.748  -4.455  17.755  1.00  0.00     0.012 A 
ATOM     75  C   UNL     1       7.389  -2.469  17.401  1.00  0.00     0.148 A 
ATOM     76  C   UNL     1       7.899  -4.864  18.783  1.00  0.00     0.002 A 
ATOM     77  C   UNL     1       6.579  -2.856  18.462  1.00  0.00     0.091 A 
ATOM     78  F   UNL     1       7.145  -1.355  16.695  1.00  0.00    -0.205 F 
ATOM     79  C   UNL     1       6.822  -4.060  19.143  1.00  0.00     0.022 A 
BRANCH  77  80
ATOM     80  S   UNL     1       5.218  -1.846  19.058  1.00  0.00     0.127 S 
ATOM     81  O   UNL     1       4.060  -2.632  18.634  1.00  0.00    -0.237 OA
ATOM     82  O   UNL     1       5.452  -1.838  20.503  1.00  0.00    -0.237 OA
ATOM     83  O   UNL     1       5.366  -0.550  18.412  1.00  0.00    -0.744 OA
ENDBRANCH  77  80
ENDBRANCH  59  73
BRANCH  60  84
ATOM     84  C   UNL     1      14.047  -0.616   9.160  1.00  0.00     0.023 A 
ATOM     85  C   UNL     1      15.454  -0.658   9.216  1.00  0.00     0.012 A 
ATOM     86  C   UNL     1      13.418  -0.203   7.970  1.00  0.00     0.148 A 
ATOM     87  C   UNL     1      16.221  -0.263   8.120  1.00  0.00     0.002 A 
ATOM     88  C   UNL     1      14.187   0.135   6.863  1.00  0.00     0.091 A 
ATOM     89  F   UNL     1      12.079  -0.167   7.940  1.00  0.00    -0.205 F 
ATOM     90  C   UNL     1      15.589   0.125   6.942  1.00  0.00     0.022 A 
BRANCH  88  91
ATOM     91  S   UNL     1      13.462   0.517   5.265  1.00  0.00     0.127 S 
ATOM     92  O   UNL     1      13.789   1.933   5.119  1.00  0.00    -0.237 OA
ATOM     93  O   UNL     1      14.202  -0.382   4.378  1.00  0.00    -0.237 OA
ATOM     94  O   UNL     1      12.044   0.206   5.389  1.00  0.00    -0.744 OA
ENDBRANCH  88  91
ENDBRANCH  60  84
BRANCH  72  95
ATOM     95  C   UNL     1      13.380   1.865  15.653  1.00  0.00     0.023 A 
ATOM     96  C   UNL     1      13.084   3.201  15.316  1.00  0.00     0.012 A 
ATOM     97  C   UNL     1      14.267   1.602  16.715  1.00  0.00     0.148 A 
ATOM     98  C   UNL     1      13.699   4.255  15.992  1.00  0.00     0.002 A 
ATOM     99  C   UNL     1      14.832   2.656  17.422  1.00  0.00     0.091 A 
ATOM    100  F   UNL     1      14.552   0.325  17.010  1.00  0.00    -0.205 F 
ATOM    101  C   UNL     1      14.562   3.983  17.051  1.00  0.00     0.022 A 
BRANCH  99 102
ATOM    102  S   UNL     1      15.871   2.395  18.863  1.00  0.00     0.127 S 
ATOM    103  O   UNL     1      17.201   2.681  18.327  1.00  0.00    -0.237 OA
ATOM    104  O   UNL     1      15.362   3.397  19.799  1.00  0.00    -0.237 OA
ATOM    105  O   UNL     1      15.643   1.017  19.275  1.00  0.00    -0.744 OA
ENDBRANCH  99 102
ENDBRANCH  72  95
ENDBRANCH  46  47
ENDBRANCH  38  41
ENDBRANCH  36  37
ENDBRANCH  35  36
ENDBRANCH   1  35
TORSDOF 20
