REMARK SMILES Cc1ccc([C@H](C)NC(=O)[C@H]2[C@@H]3CC[C@@H](C3)[C@@H]2C(=O)NCCCCCCNC(=O)c2ccc(-c3c4nc(c(-c5cccc(S(=O)(=O)[O-])c5F)c5ccc([nH]5)c(-c5cccc(S(=O)(=O)[O-])c5F)c5nc(c(-c6cccc(S(=O)(=O)[O-])c6F)c6ccc3[nH]6)C=C5)C=C4)cc2)cc1
REMARK SMILES IDX 23 1 22 2 21 3 20 4 18 5 19 6 17 8 11 9 12 10 13 11 16 12
REMARK SMILES IDX 15 13 14 14 9 15 8 16 10 18 6 19 7 20 5 21 1 22 2 23 3 24
REMARK SMILES IDX 94 25 4 26 93 27 24 28 25 29 26 30 27 31 28 32 29 34 30 35
REMARK SMILES IDX 31 36 92 37 32 38 91 39 33 40 34 41 35 42 85 43 36 44 90 45
REMARK SMILES IDX 84 46 86 47 37 48 89 49 83 50 82 51 38 53 70 54 50 55 69 56
REMARK SMILES IDX 51 57 54 58 68 59 87 60 52 61 53 62 67 64 88 65 55 66 39 67
REMARK SMILES IDX 40 68 48 69 41 70 43 71 49 72 42 73 44 74 45 75 46 76 47 77
REMARK SMILES IDX 71 78 72 79 80 80 73 81 75 82 81 83 74 84 76 85 77 86 78 87
REMARK SMILES IDX 79 88 56 89 57 90 65 91 58 92 60 93 66 94 59 95 61 96 62 97
REMARK SMILES IDX 63 98 64 99
REMARK H PARENT 20 7 8 17 27 33 86 52 54 63
REMARK Flexibility Score: inf
ROOT
ATOM      1  C   UNL     1      -9.863   0.341   1.685  1.00  0.00     0.002 C 
ENDROOT
BRANCH   1   2
ATOM      2  C   UNL     1      -8.360   0.387   1.998  1.00  0.00     0.021 C 
BRANCH   2   3
ATOM      3  C   UNL     1      -7.469   0.212   0.768  1.00  0.00     0.116 C 
BRANCH   3   4
ATOM      4  N   UNL     1      -7.438   1.426  -0.018  1.00  0.00    -0.356 N 
ATOM      5  C   UNL     1      -6.498   2.394  -0.155  1.00  0.00     0.224 C 
ATOM      6  O   UNL     1      -6.793   3.345  -0.887  1.00  0.00    -0.275 OA
ATOM      7  H   UNL     1      -8.249   1.578  -0.554  1.00  0.00     0.163 HD
BRANCH   5   8
ATOM      8  C   UNL     1      -5.077   2.247   0.387  1.00  0.00     0.094 C 
ATOM      9  C   UNL     1      -4.819   1.707   1.798  1.00  0.00     0.094 C 
ATOM     10  C   UNL     1      -3.916   2.784   2.453  1.00  0.00     0.002 C 
ATOM     11  C   UNL     1      -4.792   4.010   2.779  1.00  0.00     0.005 C 
ATOM     12  C   UNL     1      -3.102   3.316   1.280  1.00  0.00     0.009 C 
ATOM     13  C   UNL     1      -4.343   3.622   0.440  1.00  0.00     0.002 C 
ATOM     14  C   UNL     1      -5.081   4.595   1.388  1.00  0.00     0.005 C 
BRANCH   9  15
ATOM     15  C   UNL     1      -4.233   0.301   1.973  1.00  0.00     0.224 C 
ATOM     16  N   UNL     1      -3.421  -0.367   1.126  1.00  0.00    -0.349 N 
ATOM     17  H   UNL     1      -3.253  -1.288   1.431  1.00  0.00     0.164 HD
ATOM     18  O   UNL     1      -4.512  -0.317   3.011  1.00  0.00    -0.275 OA
BRANCH  16  19
ATOM     19  C   UNL     1      -2.728  -0.075  -0.124  1.00  0.00     0.109 C 
ATOM     20  C   UNL     1      -1.240  -0.406   0.025  1.00  0.00     0.036 C 
BRANCH  19  21
ATOM     21  C   UNL     1      -3.333  -0.820  -1.306  1.00  0.00    -0.026 A 
ATOM     22  C   UNL     1      -4.743  -2.846  -4.866  1.00  0.00     0.044 C 
ATOM     23  C   UNL     1      -4.286  -2.157  -3.614  1.00  0.00    -0.051 A 
ATOM     24  C   UNL     1      -4.311  -0.762  -3.541  1.00  0.00     0.004 A 
ATOM     25  C   UNL     1      -3.817  -2.882  -2.514  1.00  0.00     0.004 A 
ATOM     26  C   UNL     1      -3.834  -0.103  -2.405  1.00  0.00     0.006 A 
ATOM     27  C   UNL     1      -3.352  -2.222  -1.370  1.00  0.00     0.006 A 
ENDBRANCH  19  21
ENDBRANCH  16  19
ENDBRANCH   9  15
ENDBRANCH   5   8
ENDBRANCH   3   4
ENDBRANCH   2   3
ENDBRANCH   1   2
BRANCH   1  28
ATOM     28  C   UNL     1     -10.359  -0.920   0.956  1.00  0.00     0.002 C 
BRANCH  28  29
ATOM     29  C   UNL     1      -9.863  -2.252   1.525  1.00  0.00     0.021 C 
BRANCH  29  30
ATOM     30  C   UNL     1     -10.413  -2.561   2.910  1.00  0.00     0.116 C 
BRANCH  30  31
ATOM     31  N   UNL     1     -11.596  -3.405   2.889  1.00  0.00    -0.352 N 
ATOM     32  C   UNL     1     -12.435  -3.781   3.925  1.00  0.00     0.251 C 
ATOM     33  H   UNL     1     -11.838  -3.764   2.005  1.00  0.00     0.163 HD
ATOM     34  O   UNL     1     -13.270  -4.649   3.722  1.00  0.00    -0.269 OA
BRANCH  32  35
ATOM     35  C   UNL     1     -12.386  -3.049   5.218  1.00  0.00     0.039 A 
ATOM     36  C   UNL     1     -13.598  -2.655   5.802  1.00  0.00     0.014 A 
ATOM     37  C   UNL     1     -11.182  -2.590   5.741  1.00  0.00     0.014 A 
ATOM     38  C   UNL     1     -13.612  -1.629   6.747  1.00  0.00     0.010 A 
ATOM     39  C   UNL     1     -11.195  -1.510   6.597  1.00  0.00     0.010 A 
ATOM     40  C   UNL     1     -12.413  -0.994   7.055  1.00  0.00    -0.014 A 
BRANCH  40  41
ATOM     41  C   UNL     1     -12.296   0.252   7.796  1.00  0.00     0.031 A 
ATOM     42  C   UNL     1     -11.854   0.246   9.203  1.00  0.00     0.074 A 
ATOM     43  C   UNL     1     -12.386   1.420   7.123  1.00  0.00     0.049 A 
ATOM     44  N   UNL     1     -11.967   1.254   9.999  1.00  0.00    -0.248 NA
ATOM     45  C   UNL     1     -11.284  -0.933   9.838  1.00  0.00     0.031 C 
ATOM     46  C   UNL     1     -11.857   2.713   7.540  1.00  0.00     0.029 A 
ATOM     47  N   UNL     1     -13.179   1.714   6.010  1.00  0.00    -0.354 N 
ATOM     48  C   UNL     1     -11.257   0.964  11.145  1.00  0.00     0.074 A 
ATOM     49  C   UNL     1     -10.936  -0.439  11.029  1.00  0.00     0.031 C 
ATOM     50  C   UNL     1     -12.534   3.679   6.903  1.00  0.00     0.029 A 
ATOM     51  C   UNL     1     -13.623   3.035   6.188  1.00  0.00     0.049 A 
ATOM     52  H   UNL     1     -13.385   1.117   5.255  1.00  0.00     0.167 HD
ATOM     53  C   UNL     1     -10.912   1.985  11.981  1.00  0.00     0.034 A 
ATOM     54  C   UNL     1     -14.933   3.409   6.241  1.00  0.00     0.034 A 
ATOM     55  C   UNL     1     -11.486   3.258  11.517  1.00  0.00     0.049 A 
ATOM     56  C   UNL     1     -15.294   4.178   7.497  1.00  0.00     0.074 A 
ATOM     57  C   UNL     1     -10.964   4.323  10.800  1.00  0.00     0.029 A 
ATOM     58  N   UNL     1     -12.858   3.457  11.579  1.00  0.00    -0.354 N 
ATOM     59  N   UNL     1     -14.499   4.327   8.519  1.00  0.00    -0.248 NA
ATOM     60  C   UNL     1     -16.589   4.814   7.716  1.00  0.00     0.031 C 
ATOM     61  C   UNL     1     -12.045   5.148  10.392  1.00  0.00     0.029 A 
ATOM     62  C   UNL     1     -13.218   4.598  10.880  1.00  0.00     0.049 A 
ATOM     63  H   UNL     1     -13.488   2.869  12.055  1.00  0.00     0.167 HD
ATOM     64  C   UNL     1     -15.170   4.925   9.556  1.00  0.00     0.074 A 
ATOM     65  C   UNL     1     -16.450   5.284   8.969  1.00  0.00     0.031 C 
ATOM     66  C   UNL     1     -14.619   5.005  10.810  1.00  0.00     0.034 A 
BRANCH  53  67
ATOM     67  C   UNL     1      -9.839   1.946  13.063  1.00  0.00     0.023 A 
ATOM     68  C   UNL     1      -9.377   3.191  13.554  1.00  0.00     0.012 A 
ATOM     69  C   UNL     1      -9.188   0.808  13.590  1.00  0.00     0.148 A 
ATOM     70  C   UNL     1      -8.277   3.308  14.412  1.00  0.00     0.002 A 
ATOM     71  C   UNL     1      -8.057   0.920  14.407  1.00  0.00     0.091 A 
ATOM     72  F   UNL     1      -9.690  -0.407  13.378  1.00  0.00    -0.205 F 
ATOM     73  C   UNL     1      -7.593   2.172  14.812  1.00  0.00     0.022 A 
BRANCH  71  74
ATOM     74  S   UNL     1      -7.095  -0.512  14.932  1.00  0.00     0.127 S 
ATOM     75  O   UNL     1      -5.758  -0.180  14.434  1.00  0.00    -0.237 OA
ATOM     76  O   UNL     1      -7.230  -0.467  16.386  1.00  0.00    -0.237 OA
ATOM     77  O   UNL     1      -7.699  -1.673  14.288  1.00  0.00    -0.744 OA
ENDBRANCH  71  74
ENDBRANCH  53  67
BRANCH  54  78
ATOM     78  C   UNL     1     -15.847   2.519   5.473  1.00  0.00     0.023 A 
ATOM     79  C   UNL     1     -15.687   2.503   4.068  1.00  0.00     0.012 A 
ATOM     80  C   UNL     1     -16.535   1.462   6.093  1.00  0.00     0.148 A 
ATOM     81  C   UNL     1     -16.097   1.405   3.311  1.00  0.00     0.002 A 
ATOM     82  C   UNL     1     -16.934   0.364   5.331  1.00  0.00     0.091 A 
ATOM     83  F   UNL     1     -16.710   1.502   7.420  1.00  0.00    -0.205 F 
ATOM     84  C   UNL     1     -16.689   0.321   3.948  1.00  0.00     0.022 A 
BRANCH  82  85
ATOM     85  S   UNL     1     -17.629  -1.113   6.087  1.00  0.00     0.127 S 
ATOM     86  O   UNL     1     -19.058  -0.910   5.865  1.00  0.00    -0.237 OA
ATOM     87  O   UNL     1     -17.026  -2.182   5.291  1.00  0.00    -0.237 OA
ATOM     88  O   UNL     1     -17.177  -1.074   7.469  1.00  0.00    -0.744 OA
ENDBRANCH  82  85
ENDBRANCH  54  78
BRANCH  66  89
ATOM     89  C   UNL     1     -15.315   5.431  12.100  1.00  0.00     0.023 A 
ATOM     90  C   UNL     1     -16.710   5.577  12.210  1.00  0.00     0.012 A 
ATOM     91  C   UNL     1     -14.578   5.576  13.311  1.00  0.00     0.148 A 
ATOM     92  C   UNL     1     -17.339   5.867  13.430  1.00  0.00     0.002 A 
ATOM     93  C   UNL     1     -15.217   5.756  14.537  1.00  0.00     0.091 A 
ATOM     94  F   UNL     1     -13.238   5.570  13.291  1.00  0.00    -0.205 F 
ATOM     95  C   UNL     1     -16.598   5.926  14.600  1.00  0.00     0.022 A 
BRANCH  93  96
ATOM     96  S   UNL     1     -14.295   5.614  16.077  1.00  0.00     0.127 S 
ATOM     97  O   UNL     1     -13.850   6.988  16.296  1.00  0.00    -0.237 OA
ATOM     98  O   UNL     1     -15.316   5.150  17.019  1.00  0.00    -0.237 OA
ATOM     99  O   UNL     1     -13.258   4.631  15.794  1.00  0.00    -0.744 OA
ENDBRANCH  93  96
ENDBRANCH  66  89
ENDBRANCH  40  41
ENDBRANCH  32  35
ENDBRANCH  30  31
ENDBRANCH  29  30
ENDBRANCH  28  29
ENDBRANCH   1  28
TORSDOF 19
