REMARK SMILES COc1ccc(-c2ncn(CC(=O)NCCCCCCNC(=O)c3ccc(-c4c5nc(c(-c6cccc(S(=O)(=O)[O-])c6F)c6ccc([nH]6)c(-c6cccc(S(=O)(=O)[O-])c6F)c6nc(c(-c7cccc(S(=O)(=O)[O-])c7F)c7ccc4[nH]7)C=C6)C=C5)cc3)c2-c2ccc(OC)cc2)cc1
REMARK SMILES IDX 17 1 16 2 15 3 14 4 12 5 13 6 11 8 10 9 7 10 8 11 87 12 9 13
REMARK SMILES IDX 6 14 3 15 4 16 97 17 5 18 96 19 2 20 1 21 88 22 89 23 95 24
REMARK SMILES IDX 90 25 94 26 91 27 92 28 93 29 18 30 19 31 20 32 21 33 22 34
REMARK SMILES IDX 23 36 24 37 25 38 86 39 26 40 85 41 27 42 28 43 29 44 79 45
REMARK SMILES IDX 30 46 84 47 78 48 80 49 31 50 83 51 77 52 76 53 32 55 64 56
REMARK SMILES IDX 44 57 63 58 45 59 48 60 62 61 81 62 46 63 47 64 61 66 82 67
REMARK SMILES IDX 49 68 33 69 34 70 42 71 35 72 37 73 43 74 36 75 38 76 39 77
REMARK SMILES IDX 40 78 41 79 65 80 66 81 74 82 67 83 69 84 75 85 68 86 70 87
REMARK SMILES IDX 71 88 72 89 73 90 50 91 51 92 59 93 52 94 54 95 60 96 53 97
REMARK SMILES IDX 55 98 56 99 57 100 58 101
REMARK H PARENT 14 7 21 35 80 54 48 65
REMARK Flexibility Score: inf
ROOT
ATOM      1  C   UNL     1      -1.373  -8.222   6.146  1.00  0.00     0.002 C 
ENDROOT
BRANCH   1   2
ATOM      2  C   UNL     1       0.013  -8.092   5.501  1.00  0.00     0.021 C 
BRANCH   2   3
ATOM      3  C   UNL     1       0.590  -9.396   4.953  1.00  0.00     0.116 C 
BRANCH   3   4
ATOM      4  N   UNL     1      -0.154  -9.905   3.817  1.00  0.00    -0.355 N 
ATOM      5  C   UNL     1       0.234 -10.038   2.516  1.00  0.00     0.239 C 
ATOM      6  O   UNL     1      -0.526 -10.646   1.755  1.00  0.00    -0.273 OA
ATOM      7  H   UNL     1      -1.073 -10.197   4.014  1.00  0.00     0.163 HD
BRANCH   5   8
ATOM      8  C   UNL     1       1.586  -9.546   2.041  1.00  0.00     0.223 C 
BRANCH   8   9
ATOM      9  N   UNL     1       1.832  -8.140   2.297  1.00  0.00    -0.321 N 
ATOM     10  C   UNL     1       1.791  -5.966   2.356  1.00  0.00     0.096 A 
ATOM     11  N   UNL     1       2.866  -6.352   3.109  1.00  0.00    -0.236 NA
ATOM     12  C   UNL     1       1.149  -7.061   1.793  1.00  0.00     0.076 A 
ATOM     13  C   UNL     1       2.886  -7.660   3.028  1.00  0.00     0.201 A 
BRANCH  10  14
ATOM     14  C   UNL     1       1.418  -4.608   2.025  1.00  0.00     0.003 A 
ATOM     15  C   UNL     1       0.449  -2.203   0.951  1.00  0.00     0.118 A 
ATOM     16  C   UNL     1      -0.297  -2.904   1.902  1.00  0.00     0.047 A 
ATOM     17  C   UNL     1       1.691  -2.703   0.553  1.00  0.00     0.047 A 
ATOM     18  C   UNL     1       0.181  -4.100   2.440  1.00  0.00     0.014 A 
ATOM     19  C   UNL     1       2.184  -3.892   1.104  1.00  0.00     0.014 A 
BRANCH  15  20
ATOM     20  O   UNL     1      -0.146  -1.057   0.496  1.00  0.00    -0.497 OA
ATOM     21  C   UNL     1       0.661  -0.184  -0.283  1.00  0.00     0.278 C 
ENDBRANCH  15  20
ENDBRANCH  10  14
BRANCH  12  22
ATOM     22  C   UNL     1       0.099  -7.075   0.782  1.00  0.00     0.001 A 
ATOM     23  C   UNL     1      -1.204  -7.473   1.077  1.00  0.00     0.014 A 
ATOM     24  C   UNL     1       0.379  -6.537  -0.480  1.00  0.00     0.014 A 
ATOM     25  C   UNL     1      -2.202  -7.365   0.105  1.00  0.00     0.047 A 
ATOM     26  C   UNL     1      -0.625  -6.397  -1.437  1.00  0.00     0.047 A 
ATOM     27  C   UNL     1      -1.922  -6.818  -1.150  1.00  0.00     0.118 A 
BRANCH  27  28
ATOM     28  O   UNL     1      -2.988  -6.744  -2.004  1.00  0.00    -0.497 OA
ATOM     29  C   UNL     1      -2.785  -5.982  -3.188  1.00  0.00     0.278 C 
ENDBRANCH  27  28
ENDBRANCH  12  22
ENDBRANCH   8   9
ENDBRANCH   5   8
ENDBRANCH   3   4
ENDBRANCH   2   3
ENDBRANCH   1   2
BRANCH   1  30
ATOM     30  C   UNL     1      -1.535  -9.341   7.186  1.00  0.00     0.002 C 
BRANCH  30  31
ATOM     31  C   UNL     1      -0.491  -9.394   8.311  1.00  0.00     0.021 C 
BRANCH  31  32
ATOM     32  C   UNL     1      -0.513  -8.190   9.240  1.00  0.00     0.116 C 
BRANCH  32  33
ATOM     33  N   UNL     1      -1.737  -8.128  10.038  1.00  0.00    -0.352 N 
ATOM     34  C   UNL     1      -2.123  -7.146  10.932  1.00  0.00     0.251 C 
ATOM     35  H   UNL     1      -2.364  -8.878   9.924  1.00  0.00     0.163 HD
ATOM     36  O   UNL     1      -2.955  -7.378  11.792  1.00  0.00    -0.269 OA
BRANCH  34  37
ATOM     37  C   UNL     1      -1.503  -5.811  10.821  1.00  0.00     0.039 A 
ATOM     38  C   UNL     1      -1.117  -5.099  11.959  1.00  0.00     0.014 A 
ATOM     39  C   UNL     1      -1.284  -5.292   9.548  1.00  0.00     0.014 A 
ATOM     40  C   UNL     1      -0.431  -3.897  11.796  1.00  0.00     0.010 A 
ATOM     41  C   UNL     1      -0.476  -4.193   9.389  1.00  0.00     0.010 A 
ATOM     42  C   UNL     1      -0.092  -3.459  10.505  1.00  0.00    -0.014 A 
BRANCH  42  43
ATOM     43  C   UNL     1       0.774  -2.296  10.318  1.00  0.00     0.031 A 
ATOM     44  C   UNL     1       2.063  -2.367  11.063  1.00  0.00     0.074 A 
ATOM     45  C   UNL     1       0.540  -1.335   9.397  1.00  0.00     0.049 A 
ATOM     46  N   UNL     1       2.437  -1.644  12.068  1.00  0.00    -0.248 NA
ATOM     47  C   UNL     1       2.979  -3.477  10.755  1.00  0.00     0.031 C 
ATOM     48  C   UNL     1      -0.502  -1.307   8.359  1.00  0.00     0.029 A 
ATOM     49  N   UNL     1       1.281  -0.231   9.098  1.00  0.00    -0.354 N 
ATOM     50  C   UNL     1       3.744  -2.043  12.349  1.00  0.00     0.074 A 
ATOM     51  C   UNL     1       3.932  -3.297  11.673  1.00  0.00     0.031 C 
ATOM     52  C   UNL     1      -0.169  -0.408   7.407  1.00  0.00     0.029 A 
ATOM     53  C   UNL     1       0.988   0.336   7.860  1.00  0.00     0.049 A 
ATOM     54  H   UNL     1       1.965   0.134   9.705  1.00  0.00     0.167 HD
ATOM     55  C   UNL     1       4.645  -1.174  12.890  1.00  0.00     0.034 A 
ATOM     56  C   UNL     1       1.676   1.320   7.232  1.00  0.00     0.034 A 
ATOM     57  C   UNL     1       3.982  -0.013  13.434  1.00  0.00     0.049 A 
ATOM     58  C   UNL     1       2.520   1.993   8.233  1.00  0.00     0.074 A 
ATOM     59  C   UNL     1       3.010   0.213  14.388  1.00  0.00     0.029 A 
ATOM     60  N   UNL     1       4.049   1.137  12.686  1.00  0.00    -0.354 N 
ATOM     61  N   UNL     1       2.038   2.736   9.184  1.00  0.00    -0.248 NA
ATOM     62  C   UNL     1       3.876   1.510   8.426  1.00  0.00     0.031 C 
ATOM     63  C   UNL     1       2.225   1.285  13.867  1.00  0.00     0.029 A 
ATOM     64  C   UNL     1       2.801   1.694  12.664  1.00  0.00     0.049 A 
ATOM     65  H   UNL     1       4.852   1.495  12.244  1.00  0.00     0.167 HD
ATOM     66  C   UNL     1       2.818   2.414  10.282  1.00  0.00     0.074 A 
ATOM     67  C   UNL     1       4.008   1.769   9.729  1.00  0.00     0.031 C 
ATOM     68  C   UNL     1       2.281   2.430  11.536  1.00  0.00     0.034 A 
BRANCH  55  69
ATOM     69  C   UNL     1       6.135  -1.148  12.586  1.00  0.00     0.023 A 
ATOM     70  C   UNL     1       6.913  -0.195  13.287  1.00  0.00     0.012 A 
ATOM     71  C   UNL     1       6.755  -1.780  11.484  1.00  0.00     0.148 A 
ATOM     72  C   UNL     1       8.195   0.171  12.864  1.00  0.00     0.002 A 
ATOM     73  C   UNL     1       8.062  -1.473  11.117  1.00  0.00     0.091 A 
ATOM     74  F   UNL     1       6.058  -2.596  10.692  1.00  0.00    -0.205 F 
ATOM     75  C   UNL     1       8.772  -0.470  11.777  1.00  0.00     0.022 A 
BRANCH  73  76
ATOM     76  S   UNL     1       8.889  -2.319   9.761  1.00  0.00     0.127 S 
ATOM     77  O   UNL     1       8.922  -1.275   8.744  1.00  0.00    -0.237 OA
ATOM     78  O   UNL     1      10.184  -2.642  10.361  1.00  0.00    -0.237 OA
ATOM     79  O   UNL     1       8.065  -3.485   9.468  1.00  0.00    -0.744 OA
ENDBRANCH  73  76
ENDBRANCH  55  69
BRANCH  56  80
ATOM     80  C   UNL     1       1.929   1.541   5.796  1.00  0.00     0.023 A 
ATOM     81  C   UNL     1       2.190   2.837   5.313  1.00  0.00     0.012 A 
ATOM     82  C   UNL     1       2.308   0.439   5.012  1.00  0.00     0.148 A 
ATOM     83  C   UNL     1       2.842   3.029   4.089  1.00  0.00     0.002 A 
ATOM     84  C   UNL     1       2.999   0.638   3.822  1.00  0.00     0.091 A 
ATOM     85  F   UNL     1       2.116  -0.793   5.505  1.00  0.00    -0.205 F 
ATOM     86  C   UNL     1       3.260   1.927   3.348  1.00  0.00     0.022 A 
BRANCH  84  87
ATOM     87  S   UNL     1       3.713  -0.750   2.947  1.00  0.00     0.127 S 
ATOM     88  O   UNL     1       3.620  -0.326   1.548  1.00  0.00    -0.237 OA
ATOM     89  O   UNL     1       5.070  -0.776   3.479  1.00  0.00    -0.237 OA
ATOM     90  O   UNL     1       2.858  -1.867   3.312  1.00  0.00    -0.744 OA
ENDBRANCH  84  87
ENDBRANCH  56  80
BRANCH  68  91
ATOM     91  C   UNL     1       0.917   3.051  11.698  1.00  0.00     0.023 A 
ATOM     92  C   UNL     1      -0.239   2.522  11.083  1.00  0.00     0.012 A 
ATOM     93  C   UNL     1       0.778   4.118  12.597  1.00  0.00     0.148 A 
ATOM     94  C   UNL     1      -1.501   3.067  11.337  1.00  0.00     0.002 A 
ATOM     95  C   UNL     1      -0.482   4.627  12.883  1.00  0.00     0.091 A 
ATOM     96  F   UNL     1       1.886   4.609  13.173  1.00  0.00    -0.205 F 
ATOM     97  C   UNL     1      -1.624   4.113  12.248  1.00  0.00     0.022 A 
BRANCH  95  98
ATOM     98  S   UNL     1      -0.716   5.891  14.133  1.00  0.00     0.127 S 
ATOM     99  O   UNL     1      -0.974   7.079  13.322  1.00  0.00    -0.237 OA
ATOM    100  O   UNL     1      -1.876   5.390  14.872  1.00  0.00    -0.237 OA
ATOM    101  O   UNL     1       0.517   5.917  14.912  1.00  0.00    -0.744 OA
ENDBRANCH  95  98
ENDBRANCH  68  91
ENDBRANCH  42  43
ENDBRANCH  34  37
ENDBRANCH  32  33
ENDBRANCH  31  32
ENDBRANCH  30  31
ENDBRANCH   1  30
TORSDOF 21
