REMARK SMILES O=C(NCCCCCCNC(=O)C1(Cc2ccncc2)Cc2ccccc2C1)c1ccc(-c2c3nc(c(-c4cccc(S(=O)(=O)[O-])c4F)c4ccc([nH]4)c(-c4cccc(S(=O)(=O)[O-])c4F)c4nc(c(-c5cccc(S(=O)(=O)[O-])c5F)c5ccc2[nH]5)C=C4)C=C3)cc1
REMARK SMILES IDX 6 1 5 2 4 3 3 4 1 5 2 6 29 8 30 9 91 10 31 11 90 12 32 13
REMARK SMILES IDX 33 14 34 15 84 16 35 17 89 18 83 19 85 20 36 21 88 22 82 23
REMARK SMILES IDX 81 24 37 26 69 27 49 28 68 29 50 30 53 31 67 32 86 33 51 34
REMARK SMILES IDX 52 35 66 37 87 38 54 39 38 40 39 41 47 42 40 43 42 44 48 45
REMARK SMILES IDX 41 46 43 47 44 48 45 49 46 50 70 51 71 52 79 53 72 54 74 55
REMARK SMILES IDX 80 56 73 57 75 58 76 59 77 60 78 61 55 62 56 63 64 64 57 65
REMARK SMILES IDX 59 66 65 67 58 68 60 69 61 70 62 71 63 72 7 73 8 74 9 75
REMARK SMILES IDX 10 76 11 77 12 79 13 80 21 81 28 82 22 83 27 84 23 85 26 86
REMARK SMILES IDX 24 87 25 88 14 89 15 90 16 91 20 92 17 93 19 94 18 95
REMARK H PARENT 3 7 85 25 53 36 10 78
REMARK Flexibility Score: inf
ROOT
ATOM      1  C   UNL     1       4.041   3.812   0.633  1.00  0.00     0.002 C 
ENDROOT
BRANCH   1   2
ATOM      2  C   UNL     1       4.589   2.701  -0.265  1.00  0.00     0.021 C 
BRANCH   2   3
ATOM      3  C   UNL     1       4.351   1.286   0.238  1.00  0.00     0.116 C 
BRANCH   3   4
ATOM      4  N   UNL     1       2.941   0.961   0.335  1.00  0.00    -0.352 N 
ATOM      5  O   UNL     1       1.067  -0.207  -0.096  1.00  0.00    -0.269 OA
ATOM      6  C   UNL     1       2.289  -0.166  -0.107  1.00  0.00     0.251 C 
ATOM      7  H   UNL     1       2.376   1.637   0.775  1.00  0.00     0.163 HD
BRANCH   6   8
ATOM      8  C   UNL     1       3.080  -1.313  -0.611  1.00  0.00     0.039 A 
ATOM      9  C   UNL     1       4.216  -1.752   0.075  1.00  0.00     0.014 A 
ATOM     10  C   UNL     1       2.665  -1.967  -1.774  1.00  0.00     0.014 A 
ATOM     11  C   UNL     1       4.996  -2.772  -0.456  1.00  0.00     0.010 A 
ATOM     12  C   UNL     1       3.405  -3.048  -2.262  1.00  0.00     0.010 A 
ATOM     13  C   UNL     1       4.581  -3.453  -1.612  1.00  0.00    -0.014 A 
BRANCH  13  14
ATOM     14  C   UNL     1       5.318  -4.669  -2.038  1.00  0.00     0.031 A 
ATOM     15  C   UNL     1       6.040  -4.735  -3.353  1.00  0.00     0.074 A 
ATOM     16  C   UNL     1       5.301  -5.735  -1.213  1.00  0.00     0.049 A 
ATOM     17  N   UNL     1       6.731  -5.726  -3.855  1.00  0.00    -0.248 NA
ATOM     18  C   UNL     1       5.976  -3.549  -4.221  1.00  0.00     0.031 C 
ATOM     19  C   UNL     1       4.581  -5.798   0.063  1.00  0.00     0.029 A 
ATOM     20  N   UNL     1       5.890  -6.968  -1.319  1.00  0.00    -0.354 N 
ATOM     21  C   UNL     1       7.150  -5.304  -5.111  1.00  0.00     0.074 A 
ATOM     22  C   UNL     1       6.639  -3.962  -5.295  1.00  0.00     0.031 C 
ATOM     23  C   UNL     1       4.781  -6.998   0.626  1.00  0.00     0.029 A 
ATOM     24  C   UNL     1       5.595  -7.808  -0.271  1.00  0.00     0.049 A 
ATOM     25  H   UNL     1       6.467  -7.228  -2.074  1.00  0.00     0.167 HD
ATOM     26  C   UNL     1       7.900  -5.975  -6.018  1.00  0.00     0.034 A 
ATOM     27  C   UNL     1       5.920  -9.098  -0.062  1.00  0.00     0.034 A 
ATOM     28  C   UNL     1       8.433  -7.297  -5.806  1.00  0.00     0.049 A 
ATOM     29  C   UNL     1       6.773  -9.799  -1.078  1.00  0.00     0.074 A 
ATOM     30  C   UNL     1       9.279  -8.022  -6.627  1.00  0.00     0.029 A 
ATOM     31  N   UNL     1       8.160  -8.098  -4.708  1.00  0.00    -0.354 N 
ATOM     32  N   UNL     1       7.295  -9.325  -2.183  1.00  0.00    -0.248 NA
ATOM     33  C   UNL     1       7.106 -11.204  -0.807  1.00  0.00     0.031 C 
ATOM     34  C   UNL     1       9.495  -9.272  -6.039  1.00  0.00     0.029 A 
ATOM     35  C   UNL     1       8.803  -9.317  -4.840  1.00  0.00     0.049 A 
ATOM     36  H   UNL     1       7.592  -7.838  -3.947  1.00  0.00     0.167 HD
ATOM     37  C   UNL     1       8.032 -10.366  -2.731  1.00  0.00     0.074 A 
ATOM     38  C   UNL     1       7.920 -11.484  -1.815  1.00  0.00     0.031 C 
ATOM     39  C   UNL     1       8.719 -10.403  -3.898  1.00  0.00     0.034 A 
BRANCH  26  40
ATOM     40  C   UNL     1       8.233  -5.293  -7.319  1.00  0.00     0.023 A 
ATOM     41  C   UNL     1       9.217  -4.285  -7.343  1.00  0.00     0.012 A 
ATOM     42  C   UNL     1       7.663  -5.733  -8.530  1.00  0.00     0.148 A 
ATOM     43  C   UNL     1       9.620  -3.716  -8.552  1.00  0.00     0.002 A 
ATOM     44  C   UNL     1       8.097  -5.188  -9.734  1.00  0.00     0.091 A 
ATOM     45  F   UNL     1       6.718  -6.683  -8.483  1.00  0.00    -0.205 F 
ATOM     46  C   UNL     1       9.070  -4.176  -9.746  1.00  0.00     0.022 A 
BRANCH  44  47
ATOM     47  S   UNL     1       7.510  -5.764 -11.332  1.00  0.00     0.127 S 
ATOM     48  O   UNL     1       6.767  -4.598 -11.810  1.00  0.00    -0.237 OA
ATOM     49  O   UNL     1       8.761  -6.023 -12.043  1.00  0.00    -0.237 OA
ATOM     50  O   UNL     1       6.703  -6.947 -11.064  1.00  0.00    -0.744 OA
ENDBRANCH  44  47
ENDBRANCH  26  40
BRANCH  27  51
ATOM     51  C   UNL     1       5.452  -9.794   1.169  1.00  0.00     0.023 A 
ATOM     52  C   UNL     1       6.386 -10.176   2.150  1.00  0.00     0.012 A 
ATOM     53  C   UNL     1       4.084 -10.051   1.385  1.00  0.00     0.148 A 
ATOM     54  C   UNL     1       5.969 -10.832   3.309  1.00  0.00     0.002 A 
ATOM     55  C   UNL     1       3.670 -10.648   2.569  1.00  0.00     0.091 A 
ATOM     56  F   UNL     1       3.210  -9.699   0.431  1.00  0.00    -0.205 F 
ATOM     57  C   UNL     1       4.611 -11.057   3.525  1.00  0.00     0.022 A 
BRANCH  55  58
ATOM     58  S   UNL     1       1.931 -10.830   2.979  1.00  0.00     0.127 S 
ATOM     59  O   UNL     1       1.694 -12.236   2.665  1.00  0.00    -0.237 OA
ATOM     60  O   UNL     1       1.914 -10.506   4.406  1.00  0.00    -0.237 OA
ATOM     61  O   UNL     1       1.237  -9.860   2.142  1.00  0.00    -0.744 OA
ENDBRANCH  55  58
ENDBRANCH  27  51
BRANCH  39  62
ATOM     62  C   UNL     1       9.418 -11.690  -4.244  1.00  0.00     0.023 A 
ATOM     63  C   UNL     1       8.659 -12.807  -4.648  1.00  0.00     0.012 A 
ATOM     64  C   UNL     1      10.823 -11.777  -4.223  1.00  0.00     0.148 A 
ATOM     65  C   UNL     1       9.287 -14.003  -4.990  1.00  0.00     0.002 A 
ATOM     66  C   UNL     1      11.444 -12.957  -4.613  1.00  0.00     0.091 A 
ATOM     67  F   UNL     1      11.525 -10.709  -3.817  1.00  0.00    -0.205 F 
ATOM     68  C   UNL     1      10.678 -14.075  -4.984  1.00  0.00     0.022 A 
BRANCH  66  69
ATOM     69  S   UNL     1      13.230 -13.111  -4.723  1.00  0.00     0.127 S 
ATOM     70  O   UNL     1      13.529 -13.952  -3.565  1.00  0.00    -0.237 OA
ATOM     71  O   UNL     1      13.406 -13.771  -6.017  1.00  0.00    -0.237 OA
ATOM     72  O   UNL     1      13.754 -11.753  -4.662  1.00  0.00    -0.744 OA
ENDBRANCH  66  69
ENDBRANCH  39  62
ENDBRANCH  13  14
ENDBRANCH   6   8
ENDBRANCH   3   4
ENDBRANCH   2   3
ENDBRANCH   1   2
BRANCH   1  73
ATOM     73  C   UNL     1       4.508   3.793   2.094  1.00  0.00     0.002 C 
BRANCH  73  74
ATOM     74  C   UNL     1       6.018   3.670   2.318  1.00  0.00     0.021 C 
BRANCH  74  75
ATOM     75  C   UNL     1       6.864   4.645   1.510  1.00  0.00     0.116 C 
BRANCH  75  76
ATOM     76  N   UNL     1       6.761   6.013   1.978  1.00  0.00    -0.356 N 
ATOM     77  C   UNL     1       7.674   7.021   2.015  1.00  0.00     0.227 C 
ATOM     78  H   UNL     1       5.875   6.255   2.332  1.00  0.00     0.163 HD
ATOM     79  O   UNL     1       7.220   8.152   2.227  1.00  0.00    -0.274 OA
BRANCH  77  80
ATOM     80  C   UNL     1       9.174   6.818   1.746  1.00  0.00     0.061 C 
ATOM     81  C   UNL     1       9.935   7.973   2.505  1.00  0.00     0.053 C 
ATOM     82  C   UNL     1       9.758   5.529   2.384  1.00  0.00     0.053 C 
ATOM     83  C   UNL     1      11.223   7.327   2.912  1.00  0.00    -0.044 A 
ATOM     84  C   UNL     1      11.111   5.941   2.864  1.00  0.00    -0.044 A 
ATOM     85  C   UNL     1      12.388   7.930   3.352  1.00  0.00     0.004 A 
ATOM     86  C   UNL     1      12.150   5.118   3.265  1.00  0.00     0.004 A 
ATOM     87  C   UNL     1      13.452   7.112   3.740  1.00  0.00     0.000 A 
ATOM     88  C   UNL     1      13.332   5.714   3.702  1.00  0.00     0.000 A 
BRANCH  80  89
ATOM     89  C   UNL     1       9.488   6.986   0.228  1.00  0.00     0.053 C 
BRANCH  89  90
ATOM     90  C   UNL     1       8.866   6.017  -0.747  1.00  0.00    -0.044 A 
ATOM     91  C   UNL     1       7.638   6.303  -1.354  1.00  0.00     0.024 A 
ATOM     92  C   UNL     1       9.507   4.821  -1.085  1.00  0.00     0.024 A 
ATOM     93  C   UNL     1       7.087   5.369  -2.220  1.00  0.00     0.111 A 
ATOM     94  C   UNL     1       8.877   3.951  -1.962  1.00  0.00     0.111 A 
ATOM     95  N   UNL     1       7.673   4.192  -2.522  1.00  0.00    -0.265 NA
ENDBRANCH  89  90
ENDBRANCH  80  89
ENDBRANCH  77  80
ENDBRANCH  75  76
ENDBRANCH  74  75
ENDBRANCH  73  74
ENDBRANCH   1  73
TORSDOF 18
