REMARK SMILES O=C(NCCCCCCNC(=O)[C@H](c1c[nH]c2ccc(Cl)cc12)[NH+]1CCN(c2cccc(Cl)c2)CC1)c1ccc(-c2c3nc(c(-c4cccc(S(=O)(=O)[O-])c4F)c4ccc([nH]4)c(-c4cccc(S(=O)(=O)[O-])c4F)c4nc(c(-c5cccc(S(=O)(=O)[O-])c5F)c5ccc2[nH]5)C=C4)C=C3)cc1
REMARK SMILES IDX 6 1 5 2 4 3 3 4 1 5 2 6 37 8 38 9 99 10 39 11 98 12 40 13
REMARK SMILES IDX 41 14 42 15 92 16 43 17 97 18 91 19 93 20 44 21 96 22 90 23
REMARK SMILES IDX 89 24 45 26 77 27 57 28 76 29 58 30 61 31 75 32 94 33 59 34
REMARK SMILES IDX 60 35 74 37 95 38 62 39 46 40 47 41 55 42 48 43 50 44 56 45
REMARK SMILES IDX 49 46 51 47 52 48 53 49 54 50 78 51 79 52 87 53 80 54 82 55
REMARK SMILES IDX 88 56 81 57 83 58 84 59 85 60 86 61 63 62 64 63 72 64 65 65
REMARK SMILES IDX 67 66 73 67 66 68 68 69 69 70 70 71 71 72 7 73 8 74 9 75
REMARK SMILES IDX 10 76 11 77 12 79 13 80 24 81 25 82 36 83 26 85 35 86 27 87
REMARK SMILES IDX 28 88 29 89 34 90 30 91 32 92 31 93 33 94 14 95 15 96 23 97
REMARK SMILES IDX 16 98 17 99 22 100 18 102 20 103 19 104 21 105
REMARK H PARENT 3 7 93 25 61 36 10 78 24 84 16 101
REMARK Flexibility Score: inf
ROOT
ATOM      1  C   UNL     1      13.776   3.798   4.761  1.00  0.00     0.002 C 
ENDROOT
BRANCH   1   2
ATOM      2  C   UNL     1      14.942   4.640   4.243  1.00  0.00     0.021 C 
BRANCH   2   3
ATOM      3  C   UNL     1      15.956   5.086   5.287  1.00  0.00     0.116 C 
BRANCH   3   4
ATOM      4  N   UNL     1      16.606   3.981   5.967  1.00  0.00    -0.352 N 
ATOM      5  O   UNL     1      18.329   2.780   6.776  1.00  0.00    -0.269 OA
ATOM      6  C   UNL     1      17.934   3.836   6.299  1.00  0.00     0.251 C 
ATOM      7  H   UNL     1      16.018   3.235   6.226  1.00  0.00     0.163 HD
BRANCH   6   8
ATOM      8  C   UNL     1      18.881   4.949   6.048  1.00  0.00     0.039 A 
ATOM      9  C   UNL     1      18.548   6.266   6.379  1.00  0.00     0.014 A 
ATOM     10  C   UNL     1      20.130   4.663   5.489  1.00  0.00     0.014 A 
ATOM     11  C   UNL     1      19.413   7.305   6.051  1.00  0.00     0.010 A 
ATOM     12  C   UNL     1      21.030   5.702   5.229  1.00  0.00     0.010 A 
ATOM     13  C   UNL     1      20.673   7.032   5.496  1.00  0.00    -0.014 A 
BRANCH  13  14
ATOM     14  C   UNL     1      21.651   8.137   5.333  1.00  0.00     0.031 A 
ATOM     15  C   UNL     1      22.137   8.569   3.979  1.00  0.00     0.074 A 
ATOM     16  C   UNL     1      22.125   8.729   6.447  1.00  0.00     0.049 A 
ATOM     17  N   UNL     1      22.991   9.514   3.681  1.00  0.00    -0.248 NA
ATOM     18  C   UNL     1      21.610   7.848   2.809  1.00  0.00     0.031 C 
ATOM     19  C   UNL     1      21.768   8.347   7.817  1.00  0.00     0.029 A 
ATOM     20  N   UNL     1      23.015   9.759   6.613  1.00  0.00    -0.354 N 
ATOM     21  C   UNL     1      23.139   9.478   2.300  1.00  0.00     0.074 A 
ATOM     22  C   UNL     1      22.281   8.418   1.814  1.00  0.00     0.031 C 
ATOM     23  C   UNL     1      22.426   9.133   8.681  1.00  0.00     0.029 A 
ATOM     24  C   UNL     1      23.286  10.041   7.932  1.00  0.00     0.049 A 
ATOM     25  H   UNL     1      23.421  10.248   5.862  1.00  0.00     0.167 HD
ATOM     26  C   UNL     1      23.911  10.267   1.515  1.00  0.00     0.034 A 
ATOM     27  C   UNL     1      24.151  10.914   8.482  1.00  0.00     0.034 A 
ATOM     28  C   UNL     1      24.724  11.350   2.006  1.00  0.00     0.049 A 
ATOM     29  C   UNL     1      24.967  11.791   7.579  1.00  0.00     0.074 A 
ATOM     30  C   UNL     1      25.453  12.274   1.277  1.00  0.00     0.029 A 
ATOM     31  N   UNL     1      24.931  11.646   3.344  1.00  0.00    -0.354 N 
ATOM     32  N   UNL     1      24.959  11.859   6.270  1.00  0.00    -0.248 NA
ATOM     33  C   UNL     1      25.894  12.729   8.226  1.00  0.00     0.031 C 
ATOM     34  C   UNL     1      26.123  13.111   2.175  1.00  0.00     0.029 A 
ATOM     35  C   UNL     1      25.797  12.720   3.463  1.00  0.00     0.049 A 
ATOM     36  H   UNL     1      24.523  11.163   4.098  1.00  0.00     0.167 HD
ATOM     37  C   UNL     1      25.867  12.854   5.936  1.00  0.00     0.074 A 
ATOM     38  C   UNL     1      26.378  13.389   7.182  1.00  0.00     0.031 C 
ATOM     39  C   UNL     1      26.265  13.269   4.709  1.00  0.00     0.034 A 
BRANCH  26  40
ATOM     40  C   UNL     1      23.894  10.035   0.026  1.00  0.00     0.023 A 
ATOM     41  C   UNL     1      22.798  10.487  -0.734  1.00  0.00     0.012 A 
ATOM     42  C   UNL     1      25.016   9.489  -0.630  1.00  0.00     0.148 A 
ATOM     43  C   UNL     1      22.813  10.391  -2.126  1.00  0.00     0.002 A 
ATOM     44  C   UNL     1      25.038   9.428  -2.019  1.00  0.00     0.091 A 
ATOM     45  F   UNL     1      26.041   9.053   0.114  1.00  0.00    -0.205 F 
ATOM     46  C   UNL     1      23.936   9.874  -2.768  1.00  0.00     0.022 A 
BRANCH  44  47
ATOM     47  S   UNL     1      26.463   8.848  -2.947  1.00  0.00     0.127 S 
ATOM     48  O   UNL     1      25.948   7.610  -3.533  1.00  0.00    -0.237 OA
ATOM     49  O   UNL     1      26.670   9.934  -3.904  1.00  0.00    -0.237 OA
ATOM     50  O   UNL     1      27.535   8.677  -1.976  1.00  0.00    -0.744 OA
ENDBRANCH  44  47
ENDBRANCH  26  40
BRANCH  27  51
ATOM     51  C   UNL     1      24.265  11.010   9.964  1.00  0.00     0.023 A 
ATOM     52  C   UNL     1      23.814  12.169  10.623  1.00  0.00     0.012 A 
ATOM     53  C   UNL     1      24.786   9.946  10.726  1.00  0.00     0.148 A 
ATOM     54  C   UNL     1      23.907  12.278  12.011  1.00  0.00     0.002 A 
ATOM     55  C   UNL     1      24.817  10.036  12.112  1.00  0.00     0.091 A 
ATOM     56  F   UNL     1      25.232   8.858  10.082  1.00  0.00    -0.205 F 
ATOM     57  C   UNL     1      24.395  11.207  12.757  1.00  0.00     0.022 A 
BRANCH  55  58
ATOM     58  S   UNL     1      25.291   8.638  13.136  1.00  0.00     0.127 S 
ATOM     59  O   UNL     1      26.685   8.947  13.441  1.00  0.00    -0.237 OA
ATOM     60  O   UNL     1      24.372   8.755  14.268  1.00  0.00    -0.237 OA
ATOM     61  O   UNL     1      25.059   7.464  12.304  1.00  0.00    -0.744 OA
ENDBRANCH  55  58
ENDBRANCH  27  51
BRANCH  39  62
ATOM     62  C   UNL     1      27.304  14.356   4.653  1.00  0.00     0.023 A 
ATOM     63  C   UNL     1      28.640  14.052   4.981  1.00  0.00     0.012 A 
ATOM     64  C   UNL     1      26.974  15.656   4.224  1.00  0.00     0.148 A 
ATOM     65  C   UNL     1      29.627  15.033   4.914  1.00  0.00     0.002 A 
ATOM     66  C   UNL     1      27.971  16.617   4.116  1.00  0.00     0.091 A 
ATOM     67  F   UNL     1      25.693  15.929   3.936  1.00  0.00    -0.205 F 
ATOM     68  C   UNL     1      29.295  16.311   4.472  1.00  0.00     0.022 A 
BRANCH  66  69
ATOM     69  S   UNL     1      27.654  18.264   3.473  1.00  0.00     0.127 S 
ATOM     70  O   UNL     1      27.724  19.077   4.686  1.00  0.00    -0.237 OA
ATOM     71  O   UNL     1      28.768  18.456   2.544  1.00  0.00    -0.237 OA
ATOM     72  O   UNL     1      26.344  18.200   2.838  1.00  0.00    -0.744 OA
ENDBRANCH  66  69
ENDBRANCH  39  62
ENDBRANCH  13  14
ENDBRANCH   6   8
ENDBRANCH   3   4
ENDBRANCH   2   3
ENDBRANCH   1   2
BRANCH   1  73
ATOM     73  C   UNL     1      13.010   4.360   5.961  1.00  0.00     0.002 C 
BRANCH  73  74
ATOM     74  C   UNL     1      12.436   5.774   5.820  1.00  0.00     0.021 C 
BRANCH  74  75
ATOM     75  C   UNL     1      11.617   6.060   4.564  1.00  0.00     0.116 C 
BRANCH  75  76
ATOM     76  N   UNL     1      10.552   5.105   4.330  1.00  0.00    -0.351 N 
ATOM     77  C   UNL     1       9.448   5.207   3.522  1.00  0.00     0.283 C 
ATOM     78  H   UNL     1      10.633   4.258   4.824  1.00  0.00     0.163 HD
ATOM     79  O   UNL     1       8.821   4.160   3.326  1.00  0.00    -0.268 OA
BRANCH  77  80
ATOM     80  C   UNL     1       9.050   6.582   2.905  1.00  0.00     0.307 C 
BRANCH  80  81
ATOM     81  N   UNL     1       9.308   6.732   1.451  1.00  0.00    -0.318 N 
ATOM     82  C   UNL     1       9.941   8.021   1.120  1.00  0.00     0.284 C 
ATOM     83  C   UNL     1      10.002   5.654   0.737  1.00  0.00     0.284 C 
ATOM     84  H   UNL     1       8.352   6.681   1.099  1.00  0.00     0.349 HD
ATOM     85  C   UNL     1      11.455   8.070   1.407  1.00  0.00     0.178 C 
ATOM     86  C   UNL     1      11.541   5.607   0.858  1.00  0.00     0.178 C 
ATOM     87  N   UNL     1      12.158   6.945   0.776  1.00  0.00    -0.360 N 
BRANCH  87  88
ATOM     88  C   UNL     1      13.540   7.009   0.619  1.00  0.00     0.038 A 
ATOM     89  C   UNL     1      14.155   6.389  -0.480  1.00  0.00     0.026 A 
ATOM     90  C   UNL     1      14.370   7.702   1.512  1.00  0.00     0.046 A 
ATOM     91  C   UNL     1      15.536   6.466  -0.691  1.00  0.00     0.004 A 
ATOM     92  C   UNL     1      15.753   7.761   1.317  1.00  0.00     0.043 A 
ATOM     93  C   UNL     1      16.340   7.154   0.212  1.00  0.00     0.020 A 
ATOM     94  Cl  UNL     1      16.739   8.581   2.466  1.00  0.00    -0.084 Cl
ENDBRANCH  87  88
ENDBRANCH  80  81
BRANCH  80  95
ATOM     95  C   UNL     1       7.559   6.830   3.088  1.00  0.00     0.044 A 
ATOM     96  C   UNL     1       6.528   6.097   2.519  1.00  0.00     0.094 A 
ATOM     97  C   UNL     1       6.933   7.878   3.846  1.00  0.00     0.011 A 
ATOM     98  N   UNL     1       5.337   6.642   2.898  1.00  0.00    -0.361 N 
ATOM     99  C   UNL     1       5.550   7.735   3.702  1.00  0.00     0.046 A 
ATOM    100  C   UNL     1       7.412   8.946   4.636  1.00  0.00     0.031 A 
ATOM    101  H   UNL     1       4.452   6.301   2.632  1.00  0.00     0.166 HD
ATOM    102  C   UNL     1       4.623   8.598   4.300  1.00  0.00     0.028 A 
ATOM    103  C   UNL     1       6.495   9.816   5.237  1.00  0.00     0.041 A 
ATOM    104  C   UNL     1       5.123   9.648   5.074  1.00  0.00     0.022 A 
ATOM    105  Cl  UNL     1       7.077  11.123   6.198  1.00  0.00    -0.084 Cl
ENDBRANCH  80  95
ENDBRANCH  77  80
ENDBRANCH  75  76
ENDBRANCH  74  75
ENDBRANCH  73  74
ENDBRANCH   1  73
TORSDOF 19
