REMARK SMILES NC(=O)c1ccc(Nc2ccc(C(=O)NCCCCCCNC(=O)c3ccc(-c4c5nc(c(-c6cccc(S(=O)(=O)[O-])c6F)c6ccc([nH]6)c(-c6cccc(S(=O)(=O)[O-])c6F)c6nc(c(-c7cccc(S(=O)(=O)[O-])c7F)c7ccc4[nH]7)C=C6)C=C5)cc3)c(Cl)c2)nn1
REMARK SMILES IDX 18 1 17 2 16 3 15 4 13 5 14 6 12 8 9 9 10 10 90 11 11 12
REMARK SMILES IDX 88 13 89 14 8 15 7 17 4 18 5 19 92 20 6 21 91 22 2 23 1 24
REMARK SMILES IDX 3 27 19 28 20 29 21 30 22 31 23 32 24 34 25 35 26 36 87 37
REMARK SMILES IDX 27 38 86 39 28 40 29 41 30 42 80 43 31 44 85 45 79 46 81 47
REMARK SMILES IDX 32 48 84 49 78 50 77 51 33 53 65 54 45 55 64 56 46 57 49 58
REMARK SMILES IDX 63 59 82 60 47 61 48 62 62 64 83 65 50 66 34 67 35 68 43 69
REMARK SMILES IDX 36 70 38 71 44 72 37 73 39 74 40 75 41 76 42 77 66 78 67 79
REMARK SMILES IDX 75 80 68 81 70 82 76 83 69 84 71 85 72 86 73 87 74 88 51 89
REMARK SMILES IDX 52 90 60 91 53 92 55 93 61 94 54 95 56 96 57 97 58 98 59 99
REMARK H PARENT 15 7 8 16 1 25 1 26 22 33 81 52 49 63
REMARK Flexibility Score: inf
ROOT
ATOM      1  C   UNL     1      -1.022   7.753 -11.894  1.00  0.00     0.002 C 
ENDROOT
BRANCH   1   2
ATOM      2  C   UNL     1      -0.433   6.616 -11.054  1.00  0.00     0.021 C 
BRANCH   2   3
ATOM      3  C   UNL     1       0.957   6.919 -10.477  1.00  0.00     0.116 C 
BRANCH   3   4
ATOM      4  N   UNL     1       0.804   7.558  -9.186  1.00  0.00    -0.352 N 
ATOM      5  C   UNL     1       0.901   7.125  -7.893  1.00  0.00     0.252 C 
ATOM      6  O   UNL     1       0.567   7.946  -7.031  1.00  0.00    -0.269 OA
ATOM      7  H   UNL     1       0.580   8.514  -9.255  1.00  0.00     0.163 HD
BRANCH   5   8
ATOM      8  C   UNL     1       1.484   5.828  -7.437  1.00  0.00     0.058 A 
ATOM      9  C   UNL     1       2.669   3.558  -6.182  1.00  0.00     0.041 A 
ATOM     10  C   UNL     1       2.730   4.809  -5.576  1.00  0.00     0.027 A 
ATOM     11  C   UNL     1       1.988   3.444  -7.395  1.00  0.00     0.047 A 
ATOM     12  C   UNL     1       2.184   5.928  -6.213  1.00  0.00     0.017 A 
ATOM     13  C   UNL     1       1.339   4.548  -7.981  1.00  0.00     0.055 A 
ATOM     14  Cl  UNL     1       0.213   4.108  -9.209  1.00  0.00    -0.083 Cl
BRANCH   9  15
ATOM     15  N   UNL     1       3.075   2.393  -5.504  1.00  0.00    -0.339 N 
ATOM     16  H   UNL     1       3.873   1.916  -5.831  1.00  0.00     0.168 HD
BRANCH  15  17
ATOM     17  C   UNL     1       2.398   1.872  -4.379  1.00  0.00     0.153 A 
ATOM     18  C   UNL     1       1.068   0.831  -2.218  1.00  0.00     0.150 A 
ATOM     19  C   UNL     1       2.187   0.165  -2.692  1.00  0.00     0.040 A 
ATOM     20  N   UNL     1       0.633   1.971  -2.784  1.00  0.00    -0.143 NA
ATOM     21  C   UNL     1       2.864   0.702  -3.788  1.00  0.00     0.051 A 
ATOM     22  N   UNL     1       1.317   2.495  -3.861  1.00  0.00    -0.132 NA
BRANCH  18  23
ATOM     23  C   UNL     1       0.291   0.340  -1.046  1.00  0.00     0.269 C 
ATOM     24  N   UNL     1       1.000  -0.245  -0.026  1.00  0.00    -0.364 N 
ATOM     25  H   UNL     1       0.530  -0.584   0.769  1.00  0.00     0.160 HD
ATOM     26  H   UNL     1       1.980  -0.325  -0.090  1.00  0.00     0.160 HD
ATOM     27  O   UNL     1      -0.925   0.458  -0.957  1.00  0.00    -0.268 OA
ENDBRANCH  18  23
ENDBRANCH  15  17
ENDBRANCH   9  15
ENDBRANCH   5   8
ENDBRANCH   3   4
ENDBRANCH   2   3
ENDBRANCH   1   2
BRANCH   1  28
ATOM     28  C   UNL     1      -0.290   8.010 -13.215  1.00  0.00     0.002 C 
BRANCH  28  29
ATOM     29  C   UNL     1      -0.130   6.783 -14.119  1.00  0.00     0.021 C 
BRANCH  29  30
ATOM     30  C   UNL     1      -1.442   6.118 -14.527  1.00  0.00     0.116 C 
BRANCH  30  31
ATOM     31  N   UNL     1      -2.272   7.018 -15.314  1.00  0.00    -0.352 N 
ATOM     32  C   UNL     1      -2.706   6.887 -16.609  1.00  0.00     0.251 C 
ATOM     33  H   UNL     1      -2.564   7.836 -14.852  1.00  0.00     0.163 HD
ATOM     34  O   UNL     1      -3.174   7.855 -17.202  1.00  0.00    -0.269 OA
BRANCH  32  35
ATOM     35  C   UNL     1      -2.608   5.578 -17.289  1.00  0.00     0.039 A 
ATOM     36  C   UNL     1      -2.134   5.526 -18.603  1.00  0.00     0.014 A 
ATOM     37  C   UNL     1      -3.005   4.408 -16.635  1.00  0.00     0.014 A 
ATOM     38  C   UNL     1      -2.008   4.291 -19.244  1.00  0.00     0.010 A 
ATOM     39  C   UNL     1      -2.820   3.175 -17.252  1.00  0.00     0.010 A 
ATOM     40  C   UNL     1      -2.324   3.103 -18.563  1.00  0.00    -0.014 A 
BRANCH  40  41
ATOM     41  C   UNL     1      -2.129   1.773 -19.192  1.00  0.00     0.031 A 
ATOM     42  C   UNL     1      -3.309   0.880 -19.456  1.00  0.00     0.074 A 
ATOM     43  C   UNL     1      -0.878   1.330 -19.427  1.00  0.00     0.049 A 
ATOM     44  N   UNL     1      -3.330  -0.345 -19.914  1.00  0.00    -0.248 NA
ATOM     45  C   UNL     1      -4.641   1.424 -19.140  1.00  0.00     0.031 C 
ATOM     46  C   UNL     1       0.350   2.075 -19.141  1.00  0.00     0.029 A 
ATOM     47  N   UNL     1      -0.431   0.132 -19.925  1.00  0.00    -0.354 N 
ATOM     48  C   UNL     1      -4.664  -0.732 -19.906  1.00  0.00     0.074 A 
ATOM     49  C   UNL     1      -5.422   0.379 -19.372  1.00  0.00     0.031 C 
ATOM     50  C   UNL     1       1.409   1.316 -19.461  1.00  0.00     0.029 A 
ATOM     51  C   UNL     1       0.940   0.022 -19.945  1.00  0.00     0.049 A 
ATOM     52  H   UNL     1      -1.034  -0.581 -20.238  1.00  0.00     0.167 HD
ATOM     53  C   UNL     1      -5.212  -1.896 -20.330  1.00  0.00     0.034 A 
ATOM     54  C   UNL     1       1.730  -1.010 -20.299  1.00  0.00     0.034 A 
ATOM     55  C   UNL     1      -4.459  -2.979 -20.901  1.00  0.00     0.049 A 
ATOM     56  C   UNL     1       1.095  -2.280 -20.796  1.00  0.00     0.074 A 
ATOM     57  C   UNL     1      -4.929  -4.157 -21.454  1.00  0.00     0.029 A 
ATOM     58  N   UNL     1      -3.076  -3.023 -20.985  1.00  0.00    -0.354 N 
ATOM     59  N   UNL     1      -0.177  -2.564 -20.941  1.00  0.00    -0.248 NA
ATOM     60  C   UNL     1       2.002  -3.361 -21.209  1.00  0.00     0.031 C 
ATOM     61  C   UNL     1      -3.829  -4.924 -21.851  1.00  0.00     0.029 A 
ATOM     62  C   UNL     1      -2.673  -4.215 -21.564  1.00  0.00     0.049 A 
ATOM     63  H   UNL     1      -2.469  -2.312 -20.678  1.00  0.00     0.167 HD
ATOM     64  C   UNL     1      -0.224  -3.843 -21.483  1.00  0.00     0.074 A 
ATOM     65  C   UNL     1       1.149  -4.267 -21.667  1.00  0.00     0.031 C 
ATOM     66  C   UNL     1      -1.304  -4.606 -21.782  1.00  0.00     0.034 A 
BRANCH  53  67
ATOM     67  C   UNL     1      -6.710  -2.037 -20.245  1.00  0.00     0.023 A 
ATOM     68  C   UNL     1      -7.527  -1.305 -21.131  1.00  0.00     0.012 A 
ATOM     69  C   UNL     1      -7.306  -2.933 -19.336  1.00  0.00     0.148 A 
ATOM     70  C   UNL     1      -8.914  -1.436 -21.092  1.00  0.00     0.002 A 
ATOM     71  C   UNL     1      -8.688  -3.090 -19.332  1.00  0.00     0.091 A 
ATOM     72  F   UNL     1      -6.516  -3.605 -18.487  1.00  0.00    -0.205 F 
ATOM     73  C   UNL     1      -9.493  -2.335 -20.201  1.00  0.00     0.022 A 
BRANCH  71  74
ATOM     74  S   UNL     1      -9.525  -4.279 -18.277  1.00  0.00     0.127 S 
ATOM     75  O   UNL     1     -10.176  -3.402 -17.305  1.00  0.00    -0.237 OA
ATOM     76  O   UNL     1     -10.439  -4.934 -19.214  1.00  0.00    -0.237 OA
ATOM     77  O   UNL     1      -8.483  -5.144 -17.742  1.00  0.00    -0.744 OA
ENDBRANCH  71  74
ENDBRANCH  53  67
BRANCH  54  78
ATOM     78  C   UNL     1       3.212  -0.862 -20.250  1.00  0.00     0.023 A 
ATOM     79  C   UNL     1       3.937  -0.790 -21.456  1.00  0.00     0.012 A 
ATOM     80  C   UNL     1       3.902  -0.755 -19.027  1.00  0.00     0.148 A 
ATOM     81  C   UNL     1       5.325  -0.644 -21.444  1.00  0.00     0.002 A 
ATOM     82  C   UNL     1       5.278  -0.555 -19.023  1.00  0.00     0.091 A 
ATOM     83  F   UNL     1       3.196  -0.839 -17.890  1.00  0.00    -0.205 F 
ATOM     84  C   UNL     1       5.993  -0.516 -20.229  1.00  0.00     0.022 A 
BRANCH  82  85
ATOM     85  S   UNL     1       6.200  -0.249 -17.512  1.00  0.00     0.127 S 
ATOM     86  O   UNL     1       6.938  -1.499 -17.351  1.00  0.00    -0.237 OA
ATOM     87  O   UNL     1       7.018   0.906 -17.884  1.00  0.00    -0.237 OA
ATOM     88  O   UNL     1       5.199   0.033 -16.491  1.00  0.00    -0.744 OA
ENDBRANCH  82  85
ENDBRANCH  54  78
BRANCH  66  89
ATOM     89  C   UNL     1      -1.052  -5.977 -22.352  1.00  0.00     0.023 A 
ATOM     90  C   UNL     1      -0.569  -7.000 -21.512  1.00  0.00     0.012 A 
ATOM     91  C   UNL     1      -1.361  -6.271 -23.695  1.00  0.00     0.148 A 
ATOM     92  C   UNL     1      -0.370  -8.288 -22.007  1.00  0.00     0.002 A 
ATOM     93  C   UNL     1      -1.204  -7.568 -24.168  1.00  0.00     0.091 A 
ATOM     94  F   UNL     1      -1.802  -5.279 -24.482  1.00  0.00    -0.205 F 
ATOM     95  C   UNL     1      -0.698  -8.575 -23.330  1.00  0.00     0.022 A 
BRANCH  93  96
ATOM     96  S   UNL     1      -1.687  -8.053 -25.830  1.00  0.00     0.127 S 
ATOM     97  O   UNL     1      -0.389  -8.241 -26.474  1.00  0.00    -0.237 OA
ATOM     98  O   UNL     1      -2.433  -9.288 -25.588  1.00  0.00    -0.237 OA
ATOM     99  O   UNL     1      -2.490  -6.955 -26.350  1.00  0.00    -0.744 OA
ENDBRANCH  93  96
ENDBRANCH  66  89
ENDBRANCH  40  41
ENDBRANCH  32  35
ENDBRANCH  30  31
ENDBRANCH  29  30
ENDBRANCH  28  29
ENDBRANCH   1  28
TORSDOF 19
