REMARK SMILES NS(=O)(=O)c1ccc(-c2cc(Cl)cc3c2O[C@H](C(F)(F)F)C(C(=O)NCCCCCCNC(=O)c2ccc(-c4c5nc(c(-c6cccc(S(=O)(=O)[O-])c6F)c6ccc([nH]6)c(-c6cccc(S(=O)(=O)[O-])c6F)c6nc(c(-c7cccc(S(=O)(=O)[O-])c7F)c7ccc4[nH]7)C=C6)C=C5)cc2)=C3)cc1
REMARK SMILES IDX 28 1 27 2 26 3 25 4 23 5 24 6 22 8 9 9 10 10 15 11 11 12
REMARK SMILES IDX 14 13 16 14 12 15 13 16 98 17 17 18 8 19 5 20 6 21 100 22
REMARK SMILES IDX 7 23 99 24 2 25 3 26 4 27 1 28 18 31 19 32 20 33 21 34 29 35
REMARK SMILES IDX 30 36 31 37 32 38 33 39 34 41 35 42 36 43 97 44 37 45 96 46
REMARK SMILES IDX 38 47 39 48 40 49 90 50 41 51 95 52 89 53 91 54 42 55 94 56
REMARK SMILES IDX 88 57 87 58 43 60 75 61 55 62 74 63 56 64 59 65 73 66 92 67
REMARK SMILES IDX 57 68 58 69 72 71 93 72 60 73 44 74 45 75 53 76 46 77 48 78
REMARK SMILES IDX 54 79 47 80 49 81 50 82 51 83 52 84 76 85 77 86 85 87 78 88
REMARK SMILES IDX 80 89 86 90 79 91 81 92 82 93 83 94 84 95 61 96 62 97 70 98
REMARK SMILES IDX 63 99 65 100 71 101 64 102 66 103 67 104 68 105 69 106
REMARK H PARENT 25 7 1 29 1 30 32 40 91 59 59 70
REMARK Flexibility Score: inf
ROOT
ATOM      1  C   UNL     1       6.963   2.912 -14.333  1.00  0.00     0.002 C 
ENDROOT
BRANCH   1   2
ATOM      2  C   UNL     1       7.419   3.292 -12.914  1.00  0.00     0.021 C 
BRANCH   2   3
ATOM      3  C   UNL     1       6.334   3.941 -12.043  1.00  0.00     0.116 C 
BRANCH   3   4
ATOM      4  N   UNL     1       5.204   3.042 -11.921  1.00  0.00    -0.352 N 
ATOM      5  C   UNL     1       4.755   2.506 -10.760  1.00  0.00     0.251 C 
ATOM      6  O   UNL     1       4.557   1.300 -10.675  1.00  0.00    -0.270 OA
ATOM      7  H   UNL     1       4.725   2.800 -12.747  1.00  0.00     0.163 HD
BRANCH   5   8
ATOM      8  C   UNL     1       4.346   3.479  -9.705  1.00  0.00     0.067 C 
ATOM      9  C   UNL     1       2.790   0.896  -6.989  1.00  0.00     0.026 A 
ATOM     10  C   UNL     1       2.037  -0.044  -7.744  1.00  0.00     0.033 A 
ATOM     11  C   UNL     1       3.194   2.056  -7.673  1.00  0.00     0.135 A 
ATOM     12  C   UNL     1       1.533   0.242  -9.009  1.00  0.00     0.042 A 
ATOM     13  C   UNL     1       2.564   2.381  -8.900  1.00  0.00     0.019 A 
ATOM     14  O   UNL     1       4.237   2.876  -7.253  1.00  0.00    -0.475 OA
ATOM     15  Cl  UNL     1       0.644  -0.953  -9.865  1.00  0.00    -0.084 Cl
ATOM     16  C   UNL     1       1.718   1.494  -9.558  1.00  0.00     0.032 A 
ATOM     17  C   UNL     1       3.009   3.605  -9.599  1.00  0.00     0.025 C 
ATOM     18  C   UNL     1       5.093   3.373  -8.385  1.00  0.00     0.314 C 
BRANCH   9  19
ATOM     19  C   UNL     1       2.791   0.639  -5.520  1.00  0.00    -0.015 A 
ATOM     20  C   UNL     1       1.664  -0.237  -3.074  1.00  0.00     0.082 A 
ATOM     21  C   UNL     1       2.454  -1.107  -3.824  1.00  0.00     0.022 A 
ATOM     22  C   UNL     1       1.520   1.094  -3.470  1.00  0.00     0.022 A 
ATOM     23  C   UNL     1       3.033  -0.661  -5.022  1.00  0.00     0.010 A 
ATOM     24  C   UNL     1       2.095   1.530  -4.677  1.00  0.00     0.010 A 
BRANCH  20  25
ATOM     25  S   UNL     1       0.742  -0.856  -1.693  1.00  0.00     0.238 S 
ATOM     26  O   UNL     1       1.190  -2.195  -1.375  1.00  0.00    -0.207 OA
ATOM     27  O   UNL     1      -0.652  -0.537  -1.878  1.00  0.00    -0.207 OA
BRANCH  25  28
ATOM     28  N   UNL     1       1.274   0.096  -0.418  1.00  0.00    -0.225 NA
ATOM     29  H   UNL     1       0.796  -0.185   0.438  1.00  0.00     0.137 HD
ATOM     30  H   UNL     1       1.069   1.075  -0.617  1.00  0.00     0.137 HD
ENDBRANCH  25  28
ENDBRANCH  20  25
ENDBRANCH   9  19
BRANCH  18  31
ATOM     31  C   UNL     1       5.717   4.758  -8.091  1.00  0.00     0.429 C 
ATOM     32  F   UNL     1       5.139   5.373  -7.036  1.00  0.00    -0.167 F 
ATOM     33  F   UNL     1       7.042   4.653  -7.835  1.00  0.00    -0.167 F 
ATOM     34  F   UNL     1       5.602   5.611  -9.145  1.00  0.00    -0.167 F 
ENDBRANCH  18  31
ENDBRANCH   5   8
ENDBRANCH   3   4
ENDBRANCH   2   3
ENDBRANCH   1   2
BRANCH   1  35
ATOM     35  C   UNL     1       6.350   4.060 -15.138  1.00  0.00     0.002 C 
BRANCH  35  36
ATOM     36  C   UNL     1       7.279   5.258 -15.334  1.00  0.00     0.021 C 
BRANCH  36  37
ATOM     37  C   UNL     1       8.622   4.916 -15.967  1.00  0.00     0.116 C 
BRANCH  37  38
ATOM     38  N   UNL     1       8.475   4.340 -17.295  1.00  0.00    -0.352 N 
ATOM     39  C   UNL     1       9.120   4.685 -18.457  1.00  0.00     0.251 C 
ATOM     40  H   UNL     1       7.827   3.603 -17.371  1.00  0.00     0.163 HD
ATOM     41  O   UNL     1       8.753   4.219 -19.531  1.00  0.00    -0.269 OA
BRANCH  39  42
ATOM     42  C   UNL     1      10.245   5.642 -18.402  1.00  0.00     0.039 A 
ATOM     43  C   UNL     1      10.284   6.695 -19.317  1.00  0.00     0.014 A 
ATOM     44  C   UNL     1      11.243   5.511 -17.431  1.00  0.00     0.014 A 
ATOM     45  C   UNL     1      11.298   7.650 -19.224  1.00  0.00     0.010 A 
ATOM     46  C   UNL     1      12.202   6.508 -17.289  1.00  0.00     0.010 A 
ATOM     47  C   UNL     1      12.246   7.583 -18.189  1.00  0.00    -0.014 A 
BRANCH  47  48
ATOM     48  C   UNL     1      13.288   8.629 -18.032  1.00  0.00     0.031 A 
ATOM     49  C   UNL     1      14.746   8.269 -18.142  1.00  0.00     0.074 A 
ATOM     50  C   UNL     1      12.926   9.889 -17.718  1.00  0.00     0.049 A 
ATOM     51  N   UNL     1      15.796   9.032 -17.992  1.00  0.00    -0.248 NA
ATOM     52  C   UNL     1      15.066   6.861 -18.433  1.00  0.00     0.031 C 
ATOM     53  C   UNL     1      11.550  10.347 -17.512  1.00  0.00     0.029 A 
ATOM     54  N   UNL     1      13.685  11.010 -17.494  1.00  0.00    -0.354 N 
ATOM     55  C   UNL     1      16.898   8.197 -18.137  1.00  0.00     0.074 A 
ATOM     56  C   UNL     1      16.389   6.860 -18.347  1.00  0.00     0.031 C 
ATOM     57  C   UNL     1      11.563  11.653 -17.202  1.00  0.00     0.029 A 
ATOM     58  C   UNL     1      12.945  12.117 -17.150  1.00  0.00     0.049 A 
ATOM     59  H   UNL     1      14.667  11.021 -17.573  1.00  0.00     0.167 HD
ATOM     60  C   UNL     1      18.213   8.517 -18.125  1.00  0.00     0.034 A 
ATOM     61  C   UNL     1      13.337  13.363 -16.818  1.00  0.00     0.034 A 
ATOM     62  C   UNL     1      18.715   9.852 -17.945  1.00  0.00     0.049 A 
ATOM     63  C   UNL     1      14.804  13.696 -16.828  1.00  0.00     0.074 A 
ATOM     64  C   UNL     1      20.026  10.292 -17.996  1.00  0.00     0.029 A 
ATOM     65  N   UNL     1      17.932  10.961 -17.665  1.00  0.00    -0.354 N 
ATOM     66  N   UNL     1      15.824  12.923 -17.116  1.00  0.00    -0.248 NA
ATOM     67  C   UNL     1      15.174  15.081 -16.503  1.00  0.00     0.031 C 
ATOM     68  C   UNL     1      20.038  11.661 -17.709  1.00  0.00     0.029 A 
ATOM     69  C   UNL     1      18.732  12.082 -17.525  1.00  0.00     0.049 A 
ATOM     70  H   UNL     1      16.951  10.953 -17.579  1.00  0.00     0.167 HD
ATOM     71  C   UNL     1      16.950  13.736 -17.046  1.00  0.00     0.074 A 
ATOM     72  C   UNL     1      16.484  15.065 -16.708  1.00  0.00     0.031 C 
ATOM     73  C   UNL     1      18.252  13.409 -17.235  1.00  0.00     0.034 A 
BRANCH  60  74
ATOM     74  C   UNL     1      19.207   7.405 -18.351  1.00  0.00     0.023 A 
ATOM     75  C   UNL     1      19.306   6.803 -19.623  1.00  0.00     0.012 A 
ATOM     76  C   UNL     1      20.080   6.996 -17.325  1.00  0.00     0.148 A 
ATOM     77  C   UNL     1      20.229   5.785 -19.858  1.00  0.00     0.002 A 
ATOM     78  C   UNL     1      21.032   6.016 -17.581  1.00  0.00     0.091 A 
ATOM     79  F   UNL     1      19.959   7.566 -16.117  1.00  0.00    -0.205 F 
ATOM     80  C   UNL     1      21.098   5.400 -18.841  1.00  0.00     0.022 A 
BRANCH  78  81
ATOM     81  S   UNL     1      22.252   5.508 -16.365  1.00  0.00     0.127 S 
ATOM     82  O   UNL     1      21.820   4.142 -16.068  1.00  0.00    -0.237 OA
ATOM     83  O   UNL     1      23.498   5.601 -17.125  1.00  0.00    -0.237 OA
ATOM     84  O   UNL     1      22.139   6.450 -15.261  1.00  0.00    -0.744 OA
ENDBRANCH  78  81
ENDBRANCH  60  74
BRANCH  61  85
ATOM     85  C   UNL     1      12.321  14.405 -16.494  1.00  0.00     0.023 A 
ATOM     86  C   UNL     1      12.130  15.488 -17.374  1.00  0.00     0.012 A 
ATOM     87  C   UNL     1      11.536  14.322 -15.327  1.00  0.00     0.148 A 
ATOM     88  C   UNL     1      11.204  16.490 -17.080  1.00  0.00     0.002 A 
ATOM     89  C   UNL     1      10.575  15.293 -15.069  1.00  0.00     0.091 A 
ATOM     90  F   UNL     1      11.738  13.289 -14.499  1.00  0.00    -0.205 F 
ATOM     91  C   UNL     1      10.421  16.388 -15.934  1.00  0.00     0.022 A 
BRANCH  89  92
ATOM     92  S   UNL     1       9.435  15.176 -13.687  1.00  0.00     0.127 S 
ATOM     93  O   UNL     1       9.875  16.283 -12.842  1.00  0.00    -0.237 OA
ATOM     94  O   UNL     1       8.144  15.378 -14.345  1.00  0.00    -0.237 OA
ATOM     95  O   UNL     1       9.623  13.843 -13.131  1.00  0.00    -0.744 OA
ENDBRANCH  89  92
ENDBRANCH  61  85
BRANCH  73  96
ATOM     96  C   UNL     1      19.273  14.513 -17.130  1.00  0.00     0.023 A 
ATOM     97  C   UNL     1      19.577  15.079 -15.876  1.00  0.00     0.012 A 
ATOM     98  C   UNL     1      19.982  14.938 -18.271  1.00  0.00     0.148 A 
ATOM     99  C   UNL     1      20.545  16.078 -15.767  1.00  0.00     0.002 A 
ATOM    100  C   UNL     1      20.982  15.894 -18.146  1.00  0.00     0.091 A 
ATOM    101  F   UNL     1      19.666  14.399 -19.457  1.00  0.00    -0.205 F 
ATOM    102  C   UNL     1      21.255  16.476 -16.897  1.00  0.00     0.022 A 
BRANCH 100 103
ATOM    103  S   UNL     1      22.017  16.394 -19.526  1.00  0.00     0.127 S 
ATOM    104  O   UNL     1      21.562  17.765 -19.757  1.00  0.00    -0.237 OA
ATOM    105  O   UNL     1      23.361  16.285 -18.959  1.00  0.00    -0.237 OA
ATOM    106  O   UNL     1      21.735  15.455 -20.603  1.00  0.00    -0.744 OA
ENDBRANCH 100 103
ENDBRANCH  73  96
ENDBRANCH  47  48
ENDBRANCH  39  42
ENDBRANCH  37  38
ENDBRANCH  36  37
ENDBRANCH  35  36
ENDBRANCH   1  35
TORSDOF 20
