REMARK SMILES COCC[N@H+](C)[C@H](C)[C@@H](C)C(=O)NCCCCCCNC(=O)c1ccc(-c2c3nc(c(-c4cccc(S(=O)(=O)[O-])c4F)c4ccc([nH]4)c(-c4cccc(S(=O)(=O)[O-])c4F)c4nc(c(-c5cccc(S(=O)(=O)[O-])c5F)c5ccc2[nH]5)C=C4)C=C3)cc1
REMARK SMILES IDX 15 1 14 2 13 3 11 4 12 5 9 7 10 8 7 9 8 10 5 11 6 12 4 14
REMARK SMILES IDX 3 15 2 16 1 17 16 18 17 19 18 20 19 21 20 22 21 23 22 25
REMARK SMILES IDX 23 26 24 27 85 28 25 29 84 30 26 31 27 32 28 33 78 34 29 35
REMARK SMILES IDX 83 36 77 37 79 38 30 39 82 40 76 41 75 42 31 44 63 45 43 46
REMARK SMILES IDX 62 47 44 48 47 49 61 50 80 51 45 52 46 53 60 55 81 56 48 57
REMARK SMILES IDX 32 58 33 59 41 60 34 61 36 62 42 63 35 64 37 65 38 66 39 67
REMARK SMILES IDX 40 68 64 69 65 70 73 71 66 72 68 73 74 74 67 75 69 76 70 77
REMARK SMILES IDX 71 78 72 79 49 80 50 81 58 82 51 83 53 84 59 85 52 86 54 87
REMARK SMILES IDX 55 88 56 89 57 90
REMARK H PARENT 13 6 5 13 20 24 79 43 47 54
REMARK Flexibility Score: inf
ROOT
ATOM      1  C   UNL     1       0.960  -2.565   3.358  1.00  0.00     0.021 C 
ENDROOT
BRANCH   1   2
ATOM      2  C   UNL     1       1.828  -2.216   2.154  1.00  0.00     0.116 C 
BRANCH   2   3
ATOM      3  N   UNL     1       1.134  -2.491   0.912  1.00  0.00    -0.356 N 
ATOM      4  C   UNL     1       0.771  -1.687  -0.117  1.00  0.00     0.228 C 
ATOM      5  O   UNL     1       0.179  -2.221  -1.062  1.00  0.00    -0.275 OA
ATOM      6  H   UNL     1       0.879  -3.435   0.795  1.00  0.00     0.163 HD
BRANCH   4   7
ATOM      7  C   UNL     1       1.119  -0.204  -0.172  1.00  0.00     0.133 C 
ATOM      8  C   UNL     1       2.645  -0.049  -0.273  1.00  0.00     0.024 C 
BRANCH   7   9
ATOM      9  C   UNL     1       0.443   0.683   0.919  1.00  0.00     0.193 C 
ATOM     10  C   UNL     1       0.924   2.143   0.780  1.00  0.00     0.076 C 
BRANCH   9  11
ATOM     11  N   UNL     1      -1.038   0.753   0.980  1.00  0.00    -0.333 N 
ATOM     12  C   UNL     1      -1.720   0.582  -0.301  1.00  0.00     0.333 C 
ATOM     13  H   UNL     1      -1.171   1.723   1.264  1.00  0.00     0.348 HD
BRANCH  11  14
ATOM     14  C   UNL     1      -1.674  -0.083   2.018  1.00  0.00     0.291 C 
BRANCH  14  15
ATOM     15  C   UNL     1      -1.356   0.273   3.490  1.00  0.00     0.221 C 
BRANCH  15  16
ATOM     16  O   UNL     1      -2.042   1.428   3.975  1.00  0.00    -0.379 OA
ATOM     17  C   UNL     1      -1.473   2.647   3.523  1.00  0.00     0.195 C 
ENDBRANCH  15  16
ENDBRANCH  14  15
ENDBRANCH  11  14
ENDBRANCH   9  11
ENDBRANCH   7   9
ENDBRANCH   4   7
ENDBRANCH   2   3
ENDBRANCH   1   2
BRANCH   1  18
ATOM     18  C   UNL     1       0.652  -4.056   3.513  1.00  0.00     0.002 C 
BRANCH  18  19
ATOM     19  C   UNL     1       1.884  -4.951   3.646  1.00  0.00     0.002 C 
BRANCH  19  20
ATOM     20  C   UNL     1       2.873  -4.524   4.732  1.00  0.00     0.021 C 
BRANCH  20  21
ATOM     21  C   UNL     1       2.262  -4.362   6.119  1.00  0.00     0.116 C 
BRANCH  21  22
ATOM     22  N   UNL     1       1.688  -5.605   6.606  1.00  0.00    -0.352 N 
ATOM     23  C   UNL     1       1.937  -6.261   7.781  1.00  0.00     0.251 C 
ATOM     24  H   UNL     1       1.031  -6.033   6.011  1.00  0.00     0.163 HD
ATOM     25  O   UNL     1       1.526  -7.413   7.939  1.00  0.00    -0.269 OA
BRANCH  23  26
ATOM     26  C   UNL     1       2.703  -5.592   8.851  1.00  0.00     0.039 A 
ATOM     27  C   UNL     1       3.687  -6.313   9.531  1.00  0.00     0.014 A 
ATOM     28  C   UNL     1       2.439  -4.263   9.195  1.00  0.00     0.014 A 
ATOM     29  C   UNL     1       4.422  -5.691  10.542  1.00  0.00     0.010 A 
ATOM     30  C   UNL     1       3.228  -3.622  10.145  1.00  0.00     0.010 A 
ATOM     31  C   UNL     1       4.207  -4.337  10.850  1.00  0.00    -0.014 A 
BRANCH  31  32
ATOM     32  C   UNL     1       4.972  -3.671  11.934  1.00  0.00     0.031 A 
ATOM     33  C   UNL     1       4.254  -3.148  13.151  1.00  0.00     0.074 A 
ATOM     34  C   UNL     1       6.300  -3.487  11.802  1.00  0.00     0.049 A 
ATOM     35  N   UNL     1       4.744  -2.534  14.197  1.00  0.00    -0.248 NA
ATOM     36  C   UNL     1       2.791  -3.310  13.187  1.00  0.00     0.031 C 
ATOM     37  C   UNL     1       7.096  -3.874  10.635  1.00  0.00     0.029 A 
ATOM     38  N   UNL     1       7.212  -2.912  12.650  1.00  0.00    -0.354 N 
ATOM     39  C   UNL     1       3.652  -2.207  14.993  1.00  0.00     0.074 A 
ATOM     40  C   UNL     1       2.470  -2.651  14.290  1.00  0.00     0.031 C 
ATOM     41  C   UNL     1       8.378  -3.537  10.847  1.00  0.00     0.029 A 
ATOM     42  C   UNL     1       8.493  -2.890  12.151  1.00  0.00     0.049 A 
ATOM     43  H   UNL     1       6.972  -2.549  13.534  1.00  0.00     0.167 HD
ATOM     44  C   UNL     1       3.635  -1.622  16.214  1.00  0.00     0.034 A 
ATOM     45  C   UNL     1       9.631  -2.407  12.686  1.00  0.00     0.034 A 
ATOM     46  C   UNL     1       4.816  -1.224  16.930  1.00  0.00     0.049 A 
ATOM     47  C   UNL     1       9.593  -1.815  14.069  1.00  0.00     0.074 A 
ATOM     48  C   UNL     1       4.914  -0.700  18.206  1.00  0.00     0.029 A 
ATOM     49  N   UNL     1       6.107  -1.304  16.430  1.00  0.00    -0.354 N 
ATOM     50  N   UNL     1       8.569  -1.658  14.873  1.00  0.00    -0.248 NA
ATOM     51  C   UNL     1      10.875  -1.376  14.638  1.00  0.00     0.031 C 
ATOM     52  C   UNL     1       6.263  -0.440  18.469  1.00  0.00     0.029 A 
ATOM     53  C   UNL     1       7.008  -0.836  17.370  1.00  0.00     0.049 A 
ATOM     54  H   UNL     1       6.346  -1.643  15.537  1.00  0.00     0.167 HD
ATOM     55  C   UNL     1       9.087  -1.145  16.056  1.00  0.00     0.074 A 
ATOM     56  C   UNL     1      10.520  -1.035  15.870  1.00  0.00     0.031 C 
ATOM     57  C   UNL     1       8.437  -0.785  17.190  1.00  0.00     0.034 A 
BRANCH  44  58
ATOM     58  C   UNL     1       2.294  -1.426  16.876  1.00  0.00     0.023 A 
ATOM     59  C   UNL     1       1.576  -2.548  17.341  1.00  0.00     0.012 A 
ATOM     60  C   UNL     1       1.768  -0.137  17.083  1.00  0.00     0.148 A 
ATOM     61  C   UNL     1       0.338  -2.392  17.963  1.00  0.00     0.002 A 
ATOM     62  C   UNL     1       0.556   0.014  17.748  1.00  0.00     0.091 A 
ATOM     63  F   UNL     1       2.454   0.917  16.617  1.00  0.00    -0.205 F 
ATOM     64  C   UNL     1      -0.166  -1.112  18.176  1.00  0.00     0.022 A 
BRANCH  62  65
ATOM     65  S   UNL     1      -0.138   1.622  18.147  1.00  0.00     0.127 S 
ATOM     66  O   UNL     1      -1.287   1.678  17.244  1.00  0.00    -0.237 OA
ATOM     67  O   UNL     1      -0.480   1.467  19.561  1.00  0.00    -0.237 OA
ATOM     68  O   UNL     1       0.915   2.592  17.879  1.00  0.00    -0.744 OA
ENDBRANCH  62  65
ENDBRANCH  44  58
BRANCH  45  69
ATOM     69  C   UNL     1      10.917  -2.537  11.944  1.00  0.00     0.023 A 
ATOM     70  C   UNL     1      11.901  -3.430  12.414  1.00  0.00     0.012 A 
ATOM     71  C   UNL     1      11.162  -1.802  10.768  1.00  0.00     0.148 A 
ATOM     72  C   UNL     1      13.120  -3.560  11.748  1.00  0.00     0.002 A 
ATOM     73  C   UNL     1      12.356  -1.978  10.079  1.00  0.00     0.091 A 
ATOM     74  F   UNL     1      10.217  -0.953  10.342  1.00  0.00    -0.205 F 
ATOM     75  C   UNL     1      13.344  -2.842  10.577  1.00  0.00     0.022 A 
BRANCH  73  76
ATOM     76  S   UNL     1      12.677  -1.196   8.494  1.00  0.00     0.127 S 
ATOM     77  O   UNL     1      13.707  -0.222   8.844  1.00  0.00    -0.237 OA
ATOM     78  O   UNL     1      13.143  -2.325   7.689  1.00  0.00    -0.237 OA
ATOM     79  O   UNL     1      11.401  -0.640   8.064  1.00  0.00    -0.744 OA
ENDBRANCH  73  76
ENDBRANCH  45  69
BRANCH  57  80
ATOM     80  C   UNL     1       9.268  -0.288  18.344  1.00  0.00     0.023 A 
ATOM     81  C   UNL     1       9.886   0.976  18.277  1.00  0.00     0.012 A 
ATOM     82  C   UNL     1       9.386  -1.054  19.521  1.00  0.00     0.148 A 
ATOM     83  C   UNL     1      10.642   1.452  19.348  1.00  0.00     0.002 A 
ATOM     84  C   UNL     1      10.096  -0.550  20.604  1.00  0.00     0.091 A 
ATOM     85  F   UNL     1       8.808  -2.263  19.560  1.00  0.00    -0.205 F 
ATOM     86  C   UNL     1      10.738   0.696  20.514  1.00  0.00     0.022 A 
BRANCH  84  87
ATOM     87  S   UNL     1      10.184  -1.412  22.177  1.00  0.00     0.127 S 
ATOM     88  O   UNL     1      11.546  -1.943  22.150  1.00  0.00    -0.237 OA
ATOM     89  O   UNL     1       9.970  -0.329  23.138  1.00  0.00    -0.237 OA
ATOM     90  O   UNL     1       9.121  -2.407  22.146  1.00  0.00    -0.744 OA
ENDBRANCH  84  87
ENDBRANCH  57  80
ENDBRANCH  31  32
ENDBRANCH  23  26
ENDBRANCH  21  22
ENDBRANCH  20  21
ENDBRANCH  19  20
ENDBRANCH  18  19
ENDBRANCH   1  18
TORSDOF 21
