REMARK SMILES O=C(CCC(=O)N1Cc2[nH]cnc2C[C@H]1C(=O)NCc1ccccc1)NCCCCCCNC(=O)c1ccc(-c2c3nc(c(-c4cccc(S(=O)(=O)[O-])c4F)c4ccc([nH]4)c(-c4cccc(S(=O)(=O)[O-])c4F)c4nc(c(-c5cccc(S(=O)(=O)[O-])c5F)c5ccc2[nH]5)C=C4)C=C3)cc1
REMARK SMILES IDX 28 1 27 2 26 3 1 4 2 5 3 7 4 8 5 9 6 10 7 11 8 12 15 13 9 14
REMARK SMILES IDX 14 15 10 16 13 17 11 18 12 20 16 21 17 22 18 23 19 25 20 26
REMARK SMILES IDX 21 27 25 28 22 29 24 30 23 31 29 32 30 33 31 34 32 35 33 36
REMARK SMILES IDX 34 37 35 39 36 40 37 41 98 42 38 43 97 44 39 45 40 46 41 47
REMARK SMILES IDX 91 48 42 49 96 50 90 51 92 52 43 53 95 54 89 55 88 56 44 58
REMARK SMILES IDX 76 59 56 60 75 61 57 62 60 63 74 64 93 65 58 66 59 67 73 69
REMARK SMILES IDX 94 70 61 71 45 72 46 73 54 74 47 75 49 76 55 77 48 78 50 79
REMARK SMILES IDX 51 80 52 81 53 82 77 83 78 84 86 85 79 86 81 87 87 88 80 89
REMARK SMILES IDX 82 90 83 91 84 92 85 93 62 94 63 95 71 96 64 97 66 98 72 99
REMARK SMILES IDX 65 100 67 101 68 102 69 103 70 104
REMARK H PARENT 26 6 10 19 18 24 33 38 92 57 60 68
REMARK Flexibility Score: inf
ROOT
ATOM      1  C   UNL     1       1.577  -0.338  -3.996  1.00  0.00     0.021 C 
ENDROOT
BRANCH   1   2
ATOM      2  C   UNL     1       1.306  -0.271  -2.473  1.00  0.00     0.116 C 
BRANCH   2   3
ATOM      3  N   UNL     1       2.205   0.535  -1.638  1.00  0.00    -0.356 N 
ATOM      4  O   UNL     1       0.947   0.271   0.277  1.00  0.00    -0.275 OA
ATOM      5  C   UNL     1       1.980   0.656  -0.264  1.00  0.00     0.220 C 
ATOM      6  H   UNL     1       2.972   0.994  -2.050  1.00  0.00     0.163 HD
BRANCH   5   7
ATOM      7  C   UNL     1       3.174   1.169   0.577  1.00  0.00     0.110 C 
BRANCH   7   8
ATOM      8  C   UNL     1       3.596   0.185   1.712  1.00  0.00     0.110 C 
BRANCH   8   9
ATOM      9  C   UNL     1       4.964  -0.555   1.599  1.00  0.00     0.224 C 
ATOM     10  O   UNL     1       5.896  -0.233   2.342  1.00  0.00    -0.275 OA
BRANCH   9  11
ATOM     11  N   UNL     1       5.106  -1.609   0.699  1.00  0.00    -0.324 N 
ATOM     12  C   UNL     1       6.375  -2.380   0.579  1.00  0.00     0.176 C 
ATOM     13  C   UNL     1       4.137  -1.782  -0.386  1.00  0.00     0.180 C 
ATOM     14  C   UNL     1       6.711  -2.534  -0.873  1.00  0.00     0.058 A 
ATOM     15  C   UNL     1       4.765  -1.258  -1.673  1.00  0.00     0.093 C 
ATOM     16  N   UNL     1       7.654  -3.314  -1.487  1.00  0.00    -0.347 N 
ATOM     17  C   UNL     1       5.999  -1.996  -1.916  1.00  0.00     0.066 A 
ATOM     18  C   UNL     1       7.497  -3.150  -2.845  1.00  0.00     0.197 A 
ATOM     19  H   UNL     1       8.320  -3.886  -1.041  1.00  0.00     0.167 HD
ATOM     20  N   UNL     1       6.494  -2.352  -3.128  1.00  0.00    -0.242 NA
BRANCH  13  21
ATOM     21  C   UNL     1       3.069  -2.888  -0.215  1.00  0.00     0.243 C 
ATOM     22  O   UNL     1       2.203  -2.750   0.663  1.00  0.00    -0.273 OA
ATOM     23  N   UNL     1       2.992  -4.061  -0.868  1.00  0.00    -0.350 N 
ATOM     24  H   UNL     1       2.086  -4.445  -0.896  1.00  0.00     0.163 HD
BRANCH  23  25
ATOM     25  C   UNL     1       3.985  -4.857  -1.531  1.00  0.00     0.151 C 
BRANCH  25  26
ATOM     26  C   UNL     1       4.454  -5.984  -0.643  1.00  0.00    -0.029 A 
ATOM     27  C   UNL     1       4.632  -7.268  -1.176  1.00  0.00     0.005 A 
ATOM     28  C   UNL     1       4.744  -5.779   0.715  1.00  0.00     0.005 A 
ATOM     29  C   UNL     1       5.104  -8.309  -0.375  1.00  0.00     0.000 A 
ATOM     30  C   UNL     1       5.236  -6.813   1.510  1.00  0.00     0.000 A 
ATOM     31  C   UNL     1       5.420  -8.078   0.963  1.00  0.00     0.000 A 
ENDBRANCH  25  26
ENDBRANCH  23  25
ENDBRANCH  13  21
ENDBRANCH   9  11
ENDBRANCH   8   9
ENDBRANCH   7   8
ENDBRANCH   5   7
ENDBRANCH   2   3
ENDBRANCH   1   2
BRANCH   1  32
ATOM     32  C   UNL     1       2.776  -1.118  -4.598  1.00  0.00     0.002 C 
BRANCH  32  33
ATOM     33  C   UNL     1       3.036  -2.557  -4.105  1.00  0.00     0.002 C 
BRANCH  33  34
ATOM     34  C   UNL     1       2.627  -3.752  -4.962  1.00  0.00     0.021 C 
BRANCH  34  35
ATOM     35  C   UNL     1       3.433  -3.949  -6.241  1.00  0.00     0.116 C 
BRANCH  35  36
ATOM     36  N   UNL     1       4.855  -4.273  -6.052  1.00  0.00    -0.352 N 
ATOM     37  C   UNL     1       5.846  -4.245  -7.039  1.00  0.00     0.251 C 
ATOM     38  H   UNL     1       5.136  -4.534  -5.145  1.00  0.00     0.163 HD
ATOM     39  O   UNL     1       6.893  -4.821  -6.944  1.00  0.00    -0.269 OA
BRANCH  37  40
ATOM     40  C   UNL     1       5.527  -3.391  -8.204  1.00  0.00     0.039 A 
ATOM     41  C   UNL     1       5.230  -3.943  -9.451  1.00  0.00     0.014 A 
ATOM     42  C   UNL     1       5.217  -2.072  -7.884  1.00  0.00     0.014 A 
ATOM     43  C   UNL     1       4.477  -3.183 -10.345  1.00  0.00     0.010 A 
ATOM     44  C   UNL     1       4.354  -1.393  -8.710  1.00  0.00     0.010 A 
ATOM     45  C   UNL     1       3.982  -1.928  -9.946  1.00  0.00    -0.014 A 
BRANCH  45  46
ATOM     46  C   UNL     1       2.938  -1.258 -10.731  1.00  0.00     0.031 A 
ATOM     47  C   UNL     1       1.771  -2.109 -11.119  1.00  0.00     0.074 A 
ATOM     48  C   UNL     1       2.871   0.082 -10.899  1.00  0.00     0.049 A 
ATOM     49  N   UNL     1       1.466  -2.538 -12.301  1.00  0.00    -0.248 NA
ATOM     50  C   UNL     1       0.899  -2.639 -10.059  1.00  0.00     0.031 C 
ATOM     51  C   UNL     1       3.721   1.106 -10.274  1.00  0.00     0.029 A 
ATOM     52  N   UNL     1       1.935   0.830 -11.552  1.00  0.00    -0.354 N 
ATOM     53  C   UNL     1       0.224  -3.166 -12.169  1.00  0.00     0.074 A 
ATOM     54  C   UNL     1       0.038  -3.384 -10.760  1.00  0.00     0.031 C 
ATOM     55  C   UNL     1       3.104   2.304 -10.334  1.00  0.00     0.029 A 
ATOM     56  C   UNL     1       1.954   2.175 -11.204  1.00  0.00     0.049 A 
ATOM     57  H   UNL     1       1.306   0.453 -12.209  1.00  0.00     0.167 HD
ATOM     58  C   UNL     1      -0.666  -3.183 -13.204  1.00  0.00     0.034 A 
ATOM     59  C   UNL     1       1.105   3.142 -11.610  1.00  0.00     0.034 A 
ATOM     60  C   UNL     1      -0.051  -2.692 -14.410  1.00  0.00     0.049 A 
ATOM     61  C   UNL     1       0.520   2.710 -12.894  1.00  0.00     0.074 A 
ATOM     62  C   UNL     1       0.805  -3.151 -15.383  1.00  0.00     0.029 A 
ATOM     63  N   UNL     1      -0.111  -1.329 -14.518  1.00  0.00    -0.354 N 
ATOM     64  N   UNL     1       1.229   2.525 -13.974  1.00  0.00    -0.248 NA
ATOM     65  C   UNL     1      -0.836   2.178 -12.932  1.00  0.00     0.031 C 
ATOM     66  C   UNL     1       1.394  -1.990 -15.970  1.00  0.00     0.029 A 
ATOM     67  C   UNL     1       0.858  -0.858 -15.358  1.00  0.00     0.049 A 
ATOM     68  H   UNL     1      -0.766  -0.762 -14.052  1.00  0.00     0.167 HD
ATOM     69  C   UNL     1       0.584   1.486 -14.615  1.00  0.00     0.074 A 
ATOM     70  C   UNL     1      -0.758   1.456 -14.052  1.00  0.00     0.031 C 
ATOM     71  C   UNL     1       1.285   0.524 -15.279  1.00  0.00     0.034 A 
BRANCH  58  72
ATOM     72  C   UNL     1      -2.188  -3.174 -13.112  1.00  0.00     0.023 A 
ATOM     73  C   UNL     1      -2.902  -3.254 -14.336  1.00  0.00     0.012 A 
ATOM     74  C   UNL     1      -2.934  -2.799 -11.975  1.00  0.00     0.148 A 
ATOM     75  C   UNL     1      -4.259  -2.920 -14.432  1.00  0.00     0.002 A 
ATOM     76  C   UNL     1      -4.301  -2.534 -12.062  1.00  0.00     0.091 A 
ATOM     77  F   UNL     1      -2.315  -2.560 -10.817  1.00  0.00    -0.205 F 
ATOM     78  C   UNL     1      -4.962  -2.563 -13.292  1.00  0.00     0.022 A 
BRANCH  76  79
ATOM     79  S   UNL     1      -5.274  -2.105 -10.612  1.00  0.00     0.127 S 
ATOM     80  O   UNL     1      -5.494  -0.677 -10.820  1.00  0.00    -0.237 OA
ATOM     81  O   UNL     1      -6.458  -2.947 -10.786  1.00  0.00    -0.237 OA
ATOM     82  O   UNL     1      -4.447  -2.469  -9.469  1.00  0.00    -0.744 OA
ENDBRANCH  76  79
ENDBRANCH  58  72
BRANCH  59  83
ATOM     83  C   UNL     1       0.671   4.366 -10.911  1.00  0.00     0.023 A 
ATOM     84  C   UNL     1       0.260   5.488 -11.652  1.00  0.00     0.012 A 
ATOM     85  C   UNL     1       0.396   4.330  -9.526  1.00  0.00     0.148 A 
ATOM     86  C   UNL     1      -0.453   6.525 -11.042  1.00  0.00     0.002 A 
ATOM     87  C   UNL     1      -0.317   5.361  -8.925  1.00  0.00     0.091 A 
ATOM     88  F   UNL     1       0.760   3.246  -8.827  1.00  0.00    -0.205 F 
ATOM     89  C   UNL     1      -0.756   6.454  -9.684  1.00  0.00     0.022 A 
BRANCH  87  90
ATOM     90  S   UNL     1      -0.780   5.328  -7.188  1.00  0.00     0.127 S 
ATOM     91  O   UNL     1      -0.332   6.645  -6.732  1.00  0.00    -0.237 OA
ATOM     92  O   UNL     1      -2.229   5.168  -7.267  1.00  0.00    -0.237 OA
ATOM     93  O   UNL     1      -0.050   4.211  -6.602  1.00  0.00    -0.744 OA
ENDBRANCH  87  90
ENDBRANCH  59  83
BRANCH  71  94
ATOM     94  C   UNL     1       2.659   0.860 -15.774  1.00  0.00     0.023 A 
ATOM     95  C   UNL     1       3.752   1.089 -14.915  1.00  0.00     0.012 A 
ATOM     96  C   UNL     1       2.875   0.831 -17.161  1.00  0.00     0.148 A 
ATOM     97  C   UNL     1       5.032   1.299 -15.435  1.00  0.00     0.002 A 
ATOM     98  C   UNL     1       4.154   0.995 -17.672  1.00  0.00     0.091 A 
ATOM     99  F   UNL     1       1.817   0.624 -17.961  1.00  0.00    -0.205 F 
ATOM    100  C   UNL     1       5.236   1.238 -16.814  1.00  0.00     0.022 A 
BRANCH  98 101
ATOM    101  S   UNL     1       4.486   0.807 -19.425  1.00  0.00     0.127 S 
ATOM    102  O   UNL     1       4.642   2.194 -19.858  1.00  0.00    -0.237 OA
ATOM    103  O   UNL     1       5.721   0.021 -19.429  1.00  0.00    -0.237 OA
ATOM    104  O   UNL     1       3.334   0.102 -19.974  1.00  0.00    -0.744 OA
ENDBRANCH  98 101
ENDBRANCH  71  94
ENDBRANCH  45  46
ENDBRANCH  37  40
ENDBRANCH  35  36
ENDBRANCH  34  35
ENDBRANCH  33  34
ENDBRANCH  32  33
ENDBRANCH   1  32
TORSDOF 22
