REMARK SMILES CC(C)(C)NC(=O)c1ccccc1C(=O)NCCCCCCNC(=O)c1ccc(-c2c3nc(c(-c4cccc(S(=O)(=O)[O-])c4F)c4ccc([nH]4)c(-c4cccc(S(=O)(=O)[O-])c4F)c4nc(c(-c5cccc(S(=O)(=O)[O-])c5F)c5ccc2[nH]5)C=C4)C=C3)cc1
REMARK SMILES IDX 20 1 19 2 18 3 17 4 16 5 14 6 15 7 13 9 8 10 9 11 10 12
REMARK SMILES IDX 12 13 11 14 6 15 5 16 7 18 2 19 1 20 3 21 4 22 21 23 22 24
REMARK SMILES IDX 23 25 24 26 25 28 26 29 27 30 88 31 28 32 87 33 29 34 30 35
REMARK SMILES IDX 31 36 81 37 32 38 86 39 80 40 82 41 33 42 85 43 79 44 78 45
REMARK SMILES IDX 34 47 66 48 46 49 65 50 47 51 50 52 64 53 83 54 48 55 49 56
REMARK SMILES IDX 63 58 84 59 51 60 35 61 36 62 44 63 37 64 39 65 45 66 38 67
REMARK SMILES IDX 40 68 41 69 42 70 43 71 67 72 68 73 76 74 69 75 71 76 77 77
REMARK SMILES IDX 70 78 72 79 73 80 74 81 75 82 52 83 53 84 61 85 54 86 56 87
REMARK SMILES IDX 62 88 55 89 57 90 58 91 59 92 60 93
REMARK H PARENT 16 8 5 17 23 27 82 46 50 57
REMARK Flexibility Score: inf
ROOT
ATOM      1  C   UNL     1       0.795   0.492  -5.177  1.00  0.00     0.002 C 
ENDROOT
BRANCH   1   2
ATOM      2  C   UNL     1       2.322   0.378  -5.297  1.00  0.00     0.002 C 
BRANCH   2   3
ATOM      3  C   UNL     1       3.179   1.331  -4.450  1.00  0.00     0.021 C 
BRANCH   3   4
ATOM      4  C   UNL     1       2.877   1.320  -2.956  1.00  0.00     0.116 C 
BRANCH   4   5
ATOM      5  N   UNL     1       3.274   0.116  -2.261  1.00  0.00    -0.352 N 
ATOM      6  C   UNL     1       3.316  -0.184  -0.921  1.00  0.00     0.252 C 
ATOM      7  O   UNL     1       3.686  -1.325  -0.622  1.00  0.00    -0.269 OA
ATOM      8  H   UNL     1       3.564  -0.617  -2.850  1.00  0.00     0.163 HD
BRANCH   6   9
ATOM      9  C   UNL     1       3.010   0.760   0.195  1.00  0.00     0.052 A 
ATOM     10  C   UNL     1       2.042   1.767   0.247  1.00  0.00     0.052 A 
ATOM     11  C   UNL     1       1.985   2.642   1.355  1.00  0.00     0.014 A 
ATOM     12  C   UNL     1       2.801   2.453   2.466  1.00  0.00     0.001 A 
ATOM     13  C   UNL     1       3.787   0.553   1.360  1.00  0.00     0.014 A 
ATOM     14  C   UNL     1       3.679   1.380   2.484  1.00  0.00     0.001 A 
BRANCH  10  15
ATOM     15  C   UNL     1       1.056   2.082  -0.784  1.00  0.00     0.252 C 
ATOM     16  N   UNL     1       0.022   1.261  -1.132  1.00  0.00    -0.347 N 
ATOM     17  H   UNL     1      -0.516   1.646  -1.861  1.00  0.00     0.164 HD
ATOM     18  O   UNL     1       1.149   3.180  -1.335  1.00  0.00    -0.269 OA
BRANCH  16  19
ATOM     19  C   UNL     1      -0.504  -0.051  -0.705  1.00  0.00     0.032 C 
ATOM     20  C   UNL     1      -0.302  -0.333   0.786  1.00  0.00     0.034 C 
ATOM     21  C   UNL     1       0.078  -1.204  -1.534  1.00  0.00     0.034 C 
ATOM     22  C   UNL     1      -2.019  -0.016  -0.995  1.00  0.00     0.034 C 
ENDBRANCH  16  19
ENDBRANCH  10  15
ENDBRANCH   6   9
ENDBRANCH   4   5
ENDBRANCH   3   4
ENDBRANCH   2   3
ENDBRANCH   1   2
BRANCH   1  23
ATOM     23  C   UNL     1       0.164   1.871  -5.354  1.00  0.00     0.021 C 
BRANCH  23  24
ATOM     24  C   UNL     1       0.569   2.636  -6.604  1.00  0.00     0.116 C 
BRANCH  24  25
ATOM     25  N   UNL     1       0.360   1.890  -7.834  1.00  0.00    -0.352 N 
ATOM     26  C   UNL     1      -0.090   2.334  -9.057  1.00  0.00     0.251 C 
ATOM     27  H   UNL     1       0.570   0.930  -7.785  1.00  0.00     0.163 HD
ATOM     28  O   UNL     1      -0.277   1.538  -9.964  1.00  0.00    -0.269 OA
BRANCH  26  29
ATOM     29  C   UNL     1      -0.382   3.774  -9.254  1.00  0.00     0.039 A 
ATOM     30  C   UNL     1      -1.564   4.132  -9.909  1.00  0.00     0.014 A 
ATOM     31  C   UNL     1       0.486   4.763  -8.787  1.00  0.00     0.014 A 
ATOM     32  C   UNL     1      -1.905   5.481 -10.035  1.00  0.00     0.010 A 
ATOM     33  C   UNL     1       0.105   6.101  -8.839  1.00  0.00     0.010 A 
ATOM     34  C   UNL     1      -1.091   6.475  -9.469  1.00  0.00    -0.014 A 
BRANCH  34  35
ATOM     35  C   UNL     1      -1.476   7.909  -9.517  1.00  0.00     0.031 A 
ATOM     36  C   UNL     1      -0.601   8.904 -10.232  1.00  0.00     0.074 A 
ATOM     37  C   UNL     1      -2.565   8.329  -8.843  1.00  0.00     0.049 A 
ATOM     38  N   UNL     1      -0.739  10.201 -10.332  1.00  0.00    -0.248 NA
ATOM     39  C   UNL     1       0.604   8.379 -10.897  1.00  0.00     0.031 C 
ATOM     40  C   UNL     1      -3.447   7.475  -8.045  1.00  0.00     0.029 A 
ATOM     41  N   UNL     1      -3.102   9.585  -8.698  1.00  0.00    -0.354 N 
ATOM     42  C   UNL     1       0.373  10.649 -11.035  1.00  0.00     0.074 A 
ATOM     43  C   UNL     1       1.196   9.491 -11.306  1.00  0.00     0.031 C 
ATOM     44  C   UNL     1      -4.415   8.229  -7.499  1.00  0.00     0.029 A 
ATOM     45  C   UNL     1      -4.207   9.622  -7.879  1.00  0.00     0.049 A 
ATOM     46  H   UNL     1      -2.731  10.383  -9.139  1.00  0.00     0.167 HD
ATOM     47  C   UNL     1       0.670  11.906 -11.443  1.00  0.00     0.034 A 
ATOM     48  C   UNL     1      -4.961  10.662  -7.472  1.00  0.00     0.034 A 
ATOM     49  C   UNL     1      -0.173  13.046 -11.207  1.00  0.00     0.049 A 
ATOM     50  C   UNL     1      -4.633  12.042  -7.976  1.00  0.00     0.074 A 
ATOM     51  C   UNL     1      -0.008  14.344 -11.657  1.00  0.00     0.029 A 
ATOM     52  N   UNL     1      -1.333  13.029 -10.449  1.00  0.00    -0.354 N 
ATOM     53  N   UNL     1      -3.664  12.420  -8.774  1.00  0.00    -0.248 NA
ATOM     54  C   UNL     1      -5.523  13.133  -7.554  1.00  0.00     0.031 C 
ATOM     55  C   UNL     1      -1.055  15.119 -11.147  1.00  0.00     0.029 A 
ATOM     56  C   UNL     1      -1.891  14.295 -10.410  1.00  0.00     0.049 A 
ATOM     57  H   UNL     1      -1.706  12.234 -10.005  1.00  0.00     0.167 HD
ATOM     58  C   UNL     1      -3.851  13.781  -8.983  1.00  0.00     0.074 A 
ATOM     59  C   UNL     1      -5.037  14.158  -8.242  1.00  0.00     0.031 C 
ATOM     60  C   UNL     1      -3.103  14.644  -9.714  1.00  0.00     0.034 A 
BRANCH  47  61
ATOM     61  C   UNL     1       1.938  12.107 -12.232  1.00  0.00     0.023 A 
ATOM     62  C   UNL     1       2.026  11.611 -13.549  1.00  0.00     0.012 A 
ATOM     63  C   UNL     1       3.016  12.839 -11.698  1.00  0.00     0.148 A 
ATOM     64  C   UNL     1       3.179  11.807 -14.308  1.00  0.00     0.002 A 
ATOM     65  C   UNL     1       4.144  13.072 -12.477  1.00  0.00     0.091 A 
ATOM     66  F   UNL     1       2.924  13.287 -10.438  1.00  0.00    -0.205 F 
ATOM     67  C   UNL     1       4.232  12.546 -13.777  1.00  0.00     0.022 A 
BRANCH  65  68
ATOM     68  S   UNL     1       5.519  14.082 -11.918  1.00  0.00     0.127 S 
ATOM     69  O   UNL     1       6.573  13.081 -11.754  1.00  0.00    -0.237 OA
ATOM     70  O   UNL     1       5.713  14.991 -13.048  1.00  0.00    -0.237 OA
ATOM     71  O   UNL     1       5.074  14.725 -10.690  1.00  0.00    -0.744 OA
ENDBRANCH  65  68
ENDBRANCH  47  61
BRANCH  48  72
ATOM     72  C   UNL     1      -6.140  10.429  -6.590  1.00  0.00     0.023 A 
ATOM     73  C   UNL     1      -7.438  10.606  -7.107  1.00  0.00     0.012 A 
ATOM     74  C   UNL     1      -5.986  10.015  -5.253  1.00  0.00     0.148 A 
ATOM     75  C   UNL     1      -8.560  10.411  -6.300  1.00  0.00     0.002 A 
ATOM     76  C   UNL     1      -7.108   9.767  -4.470  1.00  0.00     0.091 A 
ATOM     77  F   UNL     1      -4.743   9.861  -4.775  1.00  0.00    -0.205 F 
ATOM     78  C   UNL     1      -8.395   9.982  -4.986  1.00  0.00     0.022 A 
BRANCH  76  79
ATOM     79  S   UNL     1      -6.996   9.088  -2.811  1.00  0.00     0.127 S 
ATOM     80  O   UNL     1      -7.407  10.226  -1.994  1.00  0.00    -0.237 OA
ATOM     81  O   UNL     1      -7.962   7.990  -2.869  1.00  0.00    -0.237 OA
ATOM     82  O   UNL     1      -5.612   8.662  -2.653  1.00  0.00    -0.744 OA
ENDBRANCH  76  79
ENDBRANCH  48  72
BRANCH  60  83
ATOM     83  C   UNL     1      -3.563  16.076  -9.795  1.00  0.00     0.023 A 
ATOM     84  C   UNL     1      -3.440  16.921  -8.675  1.00  0.00     0.012 A 
ATOM     85  C   UNL     1      -4.042  16.603 -11.011  1.00  0.00     0.148 A 
ATOM     86  C   UNL     1      -3.818  18.261  -8.755  1.00  0.00     0.002 A 
ATOM     87  C   UNL     1      -4.367  17.951 -11.098  1.00  0.00     0.091 A 
ATOM     88  F   UNL     1      -4.168  15.777 -12.060  1.00  0.00    -0.205 F 
ATOM     89  C   UNL     1      -4.269  18.778  -9.968  1.00  0.00     0.022 A 
BRANCH  87  90
ATOM     90  S   UNL     1      -4.859  18.725 -12.642  1.00  0.00     0.127 S 
ATOM     91  O   UNL     1      -6.280  18.980 -12.408  1.00  0.00    -0.237 OA
ATOM     92  O   UNL     1      -4.021  19.924 -12.668  1.00  0.00    -0.237 OA
ATOM     93  O   UNL     1      -4.563  17.758 -13.690  1.00  0.00    -0.744 OA
ENDBRANCH  87  90
ENDBRANCH  60  83
ENDBRANCH  34  35
ENDBRANCH  26  29
ENDBRANCH  24  25
ENDBRANCH  23  24
ENDBRANCH   1  23
TORSDOF 18
