REMARK SMILES O=C(NCCCCCCNC(=O)[C@H]1CS[C@H](c2nc3ccccc3s2)[NH2+]1)c1ccc(-c2c3nc(c(-c4cccc(S(=O)(=O)[O-])c4F)c4ccc([nH]4)c(-c4cccc(S(=O)(=O)[O-])c4F)c4nc(c(-c5cccc(S(=O)(=O)[O-])c5F)c5ccc2[nH]5)C=C4)C=C3)cc1
REMARK SMILES IDX 5 1 4 2 3 3 1 4 2 5 27 7 28 8 89 9 29 10 88 11 30 12 31 13
REMARK SMILES IDX 32 14 82 15 33 16 87 17 81 18 83 19 34 20 86 21 80 22 79 23
REMARK SMILES IDX 35 25 67 26 47 27 66 28 48 29 51 30 65 31 84 32 49 33 50 34
REMARK SMILES IDX 64 36 85 37 52 38 36 39 37 40 45 41 38 42 40 43 46 44 39 45
REMARK SMILES IDX 41 46 42 47 43 48 44 49 68 50 69 51 77 52 70 53 72 54 78 55
REMARK SMILES IDX 71 56 73 57 74 58 75 59 76 60 53 61 54 62 62 63 55 64 57 65
REMARK SMILES IDX 63 66 56 67 58 68 59 69 60 70 61 71 6 72 7 73 8 74 9 75
REMARK SMILES IDX 10 76 11 77 12 79 13 80 14 81 26 82 15 83 16 84 17 87 18 88
REMARK SMILES IDX 25 89 19 90 24 91 20 92 23 93 21 94 22 95
REMARK H PARENT 3 6 83 24 51 35 10 78 26 85 26 86
REMARK Flexibility Score: inf
ROOT
ATOM      1  C   UNL     1       4.551  -1.062  -2.428  1.00  0.00     0.021 C 
ENDROOT
BRANCH   1   2
ATOM      2  C   UNL     1       4.379  -0.048  -1.305  1.00  0.00     0.116 C 
BRANCH   2   3
ATOM      3  N   UNL     1       2.982   0.236  -1.030  1.00  0.00    -0.352 N 
ATOM      4  O   UNL     1       1.081   0.258   0.176  1.00  0.00    -0.269 OA
ATOM      5  C   UNL     1       2.305   0.160   0.163  1.00  0.00     0.251 C 
ATOM      6  H   UNL     1       2.447   0.523  -1.805  1.00  0.00     0.163 HD
BRANCH   5   7
ATOM      7  C   UNL     1       3.056  -0.062   1.418  1.00  0.00     0.039 A 
ATOM      8  C   UNL     1       4.230   0.649   1.681  1.00  0.00     0.014 A 
ATOM      9  C   UNL     1       2.573  -0.988   2.347  1.00  0.00     0.014 A 
ATOM     10  C   UNL     1       4.985   0.345   2.808  1.00  0.00     0.010 A 
ATOM     11  C   UNL     1       3.292  -1.233   3.520  1.00  0.00     0.010 A 
ATOM     12  C   UNL     1       4.517  -0.587   3.749  1.00  0.00    -0.014 A 
BRANCH  12  13
ATOM     13  C   UNL     1       5.281  -0.800   5.004  1.00  0.00     0.031 A 
ATOM     14  C   UNL     1       5.907  -2.128   5.326  1.00  0.00     0.074 A 
ATOM     15  C   UNL     1       5.405   0.234   5.861  1.00  0.00     0.049 A 
ATOM     16  N   UNL     1       6.624  -2.466   6.367  1.00  0.00    -0.248 NA
ATOM     17  C   UNL     1       5.700  -3.221   4.362  1.00  0.00     0.031 C 
ATOM     18  C   UNL     1       4.798   1.555   5.675  1.00  0.00     0.029 A 
ATOM     19  N   UNL     1       6.073   0.341   7.052  1.00  0.00    -0.354 N 
ATOM     20  C   UNL     1       6.929  -3.812   6.204  1.00  0.00     0.074 A 
ATOM     21  C   UNL     1       6.308  -4.235   4.967  1.00  0.00     0.031 C 
ATOM     22  C   UNL     1       5.141   2.346   6.701  1.00  0.00     0.029 A 
ATOM     23  C   UNL     1       5.949   1.578   7.640  1.00  0.00     0.049 A 
ATOM     24  H   UNL     1       6.592  -0.396   7.449  1.00  0.00     0.167 HD
ATOM     25  C   UNL     1       7.675  -4.614   7.002  1.00  0.00     0.034 A 
ATOM     26  C   UNL     1       6.422   2.043   8.812  1.00  0.00     0.034 A 
ATOM     27  C   UNL     1       8.312  -4.178   8.217  1.00  0.00     0.049 A 
ATOM     28  C   UNL     1       7.263   1.136   9.663  1.00  0.00     0.074 A 
ATOM     29  C   UNL     1       9.124  -4.903   9.072  1.00  0.00     0.029 A 
ATOM     30  N   UNL     1       8.208  -2.903   8.754  1.00  0.00    -0.354 N 
ATOM     31  N   UNL     1       7.642  -0.097   9.427  1.00  0.00    -0.248 NA
ATOM     32  C   UNL     1       7.767   1.691  10.926  1.00  0.00     0.031 C 
ATOM     33  C   UNL     1       9.502  -4.070  10.131  1.00  0.00     0.029 A 
ATOM     34  C   UNL     1       8.938  -2.821   9.928  1.00  0.00     0.049 A 
ATOM     35  H   UNL     1       7.691  -2.165   8.358  1.00  0.00     0.167 HD
ATOM     36  C   UNL     1       8.447  -0.458  10.500  1.00  0.00     0.074 A 
ATOM     37  C   UNL     1       8.526   0.698  11.370  1.00  0.00     0.031 C 
ATOM     38  C   UNL     1       9.047  -1.646  10.755  1.00  0.00     0.034 A 
BRANCH  25  39
ATOM     39  C   UNL     1       7.891  -6.040   6.562  1.00  0.00     0.023 A 
ATOM     40  C   UNL     1       8.777  -6.306   5.499  1.00  0.00     0.012 A 
ATOM     41  C   UNL     1       7.284  -7.115   7.241  1.00  0.00     0.148 A 
ATOM     42  C   UNL     1       9.037  -7.618   5.101  1.00  0.00     0.002 A 
ATOM     43  C   UNL     1       7.577  -8.422   6.862  1.00  0.00     0.091 A 
ATOM     44  F   UNL     1       6.429  -6.843   8.236  1.00  0.00    -0.205 F 
ATOM     45  C   UNL     1       8.446  -8.674   5.788  1.00  0.00     0.022 A 
BRANCH  43  46
ATOM     46  S   UNL     1       6.923  -9.853   7.731  1.00  0.00     0.127 S 
ATOM     47  O   UNL     1       5.938 -10.353   6.773  1.00  0.00    -0.237 OA
ATOM     48  O   UNL     1       8.110 -10.695   7.879  1.00  0.00    -0.237 OA
ATOM     49  O   UNL     1       6.379  -9.346   8.983  1.00  0.00    -0.744 OA
ENDBRANCH  43  46
ENDBRANCH  25  39
BRANCH  26  50
ATOM     50  C   UNL     1       6.148   3.450   9.214  1.00  0.00     0.023 A 
ATOM     51  C   UNL     1       7.201   4.384   9.235  1.00  0.00     0.012 A 
ATOM     52  C   UNL     1       4.843   3.880   9.527  1.00  0.00     0.148 A 
ATOM     53  C   UNL     1       6.965   5.714   9.584  1.00  0.00     0.002 A 
ATOM     54  C   UNL     1       4.605   5.218   9.816  1.00  0.00     0.091 A 
ATOM     55  F   UNL     1       3.855   2.973   9.522  1.00  0.00    -0.205 F 
ATOM     56  C   UNL     1       5.667   6.134   9.861  1.00  0.00     0.022 A 
BRANCH  54  57
ATOM     57  S   UNL     1       2.941   5.859  10.034  1.00  0.00     0.127 S 
ATOM     58  O   UNL     1       2.850   5.967  11.487  1.00  0.00    -0.237 OA
ATOM     59  O   UNL     1       3.007   7.137   9.324  1.00  0.00    -0.237 OA
ATOM     60  O   UNL     1       2.067   4.876   9.408  1.00  0.00    -0.744 OA
ENDBRANCH  54  57
ENDBRANCH  26  50
BRANCH  38  61
ATOM     61  C   UNL     1       9.861  -1.750  12.017  1.00  0.00     0.023 A 
ATOM     62  C   UNL     1       9.206  -1.824  13.262  1.00  0.00     0.012 A 
ATOM     63  C   UNL     1      11.266  -1.827  11.967  1.00  0.00     0.148 A 
ATOM     64  C   UNL     1       9.939  -1.941  14.442  1.00  0.00     0.002 A 
ATOM     65  C   UNL     1      11.988  -1.988  13.143  1.00  0.00     0.091 A 
ATOM     66  F   UNL     1      11.871  -1.731  10.774  1.00  0.00    -0.205 F 
ATOM     67  C   UNL     1      11.327  -2.034  14.382  1.00  0.00     0.022 A 
BRANCH  65  68
ATOM     68  S   UNL     1      13.771  -2.204  13.151  1.00  0.00     0.127 S 
ATOM     69  O   UNL     1      14.229  -0.892  13.604  1.00  0.00    -0.237 OA
ATOM     70  O   UNL     1      13.952  -3.282  14.124  1.00  0.00    -0.237 OA
ATOM     71  O   UNL     1      14.134  -2.560  11.786  1.00  0.00    -0.744 OA
ENDBRANCH  65  68
ENDBRANCH  38  61
ENDBRANCH  12  13
ENDBRANCH   5   7
ENDBRANCH   2   3
ENDBRANCH   1   2
BRANCH   1  72
ATOM     72  C   UNL     1       4.039  -0.604  -3.795  1.00  0.00     0.002 C 
BRANCH  72  73
ATOM     73  C   UNL     1       4.620   0.715  -4.314  1.00  0.00     0.002 C 
BRANCH  73  74
ATOM     74  C   UNL     1       6.148   0.820  -4.290  1.00  0.00     0.021 C 
BRANCH  74  75
ATOM     75  C   UNL     1       6.873  -0.326  -4.986  1.00  0.00     0.116 C 
BRANCH  75  76
ATOM     76  N   UNL     1       6.678  -0.310  -6.423  1.00  0.00    -0.351 N 
ATOM     77  C   UNL     1       7.554  -0.194  -7.461  1.00  0.00     0.279 C 
ATOM     78  H   UNL     1       5.738  -0.399  -6.701  1.00  0.00     0.163 HD
ATOM     79  O   UNL     1       7.076  -0.153  -8.599  1.00  0.00    -0.268 OA
BRANCH  77  80
ATOM     80  C   UNL     1       9.074  -0.071  -7.249  1.00  0.00     0.284 C 
ATOM     81  C   UNL     1       9.451   1.311  -6.728  1.00  0.00     0.151 C 
ATOM     82  N   UNL     1       9.614  -1.198  -6.447  1.00  0.00    -0.319 N 
ATOM     83  S   UNL     1      10.269   1.041  -5.152  1.00  0.00    -0.085 SA
ATOM     84  C   UNL     1      10.640  -0.702  -5.518  1.00  0.00     0.303 C 
ATOM     85  H   UNL     1      10.028  -1.890  -7.072  1.00  0.00     0.348 HD
ATOM     86  H   UNL     1       8.856  -1.625  -5.915  1.00  0.00     0.348 HD
BRANCH  84  87
ATOM     87  C   UNL     1      12.077  -0.853  -5.987  1.00  0.00     0.163 A 
ATOM     88  N   UNL     1      13.111  -0.445  -5.276  1.00  0.00    -0.234 NA
ATOM     89  S   UNL     1      12.486  -1.607  -7.481  1.00  0.00    -0.112 S 
ATOM     90  C   UNL     1      14.289  -0.667  -5.959  1.00  0.00     0.082 A 
ATOM     91  C   UNL     1      14.151  -1.300  -7.193  1.00  0.00     0.055 A 
ATOM     92  C   UNL     1      15.576  -0.307  -5.516  1.00  0.00     0.030 A 
ATOM     93  C   UNL     1      15.259  -1.593  -8.003  1.00  0.00     0.021 A 
ATOM     94  C   UNL     1      16.686  -0.583  -6.319  1.00  0.00     0.002 A 
ATOM     95  C   UNL     1      16.527  -1.220  -7.546  1.00  0.00     0.002 A 
ENDBRANCH  84  87
ENDBRANCH  77  80
ENDBRANCH  75  76
ENDBRANCH  74  75
ENDBRANCH  73  74
ENDBRANCH  72  73
ENDBRANCH   1  72
TORSDOF 17
