REMARK SMILES Cc1cc(C(=O)N[C@H](CC(C)C)C(=O)NCCCCCCNC(=O)c2ccc(-c3c4nc(c(-c5cccc(S(=O)(=O)[O-])c5F)c5ccc([nH]5)c(-c5cccc(S(=O)(=O)[O-])c5F)c5nc(c(-c6cccc(S(=O)(=O)[O-])c6F)c6ccc3[nH]6)C=C5)C=C4)cc2)sc1Br
REMARK SMILES IDX 19 1 18 2 17 3 16 4 15 5 13 6 14 7 8 9 7 10 5 11 6 12 4 14
REMARK SMILES IDX 1 15 2 16 3 17 89 18 88 19 90 20 9 21 10 22 11 23 12 24
REMARK SMILES IDX 20 25 21 26 22 27 23 28 24 30 25 31 26 32 87 33 27 34 86 35
REMARK SMILES IDX 28 36 29 37 30 38 80 39 31 40 85 41 79 42 81 43 32 44 84 45
REMARK SMILES IDX 78 46 77 47 33 49 65 50 45 51 64 52 46 53 49 54 63 55 82 56
REMARK SMILES IDX 47 57 48 58 62 60 83 61 50 62 34 63 35 64 43 65 36 66 38 67
REMARK SMILES IDX 44 68 37 69 39 70 40 71 41 72 42 73 66 74 67 75 75 76 68 77
REMARK SMILES IDX 70 78 76 79 69 80 71 81 72 82 73 83 74 84 51 85 52 86 60 87
REMARK SMILES IDX 53 88 55 89 61 90 54 91 56 92 57 93 58 94 59 95
REMARK H PARENT 15 8 7 13 22 29 81 48 49 59
REMARK Flexibility Score: inf
ROOT
ATOM      1  C   UNL     1      -7.408   2.149   6.624  1.00  0.00     0.002 C 
ENDROOT
BRANCH   1   2
ATOM      2  C   UNL     1      -6.923   3.146   5.560  1.00  0.00     0.002 C 
BRANCH   2   3
ATOM      3  C   UNL     1      -5.429   3.485   5.583  1.00  0.00     0.021 C 
BRANCH   3   4
ATOM      4  C   UNL     1      -4.517   2.262   5.549  1.00  0.00     0.116 C 
BRANCH   4   5
ATOM      5  N   UNL     1      -4.627   1.572   4.276  1.00  0.00    -0.354 N 
ATOM      6  C   UNL     1      -3.673   1.204   3.373  1.00  0.00     0.242 C 
ATOM      7  O   UNL     1      -4.048   0.644   2.338  1.00  0.00    -0.273 OA
ATOM      8  H   UNL     1      -5.547   1.328   4.021  1.00  0.00     0.163 HD
BRANCH   6   9
ATOM      9  C   UNL     1      -2.174   1.341   3.698  1.00  0.00     0.171 C 
BRANCH   9  10
ATOM     10  N   UNL     1      -1.959   0.427   4.825  1.00  0.00    -0.340 N 
ATOM     11  C   UNL     1      -1.489  -0.862   4.885  1.00  0.00     0.262 C 
ATOM     12  O   UNL     1      -1.560  -1.394   5.997  1.00  0.00    -0.268 OA
ATOM     13  H   UNL     1      -2.196   0.809   5.701  1.00  0.00     0.164 HD
BRANCH  11  14
ATOM     14  C   UNL     1      -0.880  -1.514   3.731  1.00  0.00     0.093 A 
ATOM     15  C   UNL     1       0.029  -1.932   0.096  1.00  0.00     0.046 C 
ATOM     16  C   UNL     1      -0.095  -2.084   1.576  1.00  0.00    -0.025 A 
ATOM     17  C   UNL     1      -1.070  -1.383   2.366  1.00  0.00     0.030 A 
ATOM     18  C   UNL     1       0.667  -2.890   2.391  1.00  0.00     0.074 A 
ATOM     19  S   UNL     1       0.316  -2.718   4.037  1.00  0.00    -0.123 S 
ATOM     20  Br  UNL     1       1.985  -4.080   1.779  1.00  0.00    -0.039 Br
ENDBRANCH  11  14
ENDBRANCH   9  10
BRANCH   9  21
ATOM     21  C   UNL     1      -1.651   2.774   3.890  1.00  0.00     0.038 C 
BRANCH  21  22
ATOM     22  C   UNL     1      -0.381   2.879   4.759  1.00  0.00    -0.015 C 
ATOM     23  C   UNL     1       0.788   2.047   4.225  1.00  0.00     0.007 C 
ATOM     24  C   UNL     1       0.060   4.339   4.884  1.00  0.00     0.007 C 
ENDBRANCH  21  22
ENDBRANCH   9  21
ENDBRANCH   6   9
ENDBRANCH   4   5
ENDBRANCH   3   4
ENDBRANCH   2   3
ENDBRANCH   1   2
BRANCH   1  25
ATOM     25  C   UNL     1      -7.027   2.444   8.083  1.00  0.00     0.021 C 
BRANCH  25  26
ATOM     26  C   UNL     1      -7.601   3.738   8.639  1.00  0.00     0.116 C 
BRANCH  26  27
ATOM     27  N   UNL     1      -9.068   3.731   8.688  1.00  0.00    -0.352 N 
ATOM     28  C   UNL     1      -9.938   4.787   8.918  1.00  0.00     0.251 C 
ATOM     29  H   UNL     1      -9.493   2.856   8.535  1.00  0.00     0.163 HD
ATOM     30  O   UNL     1     -11.079   4.590   9.297  1.00  0.00    -0.269 OA
BRANCH  28  31
ATOM     31  C   UNL     1      -9.451   6.156   8.672  1.00  0.00     0.039 A 
ATOM     32  C   UNL     1      -9.796   7.242   9.481  1.00  0.00     0.014 A 
ATOM     33  C   UNL     1      -8.586   6.318   7.601  1.00  0.00     0.014 A 
ATOM     34  C   UNL     1      -9.198   8.476   9.226  1.00  0.00     0.010 A 
ATOM     35  C   UNL     1      -7.817   7.438   7.523  1.00  0.00     0.010 A 
ATOM     36  C   UNL     1      -8.201   8.556   8.244  1.00  0.00    -0.014 A 
BRANCH  36  37
ATOM     37  C   UNL     1      -7.476   9.782   7.955  1.00  0.00     0.031 A 
ATOM     38  C   UNL     1      -6.743  10.349   9.112  1.00  0.00     0.074 A 
ATOM     39  C   UNL     1      -7.273  10.202   6.686  1.00  0.00     0.049 A 
ATOM     40  N   UNL     1      -7.023  11.428   9.763  1.00  0.00    -0.248 NA
ATOM     41  C   UNL     1      -5.670   9.546   9.719  1.00  0.00     0.031 C 
ATOM     42  C   UNL     1      -7.647   9.526   5.431  1.00  0.00     0.029 A 
ATOM     43  N   UNL     1      -6.529  11.247   6.242  1.00  0.00    -0.354 N 
ATOM     44  C   UNL     1      -5.996  11.573  10.690  1.00  0.00     0.074 A 
ATOM     45  C   UNL     1      -5.356  10.288  10.782  1.00  0.00     0.031 C 
ATOM     46  C   UNL     1      -6.905  10.017   4.415  1.00  0.00     0.029 A 
ATOM     47  C   UNL     1      -6.156  11.155   4.904  1.00  0.00     0.049 A 
ATOM     48  H   UNL     1      -6.276  12.005   6.817  1.00  0.00     0.167 HD
ATOM     49  C   UNL     1      -5.573  12.808  11.081  1.00  0.00     0.034 A 
ATOM     50  C   UNL     1      -5.252  11.934   4.264  1.00  0.00     0.034 A 
ATOM     51  C   UNL     1      -6.497  13.835  10.661  1.00  0.00     0.049 A 
ATOM     52  C   UNL     1      -5.114  13.174   5.063  1.00  0.00     0.074 A 
ATOM     53  C   UNL     1      -7.843  14.077  10.850  1.00  0.00     0.029 A 
ATOM     54  N   UNL     1      -6.129  14.587   9.570  1.00  0.00    -0.354 N 
ATOM     55  N   UNL     1      -6.084  14.031   5.231  1.00  0.00    -0.248 NA
ATOM     56  C   UNL     1      -4.049  13.231   6.050  1.00  0.00     0.031 C 
ATOM     57  C   UNL     1      -8.307  14.560   9.590  1.00  0.00     0.029 A 
ATOM     58  C   UNL     1      -7.210  14.658   8.731  1.00  0.00     0.049 A 
ATOM     59  H   UNL     1      -5.248  15.000   9.419  1.00  0.00     0.167 HD
ATOM     60  C   UNL     1      -5.994  14.392   6.570  1.00  0.00     0.074 A 
ATOM     61  C   UNL     1      -4.659  13.963   6.987  1.00  0.00     0.031 C 
ATOM     62  C   UNL     1      -7.108  14.726   7.288  1.00  0.00     0.034 A 
BRANCH  49  63
ATOM     63  C   UNL     1      -4.158  13.158  11.488  1.00  0.00     0.023 A 
ATOM     64  C   UNL     1      -3.946  14.451  12.019  1.00  0.00     0.012 A 
ATOM     65  C   UNL     1      -3.008  12.418  11.131  1.00  0.00     0.148 A 
ATOM     66  C   UNL     1      -2.664  14.999  12.130  1.00  0.00     0.002 A 
ATOM     67  C   UNL     1      -1.731  12.935  11.322  1.00  0.00     0.091 A 
ATOM     68  F   UNL     1      -3.126  11.263  10.472  1.00  0.00    -0.205 F 
ATOM     69  C   UNL     1      -1.554  14.239  11.789  1.00  0.00     0.022 A 
BRANCH  67  70
ATOM     70  S   UNL     1      -0.263  11.971  10.941  1.00  0.00     0.127 S 
ATOM     71  O   UNL     1       0.184  12.599   9.702  1.00  0.00    -0.237 OA
ATOM     72  O   UNL     1       0.578  12.233  12.110  1.00  0.00    -0.237 OA
ATOM     73  O   UNL     1      -0.721  10.591  10.835  1.00  0.00    -0.744 OA
ENDBRANCH  67  70
ENDBRANCH  49  63
BRANCH  50  74
ATOM     74  C   UNL     1      -4.317  11.586   3.170  1.00  0.00     0.023 A 
ATOM     75  C   UNL     1      -3.754  12.609   2.382  1.00  0.00     0.012 A 
ATOM     76  C   UNL     1      -3.760  10.290   3.079  1.00  0.00     0.148 A 
ATOM     77  C   UNL     1      -2.649  12.358   1.558  1.00  0.00     0.002 A 
ATOM     78  C   UNL     1      -2.664  10.044   2.256  1.00  0.00     0.091 A 
ATOM     79  F   UNL     1      -4.245   9.322   3.868  1.00  0.00    -0.205 F 
ATOM     80  C   UNL     1      -2.098  11.080   1.503  1.00  0.00     0.022 A 
BRANCH  78  81
ATOM     81  S   UNL     1      -1.884   8.425   2.156  1.00  0.00     0.127 S 
ATOM     82  O   UNL     1      -1.791   8.220   0.710  1.00  0.00    -0.237 OA
ATOM     83  O   UNL     1      -0.607   8.661   2.824  1.00  0.00    -0.237 OA
ATOM     84  O   UNL     1      -2.785   7.500   2.833  1.00  0.00    -0.744 OA
ENDBRANCH  78  81
ENDBRANCH  50  74
BRANCH  62  85
ATOM     85  C   UNL     1      -8.404  14.933   6.541  1.00  0.00     0.023 A 
ATOM     86  C   UNL     1      -9.045  13.895   5.830  1.00  0.00     0.012 A 
ATOM     87  C   UNL     1      -9.083  16.151   6.714  1.00  0.00     0.148 A 
ATOM     88  C   UNL     1     -10.320  14.076   5.287  1.00  0.00     0.002 A 
ATOM     89  C   UNL     1     -10.369  16.312   6.212  1.00  0.00     0.091 A 
ATOM     90  F   UNL     1      -8.466  17.126   7.398  1.00  0.00    -0.205 F 
ATOM     91  C   UNL     1     -10.988  15.280   5.489  1.00  0.00     0.022 A 
BRANCH  89  92
ATOM     92  S   UNL     1     -11.327  17.790   6.548  1.00  0.00     0.127 S 
ATOM     93  O   UNL     1     -11.285  18.480   5.260  1.00  0.00    -0.237 OA
ATOM     94  O   UNL     1     -12.637  17.242   6.906  1.00  0.00    -0.237 OA
ATOM     95  O   UNL     1     -10.647  18.468   7.645  1.00  0.00    -0.744 OA
ENDBRANCH  89  92
ENDBRANCH  62  85
ENDBRANCH  36  37
ENDBRANCH  28  31
ENDBRANCH  26  27
ENDBRANCH  25  26
ENDBRANCH   1  25
TORSDOF 20
