REMARK SMILES C[C@]1(CCC(=O)NCCCCCCNC(=O)c2ccc(-c3c4nc(c(-c5cccc(S(=O)(=O)[O-])c5F)c5ccc([nH]5)c(-c5cccc(S(=O)(=O)[O-])c5F)c5nc(c(-c6cccc(S(=O)(=O)[O-])c6F)c6ccc3[nH]6)C=C5)C=C4)cc2)CCCCC1=O
REMARK SMILES IDX 11 1 10 2 9 3 8 4 7 5 5 6 6 7 4 9 3 10 2 11 1 12 80 13 84 14
REMARK SMILES IDX 81 15 83 16 85 17 82 18 12 19 13 20 14 21 15 22 16 24 17 25
REMARK SMILES IDX 18 26 79 27 19 28 78 29 20 30 21 31 22 32 72 33 23 34 77 35
REMARK SMILES IDX 71 36 73 37 24 38 76 39 70 40 69 41 25 43 57 44 37 45 56 46
REMARK SMILES IDX 38 47 41 48 55 49 74 50 39 51 40 52 54 54 75 55 42 56 26 57
REMARK SMILES IDX 27 58 35 59 28 60 30 61 36 62 29 63 31 64 32 65 33 66 34 67
REMARK SMILES IDX 58 68 59 69 67 70 60 71 62 72 68 73 61 74 63 75 64 76 65 77
REMARK SMILES IDX 66 78 43 79 44 80 52 81 45 82 47 83 53 84 46 85 48 86 49 87
REMARK SMILES IDX 50 88 51 89
REMARK H PARENT 7 8 14 23 73 42 41 53
REMARK Flexibility Score: inf
ROOT
ATOM      1  C   UNL     1      -3.787  -1.034   3.780  1.00  0.00     0.002 C 
ENDROOT
BRANCH   1   2
ATOM      2  C   UNL     1      -3.294   0.350   3.340  1.00  0.00     0.002 C 
BRANCH   2   3
ATOM      3  C   UNL     1      -1.817   0.473   2.893  1.00  0.00     0.021 C 
BRANCH   3   4
ATOM      4  C   UNL     1      -1.268  -0.528   1.718  1.00  0.00     0.116 C 
BRANCH   4   5
ATOM      5  N   UNL     1      -0.950  -0.322  -0.234  1.00  0.00    -0.356 N 
ATOM      6  C   UNL     1      -0.210  -0.341  -1.414  1.00  0.00     0.220 C 
ATOM      7  O   UNL     1      -0.862  -0.124  -2.442  1.00  0.00    -0.275 OA
ATOM      8  H   UNL     1      -1.837  -0.042  -0.556  1.00  0.00     0.163 HD
BRANCH   6   9
ATOM      9  C   UNL     1       1.242  -0.644  -1.498  1.00  0.00     0.101 C 
BRANCH   9  10
ATOM     10  C   UNL     1       1.874  -0.097  -0.265  1.00  0.00     0.024 C 
BRANCH  10  11
ATOM     11  C   UNL     1       0.842  -0.230   0.874  1.00  0.00     0.027 C 
ATOM     12  C   UNL     1       1.720  -0.121   2.153  1.00  0.00     0.019 C 
ATOM     13  C   UNL     1      -0.287   1.338   0.793  1.00  0.00     0.014 C 
ATOM     14  C   UNL     1       0.034  -1.987   0.614  1.00  0.00     0.138 C 
ATOM     15  C   UNL     1      -2.197   1.179   0.457  1.00  0.00     0.001 C 
ATOM     16  C   UNL     1      -1.837  -2.133   0.152  1.00  0.00     0.076 C 
ATOM     17  O   UNL     1       0.723  -3.005   0.721  1.00  0.00    -0.299 OA
ATOM     18  C   UNL     1      -3.007  -0.586   0.270  1.00  0.00     0.008 C 
ENDBRANCH  10  11
ENDBRANCH   9  10
ENDBRANCH   6   9
ENDBRANCH   4   5
ENDBRANCH   3   4
ENDBRANCH   2   3
ENDBRANCH   1   2
BRANCH   1  19
ATOM     19  C   UNL     1      -3.037  -1.661   4.950  1.00  0.00     0.021 C 
BRANCH  19  20
ATOM     20  C   UNL     1      -2.894  -0.767   6.172  1.00  0.00     0.116 C 
BRANCH  20  21
ATOM     21  N   UNL     1      -4.161  -0.209   6.627  1.00  0.00    -0.352 N 
ATOM     22  C   UNL     1      -4.631  -0.085   7.912  1.00  0.00     0.251 C 
ATOM     23  H   UNL     1      -4.760   0.123   5.919  1.00  0.00     0.163 HD
ATOM     24  O   UNL     1      -5.762   0.328   8.128  1.00  0.00    -0.269 OA
BRANCH  22  25
ATOM     25  C   UNL     1      -3.753  -0.498   9.023  1.00  0.00     0.039 A 
ATOM     26  C   UNL     1      -4.236  -1.414   9.958  1.00  0.00     0.014 A 
ATOM     27  C   UNL     1      -2.436  -0.036   9.085  1.00  0.00     0.014 A 
ATOM     28  C   UNL     1      -3.371  -1.918  10.928  1.00  0.00     0.010 A 
ATOM     29  C   UNL     1      -1.557  -0.602   9.997  1.00  0.00     0.010 A 
ATOM     30  C   UNL     1      -2.018  -1.540  10.934  1.00  0.00    -0.014 A 
BRANCH  30  31
ATOM     31  C   UNL     1      -1.068  -2.105  11.921  1.00  0.00     0.031 A 
ATOM     32  C   UNL     1      -0.401  -1.197  12.917  1.00  0.00     0.074 A 
ATOM     33  C   UNL     1      -0.745  -3.412  11.865  1.00  0.00     0.049 A 
ATOM     34  N   UNL     1       0.491  -1.486  13.826  1.00  0.00    -0.248 NA
ATOM     35  C   UNL     1      -0.756   0.232  12.860  1.00  0.00     0.031 C 
ATOM     36  C   UNL     1      -1.259  -4.370  10.883  1.00  0.00     0.029 A 
ATOM     37  N   UNL     1       0.111  -4.155  12.637  1.00  0.00    -0.354 N 
ATOM     38  C   UNL     1       0.831  -0.277  14.421  1.00  0.00     0.074 A 
ATOM     39  C   UNL     1       0.082   0.756  13.741  1.00  0.00     0.031 C 
ATOM     40  C   UNL     1      -0.714  -5.575  11.118  1.00  0.00     0.029 A 
ATOM     41  C   UNL     1       0.202  -5.472  12.250  1.00  0.00     0.049 A 
ATOM     42  H   UNL     1       0.613  -3.781  13.396  1.00  0.00     0.167 HD
ATOM     43  C   UNL     1       1.663  -0.050  15.464  1.00  0.00     0.034 A 
ATOM     44  C   UNL     1       0.939  -6.480  12.754  1.00  0.00     0.034 A 
ATOM     45  C   UNL     1       2.356  -1.090  16.172  1.00  0.00     0.049 A 
ATOM     46  C   UNL     1       1.803  -6.215  13.958  1.00  0.00     0.074 A 
ATOM     47  C   UNL     1       3.145  -0.983  17.303  1.00  0.00     0.029 A 
ATOM     48  N   UNL     1       2.343  -2.430  15.817  1.00  0.00    -0.354 N 
ATOM     49  N   UNL     1       1.982  -5.093  14.613  1.00  0.00    -0.248 NA
ATOM     50  C   UNL     1       2.535  -7.360  14.517  1.00  0.00     0.031 C 
ATOM     51  C   UNL     1       3.620  -2.259  17.624  1.00  0.00     0.029 A 
ATOM     52  C   UNL     1       3.112  -3.162  16.704  1.00  0.00     0.049 A 
ATOM     53  H   UNL     1       1.857  -2.806  15.047  1.00  0.00     0.167 HD
ATOM     54  C   UNL     1       2.817  -5.403  15.680  1.00  0.00     0.074 A 
ATOM     55  C   UNL     1       3.090  -6.823  15.595  1.00  0.00     0.031 C 
ATOM     56  C   UNL     1       3.325  -4.585  16.635  1.00  0.00     0.034 A 
BRANCH  43  57
ATOM     57  C   UNL     1       1.813   1.370  15.940  1.00  0.00     0.023 A 
ATOM     58  C   UNL     1       0.740   1.995  16.608  1.00  0.00     0.012 A 
ATOM     59  C   UNL     1       3.022   2.072  15.768  1.00  0.00     0.148 A 
ATOM     60  C   UNL     1       0.852   3.307  17.064  1.00  0.00     0.002 A 
ATOM     61  C   UNL     1       3.142   3.364  16.266  1.00  0.00     0.091 A 
ATOM     62  F   UNL     1       4.023   1.471  15.109  1.00  0.00    -0.205 F 
ATOM     63  C   UNL     1       2.056   3.987  16.903  1.00  0.00     0.022 A 
BRANCH  61  64
ATOM     64  S   UNL     1       4.675   4.297  16.176  1.00  0.00     0.127 S 
ATOM     65  O   UNL     1       4.349   5.303  15.166  1.00  0.00    -0.237 OA
ATOM     66  O   UNL     1       4.798   4.819  17.538  1.00  0.00    -0.237 OA
ATOM     67  O   UNL     1       5.705   3.341  15.797  1.00  0.00    -0.744 OA
ENDBRANCH  61  64
ENDBRANCH  43  57
BRANCH  44  68
ATOM     68  C   UNL     1       0.824  -7.849  12.176  1.00  0.00     0.023 A 
ATOM     69  C   UNL     1       0.177  -8.858  12.916  1.00  0.00     0.012 A 
ATOM     70  C   UNL     1       1.319  -8.150  10.892  1.00  0.00     0.148 A 
ATOM     71  C   UNL     1       0.051 -10.149  12.402  1.00  0.00     0.002 A 
ATOM     72  C   UNL     1       1.143  -9.424  10.364  1.00  0.00     0.091 A 
ATOM     73  F   UNL     1       1.942  -7.180  10.208  1.00  0.00    -0.205 F 
ATOM     74  C   UNL     1       0.524 -10.430  11.123  1.00  0.00     0.022 A 
BRANCH  72  75
ATOM     75  S   UNL     1       1.603  -9.837   8.677  1.00  0.00     0.127 S 
ATOM     76  O   UNL     1       2.780 -10.677   8.886  1.00  0.00    -0.237 OA
ATOM     77  O   UNL     1       0.414 -10.548   8.204  1.00  0.00    -0.237 OA
ATOM     78  O   UNL     1       1.841  -8.562   8.015  1.00  0.00    -0.744 OA
ENDBRANCH  72  75
ENDBRANCH  44  68
BRANCH  56  79
ATOM     79  C   UNL     1       4.204  -5.204  17.688  1.00  0.00     0.023 A 
ATOM     80  C   UNL     1       5.514  -5.602  17.358  1.00  0.00     0.012 A 
ATOM     81  C   UNL     1       3.761  -5.311  19.021  1.00  0.00     0.148 A 
ATOM     82  C   UNL     1       6.361  -6.126  18.334  1.00  0.00     0.002 A 
ATOM     83  C   UNL     1       4.627  -5.788  19.997  1.00  0.00     0.091 A 
ATOM     84  F   UNL     1       2.504  -4.943  19.309  1.00  0.00    -0.205 F 
ATOM     85  C   UNL     1       5.923  -6.206  19.654  1.00  0.00     0.022 A 
BRANCH  83  86
ATOM     86  S   UNL     1       4.180  -5.833  21.736  1.00  0.00     0.127 S 
ATOM     87  O   UNL     1       3.957  -7.262  21.949  1.00  0.00    -0.237 OA
ATOM     88  O   UNL     1       5.381  -5.300  22.381  1.00  0.00    -0.237 OA
ATOM     89  O   UNL     1       3.001  -4.988  21.868  1.00  0.00    -0.744 OA
ENDBRANCH  83  86
ENDBRANCH  56  79
ENDBRANCH  30  31
ENDBRANCH  22  25
ENDBRANCH  20  21
ENDBRANCH  19  20
ENDBRANCH   1  19
TORSDOF 18
