REMARK SMILES CC1(C)S[C@H](c2ccc(-c3cccc([N+](=O)[O-])c3)o2)[NH2+][C@@H]1C(=O)NCCCCCCNC(=O)c1ccc(-c2c3nc(c(-c4cccc(S(=O)(=O)[O-])c4F)c4ccc([nH]4)c(-c4cccc(S(=O)(=O)[O-])c4F)c4nc(c(-c5cccc(S(=O)(=O)[O-])c5F)c5ccc2[nH]5)C=C4)C=C3)cc1
REMARK SMILES IDX 27 1 26 2 25 3 24 4 22 5 23 6 21 8 1 9 2 10 3 11 4 12 5 13
REMARK SMILES IDX 20 14 6 17 7 18 19 19 8 20 9 21 10 22 11 23 18 24 12 25
REMARK SMILES IDX 14 26 13 27 15 28 16 29 17 30 28 31 29 32 30 33 31 34 32 35
REMARK SMILES IDX 33 37 34 38 35 39 96 40 36 41 95 42 37 43 38 44 39 45 89 46
REMARK SMILES IDX 40 47 94 48 88 49 90 50 41 51 93 52 87 53 86 54 42 56 74 57
REMARK SMILES IDX 54 58 73 59 55 60 58 61 72 62 91 63 56 64 57 65 71 67 92 68
REMARK SMILES IDX 59 69 43 70 44 71 52 72 45 73 47 74 53 75 46 76 48 77 49 78
REMARK SMILES IDX 50 79 51 80 75 81 76 82 84 83 77 84 79 85 85 86 78 87 80 88
REMARK SMILES IDX 81 89 82 90 83 91 60 92 61 93 69 94 62 95 64 96 70 97 63 98
REMARK SMILES IDX 65 99 66 100 67 101 68 102
REMARK H PARENT 24 7 20 15 20 16 31 36 90 55 58 66
REMARK Flexibility Score: inf
ROOT
ATOM      1  C   UNL     1      -3.340   3.993  -3.877  1.00  0.00     0.002 C 
ENDROOT
BRANCH   1   2
ATOM      2  C   UNL     1      -2.823   4.204  -2.454  1.00  0.00     0.021 C 
BRANCH   2   3
ATOM      3  C   UNL     1      -2.239   2.958  -1.792  1.00  0.00     0.116 C 
BRANCH   3   4
ATOM      4  N   UNL     1      -1.177   2.342  -2.570  1.00  0.00    -0.351 N 
ATOM      5  C   UNL     1      -0.282   1.387  -2.154  1.00  0.00     0.279 C 
ATOM      6  O   UNL     1       0.462   0.901  -3.005  1.00  0.00    -0.268 OA
ATOM      7  H   UNL     1      -1.089   2.644  -3.503  1.00  0.00     0.163 HD
BRANCH   5   8
ATOM      8  C   UNL     1      -0.190   1.084  -0.638  1.00  0.00     0.289 C 
ATOM      9  C   UNL     1       1.237   0.365   1.324  1.00  0.00     0.030 C 
ATOM     10  C   UNL     1       0.854   0.055  -0.140  1.00  0.00     0.078 C 
ATOM     11  C   UNL     1       2.146  -0.083  -0.946  1.00  0.00     0.030 C 
ATOM     12  S   UNL     1      -0.043  -1.534  -0.170  1.00  0.00    -0.078 SA
ATOM     13  C   UNL     1      -1.677  -0.767  -0.256  1.00  0.00     0.311 C 
ATOM     14  N   UNL     1      -1.529   0.683  -0.107  1.00  0.00    -0.317 N 
ATOM     15  H   UNL     1      -1.597   0.936   0.878  1.00  0.00     0.348 HD
ATOM     16  H   UNL     1      -2.266   1.163  -0.624  1.00  0.00     0.348 HD
BRANCH  13  17
ATOM     17  C   UNL     1      -2.478  -1.254  -1.429  1.00  0.00     0.172 A 
ATOM     18  C   UNL     1      -3.231  -2.407  -1.563  1.00  0.00     0.054 A 
ATOM     19  O   UNL     1      -2.580  -0.512  -2.583  1.00  0.00    -0.454 OA
ATOM     20  C   UNL     1      -3.841  -2.360  -2.833  1.00  0.00     0.051 A 
ATOM     21  C   UNL     1      -3.427  -1.186  -3.426  1.00  0.00     0.134 A 
BRANCH  21  22
ATOM     22  C   UNL     1      -3.800  -0.542  -4.681  1.00  0.00     0.024 A 
ATOM     23  C   UNL     1      -2.848   0.035  -5.534  1.00  0.00     0.012 A 
ATOM     24  C   UNL     1      -5.159  -0.468  -5.033  1.00  0.00     0.097 A 
ATOM     25  C   UNL     1      -3.243   0.678  -6.717  1.00  0.00     0.008 A 
ATOM     26  C   UNL     1      -5.550   0.198  -6.204  1.00  0.00     0.270 A 
ATOM     27  C   UNL     1      -4.596   0.764  -7.057  1.00  0.00     0.085 A 
BRANCH  26  28
ATOM     28  N   UNL     1      -6.978   0.343  -6.511  1.00  0.00     0.062 N 
ATOM     29  O   UNL     1      -7.284   0.664  -7.667  1.00  0.00    -0.258 OA
ATOM     30  O   UNL     1      -7.786   0.117  -5.600  1.00  0.00    -0.258 OA
ENDBRANCH  26  28
ENDBRANCH  21  22
ENDBRANCH  13  17
ENDBRANCH   5   8
ENDBRANCH   3   4
ENDBRANCH   2   3
ENDBRANCH   1   2
BRANCH   1  31
ATOM     31  C   UNL     1      -4.301   2.821  -4.030  1.00  0.00     0.002 C 
BRANCH  31  32
ATOM     32  C   UNL     1      -5.634   2.922  -3.305  1.00  0.00     0.021 C 
BRANCH  32  33
ATOM     33  C   UNL     1      -6.461   4.125  -3.713  1.00  0.00     0.116 C 
BRANCH  33  34
ATOM     34  N   UNL     1      -6.720   4.189  -5.145  1.00  0.00    -0.352 N 
ATOM     35  C   UNL     1      -7.861   4.596  -5.796  1.00  0.00     0.251 C 
ATOM     36  H   UNL     1      -5.978   3.902  -5.725  1.00  0.00     0.163 HD
ATOM     37  O   UNL     1      -7.941   4.501  -7.013  1.00  0.00    -0.269 OA
BRANCH  35  38
ATOM     38  C   UNL     1      -8.984   5.139  -5.004  1.00  0.00     0.039 A 
ATOM     39  C   UNL     1     -10.288   4.742  -5.302  1.00  0.00     0.014 A 
ATOM     40  C   UNL     1      -8.741   6.023  -3.950  1.00  0.00     0.014 A 
ATOM     41  C   UNL     1     -11.342   5.209  -4.515  1.00  0.00     0.010 A 
ATOM     42  C   UNL     1      -9.771   6.382  -3.096  1.00  0.00     0.010 A 
ATOM     43  C   UNL     1     -11.090   6.017  -3.393  1.00  0.00    -0.014 A 
BRANCH  43  44
ATOM     44  C   UNL     1     -12.192   6.536  -2.548  1.00  0.00     0.031 A 
ATOM     45  C   UNL     1     -12.386   8.025  -2.401  1.00  0.00     0.074 A 
ATOM     46  C   UNL     1     -12.972   5.678  -1.862  1.00  0.00     0.049 A 
ATOM     47  N   UNL     1     -13.276   8.675  -1.698  1.00  0.00    -0.248 NA
ATOM     48  C   UNL     1     -11.432   8.901  -3.104  1.00  0.00     0.031 C 
ATOM     49  C   UNL     1     -12.818   4.222  -1.842  1.00  0.00     0.029 A 
ATOM     50  N   UNL     1     -14.041   5.910  -1.035  1.00  0.00    -0.354 N 
ATOM     51  C   UNL     1     -12.965  10.022  -1.843  1.00  0.00     0.074 A 
ATOM     52  C   UNL     1     -11.770  10.097  -2.651  1.00  0.00     0.031 C 
ATOM     53  C   UNL     1     -13.774   3.689  -1.063  1.00  0.00     0.029 A 
ATOM     54  C   UNL     1     -14.589   4.764  -0.508  1.00  0.00     0.049 A 
ATOM     55  H   UNL     1     -14.384   6.811  -0.838  1.00  0.00     0.167 HD
ATOM     56  C   UNL     1     -13.635  11.104  -1.383  1.00  0.00     0.034 A 
ATOM     57  C   UNL     1     -15.635   4.602   0.324  1.00  0.00     0.034 A 
ATOM     58  C   UNL     1     -14.854  11.024  -0.628  1.00  0.00     0.049 A 
ATOM     59  C   UNL     1     -16.404   5.818   0.766  1.00  0.00     0.074 A 
ATOM     60  C   UNL     1     -15.669  12.054  -0.195  1.00  0.00     0.029 A 
ATOM     61  N   UNL     1     -15.432   9.843  -0.189  1.00  0.00    -0.354 N 
ATOM     62  N   UNL     1     -16.192   7.080   0.480  1.00  0.00    -0.248 NA
ATOM     63  C   UNL     1     -17.583   5.583   1.611  1.00  0.00     0.031 C 
ATOM     64  C   UNL     1     -16.725  11.496   0.533  1.00  0.00     0.029 A 
ATOM     65  C   UNL     1     -16.588  10.117   0.521  1.00  0.00     0.049 A 
ATOM     66  H   UNL     1     -15.073   8.942  -0.357  1.00  0.00     0.167 HD
ATOM     67  C   UNL     1     -17.228   7.787   1.080  1.00  0.00     0.074 A 
ATOM     68  C   UNL     1     -18.082   6.806   1.719  1.00  0.00     0.031 C 
ATOM     69  C   UNL     1     -17.447   9.125   1.115  1.00  0.00     0.034 A 
BRANCH  56  70
ATOM     70  C   UNL     1     -13.090  12.466  -1.734  1.00  0.00     0.023 A 
ATOM     71  C   UNL     1     -13.135  12.915  -3.071  1.00  0.00     0.012 A 
ATOM     72  C   UNL     1     -12.572  13.317  -0.739  1.00  0.00     0.148 A 
ATOM     73  C   UNL     1     -12.633  14.168  -3.419  1.00  0.00     0.002 A 
ATOM     74  C   UNL     1     -12.121  14.586  -1.086  1.00  0.00     0.091 A 
ATOM     75  F   UNL     1     -12.515  12.867   0.522  1.00  0.00    -0.205 F 
ATOM     76  C   UNL     1     -12.138  15.007  -2.426  1.00  0.00     0.022 A 
BRANCH  74  77
ATOM     77  S   UNL     1     -11.540  15.774   0.129  1.00  0.00     0.127 S 
ATOM     78  O   UNL     1     -10.115  15.850  -0.190  1.00  0.00    -0.237 OA
ATOM     79  O   UNL     1     -12.307  16.970  -0.222  1.00  0.00    -0.237 OA
ATOM     80  O   UNL     1     -11.858  15.208   1.432  1.00  0.00    -0.744 OA
ENDBRANCH  74  77
ENDBRANCH  56  70
BRANCH  57  81
ATOM     81  C   UNL     1     -16.062   3.233   0.730  1.00  0.00     0.023 A 
ATOM     82  C   UNL     1     -17.278   2.713   0.244  1.00  0.00     0.012 A 
ATOM     83  C   UNL     1     -15.265   2.438   1.575  1.00  0.00     0.148 A 
ATOM     84  C   UNL     1     -17.711   1.442   0.625  1.00  0.00     0.002 A 
ATOM     85  C   UNL     1     -15.675   1.151   1.905  1.00  0.00     0.091 A 
ATOM     86  F   UNL     1     -14.115   2.954   2.032  1.00  0.00    -0.205 F 
ATOM     87  C   UNL     1     -16.906   0.658   1.447  1.00  0.00     0.022 A 
BRANCH  85  88
ATOM     88  S   UNL     1     -14.646   0.026   2.853  1.00  0.00     0.127 S 
ATOM     89  O   UNL     1     -15.384  -0.068   4.110  1.00  0.00    -0.237 OA
ATOM     90  O   UNL     1     -14.679  -1.182   2.027  1.00  0.00    -0.237 OA
ATOM     91  O   UNL     1     -13.338   0.661   2.936  1.00  0.00    -0.744 OA
ENDBRANCH  85  88
ENDBRANCH  57  81
BRANCH  69  92
ATOM     92  C   UNL     1     -18.674   9.607   1.844  1.00  0.00     0.023 A 
ATOM     93  C   UNL     1     -18.741   9.512   3.249  1.00  0.00     0.012 A 
ATOM     94  C   UNL     1     -19.741  10.197   1.139  1.00  0.00     0.148 A 
ATOM     95  C   UNL     1     -19.872   9.951   3.935  1.00  0.00     0.002 A 
ATOM     96  C   UNL     1     -20.840  10.684   1.836  1.00  0.00     0.091 A 
ATOM     97  F   UNL     1     -19.667  10.265  -0.198  1.00  0.00    -0.205 F 
ATOM     98  C   UNL     1     -20.916  10.546   3.231  1.00  0.00     0.022 A 
BRANCH  96  99
ATOM     99  S   UNL     1     -22.182  11.558   1.021  1.00  0.00     0.127 S 
ATOM    100  O   UNL     1     -23.248  10.557   1.048  1.00  0.00    -0.237 OA
ATOM    101  O   UNL     1     -22.395  12.700   1.911  1.00  0.00    -0.237 OA
ATOM    102  O   UNL     1     -21.685  11.910  -0.302  1.00  0.00    -0.744 OA
ENDBRANCH  96  99
ENDBRANCH  69  92
ENDBRANCH  43  44
ENDBRANCH  35  38
ENDBRANCH  33  34
ENDBRANCH  32  33
ENDBRANCH  31  32
ENDBRANCH   1  31
TORSDOF 19
