REMARK SMILES CC(C)CCNC(=O)[C@@H](C)Oc1ccc(N)cc1C(=O)NCCCCCCNC(=O)c1ccc(-c2c3nc(c(-c4cccc(S(=O)(=O)[O-])c4F)c4ccc([nH]4)c(-c4cccc(S(=O)(=O)[O-])c4F)c4nc(c(-c5cccc(S(=O)(=O)[O-])c5F)c5ccc2[nH]5)C=C4)C=C3)cc1
REMARK SMILES IDX 23 1 22 2 21 3 19 4 20 5 18 7 12 8 13 9 14 10 17 11 15 12
REMARK SMILES IDX 11 13 9 14 10 15 7 16 6 17 8 19 5 20 4 21 2 22 1 23 3 24
REMARK SMILES IDX 16 25 24 28 25 29 26 30 27 31 28 32 29 33 30 35 31 36 32 37
REMARK SMILES IDX 93 38 33 39 92 40 34 41 35 42 36 43 86 44 37 45 91 46 85 47
REMARK SMILES IDX 87 48 38 49 90 50 84 51 83 52 39 54 71 55 51 56 70 57 52 58
REMARK SMILES IDX 55 59 69 60 88 61 53 62 54 63 68 65 89 66 56 67 40 68 41 69
REMARK SMILES IDX 49 70 42 71 44 72 50 73 43 74 45 75 46 76 47 77 48 78 72 79
REMARK SMILES IDX 73 80 81 81 74 82 76 83 82 84 75 85 77 86 78 87 79 88 80 89
REMARK SMILES IDX 57 90 58 91 66 92 59 93 61 94 67 95 60 96 62 97 63 98 64 99
REMARK SMILES IDX 65 100
REMARK H PARENT 21 6 6 18 16 26 16 27 28 34 87 53 55 64
REMARK Flexibility Score: inf
ROOT
ATOM      1  C   UNL     1      -7.219   3.380   0.845  1.00  0.00     0.021 C 
ENDROOT
BRANCH   1   2
ATOM      2  C   UNL     1      -6.263   2.662   1.782  1.00  0.00     0.116 C 
BRANCH   2   3
ATOM      3  N   UNL     1      -6.559   1.285   2.017  1.00  0.00    -0.352 N 
ATOM      4  C   UNL     1      -5.732   0.192   2.022  1.00  0.00     0.255 C 
ATOM      5  O   UNL     1      -6.331  -0.888   2.121  1.00  0.00    -0.269 OA
ATOM      6  H   UNL     1      -7.506   1.090   2.205  1.00  0.00     0.163 HD
BRANCH   4   7
ATOM      7  C   UNL     1      -4.213   0.168   1.973  1.00  0.00     0.083 A 
ATOM      8  C   UNL     1      -3.258   1.190   2.135  1.00  0.00     0.133 A 
ATOM      9  C   UNL     1      -1.958   0.844   2.537  1.00  0.00     0.049 A 
ATOM     10  C   UNL     1      -1.511  -0.478   2.488  1.00  0.00     0.029 A 
ATOM     11  C   UNL     1      -3.704  -1.156   1.867  1.00  0.00     0.043 A 
ATOM     12  C   UNL     1      -2.355  -1.475   2.033  1.00  0.00     0.032 A 
BRANCH   8  13
ATOM     13  O   UNL     1      -3.507   2.525   2.051  1.00  0.00    -0.480 OA
BRANCH  13  14
ATOM     14  C   UNL     1      -2.971   3.283   0.944  1.00  0.00     0.258 C 
ATOM     15  C   UNL     1      -3.582   3.032  -0.456  1.00  0.00     0.064 C 
BRANCH  14  16
ATOM     16  C   UNL     1      -1.461   3.609   0.803  1.00  0.00     0.260 C 
ATOM     17  N   UNL     1      -0.615   2.799   0.100  1.00  0.00    -0.353 N 
ATOM     18  H   UNL     1       0.214   3.220  -0.224  1.00  0.00     0.163 HD
ATOM     19  O   UNL     1      -0.995   4.650   1.271  1.00  0.00    -0.271 OA
BRANCH  17  20
ATOM     20  C   UNL     1      -0.784   1.404  -0.228  1.00  0.00     0.116 C 
BRANCH  20  21
ATOM     21  C   UNL     1      -0.299   1.014  -1.610  1.00  0.00     0.024 C 
BRANCH  21  22
ATOM     22  C   UNL     1       1.224   0.820  -1.702  1.00  0.00    -0.016 C 
ATOM     23  C   UNL     1       1.754  -0.186  -0.674  1.00  0.00     0.007 C 
ATOM     24  C   UNL     1       1.576   0.343  -3.111  1.00  0.00     0.007 C 
ENDBRANCH  21  22
ENDBRANCH  20  21
ENDBRANCH  17  20
ENDBRANCH  14  16
ENDBRANCH  13  14
ENDBRANCH   8  13
BRANCH  12  25
ATOM     25  N   UNL     1      -1.914  -2.783   1.909  1.00  0.00    -0.399 N 
ATOM     26  H   UNL     1      -0.960  -2.994   2.029  1.00  0.00     0.156 HD
ATOM     27  H   UNL     1      -2.555  -3.501   1.703  1.00  0.00     0.156 HD
ENDBRANCH  12  25
ENDBRANCH   4   7
ENDBRANCH   2   3
ENDBRANCH   1   2
BRANCH   1  28
ATOM     28  C   UNL     1      -8.402   4.058   1.514  1.00  0.00     0.002 C 
BRANCH  28  29
ATOM     29  C   UNL     1      -8.057   5.007   2.666  1.00  0.00     0.002 C 
BRANCH  29  30
ATOM     30  C   UNL     1      -6.959   6.046   2.404  1.00  0.00     0.021 C 
BRANCH  30  31
ATOM     31  C   UNL     1      -7.130   6.914   1.161  1.00  0.00     0.116 C 
BRANCH  31  32
ATOM     32  N   UNL     1      -8.447   7.523   1.081  1.00  0.00    -0.352 N 
ATOM     33  C   UNL     1      -8.806   8.840   0.989  1.00  0.00     0.251 C 
ATOM     34  H   UNL     1      -9.199   6.888   1.094  1.00  0.00     0.163 HD
ATOM     35  O   UNL     1      -9.993   9.153   1.101  1.00  0.00    -0.269 OA
BRANCH  33  36
ATOM     36  C   UNL     1      -7.786   9.888   0.773  1.00  0.00     0.039 A 
ATOM     37  C   UNL     1      -7.872  11.068   1.516  1.00  0.00     0.014 A 
ATOM     38  C   UNL     1      -6.771   9.729  -0.176  1.00  0.00     0.014 A 
ATOM     39  C   UNL     1      -6.915  12.069   1.343  1.00  0.00     0.010 A 
ATOM     40  C   UNL     1      -5.778  10.699  -0.297  1.00  0.00     0.010 A 
ATOM     41  C   UNL     1      -5.844  11.883   0.454  1.00  0.00    -0.014 A 
BRANCH  41  42
ATOM     42  C   UNL     1      -4.783  12.913   0.304  1.00  0.00     0.031 A 
ATOM     43  C   UNL     1      -4.583  13.611  -1.015  1.00  0.00     0.074 A 
ATOM     44  C   UNL     1      -3.951  13.164   1.334  1.00  0.00     0.049 A 
ATOM     45  N   UNL     1      -3.679  14.494  -1.351  1.00  0.00    -0.248 NA
ATOM     46  C   UNL     1      -5.505  13.254  -2.107  1.00  0.00     0.031 C 
ATOM     47  C   UNL     1      -3.997  12.500   2.639  1.00  0.00     0.029 A 
ATOM     48  N   UNL     1      -2.886  14.024   1.437  1.00  0.00    -0.354 N 
ATOM     49  C   UNL     1      -3.898  14.772  -2.695  1.00  0.00     0.074 A 
ATOM     50  C   UNL     1      -5.002  13.941  -3.123  1.00  0.00     0.031 C 
ATOM     51  C   UNL     1      -3.007  12.978   3.410  1.00  0.00     0.029 A 
ATOM     52  C   UNL     1      -2.238  13.956   2.649  1.00  0.00     0.049 A 
ATOM     53  H   UNL     1      -2.613  14.633   0.713  1.00  0.00     0.167 HD
ATOM     54  C   UNL     1      -3.257  15.658  -3.494  1.00  0.00     0.034 A 
ATOM     55  C   UNL     1      -1.141  14.601   3.092  1.00  0.00     0.034 A 
ATOM     56  C   UNL     1      -2.187  16.513  -3.054  1.00  0.00     0.049 A 
ATOM     57  C   UNL     1      -0.470  15.605   2.193  1.00  0.00     0.074 A 
ATOM     58  C   UNL     1      -1.530  17.503  -3.763  1.00  0.00     0.029 A 
ATOM     59  N   UNL     1      -1.613  16.477  -1.792  1.00  0.00    -0.354 N 
ATOM     60  N   UNL     1      -0.791  15.966   0.975  1.00  0.00    -0.248 NA
ATOM     61  C   UNL     1       0.691  16.318   2.744  1.00  0.00     0.031 C 
ATOM     62  C   UNL     1      -0.541  18.048  -2.938  1.00  0.00     0.029 A 
ATOM     63  C   UNL     1      -0.603  17.420  -1.705  1.00  0.00     0.049 A 
ATOM     64  H   UNL     1      -1.883  15.870  -1.066  1.00  0.00     0.167 HD
ATOM     65  C   UNL     1       0.102  16.974   0.628  1.00  0.00     0.074 A 
ATOM     66  C   UNL     1       0.963  17.180   1.773  1.00  0.00     0.031 C 
ATOM     67  C   UNL     1       0.209  17.656  -0.539  1.00  0.00     0.034 A 
BRANCH  54  68
ATOM     68  C   UNL     1      -3.730  15.791  -4.919  1.00  0.00     0.023 A 
ATOM     69  C   UNL     1      -4.971  16.405  -5.185  1.00  0.00     0.012 A 
ATOM     70  C   UNL     1      -2.921  15.376  -5.995  1.00  0.00     0.148 A 
ATOM     71  C   UNL     1      -5.415  16.574  -6.495  1.00  0.00     0.002 A 
ATOM     72  C   UNL     1      -3.350  15.589  -7.301  1.00  0.00     0.091 A 
ATOM     73  F   UNL     1      -1.752  14.778  -5.724  1.00  0.00    -0.205 F 
ATOM     74  C   UNL     1      -4.601  16.177  -7.552  1.00  0.00     0.022 A 
BRANCH  72  75
ATOM     75  S   UNL     1      -2.342  15.187  -8.732  1.00  0.00     0.127 S 
ATOM     76  O   UNL     1      -3.084  14.067  -9.310  1.00  0.00    -0.237 OA
ATOM     77  O   UNL     1      -2.405  16.425  -9.510  1.00  0.00    -0.237 OA
ATOM     78  O   UNL     1      -1.021  14.859  -8.217  1.00  0.00    -0.744 OA
ENDBRANCH  72  75
ENDBRANCH  54  68
BRANCH  55  79
ATOM     79  C   UNL     1      -0.642  14.364   4.477  1.00  0.00     0.023 A 
ATOM     80  C   UNL     1      -0.758  15.388   5.438  1.00  0.00     0.012 A 
ATOM     81  C   UNL     1      -0.069  13.134   4.851  1.00  0.00     0.148 A 
ATOM     82  C   UNL     1      -0.277  15.205   6.735  1.00  0.00     0.002 A 
ATOM     83  C   UNL     1       0.357  12.939   6.161  1.00  0.00     0.091 A 
ATOM     84  F   UNL     1       0.042  12.176   3.921  1.00  0.00    -0.205 F 
ATOM     85  C   UNL     1       0.271  13.979   7.098  1.00  0.00     0.022 A 
BRANCH  83  86
ATOM     86  S   UNL     1       0.957  11.351   6.749  1.00  0.00     0.127 S 
ATOM     87  O   UNL     1       2.385  11.618   6.923  1.00  0.00    -0.237 OA
ATOM     88  O   UNL     1       0.207  11.190   7.998  1.00  0.00    -0.237 OA
ATOM     89  O   UNL     1       0.612  10.393   5.715  1.00  0.00    -0.744 OA
ENDBRANCH  83  86
ENDBRANCH  55  79
BRANCH  67  90
ATOM     90  C   UNL     1       1.265  18.726  -0.630  1.00  0.00     0.023 A 
ATOM     91  C   UNL     1       2.625  18.366  -0.714  1.00  0.00     0.012 A 
ATOM     92  C   UNL     1       0.903  20.085  -0.708  1.00  0.00     0.148 A 
ATOM     93  C   UNL     1       3.610  19.345  -0.840  1.00  0.00     0.002 A 
ATOM     94  C   UNL     1       1.886  21.051  -0.886  1.00  0.00     0.091 A 
ATOM     95  F   UNL     1      -0.395  20.408  -0.609  1.00  0.00    -0.205 F 
ATOM     96  C   UNL     1       3.240  20.685  -0.939  1.00  0.00     0.022 A 
BRANCH  94  97
ATOM     97  S   UNL     1       1.497  22.789  -1.121  1.00  0.00     0.127 S 
ATOM     98  O   UNL     1       1.937  23.368   0.147  1.00  0.00    -0.237 OA
ATOM     99  O   UNL     1       2.329  23.140  -2.273  1.00  0.00    -0.237 OA
ATOM    100  O   UNL     1       0.063  22.850  -1.372  1.00  0.00    -0.744 OA
ENDBRANCH  94  97
ENDBRANCH  67  90
ENDBRANCH  41  42
ENDBRANCH  33  36
ENDBRANCH  31  32
ENDBRANCH  30  31
ENDBRANCH  29  30
ENDBRANCH  28  29
ENDBRANCH   1  28
TORSDOF 23
