REMARK SMILES CSc1ncccc1C(=O)N1CSC[C@H]1C(=O)NCCCCCCNC(=O)c1ccc(-c2c3nc(c(-c4cccc(S(=O)(=O)[O-])c4F)c4ccc([nH]4)c(-c4cccc(S(=O)(=O)[O-])c4F)c4nc(c(-c5cccc(S(=O)(=O)[O-])c5F)c5ccc2[nH]5)C=C4)C=C3)cc1
REMARK SMILES IDX 21 1 20 2 19 3 18 4 16 5 17 6 15 8 11 9 12 10 13 11 14 12
REMARK SMILES IDX 9 13 10 14 8 15 3 16 4 17 5 18 7 19 6 20 2 21 1 22 22 23
REMARK SMILES IDX 23 24 24 25 25 26 26 27 27 29 28 30 29 31 90 32 30 33 89 34
REMARK SMILES IDX 31 35 32 36 33 37 83 38 34 39 88 40 82 41 84 42 35 43 87 44
REMARK SMILES IDX 81 45 80 46 36 48 68 49 48 50 67 51 49 52 52 53 66 54 85 55
REMARK SMILES IDX 50 56 51 57 65 59 86 60 53 61 37 62 38 63 46 64 39 65 41 66
REMARK SMILES IDX 47 67 40 68 42 69 43 70 44 71 45 72 69 73 70 74 78 75 71 76
REMARK SMILES IDX 73 77 79 78 72 79 74 80 75 81 76 82 77 83 54 84 55 85 63 86
REMARK SMILES IDX 56 87 58 88 64 89 57 90 59 91 60 92 61 93 62 94
REMARK H PARENT 18 7 25 28 84 47 52 58
REMARK Flexibility Score: inf
ROOT
ATOM      1  C   UNL     1       7.169  -2.082  -0.501  1.00  0.00     0.002 C 
ENDROOT
BRANCH   1   2
ATOM      2  C   UNL     1       6.713  -0.659  -0.844  1.00  0.00     0.021 C 
BRANCH   2   3
ATOM      3  C   UNL     1       7.151  -0.196  -2.227  1.00  0.00     0.116 C 
BRANCH   3   4
ATOM      4  N   UNL     1       6.349  -0.786  -3.273  1.00  0.00    -0.354 N 
ATOM      5  C   UNL     1       5.495  -0.217  -4.166  1.00  0.00     0.243 C 
ATOM      6  O   UNL     1       5.145  -0.928  -5.116  1.00  0.00    -0.273 OA
ATOM      7  H   UNL     1       6.434  -1.764  -3.353  1.00  0.00     0.163 HD
BRANCH   5   8
ATOM      8  C   UNL     1       5.103   1.277  -4.124  1.00  0.00     0.185 C 
ATOM      9  N   UNL     1       4.417   1.790  -2.925  1.00  0.00    -0.316 N 
ATOM     10  C   UNL     1       5.191   2.715  -2.123  1.00  0.00     0.190 C 
ATOM     11  S   UNL     1       6.309   3.537  -3.275  1.00  0.00    -0.138 SA
ATOM     12  C   UNL     1       6.289   2.175  -4.479  1.00  0.00     0.106 C 
BRANCH   9  13
ATOM     13  C   UNL     1       3.050   1.522  -2.829  1.00  0.00     0.257 C 
ATOM     14  O   UNL     1       2.586   0.507  -3.342  1.00  0.00    -0.269 OA
BRANCH  13  15
ATOM     15  C   UNL     1       2.119   2.537  -2.257  1.00  0.00     0.072 A 
ATOM     16  C   UNL     1       0.921   2.215  -1.607  1.00  0.00     0.108 A 
ATOM     17  N   UNL     1       0.072   3.174  -1.137  1.00  0.00    -0.249 NA
ATOM     18  C   UNL     1       0.375   4.470  -1.360  1.00  0.00     0.112 A 
ATOM     19  C   UNL     1       2.355   3.897  -2.527  1.00  0.00     0.018 A 
ATOM     20  C   UNL     1       1.491   4.878  -2.056  1.00  0.00     0.021 A 
BRANCH  16  21
ATOM     21  S   UNL     1       0.260   0.572  -1.397  1.00  0.00    -0.109 SA
ATOM     22  C   UNL     1       1.061   0.129   0.154  1.00  0.00     0.092 C 
ENDBRANCH  16  21
ENDBRANCH  13  15
ENDBRANCH   9  13
ENDBRANCH   5   8
ENDBRANCH   3   4
ENDBRANCH   2   3
ENDBRANCH   1   2
BRANCH   1  23
ATOM     23  C   UNL     1       8.683  -2.317  -0.585  1.00  0.00     0.002 C 
BRANCH  23  24
ATOM     24  C   UNL     1       9.543  -1.330   0.211  1.00  0.00     0.021 C 
BRANCH  24  25
ATOM     25  C   UNL     1       9.262  -1.308   1.710  1.00  0.00     0.116 C 
BRANCH  25  26
ATOM     26  N   UNL     1       9.521  -2.598   2.324  1.00  0.00    -0.352 N 
ATOM     27  C   UNL     1      10.274  -2.903   3.426  1.00  0.00     0.251 C 
ATOM     28  H   UNL     1       9.093  -3.367   1.882  1.00  0.00     0.163 HD
ATOM     29  O   UNL     1      10.557  -4.078   3.658  1.00  0.00    -0.269 OA
BRANCH  27  30
ATOM     30  C   UNL     1      10.743  -1.836   4.336  1.00  0.00     0.039 A 
ATOM     31  C   UNL     1      12.021  -1.940   4.891  1.00  0.00     0.014 A 
ATOM     32  C   UNL     1       9.911  -0.770   4.694  1.00  0.00     0.014 A 
ATOM     33  C   UNL     1      12.467  -0.974   5.795  1.00  0.00     0.010 A 
ATOM     34  C   UNL     1      10.385   0.232   5.537  1.00  0.00     0.010 A 
ATOM     35  C   UNL     1      11.653   0.122   6.123  1.00  0.00    -0.014 A 
BRANCH  35  36
ATOM     36  C   UNL     1      12.102   1.130   7.116  1.00  0.00     0.031 A 
ATOM     37  C   UNL     1      11.364   1.288   8.420  1.00  0.00     0.074 A 
ATOM     38  C   UNL     1      13.140   1.937   6.826  1.00  0.00     0.049 A 
ATOM     39  N   UNL     1      11.612   2.102   9.414  1.00  0.00    -0.248 NA
ATOM     40  C   UNL     1      10.175   0.444   8.623  1.00  0.00     0.031 C 
ATOM     41  C   UNL     1      13.878   1.944   5.562  1.00  0.00     0.029 A 
ATOM     42  N   UNL     1      13.744   2.920   7.570  1.00  0.00    -0.354 N 
ATOM     43  C   UNL     1      10.595   1.895  10.339  1.00  0.00     0.074 A 
ATOM     44  C   UNL     1       9.702   0.909   9.770  1.00  0.00     0.031 C 
ATOM     45  C   UNL     1      14.842   2.877   5.622  1.00  0.00     0.029 A 
ATOM     46  C   UNL     1      14.783   3.542   6.920  1.00  0.00     0.049 A 
ATOM     47  H   UNL     1      13.460   3.156   8.482  1.00  0.00     0.167 HD
ATOM     48  C   UNL     1      10.435   2.445  11.566  1.00  0.00     0.034 A 
ATOM     49  C   UNL     1      15.602   4.530   7.330  1.00  0.00     0.034 A 
ATOM     50  C   UNL     1      11.355   3.383  12.150  1.00  0.00     0.049 A 
ATOM     51  C   UNL     1      15.459   5.062   8.730  1.00  0.00     0.074 A 
ATOM     52  C   UNL     1      11.336   3.934  13.419  1.00  0.00     0.029 A 
ATOM     53  N   UNL     1      12.463   3.908  11.504  1.00  0.00    -0.354 N 
ATOM     54  N   UNL     1      14.588   4.732   9.654  1.00  0.00    -0.248 NA
ATOM     55  C   UNL     1      16.443   6.063   9.163  1.00  0.00     0.031 C 
ATOM     56  C   UNL     1      12.427   4.804  13.534  1.00  0.00     0.029 A 
ATOM     57  C   UNL     1      13.138   4.775  12.346  1.00  0.00     0.049 A 
ATOM     58  H   UNL     1      12.732   3.695  10.581  1.00  0.00     0.167 HD
ATOM     59  C   UNL     1      14.943   5.453  10.788  1.00  0.00     0.074 A 
ATOM     60  C   UNL     1      16.122   6.220  10.440  1.00  0.00     0.031 C 
ATOM     61  C   UNL     1      14.342   5.488  12.003  1.00  0.00     0.034 A 
BRANCH  48  62
ATOM     62  C   UNL     1       9.248   1.999  12.382  1.00  0.00     0.023 A 
ATOM     63  C   UNL     1       9.218   0.692  12.910  1.00  0.00     0.012 A 
ATOM     64  C   UNL     1       8.183   2.878  12.660  1.00  0.00     0.148 A 
ATOM     65  C   UNL     1       8.132   0.252  13.665  1.00  0.00     0.002 A 
ATOM     66  C   UNL     1       7.125   2.448  13.453  1.00  0.00     0.091 A 
ATOM     67  F   UNL     1       8.215   4.110  12.131  1.00  0.00    -0.205 F 
ATOM     68  C   UNL     1       7.091   1.133  13.945  1.00  0.00     0.022 A 
BRANCH  66  69
ATOM     69  S   UNL     1       5.776   3.533  13.935  1.00  0.00     0.127 S 
ATOM     70  O   UNL     1       4.681   3.027  13.109  1.00  0.00    -0.237 OA
ATOM     71  O   UNL     1       5.644   3.245  15.364  1.00  0.00    -0.237 OA
ATOM     72  O   UNL     1       6.221   4.885  13.629  1.00  0.00    -0.744 OA
ENDBRANCH  66  69
ENDBRANCH  48  62
BRANCH  49  73
ATOM     73  C   UNL     1      16.694   5.006   6.434  1.00  0.00     0.023 A 
ATOM     74  C   UNL     1      18.030   4.681   6.739  1.00  0.00     0.012 A 
ATOM     75  C   UNL     1      16.415   5.742   5.267  1.00  0.00     0.148 A 
ATOM     76  C   UNL     1      19.072   5.109   5.916  1.00  0.00     0.002 A 
ATOM     77  C   UNL     1      17.453   6.118   4.422  1.00  0.00     0.091 A 
ATOM     78  F   UNL     1      15.137   6.047   4.999  1.00  0.00    -0.205 F 
ATOM     79  C   UNL     1      18.783   5.818   4.753  1.00  0.00     0.022 A 
BRANCH  77  80
ATOM     80  S   UNL     1      17.161   6.915   2.839  1.00  0.00     0.127 S 
ATOM     81  O   UNL     1      17.643   8.272   3.094  1.00  0.00    -0.237 OA
ATOM     82  O   UNL     1      18.005   6.122   1.942  1.00  0.00    -0.237 OA
ATOM     83  O   UNL     1      15.735   6.786   2.590  1.00  0.00    -0.744 OA
ENDBRANCH  77  80
ENDBRANCH  49  73
BRANCH  61  84
ATOM     84  C   UNL     1      14.970   6.353  13.065  1.00  0.00     0.023 A 
ATOM     85  C   UNL     1      14.890   7.756  12.967  1.00  0.00     0.012 A 
ATOM     86  C   UNL     1      15.592   5.772  14.187  1.00  0.00     0.148 A 
ATOM     87  C   UNL     1      15.457   8.568  13.949  1.00  0.00     0.002 A 
ATOM     88  C   UNL     1      16.111   6.588  15.186  1.00  0.00     0.091 A 
ATOM     89  F   UNL     1      15.679   4.436  14.255  1.00  0.00    -0.205 F 
ATOM     90  C   UNL     1      16.057   7.985  15.062  1.00  0.00     0.022 A 
BRANCH  88  91
ATOM     91  S   UNL     1      16.810   5.912  16.697  1.00  0.00     0.127 S 
ATOM     92  O   UNL     1      18.244   5.995  16.427  1.00  0.00    -0.237 OA
ATOM     93  O   UNL     1      16.326   6.847  17.714  1.00  0.00    -0.237 OA
ATOM     94  O   UNL     1      16.265   4.566  16.815  1.00  0.00    -0.744 OA
ENDBRANCH  88  91
ENDBRANCH  61  84
ENDBRANCH  35  36
ENDBRANCH  27  30
ENDBRANCH  25  26
ENDBRANCH  24  25
ENDBRANCH  23  24
ENDBRANCH   1  23
TORSDOF 19
