REMARK SMILES O=C(NCCCCCCNC(=O)[C@@H]1CCCCC[C@H]1NS(=O)(=O)C(F)F)c1ccc(-c2c3nc(c(-c4cccc(S(=O)(=O)[O-])c4F)c4ccc([nH]4)c(-c4cccc(S(=O)(=O)[O-])c4F)c4nc(c(-c5cccc(S(=O)(=O)[O-])c5F)c5ccc2[nH]5)C=C4)C=C3)cc1
REMARK SMILES IDX 7 1 6 2 5 3 4 4 3 5 1 6 2 7 27 9 28 10 89 11 29 12 88 13
REMARK SMILES IDX 30 14 31 15 32 16 82 17 33 18 87 19 81 20 83 21 34 22 86 23
REMARK SMILES IDX 80 24 79 25 35 27 67 28 47 29 66 30 48 31 51 32 65 33 84 34
REMARK SMILES IDX 49 35 50 36 64 38 85 39 52 40 36 41 37 42 45 43 38 44 40 45
REMARK SMILES IDX 46 46 39 47 41 48 42 49 43 50 44 51 68 52 69 53 77 54 70 55
REMARK SMILES IDX 72 56 78 57 71 58 73 59 74 60 75 61 76 62 53 63 54 64 62 65
REMARK SMILES IDX 55 66 57 67 63 68 56 69 58 70 59 71 60 72 61 73 8 74 9 75
REMARK SMILES IDX 10 76 11 77 12 79 13 80 14 81 15 82 19 84 18 85 17 86 16 87
REMARK SMILES IDX 20 89 21 91 22 92 23 93 24 94 25 95 26 96
REMARK H PARENT 3 8 83 26 51 37 10 78 20 90
REMARK Flexibility Score: 100.00
ROOT
ATOM      1  C   UNL     1       4.442  -4.363  -0.368  1.00  0.00     0.002 C 
ENDROOT
BRANCH   1   2
ATOM      2  C   UNL     1       3.832  -3.655   0.850  1.00  0.00     0.002 C 
BRANCH   2   3
ATOM      3  C   UNL     1       4.426  -2.279   1.154  1.00  0.00     0.021 C 
BRANCH   3   4
ATOM      4  C   UNL     1       4.302  -1.290   0.003  1.00  0.00     0.116 C 
BRANCH   4   5
ATOM      5  N   UNL     1       2.909  -1.031  -0.324  1.00  0.00    -0.352 N 
ATOM      6  O   UNL     1       0.985   0.139  -0.282  1.00  0.00    -0.269 OA
ATOM      7  C   UNL     1       2.210   0.146  -0.235  1.00  0.00     0.251 C 
ATOM      8  H   UNL     1       2.399  -1.806  -0.653  1.00  0.00     0.163 HD
BRANCH   7   9
ATOM      9  C   UNL     1       2.955   1.411  -0.076  1.00  0.00     0.039 A 
ATOM     10  C   UNL     1       4.105   1.641  -0.837  1.00  0.00     0.014 A 
ATOM     11  C   UNL     1       2.504   2.370   0.832  1.00  0.00     0.014 A 
ATOM     12  C   UNL     1       4.879   2.765  -0.592  1.00  0.00     0.010 A 
ATOM     13  C   UNL     1       3.231   3.550   1.003  1.00  0.00     0.010 A 
ATOM     14  C   UNL     1       4.436   3.746   0.309  1.00  0.00    -0.014 A 
BRANCH  14  15
ATOM     15  C   UNL     1       5.201   5.011   0.426  1.00  0.00     0.031 A 
ATOM     16  C   UNL     1       5.837   5.426   1.721  1.00  0.00     0.074 A 
ATOM     17  C   UNL     1       5.309   5.791  -0.668  1.00  0.00     0.049 A 
ATOM     18  N   UNL     1       6.547   6.494   1.978  1.00  0.00    -0.248 NA
ATOM     19  C   UNL     1       5.647   4.539   2.879  1.00  0.00     0.031 C 
ATOM     20  C   UNL     1       4.696   5.503  -1.968  1.00  0.00     0.029 A 
ATOM     21  N   UNL     1       5.963   6.978  -0.866  1.00  0.00    -0.354 N 
ATOM     22  C   UNL     1       6.855   6.433   3.331  1.00  0.00     0.074 A 
ATOM     23  C   UNL     1       6.247   5.223   3.844  1.00  0.00     0.031 C 
ATOM     24  C   UNL     1       5.026   6.469  -2.835  1.00  0.00     0.029 A 
ATOM     25  C   UNL     1       5.814   7.477  -2.139  1.00  0.00     0.049 A 
ATOM     26  H   UNL     1       6.488   7.429  -0.167  1.00  0.00     0.167 HD
ATOM     27  C   UNL     1       7.585   7.300   4.073  1.00  0.00     0.034 A 
ATOM     28  C   UNL     1       6.240   8.632  -2.682  1.00  0.00     0.034 A 
ATOM     29  C   UNL     1       8.197   8.493   3.545  1.00  0.00     0.049 A 
ATOM     30  C   UNL     1       7.044   9.573  -1.836  1.00  0.00     0.074 A 
ATOM     31  C   UNL     1       9.010   9.403   4.198  1.00  0.00     0.029 A 
ATOM     32  N   UNL     1       8.049   8.954   2.245  1.00  0.00    -0.354 N 
ATOM     33  N   UNL     1       7.432   9.435  -0.591  1.00  0.00    -0.248 NA
ATOM     34  C   UNL     1       7.492  10.817  -2.475  1.00  0.00     0.031 C 
ATOM     35  C   UNL     1       9.319  10.435   3.304  1.00  0.00     0.029 A 
ATOM     36  C   UNL     1       8.736  10.145   2.081  1.00  0.00     0.049 A 
ATOM     37  H   UNL     1       7.530   8.500   1.542  1.00  0.00     0.167 HD
ATOM     38  C   UNL     1       8.193  10.560  -0.304  1.00  0.00     0.074 A 
ATOM     39  C   UNL     1       8.232  11.356  -1.516  1.00  0.00     0.031 C 
ATOM     40  C   UNL     1       8.796  10.909   0.859  1.00  0.00     0.034 A 
BRANCH  27  41
ATOM     41  C   UNL     1       7.775   6.987   5.536  1.00  0.00     0.023 A 
ATOM     42  C   UNL     1       8.597   5.909   5.924  1.00  0.00     0.012 A 
ATOM     43  C   UNL     1       7.182   7.793   6.529  1.00  0.00     0.148 A 
ATOM     44  C   UNL     1       8.794   5.613   7.273  1.00  0.00     0.002 A 
ATOM     45  C   UNL     1       7.420   7.520   7.872  1.00  0.00     0.091 A 
ATOM     46  F   UNL     1       6.389   8.802   6.145  1.00  0.00    -0.205 F 
ATOM     47  C   UNL     1       8.214   6.423   8.245  1.00  0.00     0.022 A 
BRANCH  45  48
ATOM     48  S   UNL     1       6.785   8.552   9.198  1.00  0.00     0.127 S 
ATOM     49  O   UNL     1       5.763   7.684   9.783  1.00  0.00    -0.237 OA
ATOM     50  O   UNL     1       7.971   8.745  10.033  1.00  0.00    -0.237 OA
ATOM     51  O   UNL     1       6.287   9.763   8.561  1.00  0.00    -0.744 OA
ENDBRANCH  45  48
ENDBRANCH  27  41
BRANCH  28  52
ATOM     52  C   UNL     1       5.933   8.933  -4.107  1.00  0.00     0.023 A 
ATOM     53  C   UNL     1       6.973   8.937  -5.056  1.00  0.00     0.012 A 
ATOM     54  C   UNL     1       4.610   9.161  -4.533  1.00  0.00     0.148 A 
ATOM     55  C   UNL     1       6.704   9.189  -6.401  1.00  0.00     0.002 A 
ATOM     56  C   UNL     1       4.341   9.352  -5.882  1.00  0.00     0.091 A 
ATOM     57  F   UNL     1       3.637   9.159  -3.611  1.00  0.00    -0.205 F 
ATOM     58  C   UNL     1       5.388   9.384  -6.816  1.00  0.00     0.022 A 
BRANCH  56  59
ATOM     59  S   UNL     1       2.669   9.472  -6.525  1.00  0.00     0.127 S 
ATOM     60  O   UNL     1       2.622  10.860  -6.977  1.00  0.00    -0.237 OA
ATOM     61  O   UNL     1       2.688   8.474  -7.596  1.00  0.00    -0.237 OA
ATOM     62  O   UNL     1       1.792   9.141  -5.410  1.00  0.00    -0.744 OA
ENDBRANCH  56  59
ENDBRANCH  28  52
BRANCH  40  63
ATOM     63  C   UNL     1       9.582  12.193   0.871  1.00  0.00     0.023 A 
ATOM     64  C   UNL     1       8.913  13.432   0.820  1.00  0.00     0.012 A 
ATOM     65  C   UNL     1      10.986  12.170   0.990  1.00  0.00     0.148 A 
ATOM     66  C   UNL     1       9.630  14.627   0.849  1.00  0.00     0.002 A 
ATOM     67  C   UNL     1      11.690  13.365   1.073  1.00  0.00     0.091 A 
ATOM     68  F   UNL     1      11.606  10.981   1.017  1.00  0.00    -0.205 F 
ATOM     69  C   UNL     1      11.016  14.594   0.988  1.00  0.00     0.022 A 
BRANCH  67  70
ATOM     70  S   UNL     1      13.463  13.420   1.351  1.00  0.00     0.127 S 
ATOM     71  O   UNL     1      13.952  13.898   0.059  1.00  0.00    -0.237 OA
ATOM     72  O   UNL     1      13.575  14.388   2.442  1.00  0.00    -0.237 OA
ATOM     73  O   UNL     1      13.859  12.063   1.703  1.00  0.00    -0.744 OA
ENDBRANCH  67  70
ENDBRANCH  40  63
ENDBRANCH  14  15
ENDBRANCH   7   9
ENDBRANCH   4   5
ENDBRANCH   3   4
ENDBRANCH   2   3
ENDBRANCH   1   2
BRANCH   1  74
ATOM     74  C   UNL     1       5.972  -4.414  -0.374  1.00  0.00     0.021 C 
BRANCH  74  75
ATOM     75  C   UNL     1       6.549  -5.104   0.862  1.00  0.00     0.116 C 
BRANCH  75  76
ATOM     76  N   UNL     1       6.724  -6.521   0.618  1.00  0.00    -0.356 N 
ATOM     77  C   UNL     1       7.785  -7.314   0.348  1.00  0.00     0.224 C 
ATOM     78  H   UNL     1       5.877  -7.021   0.659  1.00  0.00     0.163 HD
ATOM     79  O   UNL     1       7.497  -8.466  -0.008  1.00  0.00    -0.275 OA
BRANCH  77  80
ATOM     80  C   UNL     1       9.266  -6.966   0.581  1.00  0.00     0.096 C 
BRANCH  80  81
ATOM     81  C   UNL     1       9.661  -7.681   1.889  1.00  0.00     0.015 C 
BRANCH  81  82
ATOM     82  C   UNL     1      11.108  -7.495   2.333  1.00  0.00     0.001 CG0
ATOM     83  G   UNL     1      11.298  -6.283   3.236  1.00  0.00     0.000 G0
ENDBRANCH  81  82
ENDBRANCH  80  81
BRANCH  80  84
ATOM     84  C   UNL     1       9.690  -5.490   0.440  1.00  0.00     0.082 C 
BRANCH  84  85
ATOM     85  C   UNL     1       9.844  -4.747   1.782  1.00  0.00     0.021 C 
BRANCH  85  86
ATOM     86  C   UNL     1      11.158  -4.940   2.536  1.00  0.00     0.002 C 
BRANCH  86  87
ATOM     87  C   UNL     1      11.298  -6.283   3.236  1.00  0.00     0.000 CG0
ATOM     88  G   UNL     1      11.108  -7.495   2.333  1.00  0.00     0.000 G0
ENDBRANCH  86  87
ENDBRANCH  85  86
ENDBRANCH  84  85
BRANCH  84  89
ATOM     89  N   UNL     1      10.908  -5.380  -0.407  1.00  0.00    -0.206 NA
ATOM     90  H   UNL     1      10.773  -6.015  -1.193  1.00  0.00     0.141 HD
BRANCH  89  91
ATOM     91  S   UNL     1      11.385  -3.893  -1.065  1.00  0.00     0.274 S 
ATOM     92  O   UNL     1      11.498  -2.951   0.026  1.00  0.00    -0.206 OA
ATOM     93  O   UNL     1      12.565  -4.211  -1.850  1.00  0.00    -0.206 OA
BRANCH  91  94
ATOM     94  C   UNL     1      10.024  -3.373  -2.186  1.00  0.00     0.473 C 
ATOM     95  F   UNL     1       9.747  -4.309  -3.137  1.00  0.00    -0.191 F 
ATOM     96  F   UNL     1       8.854  -3.161  -1.511  1.00  0.00    -0.191 F 
ENDBRANCH  91  94
ENDBRANCH  89  91
ENDBRANCH  84  89
ENDBRANCH  80  84
ENDBRANCH  77  80
ENDBRANCH  75  76
ENDBRANCH  74  75
ENDBRANCH   1  74
TORSDOF 19
