REMARK SMILES O=C(NCCCCCCNC(=O)c1cccc(F)c1N1CCN2C(=O)NC[C@@H]2C1)c1ccc(-c2c3nc(c(-c4cccc(S(=O)(=O)[O-])c4F)c4ccc([nH]4)c(-c4cccc(S(=O)(=O)[O-])c4F)c4nc(c(-c5cccc(S(=O)(=O)[O-])c5F)c5ccc2[nH]5)C=C4)C=C3)cc1
REMARK SMILES IDX 5 1 4 2 3 3 1 4 2 5 30 7 31 8 92 9 32 10 91 11 33 12 34 13
REMARK SMILES IDX 35 14 85 15 36 16 90 17 84 18 86 19 37 20 89 21 83 22 82 23
REMARK SMILES IDX 38 25 70 26 50 27 69 28 51 29 54 30 68 31 87 32 52 33 53 34
REMARK SMILES IDX 67 36 88 37 55 38 39 39 40 40 48 41 41 42 43 43 49 44 42 45
REMARK SMILES IDX 44 46 45 47 46 48 47 49 71 50 72 51 80 52 73 53 75 54 81 55
REMARK SMILES IDX 74 56 76 57 77 58 78 59 79 60 56 61 57 62 65 63 58 64 60 65
REMARK SMILES IDX 66 66 59 67 61 68 62 69 63 70 64 71 6 72 7 73 8 74 9 75
REMARK SMILES IDX 10 76 11 77 12 79 13 80 14 81 19 82 15 83 17 84 16 85 18 86
REMARK SMILES IDX 20 87 21 88 29 89 22 90 28 91 23 92 27 93 24 94 26 95 25 96
REMARK H PARENT 3 6 86 24 54 35 10 78 26 97
REMARK Flexibility Score: inf
ROOT
ATOM      1  C   UNL     1       4.647   2.195  -1.337  1.00  0.00     0.021 C 
ENDROOT
BRANCH   1   2
ATOM      2  C   UNL     1       4.367   1.266  -0.164  1.00  0.00     0.116 C 
BRANCH   2   3
ATOM      3  N   UNL     1       2.945   1.090   0.077  1.00  0.00    -0.352 N 
ATOM      4  O   UNL     1       0.986  -0.023   0.141  1.00  0.00    -0.269 OA
ATOM      5  C   UNL     1       2.211  -0.073   0.106  1.00  0.00     0.251 C 
ATOM      6  H   UNL     1       2.437   1.916   0.243  1.00  0.00     0.163 HD
BRANCH   5   7
ATOM      7  C   UNL     1       2.912  -1.374   0.065  1.00  0.00     0.039 A 
ATOM      8  C   UNL     1       4.045  -1.589   0.853  1.00  0.00     0.014 A 
ATOM      9  C   UNL     1       2.442  -2.384  -0.778  1.00  0.00     0.014 A 
ATOM     10  C   UNL     1       4.794  -2.746   0.685  1.00  0.00     0.010 A 
ATOM     11  C   UNL     1       3.141  -3.591  -0.870  1.00  0.00     0.010 A 
ATOM     12  C   UNL     1       4.339  -3.772  -0.160  1.00  0.00    -0.014 A 
BRANCH  12  13
ATOM     13  C   UNL     1       5.082  -5.056  -0.206  1.00  0.00     0.031 A 
ATOM     14  C   UNL     1       5.711  -5.560  -1.474  1.00  0.00     0.074 A 
ATOM     15  C   UNL     1       5.184  -5.774   0.931  1.00  0.00     0.049 A 
ATOM     16  N   UNL     1       6.399  -6.655  -1.666  1.00  0.00    -0.248 NA
ATOM     17  C   UNL     1       5.545  -4.739  -2.684  1.00  0.00     0.031 C 
ATOM     18  C   UNL     1       4.583  -5.399   2.215  1.00  0.00     0.029 A 
ATOM     19  N   UNL     1       5.821  -6.958   1.198  1.00  0.00    -0.354 N 
ATOM     20  C   UNL     1       6.718  -6.678  -3.018  1.00  0.00     0.074 A 
ATOM     21  C   UNL     1       6.141  -5.487  -3.604  1.00  0.00     0.031 C 
ATOM     22  C   UNL     1       4.907  -6.314   3.137  1.00  0.00     0.029 A 
ATOM     23  C   UNL     1       5.676  -7.376   2.500  1.00  0.00     0.049 A 
ATOM     24  H   UNL     1       6.333  -7.460   0.523  1.00  0.00     0.167 HD
ATOM     25  C   UNL     1       7.436  -7.601  -3.701  1.00  0.00     0.034 A 
ATOM     26  C   UNL     1       6.089  -8.500   3.115  1.00  0.00     0.034 A 
ATOM     27  C   UNL     1       8.025  -8.770  -3.101  1.00  0.00     0.049 A 
ATOM     28  C   UNL     1       6.879  -9.506   2.333  1.00  0.00     0.074 A 
ATOM     29  C   UNL     1       8.821  -9.731  -3.700  1.00  0.00     0.029 A 
ATOM     30  N   UNL     1       7.873  -9.150  -1.776  1.00  0.00    -0.354 N 
ATOM     31  N   UNL     1       7.265  -9.453   1.081  1.00  0.00    -0.248 NA
ATOM     32  C   UNL     1       7.312 -10.714   3.047  1.00  0.00     0.031 C 
ATOM     33  C   UNL     1       9.116 -10.711  -2.749  1.00  0.00     0.029 A 
ATOM     34  C   UNL     1       8.544 -10.338  -1.543  1.00  0.00     0.049 A 
ATOM     35  H   UNL     1       7.362  -8.648  -1.100  1.00  0.00     0.167 HD
ATOM     36  C   UNL     1       8.007 -10.606   0.863  1.00  0.00     0.074 A 
ATOM     37  C   UNL     1       8.034 -11.329   2.119  1.00  0.00     0.031 C 
ATOM     38  C   UNL     1       8.600 -11.031  -0.280  1.00  0.00     0.034 A 
BRANCH  25  39
ATOM     39  C   UNL     1       7.663  -7.382  -5.176  1.00  0.00     0.023 A 
ATOM     40  C   UNL     1       8.549  -6.373  -5.605  1.00  0.00     0.012 A 
ATOM     41  C   UNL     1       7.088  -8.246  -6.131  1.00  0.00     0.148 A 
ATOM     42  C   UNL     1       8.841  -6.212  -6.960  1.00  0.00     0.002 A 
ATOM     43  C   UNL     1       7.420  -8.109  -7.474  1.00  0.00     0.091 A 
ATOM     44  F   UNL     1       6.236  -9.190  -5.707  1.00  0.00    -0.205 F 
ATOM     45  C   UNL     1       8.288  -7.087  -7.891  1.00  0.00     0.022 A 
BRANCH  43  46
ATOM     46  S   UNL     1       6.834  -9.240  -8.741  1.00  0.00     0.127 S 
ATOM     47  O   UNL     1       5.949  -8.374  -9.521  1.00  0.00    -0.237 OA
ATOM     48  O   UNL     1       8.076  -9.610  -9.420  1.00  0.00    -0.237 OA
ATOM     49  O   UNL     1       6.175 -10.330  -8.037  1.00  0.00    -0.744 OA
ENDBRANCH  43  46
ENDBRANCH  25  39
BRANCH  26  50
ATOM     50  C   UNL     1       5.787  -8.691   4.561  1.00  0.00     0.023 A 
ATOM     51  C   UNL     1       6.830  -8.616   5.503  1.00  0.00     0.012 A 
ATOM     52  C   UNL     1       4.461  -8.854   5.010  1.00  0.00     0.148 A 
ATOM     53  C   UNL     1       6.559  -8.713   6.868  1.00  0.00     0.002 A 
ATOM     54  C   UNL     1       4.192  -8.885   6.372  1.00  0.00     0.091 A 
ATOM     55  F   UNL     1       3.486  -8.929   4.093  1.00  0.00    -0.205 F 
ATOM     56  C   UNL     1       5.241  -8.831   7.303  1.00  0.00     0.022 A 
BRANCH  54  57
ATOM     57  S   UNL     1       2.519  -8.879   7.026  1.00  0.00     0.127 S 
ATOM     58  O   UNL     1       2.449 -10.185   7.676  1.00  0.00    -0.237 OA
ATOM     59  O   UNL     1       2.561  -7.736   7.939  1.00  0.00    -0.237 OA
ATOM     60  O   UNL     1       1.644  -8.700   5.876  1.00  0.00    -0.744 OA
ENDBRANCH  54  57
ENDBRANCH  26  50
BRANCH  38  61
ATOM     61  C   UNL     1       9.362 -12.330  -0.237  1.00  0.00     0.023 A 
ATOM     62  C   UNL     1       8.664 -13.550  -0.156  1.00  0.00     0.012 A 
ATOM     63  C   UNL     1      10.763 -12.341  -0.391  1.00  0.00     0.148 A 
ATOM     64  C   UNL     1       9.351 -14.763  -0.208  1.00  0.00     0.002 A 
ATOM     65  C   UNL     1      11.434 -13.552  -0.498  1.00  0.00     0.091 A 
ATOM     66  F   UNL     1      11.408 -11.167  -0.448  1.00  0.00    -0.205 F 
ATOM     67  C   UNL     1      10.732 -14.764  -0.395  1.00  0.00     0.022 A 
BRANCH  65  68
ATOM     68  S   UNL     1      13.194 -13.654  -0.846  1.00  0.00     0.127 S 
ATOM     69  O   UNL     1      13.714 -14.199   0.408  1.00  0.00    -0.237 OA
ATOM     70  O   UNL     1      13.231 -14.581  -1.977  1.00  0.00    -0.237 OA
ATOM     71  O   UNL     1      13.623 -12.297  -1.157  1.00  0.00    -0.744 OA
ENDBRANCH  65  68
ENDBRANCH  38  61
ENDBRANCH  12  13
ENDBRANCH   5   7
ENDBRANCH   2   3
ENDBRANCH   1   2
BRANCH   1  72
ATOM     72  C   UNL     1       4.180   3.635  -1.138  1.00  0.00     0.002 C 
BRANCH  72  73
ATOM     73  C   UNL     1       4.715   4.331   0.117  1.00  0.00     0.002 C 
BRANCH  73  74
ATOM     74  C   UNL     1       6.237   4.321   0.282  1.00  0.00     0.021 C 
BRANCH  74  75
ATOM     75  C   UNL     1       7.022   4.874  -0.902  1.00  0.00     0.116 C 
BRANCH  75  76
ATOM     76  N   UNL     1       6.685   6.257  -1.194  1.00  0.00    -0.352 N 
ATOM     77  C   UNL     1       7.506   7.354  -1.303  1.00  0.00     0.253 C 
ATOM     78  H   UNL     1       5.727   6.434  -1.334  1.00  0.00     0.163 HD
ATOM     79  O   UNL     1       7.016   8.453  -1.543  1.00  0.00    -0.269 OA
BRANCH  77  80
ATOM     80  C   UNL     1       8.971   7.180  -1.152  1.00  0.00     0.066 A 
ATOM     81  C   UNL     1       9.599   6.305  -2.063  1.00  0.00     0.016 A 
ATOM     82  C   UNL     1       9.716   7.913  -0.203  1.00  0.00     0.086 A 
ATOM     83  C   UNL     1      10.966   6.063  -1.985  1.00  0.00     0.004 A 
ATOM     84  C   UNL     1      11.099   7.639  -0.165  1.00  0.00     0.147 A 
ATOM     85  C   UNL     1      11.714   6.721  -1.020  1.00  0.00     0.041 A 
ATOM     86  F   UNL     1      11.878   8.258   0.739  1.00  0.00    -0.205 F 
BRANCH  82  87
ATOM     87  N   UNL     1       9.154   8.874   0.624  1.00  0.00    -0.365 N 
ATOM     88  C   UNL     1       9.806  10.192   0.776  1.00  0.00     0.138 C 
ATOM     89  C   UNL     1       8.147   8.523   1.639  1.00  0.00     0.143 C 
ATOM     90  C   UNL     1       8.766  11.326   0.944  1.00  0.00     0.143 C 
ATOM     91  C   UNL     1       7.076   9.617   1.664  1.00  0.00     0.125 C 
ATOM     92  N   UNL     1       7.658  10.943   1.799  1.00  0.00    -0.317 N 
ATOM     93  C   UNL     1       6.088   9.580   2.823  1.00  0.00     0.144 C 
ATOM     94  C   UNL     1       6.800  11.782   2.483  1.00  0.00     0.317 C 
ATOM     95  N   UNL     1       5.815  10.981   3.051  1.00  0.00    -0.336 N 
ATOM     96  O   UNL     1       6.865  12.995   2.587  1.00  0.00    -0.249 OA
ATOM     97  H   UNL     1       5.034  11.323   3.544  1.00  0.00     0.165 HD
ENDBRANCH  82  87
ENDBRANCH  77  80
ENDBRANCH  75  76
ENDBRANCH  74  75
ENDBRANCH  73  74
ENDBRANCH  72  73
ENDBRANCH   1  72
TORSDOF 17
