REMARK SMILES O=C(NCCCCCCNC(=O)[C@H]1[C@H]2CC[C@H](CC2)[C@@H]1C(=O)Nc1ccc(Cc2ccncc2)cc1)c1ccc(-c2c3nc(c(-c4cccc(S(=O)(=O)[O-])c4F)c4ccc([nH]4)c(-c4cccc(S(=O)(=O)[O-])c4F)c4nc(c(-c5cccc(S(=O)(=O)[O-])c5F)c5ccc2[nH]5)C=C4)C=C3)cc1
REMARK SMILES IDX 7 1 6 2 5 3 4 4 3 5 1 6 2 7 37 9 38 10 99 11 39 12 98 13
REMARK SMILES IDX 40 14 41 15 42 16 92 17 43 18 97 19 91 20 93 21 44 22 96 23
REMARK SMILES IDX 90 24 89 25 45 27 77 28 57 29 76 30 58 31 61 32 75 33 94 34
REMARK SMILES IDX 59 35 60 36 74 38 95 39 62 40 46 41 47 42 55 43 48 44 50 45
REMARK SMILES IDX 56 46 49 47 51 48 52 49 53 50 54 51 78 52 79 53 87 54 80 55
REMARK SMILES IDX 82 56 88 57 81 58 83 59 84 60 85 61 86 62 63 63 64 64 72 65
REMARK SMILES IDX 65 66 67 67 73 68 66 69 68 70 69 71 70 72 71 73 8 74 9 75
REMARK SMILES IDX 10 76 11 77 12 79 13 80 14 81 20 82 15 83 19 84 17 85 16 86
REMARK SMILES IDX 18 87 21 88 22 89 23 90 24 92 25 93 36 94 26 95 35 96 27 97
REMARK SMILES IDX 28 98 29 99 30 100 34 101 31 102 33 103 32 104
REMARK H PARENT 3 8 93 26 61 37 10 78 23 91
REMARK Flexibility Score: inf
ROOT
ATOM      1  C   UNL     1       4.848   4.040   1.416  1.00  0.00     0.002 C 
ENDROOT
BRANCH   1   2
ATOM      2  C   UNL     1       4.122   3.831   0.083  1.00  0.00     0.002 C 
BRANCH   2   3
ATOM      3  C   UNL     1       4.566   2.596  -0.702  1.00  0.00     0.021 C 
BRANCH   3   4
ATOM      4  C   UNL     1       4.412   1.287   0.059  1.00  0.00     0.116 C 
BRANCH   4   5
ATOM      5  N   UNL     1       3.016   0.963   0.295  1.00  0.00    -0.352 N 
ATOM      6  O   UNL     1       1.116  -0.220   0.028  1.00  0.00    -0.269 OA
ATOM      7  C   UNL     1       2.341  -0.186  -0.036  1.00  0.00     0.251 C 
ATOM      8  H   UNL     1       2.486   1.655   0.751  1.00  0.00     0.163 HD
BRANCH   7   9
ATOM      9  C   UNL     1       3.108  -1.370  -0.481  1.00  0.00     0.039 A 
ATOM     10  C   UNL     1       4.255  -1.765   0.214  1.00  0.00     0.014 A 
ATOM     11  C   UNL     1       2.673  -2.092  -1.594  1.00  0.00     0.014 A 
ATOM     12  C   UNL     1       5.027  -2.814  -0.267  1.00  0.00     0.010 A 
ATOM     13  C   UNL     1       3.407  -3.200  -2.028  1.00  0.00     0.010 A 
ATOM     14  C   UNL     1       4.596  -3.561  -1.376  1.00  0.00    -0.014 A 
BRANCH  14  15
ATOM     15  C   UNL     1       5.338  -4.791  -1.748  1.00  0.00     0.031 A 
ATOM     16  C   UNL     1       6.041  -4.920  -3.069  1.00  0.00     0.074 A 
ATOM     17  C   UNL     1       5.350  -5.811  -0.866  1.00  0.00     0.049 A 
ATOM     18  N   UNL     1       6.741  -5.926  -3.526  1.00  0.00    -0.248 NA
ATOM     19  C   UNL     1       5.944  -3.785  -4.002  1.00  0.00     0.031 C 
ATOM     20  C   UNL     1       4.652  -5.813   0.423  1.00  0.00     0.029 A 
ATOM     21  N   UNL     1       5.958  -7.038  -0.914  1.00  0.00    -0.354 N 
ATOM     22  C   UNL     1       7.135  -5.568  -4.810  1.00  0.00     0.074 A 
ATOM     23  C   UNL     1       6.598  -4.248  -5.061  1.00  0.00     0.031 C 
ATOM     24  C   UNL     1       4.884  -6.974   1.050  1.00  0.00     0.029 A 
ATOM     25  C   UNL     1       5.700  -7.819   0.189  1.00  0.00     0.049 A 
ATOM     26  H   UNL     1       6.524  -7.332  -1.664  1.00  0.00     0.167 HD
ATOM     27  C   UNL     1       7.885  -6.275  -5.689  1.00  0.00     0.034 A 
ATOM     28  C   UNL     1       6.061  -9.086   0.468  1.00  0.00     0.034 A 
ATOM     29  C   UNL     1       8.446  -7.572  -5.412  1.00  0.00     0.049 A 
ATOM     30  C   UNL     1       6.917  -9.826  -0.517  1.00  0.00     0.074 A 
ATOM     31  C   UNL     1       9.291  -8.329  -6.206  1.00  0.00     0.029 A 
ATOM     32  N   UNL     1       8.211  -8.312  -4.263  1.00  0.00    -0.354 N 
ATOM     33  N   UNL     1       7.408  -9.408  -1.658  1.00  0.00    -0.248 NA
ATOM     34  C   UNL     1       7.290 -11.203  -0.167  1.00  0.00     0.031 C 
ATOM     35  C   UNL     1       9.546  -9.537  -5.548  1.00  0.00     0.029 A 
ATOM     36  C   UNL     1       8.878  -9.523  -4.334  1.00  0.00     0.049 A 
ATOM     37  H   UNL     1       7.651  -8.019  -3.508  1.00  0.00     0.167 HD
ATOM     38  C   UNL     1       8.165 -10.461  -2.153  1.00  0.00     0.074 A 
ATOM     39  C   UNL     1       8.096 -11.524  -1.170  1.00  0.00     0.031 C 
ATOM     40  C   UNL     1       8.837 -10.551  -3.327  1.00  0.00     0.034 A 
BRANCH  27  41
ATOM     41  C   UNL     1       8.190  -5.657  -7.029  1.00  0.00     0.023 A 
ATOM     42  C   UNL     1       9.157  -4.637  -7.119  1.00  0.00     0.012 A 
ATOM     43  C   UNL     1       7.607  -6.166  -8.207  1.00  0.00     0.148 A 
ATOM     44  C   UNL     1       9.531  -4.123  -8.361  1.00  0.00     0.002 A 
ATOM     45  C   UNL     1       8.011  -5.674  -9.443  1.00  0.00     0.091 A 
ATOM     46  F   UNL     1       6.677  -7.125  -8.096  1.00  0.00    -0.205 F 
ATOM     47  C   UNL     1       8.968  -4.649  -9.521  1.00  0.00     0.022 A 
BRANCH  45  48
ATOM     48  S   UNL     1       7.405  -6.335 -11.000  1.00  0.00     0.127 S 
ATOM     49  O   UNL     1       6.619  -5.211 -11.510  1.00  0.00    -0.237 OA
ATOM     50  O   UNL     1       8.647  -6.590 -11.729  1.00  0.00    -0.237 OA
ATOM     51  O   UNL     1       6.639  -7.526 -10.662  1.00  0.00    -0.744 OA
ENDBRANCH  45  48
ENDBRANCH  27  41
BRANCH  28  52
ATOM     52  C   UNL     1       5.635  -9.713   1.750  1.00  0.00     0.023 A 
ATOM     53  C   UNL     1       6.597 -10.002   2.736  1.00  0.00     0.012 A 
ATOM     54  C   UNL     1       4.279  -9.991   2.011  1.00  0.00     0.148 A 
ATOM     55  C   UNL     1       6.220 -10.585   3.946  1.00  0.00     0.002 A 
ATOM     56  C   UNL     1       3.903 -10.514   3.242  1.00  0.00     0.091 A 
ATOM     57  F   UNL     1       3.378  -9.728   1.054  1.00  0.00    -0.205 F 
ATOM     58  C   UNL     1       4.873 -10.829   4.205  1.00  0.00     0.022 A 
BRANCH  56  59
ATOM     59  S   UNL     1       2.177 -10.708   3.699  1.00  0.00     0.127 S 
ATOM     60  O   UNL     1       1.966 -12.135   3.473  1.00  0.00    -0.237 OA
ATOM     61  O   UNL     1       2.180 -10.300   5.104  1.00  0.00    -0.237 OA
ATOM     62  O   UNL     1       1.446  -9.804   2.821  1.00  0.00    -0.744 OA
ENDBRANCH  56  59
ENDBRANCH  28  52
BRANCH  40  63
ATOM     63  C   UNL     1       9.565 -11.838  -3.606  1.00  0.00     0.023 A 
ATOM     64  C   UNL     1       8.830 -12.995  -3.935  1.00  0.00     0.012 A 
ATOM     65  C   UNL     1      10.972 -11.889  -3.597  1.00  0.00     0.148 A 
ATOM     66  C   UNL     1       9.485 -14.192  -4.218  1.00  0.00     0.002 A 
ATOM     67  C   UNL     1      11.618 -13.074  -3.926  1.00  0.00     0.091 A 
ATOM     68  F   UNL     1      11.651 -10.783  -3.260  1.00  0.00    -0.205 F 
ATOM     69  C   UNL     1      10.877 -14.229  -4.224  1.00  0.00     0.022 A 
BRANCH  67  70
ATOM     70  S   UNL     1      13.407 -13.189  -4.049  1.00  0.00     0.127 S 
ATOM     71  O   UNL     1      13.742 -13.932  -2.836  1.00  0.00    -0.237 OA
ATOM     72  O   UNL     1      13.586 -13.939  -5.293  1.00  0.00    -0.237 OA
ATOM     73  O   UNL     1      13.893 -11.816  -4.098  1.00  0.00    -0.744 OA
ENDBRANCH  67  70
ENDBRANCH  40  63
ENDBRANCH  14  15
ENDBRANCH   7   9
ENDBRANCH   4   5
ENDBRANCH   3   4
ENDBRANCH   2   3
ENDBRANCH   1   2
BRANCH   1  74
ATOM     74  C   UNL     1       6.381   4.015   1.330  1.00  0.00     0.021 C 
BRANCH  74  75
ATOM     75  C   UNL     1       6.956   5.058   0.372  1.00  0.00     0.116 C 
BRANCH  75  76
ATOM     76  N   UNL     1       6.739   6.386   0.895  1.00  0.00    -0.356 N 
ATOM     77  C   UNL     1       7.571   7.297   1.450  1.00  0.00     0.224 C 
ATOM     78  H   UNL     1       5.803   6.688   0.837  1.00  0.00     0.163 HD
ATOM     79  O   UNL     1       7.026   8.326   1.863  1.00  0.00    -0.275 OA
BRANCH  77  80
ATOM     80  C   UNL     1       9.100   7.140   1.446  1.00  0.00     0.094 C 
ATOM     81  C   UNL     1       9.746   8.345   2.205  1.00  0.00     0.002 C 
ATOM     82  C   UNL     1       9.694   5.798   2.007  1.00  0.00     0.094 C 
ATOM     83  C   UNL     1       9.432   8.265   3.713  1.00  0.00     0.005 C 
ATOM     84  C   UNL     1      11.274   8.271   2.034  1.00  0.00     0.005 C 
ATOM     85  C   UNL     1      10.646   6.137   3.192  1.00  0.00     0.002 C 
ATOM     86  C   UNL     1       9.844   6.900   4.257  1.00  0.00     0.005 C 
ATOM     87  C   UNL     1      11.813   7.012   2.712  1.00  0.00     0.005 C 
BRANCH  82  88
ATOM     88  C   UNL     1      10.395   5.004   0.876  1.00  0.00     0.228 C 
ATOM     89  O   UNL     1      10.376   5.400  -0.296  1.00  0.00    -0.274 OA
ATOM     90  N   UNL     1      11.082   3.845   1.087  1.00  0.00    -0.326 N 
ATOM     91  H   UNL     1      11.406   3.401   0.270  1.00  0.00     0.169 HD
BRANCH  90  92
ATOM     92  C   UNL     1      11.397   3.190   2.276  1.00  0.00     0.041 A 
ATOM     93  C   UNL     1      12.751   2.946   2.502  1.00  0.00     0.026 A 
ATOM     94  C   UNL     1      10.452   2.847   3.241  1.00  0.00     0.026 A 
ATOM     95  C   UNL     1      13.174   2.505   3.751  1.00  0.00     0.006 A 
ATOM     96  C   UNL     1      10.878   2.353   4.480  1.00  0.00     0.006 A 
ATOM     97  C   UNL     1      12.246   2.222   4.762  1.00  0.00    -0.043 A 
BRANCH  97  98
ATOM     98  C   UNL     1      12.727   1.803   6.133  1.00  0.00     0.071 C 
BRANCH  98  99
ATOM     99  C   UNL     1      13.184   0.369   6.217  1.00  0.00    -0.041 A 
ATOM    100  C   UNL     1      14.409  -0.034   5.672  1.00  0.00     0.024 A 
ATOM    101  C   UNL     1      12.387  -0.599   6.833  1.00  0.00     0.024 A 
ATOM    102  C   UNL     1      14.773  -1.367   5.754  1.00  0.00     0.111 A 
ATOM    103  C   UNL     1      12.846  -1.907   6.879  1.00  0.00     0.111 A 
ATOM    104  N   UNL     1      14.023  -2.311   6.358  1.00  0.00    -0.265 NA
ENDBRANCH  98  99
ENDBRANCH  97  98
ENDBRANCH  90  92
ENDBRANCH  82  88
ENDBRANCH  77  80
ENDBRANCH  75  76
ENDBRANCH  74  75
ENDBRANCH   1  74
TORSDOF 20
