REMARK SMILES Cc1ccc(Cn2c(C)c(C[NH2+]C[C@@H]3CCCO3)c(C(=O)NCCCCCCNC(=O)c3ccc(-c4c5nc(c(-c6cccc(S(=O)(=O)[O-])c6F)c6ccc([nH]6)c(-c6cccc(S(=O)(=O)[O-])c6F)c6nc(c(-c7cccc(S(=O)(=O)[O-])c7F)c7ccc4[nH]7)C=C6)C=C5)cc3)c2C)cc1
REMARK SMILES IDX 25 1 24 2 23 3 22 4 20 5 21 6 19 8 7 9 8 10 95 11 9 12 10 13
REMARK SMILES IDX 96 14 6 15 5 16 1 17 2 18 3 19 98 20 4 21 97 22 11 23 12 24
REMARK SMILES IDX 13 27 14 28 15 29 18 30 16 31 17 32 26 33 27 34 28 35 29 36
REMARK SMILES IDX 30 37 31 39 32 40 33 41 94 42 34 43 93 44 35 45 36 46 37 47
REMARK SMILES IDX 87 48 38 49 92 50 86 51 88 52 39 53 91 54 85 55 84 56 40 58
REMARK SMILES IDX 72 59 52 60 71 61 53 62 56 63 70 64 89 65 54 66 55 67 69 69
REMARK SMILES IDX 90 70 57 71 41 72 42 73 50 74 43 75 45 76 51 77 44 78 46 79
REMARK SMILES IDX 47 80 48 81 49 82 73 83 74 84 82 85 75 86 77 87 83 88 76 89
REMARK SMILES IDX 78 90 79 91 80 92 81 93 58 94 59 95 67 96 60 97 62 98 68 99
REMARK SMILES IDX 61 100 63 101 64 102 65 103 66 104
REMARK H PARENT 22 7 12 25 12 26 29 38 88 57 56 68
REMARK Flexibility Score: inf
ROOT
ATOM      1  C   UNL     1      -2.175  -7.134  -1.274  1.00  0.00     0.002 C 
ENDROOT
BRANCH   1   2
ATOM      2  C   UNL     1      -2.566  -5.679  -0.987  1.00  0.00     0.021 C 
BRANCH   2   3
ATOM      3  C   UNL     1      -2.354  -4.708  -2.152  1.00  0.00     0.116 C 
BRANCH   3   4
ATOM      4  N   UNL     1      -3.502  -4.679  -3.026  1.00  0.00    -0.352 N 
ATOM      5  C   UNL     1      -4.302  -3.647  -3.442  1.00  0.00     0.253 C 
ATOM      6  O   UNL     1      -4.931  -3.879  -4.478  1.00  0.00    -0.269 OA
ATOM      7  H   UNL     1      -3.756  -5.559  -3.388  1.00  0.00     0.163 HD
BRANCH   5   8
ATOM      8  C   UNL     1      -4.337  -2.330  -2.778  1.00  0.00     0.069 A 
ATOM      9  N   UNL     1      -3.966  -0.591  -1.401  1.00  0.00    -0.343 N 
ATOM     10  C   UNL     1      -4.719  -0.086  -2.446  1.00  0.00     0.025 A 
ATOM     11  C   UNL     1      -4.084  -1.977  -1.449  1.00  0.00     0.028 A 
ATOM     12  C   UNL     1      -5.272   1.298  -2.531  1.00  0.00     0.065 C 
ATOM     13  C   UNL     1      -4.954  -1.139  -3.330  1.00  0.00     0.040 A 
ATOM     14  C   UNL     1      -4.075  -2.817  -0.216  1.00  0.00     0.065 C 
BRANCH   9  15
ATOM     15  C   UNL     1      -3.389   0.175  -0.286  1.00  0.00     0.157 C 
BRANCH  15  16
ATOM     16  C   UNL     1      -1.871   0.219  -0.280  1.00  0.00    -0.028 A 
ATOM     17  C   UNL     1       2.457   0.396  -0.032  1.00  0.00     0.044 C 
ATOM     18  C   UNL     1       0.959   0.352  -0.110  1.00  0.00    -0.051 A 
ATOM     19  C   UNL     1       0.280  -0.817   0.233  1.00  0.00     0.004 A 
ATOM     20  C   UNL     1       0.219   1.453  -0.554  1.00  0.00     0.004 A 
ATOM     21  C   UNL     1      -1.115  -0.874   0.165  1.00  0.00     0.006 A 
ATOM     22  C   UNL     1      -1.180   1.386  -0.641  1.00  0.00     0.006 A 
ENDBRANCH  15  16
ENDBRANCH   9  15
BRANCH  13  23
ATOM     23  C   UNL     1      -5.848  -1.084  -4.551  1.00  0.00     0.300 C 
BRANCH  23  24
ATOM     24  N   UNL     1      -7.217  -1.300  -4.068  1.00  0.00    -0.340 N 
ATOM     25  H   UNL     1      -7.559  -0.424  -3.673  1.00  0.00     0.346 HD
ATOM     26  H   UNL     1      -7.169  -2.052  -3.381  1.00  0.00     0.346 HD
BRANCH  24  27
ATOM     27  C   UNL     1      -8.160  -1.736  -5.105  1.00  0.00     0.293 C 
BRANCH  27  28
ATOM     28  C   UNL     1      -8.056  -3.239  -5.421  1.00  0.00     0.173 C 
ATOM     29  C   UNL     1      -9.340  -3.869  -5.931  1.00  0.00     0.040 C 
ATOM     30  O   UNL     1      -7.798  -3.999  -4.224  1.00  0.00    -0.372 OA
ATOM     31  C   UNL     1      -9.050  -5.341  -5.728  1.00  0.00     0.031 C 
ATOM     32  C   UNL     1      -8.143  -5.361  -4.507  1.00  0.00     0.161 C 
ENDBRANCH  27  28
ENDBRANCH  24  27
ENDBRANCH  23  24
ENDBRANCH  13  23
ENDBRANCH   5   8
ENDBRANCH   3   4
ENDBRANCH   2   3
ENDBRANCH   1   2
BRANCH   1  33
ATOM     33  C   UNL     1      -0.727  -7.371  -1.734  1.00  0.00     0.002 C 
BRANCH  33  34
ATOM     34  C   UNL     1       0.349  -6.579  -0.987  1.00  0.00     0.021 C 
BRANCH  34  35
ATOM     35  C   UNL     1       0.508  -6.986   0.471  1.00  0.00     0.116 C 
BRANCH  35  36
ATOM     36  N   UNL     1       1.507  -8.018   0.671  1.00  0.00    -0.352 N 
ATOM     37  C   UNL     1       1.893  -8.689   1.822  1.00  0.00     0.251 C 
ATOM     38  H   UNL     1       1.990  -8.287  -0.143  1.00  0.00     0.163 HD
ATOM     39  O   UNL     1       2.891  -9.376   1.785  1.00  0.00    -0.269 OA
BRANCH  37  40
ATOM     40  C   UNL     1       1.021  -8.659   3.030  1.00  0.00     0.039 A 
ATOM     41  C   UNL     1       0.838  -9.860   3.732  1.00  0.00     0.014 A 
ATOM     42  C   UNL     1       0.254  -7.545   3.355  1.00  0.00     0.014 A 
ATOM     43  C   UNL     1      -0.263 -10.012   4.574  1.00  0.00     0.010 A 
ATOM     44  C   UNL     1      -0.884  -7.714   4.113  1.00  0.00     0.010 A 
ATOM     45  C   UNL     1      -1.175  -8.966   4.665  1.00  0.00    -0.014 A 
BRANCH  45  46
ATOM     46  C   UNL     1      -2.513  -9.079   5.224  1.00  0.00     0.031 A 
ATOM     47  C   UNL     1      -2.812  -8.564   6.571  1.00  0.00     0.074 A 
ATOM     48  C   UNL     1      -3.514  -9.444   4.394  1.00  0.00     0.049 A 
ATOM     49  N   UNL     1      -3.881  -8.847   7.233  1.00  0.00    -0.248 NA
ATOM     50  C   UNL     1      -1.889  -7.703   7.295  1.00  0.00     0.031 C 
ATOM     51  C   UNL     1      -4.939  -9.197   4.565  1.00  0.00     0.029 A 
ATOM     52  N   UNL     1      -3.443 -10.319   3.305  1.00  0.00    -0.354 N 
ATOM     53  C   UNL     1      -3.929  -8.001   8.322  1.00  0.00     0.074 A 
ATOM     54  C   UNL     1      -2.622  -7.389   8.366  1.00  0.00     0.031 C 
ATOM     55  C   UNL     1      -5.619 -10.089   3.829  1.00  0.00     0.029 A 
ATOM     56  C   UNL     1      -4.649 -11.038   3.309  1.00  0.00     0.049 A 
ATOM     57  H   UNL     1      -2.700 -10.411   2.665  1.00  0.00     0.167 HD
ATOM     58  C   UNL     1      -5.123  -7.810   8.954  1.00  0.00     0.034 A 
ATOM     59  C   UNL     1      -4.725 -12.395   3.431  1.00  0.00     0.034 A 
ATOM     60  C   UNL     1      -6.160  -8.687   8.387  1.00  0.00     0.049 A 
ATOM     61  C   UNL     1      -5.582 -12.841   4.600  1.00  0.00     0.074 A 
ATOM     62  C   UNL     1      -7.172  -8.470   7.465  1.00  0.00     0.029 A 
ATOM     63  N   UNL     1      -6.081 -10.063   8.568  1.00  0.00    -0.354 N 
ATOM     64  N   UNL     1      -6.025 -12.039   5.528  1.00  0.00    -0.248 NA
ATOM     65  C   UNL     1      -5.988 -14.224   4.833  1.00  0.00     0.031 C 
ATOM     66  C   UNL     1      -7.654  -9.735   7.036  1.00  0.00     0.029 A 
ATOM     67  C   UNL     1      -6.955 -10.719   7.715  1.00  0.00     0.049 A 
ATOM     68  H   UNL     1      -5.486 -10.510   9.212  1.00  0.00     0.167 HD
ATOM     69  C   UNL     1      -6.640 -12.760   6.518  1.00  0.00     0.074 A 
ATOM     70  C   UNL     1      -6.657 -14.115   5.995  1.00  0.00     0.031 C 
ATOM     71  C   UNL     1      -7.022 -12.177   7.699  1.00  0.00     0.034 A 
BRANCH  58  72
ATOM     72  C   UNL     1      -5.476  -6.634   9.860  1.00  0.00     0.023 A 
ATOM     73  C   UNL     1      -6.851  -6.378  10.075  1.00  0.00     0.012 A 
ATOM     74  C   UNL     1      -4.588  -5.707  10.452  1.00  0.00     0.148 A 
ATOM     75  C   UNL     1      -7.318  -5.226  10.721  1.00  0.00     0.002 A 
ATOM     76  C   UNL     1      -5.048  -4.528  11.048  1.00  0.00     0.091 A 
ATOM     77  F   UNL     1      -3.287  -5.983  10.527  1.00  0.00    -0.205 F 
ATOM     78  C   UNL     1      -6.415  -4.279  11.175  1.00  0.00     0.022 A 
BRANCH  76  79
ATOM     79  S   UNL     1      -3.930  -3.232  11.617  1.00  0.00     0.127 S 
ATOM     80  O   UNL     1      -4.443  -2.054  10.915  1.00  0.00    -0.237 OA
ATOM     81  O   UNL     1      -4.161  -3.228  13.060  1.00  0.00    -0.237 OA
ATOM     82  O   UNL     1      -2.591  -3.635  11.200  1.00  0.00    -0.744 OA
ENDBRANCH  76  79
ENDBRANCH  58  72
BRANCH  59  83
ATOM     83  C   UNL     1      -3.532 -13.117   2.904  1.00  0.00     0.023 A 
ATOM     84  C   UNL     1      -3.284 -13.006   1.514  1.00  0.00     0.012 A 
ATOM     85  C   UNL     1      -2.488 -13.536   3.747  1.00  0.00     0.148 A 
ATOM     86  C   UNL     1      -2.000 -13.182   0.996  1.00  0.00     0.002 A 
ATOM     87  C   UNL     1      -1.207 -13.710   3.221  1.00  0.00     0.091 A 
ATOM     88  F   UNL     1      -2.737 -13.676   5.055  1.00  0.00    -0.205 F 
ATOM     89  C   UNL     1      -0.956 -13.501   1.855  1.00  0.00     0.022 A 
BRANCH  87  90
ATOM     90  S   UNL     1       0.206 -14.062   4.277  1.00  0.00     0.127 S 
ATOM     91  O   UNL     1       0.295 -15.515   4.172  1.00  0.00    -0.237 OA
ATOM     92  O   UNL     1       1.284 -13.329   3.615  1.00  0.00    -0.237 OA
ATOM     93  O   UNL     1      -0.163 -13.527   5.580  1.00  0.00    -0.744 OA
ENDBRANCH  87  90
ENDBRANCH  59  83
BRANCH  71  94
ATOM     94  C   UNL     1      -7.479 -12.906   8.953  1.00  0.00     0.023 A 
ATOM     95  C   UNL     1      -7.213 -14.270   9.177  1.00  0.00     0.012 A 
ATOM     96  C   UNL     1      -8.070 -12.195  10.033  1.00  0.00     0.148 A 
ATOM     97  C   UNL     1      -7.550 -14.908  10.378  1.00  0.00     0.002 A 
ATOM     98  C   UNL     1      -8.301 -12.807  11.263  1.00  0.00     0.091 A 
ATOM     99  F   UNL     1      -8.434 -10.914   9.874  1.00  0.00    -0.205 F 
ATOM    100  C   UNL     1      -8.069 -14.171  11.432  1.00  0.00     0.022 A 
BRANCH  98 101
ATOM    101  S   UNL     1      -8.744 -11.824  12.704  1.00  0.00     0.127 S 
ATOM    102  O   UNL     1     -10.203 -11.802  12.625  1.00  0.00    -0.237 OA
ATOM    103  O   UNL     1      -8.208 -12.619  13.812  1.00  0.00    -0.237 OA
ATOM    104  O   UNL     1      -8.064 -10.551  12.504  1.00  0.00    -0.744 OA
ENDBRANCH  98 101
ENDBRANCH  71  94
ENDBRANCH  45  46
ENDBRANCH  37  40
ENDBRANCH  35  36
ENDBRANCH  34  35
ENDBRANCH  33  34
ENDBRANCH   1  33
TORSDOF 22
