REMARK SMILES Cc1ccccc1Nc1nc2c(c(=O)[nH]c(=O)n2C)n1CC(=O)NCCCCCCNC(=O)c1ccc(-c2c3nc(c(-c4cccc(S(=O)(=O)[O-])c4F)c4ccc([nH]4)c(-c4cccc(S(=O)(=O)[O-])c4F)c4nc(c(-c5cccc(S(=O)(=O)[O-])c5F)c5ccc2[nH]5)C=C4)C=C3)cc1
REMARK SMILES IDX 27 1 26 2 25 3 24 4 22 5 23 6 21 8 20 9 9 10 10 11 11 12
REMARK SMILES IDX 12 13 18 14 13 15 16 16 19 17 14 18 15 19 17 20 8 22 7 24
REMARK SMILES IDX 1 25 2 26 3 27 4 28 6 29 5 30 28 31 29 32 30 33 31 34 32 35
REMARK SMILES IDX 33 37 34 38 35 39 96 40 36 41 95 42 37 43 38 44 39 45 89 46
REMARK SMILES IDX 40 47 94 48 88 49 90 50 41 51 93 52 87 53 86 54 42 56 74 57
REMARK SMILES IDX 54 58 73 59 55 60 58 61 72 62 91 63 56 64 57 65 71 67 92 68
REMARK SMILES IDX 59 69 43 70 44 71 52 72 45 73 47 74 53 75 46 76 48 77 49 78
REMARK SMILES IDX 50 79 51 80 75 81 76 82 84 83 77 84 79 85 85 86 78 87 80 88
REMARK SMILES IDX 81 89 82 90 83 91 60 92 61 93 69 94 62 95 64 96 70 97 63 98
REMARK SMILES IDX 65 99 66 100 67 101 68 102
REMARK H PARENT 24 7 15 21 8 23 31 36 90 55 58 66
REMARK Flexibility Score: inf
ROOT
ATOM      1  C   UNL     1      -4.427   2.084  -1.157  1.00  0.00     0.002 C 
ENDROOT
BRANCH   1   2
ATOM      2  C   UNL     1      -3.722   3.324  -0.593  1.00  0.00     0.021 C 
BRANCH   2   3
ATOM      3  C   UNL     1      -3.637   3.362   0.933  1.00  0.00     0.116 C 
BRANCH   3   4
ATOM      4  N   UNL     1      -2.919   2.249   1.512  1.00  0.00    -0.355 N 
ATOM      5  C   UNL     1      -1.713   2.197   2.142  1.00  0.00     0.240 C 
ATOM      6  O   UNL     1      -1.460   1.167   2.777  1.00  0.00    -0.273 OA
ATOM      7  H   UNL     1      -3.380   1.382   1.437  1.00  0.00     0.163 HD
BRANCH   5   8
ATOM      8  C   UNL     1      -0.759   3.369   2.187  1.00  0.00     0.226 C 
BRANCH   8   9
ATOM      9  N   UNL     1      -0.505   4.053   0.929  1.00  0.00    -0.295 N 
ATOM     10  C   UNL     1       0.308   3.632  -0.118  1.00  0.00     0.210 A 
ATOM     11  N   UNL     1       0.435   4.590  -1.017  1.00  0.00    -0.194 NA
ATOM     12  C   UNL     1      -0.341   5.616  -0.581  1.00  0.00     0.170 A 
ATOM     13  C   UNL     1      -0.879   5.352   0.645  1.00  0.00     0.154 A 
ATOM     14  N   UNL     1      -0.582   6.804  -1.241  1.00  0.00    -0.279 N 
ATOM     15  C   UNL     1      -1.677   6.310   1.336  1.00  0.00     0.279 A 
ATOM     16  C   UNL     1      -1.421   7.743  -0.652  1.00  0.00     0.329 A 
ATOM     17  C   UNL     1       0.002   7.066  -2.543  1.00  0.00     0.157 C 
ATOM     18  O   UNL     1      -2.140   6.170   2.469  1.00  0.00    -0.267 OA
ATOM     19  N   UNL     1      -1.925   7.437   0.596  1.00  0.00    -0.272 N 
ATOM     20  O   UNL     1      -1.730   8.820  -1.155  1.00  0.00    -0.248 OA
ATOM     21  H   UNL     1      -2.529   8.102   1.000  1.00  0.00     0.175 HD
BRANCH  10  22
ATOM     22  N   UNL     1       0.997   2.463  -0.143  1.00  0.00    -0.325 N 
ATOM     23  H   UNL     1       1.977   2.539  -0.100  1.00  0.00     0.170 HD
BRANCH  22  24
ATOM     24  C   UNL     1       0.478   1.143  -0.224  1.00  0.00     0.044 A 
ATOM     25  C   UNL     1       2.781   0.099   0.209  1.00  0.00     0.046 C 
ATOM     26  C   UNL     1       1.292   0.019   0.029  1.00  0.00    -0.027 A 
ATOM     27  C   UNL     1       0.720  -1.272   0.049  1.00  0.00     0.005 A 
ATOM     28  C   UNL     1      -0.634  -1.466  -0.199  1.00  0.00     0.000 A 
ATOM     29  C   UNL     1      -0.859   0.903  -0.555  1.00  0.00     0.026 A 
ATOM     30  C   UNL     1      -1.420  -0.377  -0.527  1.00  0.00     0.002 A 
ENDBRANCH  22  24
ENDBRANCH  10  22
ENDBRANCH   8   9
ENDBRANCH   5   8
ENDBRANCH   3   4
ENDBRANCH   2   3
ENDBRANCH   1   2
BRANCH   1  31
ATOM     31  C   UNL     1      -5.809   1.782  -0.563  1.00  0.00     0.002 C 
BRANCH  31  32
ATOM     32  C   UNL     1      -6.742   2.984  -0.449  1.00  0.00     0.021 C 
BRANCH  32  33
ATOM     33  C   UNL     1      -7.048   3.620  -1.786  1.00  0.00     0.116 C 
BRANCH  33  34
ATOM     34  N   UNL     1      -8.248   3.106  -2.390  1.00  0.00    -0.352 N 
ATOM     35  C   UNL     1      -8.970   3.627  -3.442  1.00  0.00     0.251 C 
ATOM     36  H   UNL     1      -8.600   2.273  -2.001  1.00  0.00     0.163 HD
ATOM     37  O   UNL     1     -10.135   3.261  -3.565  1.00  0.00    -0.269 OA
BRANCH  35  38
ATOM     38  C   UNL     1      -8.294   4.437  -4.494  1.00  0.00     0.039 A 
ATOM     39  C   UNL     1      -8.759   4.250  -5.800  1.00  0.00     0.014 A 
ATOM     40  C   UNL     1      -7.059   5.046  -4.290  1.00  0.00     0.014 A 
ATOM     41  C   UNL     1      -7.870   4.335  -6.860  1.00  0.00     0.010 A 
ATOM     42  C   UNL     1      -6.148   5.036  -5.311  1.00  0.00     0.010 A 
ATOM     43  C   UNL     1      -6.540   4.575  -6.565  1.00  0.00    -0.014 A 
BRANCH  43  44
ATOM     44  C   UNL     1      -5.448   4.485  -7.500  1.00  0.00     0.031 A 
ATOM     45  C   UNL     1      -5.162   5.661  -8.315  1.00  0.00     0.074 A 
ATOM     46  C   UNL     1      -4.573   3.477  -7.303  1.00  0.00     0.049 A 
ATOM     47  N   UNL     1      -4.243   5.702  -9.205  1.00  0.00    -0.248 NA
ATOM     48  C   UNL     1      -5.911   6.905  -8.181  1.00  0.00     0.031 C 
ATOM     49  C   UNL     1      -3.162   3.397  -7.644  1.00  0.00     0.029 A 
ATOM     50  N   UNL     1      -4.866   2.208  -6.819  1.00  0.00    -0.354 N 
ATOM     51  C   UNL     1      -4.065   7.026  -9.534  1.00  0.00     0.074 A 
ATOM     52  C   UNL     1      -5.212   7.705  -8.989  1.00  0.00     0.031 C 
ATOM     53  C   UNL     1      -2.773   2.110  -7.595  1.00  0.00     0.029 A 
ATOM     54  C   UNL     1      -3.975   1.309  -7.429  1.00  0.00     0.049 A 
ATOM     55  H   UNL     1      -5.569   1.980  -6.168  1.00  0.00     0.167 HD
ATOM     56  C   UNL     1      -2.870   7.373 -10.086  1.00  0.00     0.034 A 
ATOM     57  C   UNL     1      -4.478   0.438  -8.364  1.00  0.00     0.034 A 
ATOM     58  C   UNL     1      -2.090   6.155 -10.397  1.00  0.00     0.049 A 
ATOM     59  C   UNL     1      -4.023   0.760  -9.789  1.00  0.00     0.074 A 
ATOM     60  C   UNL     1      -1.050   5.468  -9.791  1.00  0.00     0.029 A 
ATOM     61  N   UNL     1      -2.632   5.269 -11.312  1.00  0.00    -0.354 N 
ATOM     62  N   UNL     1      -3.219   1.739 -10.113  1.00  0.00    -0.248 NA
ATOM     63  C   UNL     1      -4.494   0.031 -10.966  1.00  0.00     0.031 C 
ATOM     64  C   UNL     1      -1.040   4.131 -10.314  1.00  0.00     0.029 A 
ATOM     65  C   UNL     1      -2.044   4.019 -11.263  1.00  0.00     0.049 A 
ATOM     66  H   UNL     1      -3.360   5.505 -11.932  1.00  0.00     0.167 HD
ATOM     67  C   UNL     1      -3.205   1.901 -11.473  1.00  0.00     0.074 A 
ATOM     68  C   UNL     1      -3.990   0.776 -11.965  1.00  0.00     0.031 C 
ATOM     69  C   UNL     1      -2.610   2.963 -12.104  1.00  0.00     0.034 A 
BRANCH  56  70
ATOM     70  C   UNL     1      -2.294   8.776 -10.170  1.00  0.00     0.023 A 
ATOM     71  C   UNL     1      -0.934   8.871 -10.537  1.00  0.00     0.012 A 
ATOM     72  C   UNL     1      -2.934  10.005  -9.866  1.00  0.00     0.148 A 
ATOM     73  C   UNL     1      -0.237  10.085 -10.552  1.00  0.00     0.002 A 
ATOM     74  C   UNL     1      -2.240  11.219  -9.871  1.00  0.00     0.091 A 
ATOM     75  F   UNL     1      -4.231  10.040  -9.578  1.00  0.00    -0.205 F 
ATOM     76  C   UNL     1      -0.887  11.259 -10.207  1.00  0.00     0.022 A 
BRANCH  74  77
ATOM     77  S   UNL     1      -3.008  12.790  -9.422  1.00  0.00     0.127 S 
ATOM     78  O   UNL     1      -2.176  13.224  -8.298  1.00  0.00    -0.237 OA
ATOM     79  O   UNL     1      -2.840  13.579 -10.641  1.00  0.00    -0.237 OA
ATOM     80  O   UNL     1      -4.391  12.494  -9.066  1.00  0.00    -0.744 OA
ENDBRANCH  74  77
ENDBRANCH  56  70
BRANCH  57  81
ATOM     81  C   UNL     1      -5.864  -0.021  -7.967  1.00  0.00     0.023 A 
ATOM     82  C   UNL     1      -5.991  -0.576  -6.664  1.00  0.00     0.012 A 
ATOM     83  C   UNL     1      -7.011   0.516  -8.575  1.00  0.00     0.148 A 
ATOM     84  C   UNL     1      -7.138  -0.341  -5.900  1.00  0.00     0.002 A 
ATOM     85  C   UNL     1      -8.173   0.691  -7.823  1.00  0.00     0.091 A 
ATOM     86  F   UNL     1      -6.949   0.907  -9.854  1.00  0.00    -0.205 F 
ATOM     87  C   UNL     1      -8.210   0.342  -6.465  1.00  0.00     0.022 A 
BRANCH  85  88
ATOM     88  S   UNL     1      -9.625   1.439  -8.571  1.00  0.00     0.127 S 
ATOM     89  O   UNL     1     -10.236   0.292  -9.236  1.00  0.00    -0.237 OA
ATOM     90  O   UNL     1     -10.376   1.940  -7.420  1.00  0.00    -0.237 OA
ATOM     91  O   UNL     1      -9.096   2.482  -9.438  1.00  0.00    -0.744 OA
ENDBRANCH  85  88
ENDBRANCH  57  81
BRANCH  69  92
ATOM     92  C   UNL     1      -2.540   3.090 -13.618  1.00  0.00     0.023 A 
ATOM     93  C   UNL     1      -2.325   1.948 -14.415  1.00  0.00     0.012 A 
ATOM     94  C   UNL     1      -2.541   4.340 -14.291  1.00  0.00     0.148 A 
ATOM     95  C   UNL     1      -2.206   2.031 -15.807  1.00  0.00     0.002 A 
ATOM     96  C   UNL     1      -2.309   4.428 -15.659  1.00  0.00     0.091 A 
ATOM     97  F   UNL     1      -2.818   5.464 -13.626  1.00  0.00    -0.205 F 
ATOM     98  C   UNL     1      -2.181   3.272 -16.427  1.00  0.00     0.022 A 
BRANCH  96  99
ATOM     99  S   UNL     1      -2.052   6.005 -16.487  1.00  0.00     0.127 S 
ATOM    100  O   UNL     1      -0.776   5.775 -17.169  1.00  0.00    -0.237 OA
ATOM    101  O   UNL     1      -3.213   6.071 -17.372  1.00  0.00    -0.237 OA
ATOM    102  O   UNL     1      -1.998   7.013 -15.439  1.00  0.00    -0.744 OA
ENDBRANCH  96  99
ENDBRANCH  69  92
ENDBRANCH  43  44
ENDBRANCH  35  38
ENDBRANCH  33  34
ENDBRANCH  32  33
ENDBRANCH  31  32
ENDBRANCH   1  31
TORSDOF 19
