REMARK SMILES C[NH2+][C@@]1(C(=O)NCCCCCCNC(=O)c2ccc(-c3c4nc(c(-c5cccc(S(=O)(=O)[O-])c5F)c5ccc([nH]5)c(-c5cccc(S(=O)(=O)[O-])c5F)c5nc(c(-c6cccc(S(=O)(=O)[O-])c6F)c6ccc3[nH]6)C=C5)C=C4)cc2)CCC[C@H]1CCSc1nccc(=O)[nH]1
REMARK SMILES IDX 9 1 8 2 7 3 6 4 4 5 5 6 3 8 79 9 82 10 80 11 81 12 2 13 1 14
REMARK SMILES IDX 83 17 84 18 85 19 86 20 87 21 92 22 88 23 90 24 89 26 91 27
REMARK SMILES IDX 10 28 11 29 12 30 13 31 14 32 15 34 16 35 17 36 78 37 18 38
REMARK SMILES IDX 77 39 19 40 20 41 21 42 71 43 22 44 76 45 70 46 72 47 23 48
REMARK SMILES IDX 75 49 69 50 68 51 24 53 56 54 36 55 55 56 37 57 40 58 54 59
REMARK SMILES IDX 73 60 38 61 39 62 53 64 74 65 41 66 25 67 26 68 34 69 27 70
REMARK SMILES IDX 29 71 35 72 28 73 30 74 31 75 32 76 33 77 57 78 58 79 66 80
REMARK SMILES IDX 59 81 61 82 67 83 60 84 62 85 63 86 64 87 65 88 42 89 43 90
REMARK SMILES IDX 51 91 44 92 46 93 52 94 45 95 47 96 48 97 49 98 50 99
REMARK H PARENT 6 7 2 15 2 16 92 25 13 33 72 52 40 63
REMARK Flexibility Score: inf
ROOT
ATOM      1  C   UNL     1      -5.190   0.249   2.554  1.00  0.00     0.002 C 
ENDROOT
BRANCH   1   2
ATOM      2  C   UNL     1      -4.502   0.101   1.198  1.00  0.00     0.021 C 
BRANCH   2   3
ATOM      3  C   UNL     1      -3.824   1.355   0.667  1.00  0.00     0.116 C 
BRANCH   3   4
ATOM      4  N   UNL     1      -2.578   1.687   1.312  1.00  0.00    -0.351 N 
ATOM      5  C   UNL     1      -1.358   2.038   0.823  1.00  0.00     0.281 C 
ATOM      6  O   UNL     1      -0.680   2.677   1.646  1.00  0.00    -0.268 OA
ATOM      7  H   UNL     1      -2.618   1.653   2.295  1.00  0.00     0.163 HD
BRANCH   5   8
ATOM      8  C   UNL     1      -0.810   1.781  -0.660  1.00  0.00     0.178 C 
ATOM      9  C   UNL     1      -1.272   2.983  -1.532  1.00  0.00     0.079 C 
ATOM     10  C   UNL     1      -1.365   0.531  -1.441  1.00  0.00     0.061 C 
ATOM     11  C   UNL     1      -2.573   2.594  -2.191  1.00  0.00     0.008 C 
ATOM     12  C   UNL     1      -2.449   1.100  -2.422  1.00  0.00     0.011 C 
BRANCH   8  13
ATOM     13  N   UNL     1       0.689   1.935  -0.665  1.00  0.00    -0.336 N 
ATOM     14  C   UNL     1       1.460   1.248   0.364  1.00  0.00     0.331 C 
ATOM     15  H   UNL     1       1.023   1.598  -1.568  1.00  0.00     0.346 HD
ATOM     16  H   UNL     1       0.840   2.925  -0.472  1.00  0.00     0.346 HD
ENDBRANCH   8  13
BRANCH  10  17
ATOM     17  C   UNL     1      -0.419  -0.294  -2.356  1.00  0.00     0.022 C 
BRANCH  17  18
ATOM     18  C   UNL     1       0.572  -1.313  -1.796  1.00  0.00     0.079 C 
BRANCH  18  19
ATOM     19  S   UNL     1      -0.134  -2.829  -1.093  1.00  0.00    -0.088 SA
BRANCH  19  20
ATOM     20  C   UNL     1      -0.644  -2.396   0.503  1.00  0.00     0.168 A 
ATOM     21  N   UNL     1      -0.367  -1.286   1.093  1.00  0.00    -0.233 NA
ATOM     22  N   UNL     1      -1.386  -3.386   1.067  1.00  0.00    -0.301 N 
ATOM     23  C   UNL     1      -0.891  -1.105   2.348  1.00  0.00     0.120 A 
ATOM     24  C   UNL     1      -1.933  -3.263   2.306  1.00  0.00     0.251 A 
ATOM     25  H   UNL     1      -1.531  -4.219   0.563  1.00  0.00     0.172 HD
ATOM     26  C   UNL     1      -1.660  -1.990   2.988  1.00  0.00     0.091 A 
ATOM     27  O   UNL     1      -2.610  -4.137   2.835  1.00  0.00    -0.269 OA
ENDBRANCH  19  20
ENDBRANCH  18  19
ENDBRANCH  17  18
ENDBRANCH  10  17
ENDBRANCH   5   8
ENDBRANCH   3   4
ENDBRANCH   2   3
ENDBRANCH   1   2
BRANCH   1  28
ATOM     28  C   UNL     1      -6.169   1.422   2.679  1.00  0.00     0.002 C 
BRANCH  28  29
ATOM     29  C   UNL     1      -7.218   1.544   1.569  1.00  0.00     0.021 C 
BRANCH  29  30
ATOM     30  C   UNL     1      -8.111   0.322   1.379  1.00  0.00     0.116 C 
BRANCH  30  31
ATOM     31  N   UNL     1      -8.873   0.012   2.577  1.00  0.00    -0.352 N 
ATOM     32  C   UNL     1     -10.232  -0.083   2.749  1.00  0.00     0.251 C 
ATOM     33  H   UNL     1      -8.336  -0.155   3.385  1.00  0.00     0.163 HD
ATOM     34  O   UNL     1     -10.699  -0.145   3.884  1.00  0.00    -0.269 OA
BRANCH  32  35
ATOM     35  C   UNL     1     -11.132  -0.098   1.575  1.00  0.00     0.039 A 
ATOM     36  C   UNL     1     -12.307   0.656   1.615  1.00  0.00     0.014 A 
ATOM     37  C   UNL     1     -10.833  -0.870   0.449  1.00  0.00     0.014 A 
ATOM     38  C   UNL     1     -13.156   0.676   0.506  1.00  0.00     0.010 A 
ATOM     39  C   UNL     1     -11.641  -0.789  -0.682  1.00  0.00     0.010 A 
ATOM     40  C   UNL     1     -12.816  -0.023  -0.663  1.00  0.00    -0.014 A 
BRANCH  40  41
ATOM     41  C   UNL     1     -13.672   0.042  -1.877  1.00  0.00     0.031 A 
ATOM     42  C   UNL     1     -14.324  -1.203  -2.416  1.00  0.00     0.074 A 
ATOM     43  C   UNL     1     -13.796   1.209  -2.540  1.00  0.00     0.049 A 
ATOM     44  N   UNL     1     -15.059  -1.350  -3.488  1.00  0.00    -0.248 NA
ATOM     45  C   UNL     1     -14.101  -2.452  -1.669  1.00  0.00     0.031 C 
ATOM     46  C   UNL     1     -13.153   2.469  -2.161  1.00  0.00     0.029 A 
ATOM     47  N   UNL     1     -14.483   1.520  -3.686  1.00  0.00    -0.354 N 
ATOM     48  C   UNL     1     -15.356  -2.705  -3.564  1.00  0.00     0.074 A 
ATOM     49  C   UNL     1     -14.694  -3.345  -2.448  1.00  0.00     0.031 C 
ATOM     50  C   UNL     1     -13.480   3.417  -3.054  1.00  0.00     0.029 A 
ATOM     51  C   UNL     1     -14.326   2.827  -4.086  1.00  0.00     0.049 A 
ATOM     52  H   UNL     1     -15.036   0.870  -4.177  1.00  0.00     0.167 HD
ATOM     53  C   UNL     1     -16.133  -3.356  -4.463  1.00  0.00     0.034 A 
ATOM     54  C   UNL     1     -14.802   3.476  -5.167  1.00  0.00     0.034 A 
ATOM     55  C   UNL     1     -16.820  -2.711  -5.549  1.00  0.00     0.049 A 
ATOM     56  C   UNL     1     -15.686   2.736  -6.134  1.00  0.00     0.074 A 
ATOM     57  C   UNL     1     -17.699  -3.267  -6.462  1.00  0.00     0.029 A 
ATOM     58  N   UNL     1     -16.701  -1.369  -5.877  1.00  0.00    -0.354 N 
ATOM     59  N   UNL     1     -16.082   1.487  -6.100  1.00  0.00    -0.248 NA
ATOM     60  C   UNL     1     -16.219   3.504  -7.268  1.00  0.00     0.031 C 
ATOM     61  C   UNL     1     -18.086  -2.268  -7.361  1.00  0.00     0.029 A 
ATOM     62  C   UNL     1     -17.478  -1.081  -6.986  1.00  0.00     0.049 A 
ATOM     63  H   UNL     1     -16.145  -0.717  -5.392  1.00  0.00     0.167 HD
ATOM     64  C   UNL     1     -16.939   1.329  -7.183  1.00  0.00     0.074 A 
ATOM     65  C   UNL     1     -17.021   2.617  -7.841  1.00  0.00     0.031 C 
ATOM     66  C   UNL     1     -17.590   0.216  -7.602  1.00  0.00     0.034 A 
BRANCH  53  67
ATOM     67  C   UNL     1     -16.319  -4.842  -4.285  1.00  0.00     0.023 A 
ATOM     68  C   UNL     1     -17.089  -5.324  -3.206  1.00  0.00     0.012 A 
ATOM     69  C   UNL     1     -15.787  -5.756  -5.215  1.00  0.00     0.148 A 
ATOM     70  C   UNL     1     -17.295  -6.692  -3.035  1.00  0.00     0.002 A 
ATOM     71  C   UNL     1     -16.037  -7.115  -5.064  1.00  0.00     0.091 A 
ATOM     72  F   UNL     1     -15.041  -5.282  -6.224  1.00  0.00    -0.205 F 
ATOM     73  C   UNL     1     -16.779  -7.586  -3.969  1.00  0.00     0.022 A 
BRANCH  71  74
ATOM     74  S   UNL     1     -15.486  -8.341  -6.257  1.00  0.00     0.127 S 
ATOM     75  O   UNL     1     -14.457  -9.049  -5.497  1.00  0.00    -0.237 OA
ATOM     76  O   UNL     1     -16.708  -9.111  -6.492  1.00  0.00    -0.237 OA
ATOM     77  O   UNL     1     -15.006  -7.593  -7.410  1.00  0.00    -0.744 OA
ENDBRANCH  71  74
ENDBRANCH  53  67
BRANCH  54  78
ATOM     78  C   UNL     1     -14.500   4.923  -5.360  1.00  0.00     0.023 A 
ATOM     79  C   UNL     1     -15.533   5.871  -5.222  1.00  0.00     0.012 A 
ATOM     80  C   UNL     1     -13.197   5.366  -5.657  1.00  0.00     0.148 A 
ATOM     81  C   UNL     1     -15.281   7.230  -5.411  1.00  0.00     0.002 A 
ATOM     82  C   UNL     1     -12.941   6.726  -5.788  1.00  0.00     0.091 A 
ATOM     83  F   UNL     1     -12.230   4.448  -5.794  1.00  0.00    -0.205 F 
ATOM     84  C   UNL     1     -13.985   7.659  -5.684  1.00  0.00     0.022 A 
BRANCH  82  85
ATOM     85  S   UNL     1     -11.282   7.378  -6.008  1.00  0.00     0.127 S 
ATOM     86  O   UNL     1     -11.333   7.868  -7.383  1.00  0.00    -0.237 OA
ATOM     87  O   UNL     1     -11.229   8.420  -4.983  1.00  0.00    -0.237 OA
ATOM     88  O   UNL     1     -10.383   6.256  -5.770  1.00  0.00    -0.744 OA
ENDBRANCH  82  85
ENDBRANCH  54  78
BRANCH  66  89
ATOM     89  C   UNL     1     -18.487   0.341  -8.806  1.00  0.00     0.023 A 
ATOM     90  C   UNL     1     -17.927   0.505 -10.088  1.00  0.00     0.012 A 
ATOM     91  C   UNL     1     -19.885   0.222  -8.672  1.00  0.00     0.148 A 
ATOM     92  C   UNL     1     -18.745   0.583 -11.214  1.00  0.00     0.002 A 
ATOM     93  C   UNL     1     -20.691   0.248  -9.804  1.00  0.00     0.091 A 
ATOM     94  F   UNL     1     -20.400   0.084  -7.442  1.00  0.00    -0.205 F 
ATOM     95  C   UNL     1     -20.124   0.443 -11.074  1.00  0.00     0.022 A 
BRANCH  93  96
ATOM     96  S   UNL     1     -22.465  -0.024  -9.730  1.00  0.00     0.127 S 
ATOM     97  O   UNL     1     -22.983   1.311 -10.026  1.00  0.00    -0.237 OA
ATOM     98  O   UNL     1     -22.671  -1.008 -10.794  1.00  0.00    -0.237 OA
ATOM     99  O   UNL     1     -22.741  -0.518  -8.388  1.00  0.00    -0.744 OA
ENDBRANCH  93  96
ENDBRANCH  66  89
ENDBRANCH  40  41
ENDBRANCH  32  35
ENDBRANCH  30  31
ENDBRANCH  29  30
ENDBRANCH  28  29
ENDBRANCH   1  28
TORSDOF 21
