REMARK SMILES [NH3+]Cc1ccc(C(=O)N2[C@@H](C(=O)NCCCCCCNC(=O)c3ccc(-c4c5nc(c(-c6cccc(S(=O)(=O)[O-])c6F)c6ccc([nH]6)c(-c6cccc(S(=O)(=O)[O-])c6F)c6nc(c(-c7cccc(S(=O)(=O)[O-])c7F)c7ccc4[nH]7)C=C6)C=C5)cc3)C[C@H]3CCCC[C@@H]32)o1
REMARK SMILES IDX 16 1 15 2 14 3 13 4 11 5 12 6 10 8 9 9 92 10 86 11 87 12
REMARK SMILES IDX 91 13 88 14 90 15 89 16 7 17 8 18 6 19 3 20 4 21 93 22 5 23
REMARK SMILES IDX 2 24 1 25 17 29 18 30 19 31 20 32 21 33 22 35 23 36 24 37
REMARK SMILES IDX 85 38 25 39 84 40 26 41 27 42 28 43 78 44 29 45 83 46 77 47
REMARK SMILES IDX 79 48 30 49 82 50 76 51 75 52 31 54 63 55 43 56 62 57 44 58
REMARK SMILES IDX 47 59 61 60 80 61 45 62 46 63 60 65 81 66 48 67 32 68 33 69
REMARK SMILES IDX 41 70 34 71 36 72 42 73 35 74 37 75 38 76 39 77 40 78 64 79
REMARK SMILES IDX 65 80 73 81 66 82 68 83 74 84 67 85 69 86 70 87 71 88 72 89
REMARK SMILES IDX 49 90 50 91 58 92 51 93 53 94 59 95 52 96 54 97 55 98 56 99
REMARK SMILES IDX 57 100
REMARK H PARENT 13 7 1 26 1 27 1 28 20 34 79 53 47 64
REMARK Flexibility Score: inf
ROOT
ATOM      1  C   UNL     1      -3.616  -2.643   7.318  1.00  0.00     0.002 C 
ENDROOT
BRANCH   1   2
ATOM      2  C   UNL     1      -2.331  -2.056   6.716  1.00  0.00     0.021 C 
BRANCH   2   3
ATOM      3  C   UNL     1      -1.073  -2.301   7.549  1.00  0.00     0.116 C 
BRANCH   3   4
ATOM      4  N   UNL     1      -0.732  -3.711   7.565  1.00  0.00    -0.354 N 
ATOM      5  C   UNL     1       0.350  -4.365   7.053  1.00  0.00     0.242 C 
ATOM      6  O   UNL     1       0.344  -5.598   7.109  1.00  0.00    -0.273 OA
ATOM      7  H   UNL     1      -1.387  -4.290   8.018  1.00  0.00     0.163 HD
BRANCH   5   8
ATOM      8  C   UNL     1       1.581  -3.564   6.573  1.00  0.00     0.175 C 
ATOM      9  N   UNL     1       2.292  -4.275   5.493  1.00  0.00    -0.321 N 
ATOM     10  C   UNL     1       3.382  -5.043   6.052  1.00  0.00     0.089 C 
ATOM     11  C   UNL     1       2.592  -3.534   7.743  1.00  0.00     0.041 C 
ATOM     12  C   UNL     1       3.881  -4.050   7.107  1.00  0.00     0.014 C 
ATOM     13  C   UNL     1       4.549  -5.438   5.151  1.00  0.00     0.025 C 
ATOM     14  C   UNL     1       4.917  -4.684   8.015  1.00  0.00     0.006 C 
ATOM     15  C   UNL     1       5.679  -6.045   5.993  1.00  0.00     0.002 C 
ATOM     16  C   UNL     1       6.105  -5.150   7.164  1.00  0.00     0.000 C 
BRANCH   9  17
ATOM     17  C   UNL     1       1.916  -4.331   4.164  1.00  0.00     0.290 C 
ATOM     18  O   UNL     1       2.021  -5.381   3.522  1.00  0.00    -0.265 OA
BRANCH  17  19
ATOM     19  C   UNL     1       1.569  -3.067   3.531  1.00  0.00     0.192 A 
ATOM     20  C   UNL     1       0.879  -1.813   1.842  1.00  0.00     0.159 A 
ATOM     21  C   UNL     1       1.391  -0.946   2.784  1.00  0.00     0.052 A 
ATOM     22  O   UNL     1       0.966  -3.095   2.300  1.00  0.00    -0.450 OA
ATOM     23  C   UNL     1       1.858  -1.749   3.850  1.00  0.00     0.057 A 
BRANCH  20  24
ATOM     24  C   UNL     1       0.307  -1.644   0.478  1.00  0.00     0.335 C 
BRANCH  24  25
ATOM     25  N   UNL     1       0.733  -0.397  -0.155  1.00  0.00    -0.351 N 
ATOM     26  H   UNL     1       0.317  -0.328  -1.083  1.00  0.00     0.344 HD
ATOM     27  H   UNL     1       1.750  -0.387  -0.236  1.00  0.00     0.344 HD
ATOM     28  H   UNL     1       0.430   0.394   0.413  1.00  0.00     0.344 HD
ENDBRANCH  24  25
ENDBRANCH  20  24
ENDBRANCH  17  19
ENDBRANCH   9  17
ENDBRANCH   5   8
ENDBRANCH   3   4
ENDBRANCH   2   3
ENDBRANCH   1   2
BRANCH   1  29
ATOM     29  C   UNL     1      -3.991  -2.123   8.710  1.00  0.00     0.002 C 
BRANCH  29  30
ATOM     30  C   UNL     1      -4.106  -0.601   8.837  1.00  0.00     0.021 C 
BRANCH  30  31
ATOM     31  C   UNL     1      -5.104   0.059   7.888  1.00  0.00     0.116 C 
BRANCH  31  32
ATOM     32  N   UNL     1      -6.471  -0.372   8.129  1.00  0.00    -0.352 N 
ATOM     33  C   UNL     1      -7.619   0.381   8.175  1.00  0.00     0.251 C 
ATOM     34  H   UNL     1      -6.590  -1.337   8.281  1.00  0.00     0.163 HD
ATOM     35  O   UNL     1      -8.673  -0.133   8.539  1.00  0.00    -0.269 OA
BRANCH  33  36
ATOM     36  C   UNL     1      -7.582   1.815   7.810  1.00  0.00     0.039 A 
ATOM     37  C   UNL     1      -8.222   2.738   8.643  1.00  0.00     0.014 A 
ATOM     38  C   UNL     1      -6.937   2.248   6.648  1.00  0.00     0.014 A 
ATOM     39  C   UNL     1      -8.166   4.102   8.341  1.00  0.00     0.010 A 
ATOM     40  C   UNL     1      -6.842   3.611   6.374  1.00  0.00     0.010 A 
ATOM     41  C   UNL     1      -7.456   4.551   7.217  1.00  0.00    -0.014 A 
BRANCH  41  42
ATOM     42  C   UNL     1      -7.329   5.998   6.913  1.00  0.00     0.031 A 
ATOM     43  C   UNL     1      -7.982   6.577   5.688  1.00  0.00     0.074 A 
ATOM     44  C   UNL     1      -6.546   6.773   7.689  1.00  0.00     0.049 A 
ATOM     45  N   UNL     1      -7.929   7.799   5.227  1.00  0.00    -0.248 NA
ATOM     46  C   UNL     1      -8.781   5.657   4.861  1.00  0.00     0.031 C 
ATOM     47  C   UNL     1      -5.794   6.312   8.858  1.00  0.00     0.029 A 
ATOM     48  N   UNL     1      -6.226   8.104   7.592  1.00  0.00    -0.354 N 
ATOM     49  C   UNL     1      -8.650   7.790   4.040  1.00  0.00     0.074 A 
ATOM     50  C   UNL     1      -9.118   6.435   3.841  1.00  0.00     0.031 C 
ATOM     51  C   UNL     1      -5.097   7.342   9.365  1.00  0.00     0.029 A 
ATOM     52  C   UNL     1      -5.339   8.530   8.552  1.00  0.00     0.049 A 
ATOM     53  H   UNL     1      -6.598   8.699   6.900  1.00  0.00     0.167 HD
ATOM     54  C   UNL     1      -8.923   8.821   3.207  1.00  0.00     0.034 A 
ATOM     55  C   UNL     1      -4.784   9.742   8.756  1.00  0.00     0.034 A 
ATOM     56  C   UNL     1      -8.517  10.180   3.440  1.00  0.00     0.049 A 
ATOM     57  C   UNL     1      -5.167  10.885   7.857  1.00  0.00     0.074 A 
ATOM     58  C   UNL     1      -8.831  11.310   2.704  1.00  0.00     0.029 A 
ATOM     59  N   UNL     1      -7.714  10.595   4.489  1.00  0.00    -0.354 N 
ATOM     60  N   UNL     1      -5.989  10.890   6.836  1.00  0.00    -0.248 NA
ATOM     61  C   UNL     1      -4.577  12.198   8.160  1.00  0.00     0.031 C 
ATOM     62  C   UNL     1      -8.219  12.411   3.313  1.00  0.00     0.029 A 
ATOM     63  C   UNL     1      -7.521  11.964   4.424  1.00  0.00     0.049 A 
ATOM     64  H   UNL     1      -7.336  10.004   5.179  1.00  0.00     0.167 HD
ATOM     65  C   UNL     1      -6.040  12.207   6.394  1.00  0.00     0.074 A 
ATOM     66  C   UNL     1      -5.181  12.977   7.271  1.00  0.00     0.031 C 
ATOM     67  C   UNL     1      -6.719  12.728   5.344  1.00  0.00     0.034 A 
BRANCH  54  68
ATOM     68  C   UNL     1      -9.772   8.536   1.998  1.00  0.00     0.023 A 
ATOM     69  C   UNL     1     -11.163   8.380   2.160  1.00  0.00     0.012 A 
ATOM     70  C   UNL     1      -9.214   8.488   0.707  1.00  0.00     0.148 A 
ATOM     71  C   UNL     1     -11.986   8.162   1.057  1.00  0.00     0.002 A 
ATOM     72  C   UNL     1     -10.045   8.301  -0.393  1.00  0.00     0.091 A 
ATOM     73  F   UNL     1      -7.885   8.611   0.577  1.00  0.00    -0.205 F 
ATOM     74  C   UNL     1     -11.429   8.133  -0.219  1.00  0.00     0.022 A 
BRANCH  72  75
ATOM     75  S   UNL     1      -9.425   8.312  -2.079  1.00  0.00     0.127 S 
ATOM     76  O   UNL     1      -9.414   6.886  -2.399  1.00  0.00    -0.237 OA
ATOM     77  O   UNL     1     -10.447   9.087  -2.784  1.00  0.00    -0.237 OA
ATOM     78  O   UNL     1      -8.119   8.955  -2.016  1.00  0.00    -0.744 OA
ENDBRANCH  72  75
ENDBRANCH  54  68
BRANCH  55  79
ATOM     79  C   UNL     1      -3.877   9.952   9.918  1.00  0.00     0.023 A 
ATOM     80  C   UNL     1      -4.343  10.687  11.026  1.00  0.00     0.012 A 
ATOM     81  C   UNL     1      -2.583   9.400   9.957  1.00  0.00     0.148 A 
ATOM     82  C   UNL     1      -3.529  10.888  12.140  1.00  0.00     0.002 A 
ATOM     83  C   UNL     1      -1.794   9.563  11.092  1.00  0.00     0.091 A 
ATOM     84  F   UNL     1      -2.144   8.721   8.888  1.00  0.00    -0.205 F 
ATOM     85  C   UNL     1      -2.259  10.317  12.179  1.00  0.00     0.022 A 
BRANCH  83  86
ATOM     86  S   UNL     1      -0.208   8.734  11.248  1.00  0.00     0.127 S 
ATOM     87  O   UNL     1       0.715   9.746  10.745  1.00  0.00    -0.237 OA
ATOM     88  O   UNL     1      -0.120   8.482  12.688  1.00  0.00    -0.237 OA
ATOM     89  O   UNL     1      -0.341   7.524  10.446  1.00  0.00    -0.744 OA
ENDBRANCH  83  86
ENDBRANCH  55  79
BRANCH  67  90
ATOM     90  C   UNL     1      -6.583  14.203   5.086  1.00  0.00     0.023 A 
ATOM     91  C   UNL     1      -5.415  14.688   4.466  1.00  0.00     0.012 A 
ATOM     92  C   UNL     1      -7.636  15.091   5.374  1.00  0.00     0.148 A 
ATOM     93  C   UNL     1      -5.290  16.041   4.153  1.00  0.00     0.002 A 
ATOM     94  C   UNL     1      -7.518  16.433   5.027  1.00  0.00     0.091 A 
ATOM     95  F   UNL     1      -8.729  14.615   5.988  1.00  0.00    -0.205 F 
ATOM     96  C   UNL     1      -6.345  16.911   4.422  1.00  0.00     0.022 A 
BRANCH  94  97
ATOM     97  S   UNL     1      -8.870  17.592   5.270  1.00  0.00     0.127 S 
ATOM     98  O   UNL     1      -8.512  18.209   6.545  1.00  0.00    -0.237 OA
ATOM     99  O   UNL     1      -8.745  18.476   4.109  1.00  0.00    -0.237 OA
ATOM    100  O   UNL     1     -10.080  16.781   5.273  1.00  0.00    -0.744 OA
ENDBRANCH  94  97
ENDBRANCH  67  90
ENDBRANCH  41  42
ENDBRANCH  33  36
ENDBRANCH  31  32
ENDBRANCH  30  31
ENDBRANCH  29  30
ENDBRANCH   1  29
TORSDOF 20
