REMARK SMILES O=C(NCCCCCCNC(=O)c1cc(-c2ccoc2)n[nH]1)c1ccc(-c2c3nc(c(-c4cccc(S(=O)(=O)[O-])c4F)c4ccc([nH]4)c(-c4cccc(S(=O)(=O)[O-])c4F)c4nc(c(-c5cccc(S(=O)(=O)[O-])c5F)c5ccc2[nH]5)C=C4)C=C3)cc1
REMARK SMILES IDX 5 1 4 2 3 3 1 4 2 5 23 7 24 8 85 9 25 10 84 11 26 12 27 13
REMARK SMILES IDX 28 14 78 15 29 16 83 17 77 18 79 19 30 20 82 21 76 22 75 23
REMARK SMILES IDX 31 25 63 26 43 27 62 28 44 29 47 30 61 31 80 32 45 33 46 34
REMARK SMILES IDX 60 36 81 37 48 38 32 39 33 40 41 41 34 42 36 43 42 44 35 45
REMARK SMILES IDX 37 46 38 47 39 48 40 49 64 50 65 51 73 52 66 53 68 54 74 55
REMARK SMILES IDX 67 56 69 57 70 58 71 59 72 60 49 61 50 62 58 63 51 64 53 65
REMARK SMILES IDX 59 66 52 67 54 68 55 69 56 70 57 71 6 72 7 73 8 74 9 75
REMARK SMILES IDX 10 76 11 77 12 79 13 80 14 81 22 82 15 83 21 84 16 86 17 87
REMARK SMILES IDX 20 88 18 89 19 90
REMARK H PARENT 3 6 79 24 47 35 10 78 22 85
REMARK Flexibility Score: inf
ROOT
ATOM      1  C   UNL     1       4.529   1.378  -2.421  1.00  0.00     0.021 C 
ENDROOT
BRANCH   1   2
ATOM      2  C   UNL     1       4.320   1.002  -0.960  1.00  0.00     0.116 C 
BRANCH   2   3
ATOM      3  N   UNL     1       2.916   0.914  -0.598  1.00  0.00    -0.352 N 
ATOM      4  O   UNL     1       1.033  -0.080   0.141  1.00  0.00    -0.269 OA
ATOM      5  C   UNL     1       2.257  -0.102   0.056  1.00  0.00     0.251 C 
ATOM      6  H   UNL     1       2.360   1.685  -0.857  1.00  0.00     0.163 HD
BRANCH   5   7
ATOM      7  C   UNL     1       3.031  -1.228   0.627  1.00  0.00     0.039 A 
ATOM      8  C   UNL     1       4.205  -0.992   1.345  1.00  0.00     0.014 A 
ATOM      9  C   UNL     1       2.577  -2.538   0.442  1.00  0.00     0.014 A 
ATOM     10  C   UNL     1       4.995  -2.062   1.752  1.00  0.00     0.010 A 
ATOM     11  C   UNL     1       3.330  -3.612   0.929  1.00  0.00     0.010 A 
ATOM     12  C   UNL     1       4.560  -3.385   1.564  1.00  0.00    -0.014 A 
BRANCH  12  13
ATOM     13  C   UNL     1       5.371  -4.493   2.132  1.00  0.00     0.031 A 
ATOM     14  C   UNL     1       6.027  -5.526   1.257  1.00  0.00     0.074 A 
ATOM     15  C   UNL     1       5.534  -4.540   3.470  1.00  0.00     0.049 A 
ATOM     16  N   UNL     1       6.826  -6.503   1.604  1.00  0.00    -0.248 NA
ATOM     17  C   UNL     1       5.752  -5.465  -0.187  1.00  0.00     0.031 C 
ATOM     18  C   UNL     1       4.895  -3.628   4.424  1.00  0.00     0.029 A 
ATOM     19  N   UNL     1       6.284  -5.371   4.260  1.00  0.00    -0.354 N 
ATOM     20  C   UNL     1       7.127  -7.190   0.433  1.00  0.00     0.074 A 
ATOM     21  C   UNL     1       6.415  -6.524  -0.637  1.00  0.00     0.031 C 
ATOM     22  C   UNL     1       5.310  -3.925   5.663  1.00  0.00     0.029 A 
ATOM     23  C   UNL     1       6.205  -5.073   5.600  1.00  0.00     0.049 A 
ATOM     24  H   UNL     1       6.828  -6.110   3.902  1.00  0.00     0.167 HD
ATOM     25  C   UNL     1       7.938  -8.263   0.265  1.00  0.00     0.034 A 
ATOM     26  C   UNL     1       6.783  -5.660   6.665  1.00  0.00     0.034 A 
ATOM     27  C   UNL     1       8.670  -8.901   1.329  1.00  0.00     0.049 A 
ATOM     28  C   UNL     1       7.713  -6.816   6.438  1.00  0.00     0.074 A 
ATOM     29  C   UNL     1       9.552  -9.965   1.249  1.00  0.00     0.029 A 
ATOM     30  N   UNL     1       8.606  -8.538   2.666  1.00  0.00    -0.354 N 
ATOM     31  N   UNL     1       8.084  -7.365   5.307  1.00  0.00    -0.248 NA
ATOM     32  C   UNL     1       8.326  -7.417   7.630  1.00  0.00     0.031 C 
ATOM     33  C   UNL     1      10.016 -10.250   2.538  1.00  0.00     0.029 A 
ATOM     34  C   UNL     1       9.431  -9.357   3.421  1.00  0.00     0.049 A 
ATOM     35  H   UNL     1       8.055  -7.806   3.026  1.00  0.00     0.167 HD
ATOM     36  C   UNL     1       8.981  -8.368   5.649  1.00  0.00     0.074 A 
ATOM     37  C   UNL     1       9.132  -8.320   7.089  1.00  0.00     0.031 C 
ATOM     38  C   UNL     1       9.601  -9.268   4.847  1.00  0.00     0.034 A 
BRANCH  25  39
ATOM     39  C   UNL     1       8.133  -8.790  -1.133  1.00  0.00     0.023 A 
ATOM     40  C   UNL     1       8.967  -8.084  -2.023  1.00  0.00     0.012 A 
ATOM     41  C   UNL     1       7.581 -10.023  -1.534  1.00  0.00     0.148 A 
ATOM     42  C   UNL     1       9.236  -8.586  -3.296  1.00  0.00     0.002 A 
ATOM     43  C   UNL     1       7.881 -10.535  -2.793  1.00  0.00     0.091 A 
ATOM     44  F   UNL     1       6.777 -10.671  -0.680  1.00  0.00    -0.205 F 
ATOM     45  C   UNL     1       8.703  -9.815  -3.676  1.00  0.00     0.022 A 
BRANCH  43  46
ATOM     46  S   UNL     1       7.303 -12.141  -3.354  1.00  0.00     0.127 S 
ATOM     47  O   UNL     1       6.337 -11.761  -4.386  1.00  0.00    -0.237 OA
ATOM     48  O   UNL     1       8.531 -12.750  -3.865  1.00  0.00    -0.237 OA
ATOM     49  O   UNL     1       6.739 -12.797  -2.183  1.00  0.00    -0.744 OA
ENDBRANCH  43  46
ENDBRANCH  25  39
BRANCH  26  50
ATOM     50  C   UNL     1       6.532  -5.123   8.031  1.00  0.00     0.023 A 
ATOM     51  C   UNL     1       7.573  -4.482   8.730  1.00  0.00     0.012 A 
ATOM     52  C   UNL     1       5.256  -5.201   8.621  1.00  0.00     0.148 A 
ATOM     53  C   UNL     1       7.353  -3.950  10.001  1.00  0.00     0.002 A 
ATOM     54  C   UNL     1       5.028  -4.613   9.860  1.00  0.00     0.091 A 
ATOM     55  F   UNL     1       4.281  -5.835   7.955  1.00  0.00    -0.205 F 
ATOM     56  C   UNL     1       6.078  -4.002  10.560  1.00  0.00     0.022 A 
BRANCH  54  57
ATOM     57  S   UNL     1       3.374  -4.507  10.553  1.00  0.00     0.127 S 
ATOM     58  O   UNL     1       3.349  -5.659  11.450  1.00  0.00    -0.237 OA
ATOM     59  O   UNL     1       3.398  -3.205  11.223  1.00  0.00    -0.237 OA
ATOM     60  O   UNL     1       2.481  -4.563   9.403  1.00  0.00    -0.744 OA
ENDBRANCH  54  57
ENDBRANCH  26  50
BRANCH  38  61
ATOM     61  C   UNL     1      10.497 -10.275   5.516  1.00  0.00     0.023 A 
ATOM     62  C   UNL     1       9.921 -11.327   6.258  1.00  0.00     0.012 A 
ATOM     63  C   UNL     1      11.897 -10.207   5.383  1.00  0.00     0.148 A 
ATOM     64  C   UNL     1      10.727 -12.274   6.889  1.00  0.00     0.002 A 
ATOM     65  C   UNL     1      12.692 -11.180   5.980  1.00  0.00     0.091 A 
ATOM     66  F   UNL     1      12.428  -9.187   4.694  1.00  0.00    -0.205 F 
ATOM     67  C   UNL     1      12.110 -12.206   6.742  1.00  0.00     0.022 A 
BRANCH  65  68
ATOM     68  S   UNL     1      14.475 -11.211   5.770  1.00  0.00     0.127 S 
ATOM     69  O   UNL     1      14.935 -10.627   7.028  1.00  0.00    -0.237 OA
ATOM     70  O   UNL     1      14.751 -12.641   5.625  1.00  0.00    -0.237 OA
ATOM     71  O   UNL     1      14.744 -10.425   4.573  1.00  0.00    -0.744 OA
ENDBRANCH  65  68
ENDBRANCH  38  61
ENDBRANCH  12  13
ENDBRANCH   5   7
ENDBRANCH   2   3
ENDBRANCH   1   2
BRANCH   1  72
ATOM     72  C   UNL     1       4.079   2.789  -2.798  1.00  0.00     0.002 C 
BRANCH  72  73
ATOM     73  C   UNL     1       4.708   3.924  -1.984  1.00  0.00     0.002 C 
BRANCH  73  74
ATOM     74  C   UNL     1       6.238   3.912  -1.902  1.00  0.00     0.021 C 
BRANCH  74  75
ATOM     75  C   UNL     1       6.959   3.898  -3.250  1.00  0.00     0.116 C 
BRANCH  75  76
ATOM     76  N   UNL     1       6.722   5.124  -3.996  1.00  0.00    -0.351 N 
ATOM     77  C   UNL     1       7.624   6.080  -4.375  1.00  0.00     0.269 C 
ATOM     78  H   UNL     1       5.788   5.287  -4.264  1.00  0.00     0.163 HD
ATOM     79  O   UNL     1       7.208   7.192  -4.707  1.00  0.00    -0.268 OA
BRANCH  77  80
ATOM     80  C   UNL     1       9.019   5.767  -4.337  1.00  0.00     0.123 A 
ATOM     81  C   UNL     1       9.730   4.655  -4.747  1.00  0.00     0.064 A 
ATOM     82  N   UNL     1       9.964   6.641  -3.876  1.00  0.00    -0.272 N 
ATOM     83  C   UNL     1      11.060   4.910  -4.361  1.00  0.00     0.096 A 
ATOM     84  N   UNL     1      11.201   6.116  -3.803  1.00  0.00    -0.175 NA
ATOM     85  H   UNL     1       9.758   7.569  -3.621  1.00  0.00     0.190 HD
BRANCH  83  86
ATOM     86  C   UNL     1      12.145   3.953  -4.497  1.00  0.00     0.040 A 
ATOM     87  C   UNL     1      12.387   3.116  -5.614  1.00  0.00     0.052 A 
ATOM     88  C   UNL     1      13.118   3.660  -3.571  1.00  0.00     0.205 A 
ATOM     89  C   UNL     1      13.493   2.364  -5.288  1.00  0.00     0.195 A 
ATOM     90  O   UNL     1      13.941   2.687  -4.045  1.00  0.00    -0.472 OA
ENDBRANCH  83  86
ENDBRANCH  77  80
ENDBRANCH  75  76
ENDBRANCH  74  75
ENDBRANCH  73  74
ENDBRANCH  72  73
ENDBRANCH   1  72
TORSDOF 17
