REMARK SMILES CN1C(=O)C[C@H](C(=O)Nc2ccc(C(=O)NCCCCCCNC(=O)c3ccc(-c4c5nc(c(-c6cccc(S(=O)(=O)[O-])c6F)c6ccc([nH]6)c(-c6cccc(S(=O)(=O)[O-])c6F)c6nc(c(-c7cccc(S(=O)(=O)[O-])c7F)c7ccc4[nH]7)C=C6)C=C5)cc3)cc2)S/C1=[NH+]\c1cccc(C(F)(F)F)c1
REMARK SMILES IDX 19 1 18 2 17 3 16 4 14 5 15 6 13 8 10 9 11 10 90 11 12 12
REMARK SMILES IDX 89 13 9 14 7 15 8 16 6 18 1 19 2 20 3 21 92 22 4 23 5 24
REMARK SMILES IDX 91 25 93 26 94 28 95 29 103 30 96 31 98 32 97 33 99 34
REMARK SMILES IDX 100 35 101 36 102 37 20 38 21 39 22 40 23 41 24 42 25 44
REMARK SMILES IDX 26 45 27 46 88 47 28 48 87 49 29 50 30 51 31 52 81 53 32 54
REMARK SMILES IDX 86 55 80 56 82 57 33 58 85 59 79 60 78 61 34 63 66 64 46 65
REMARK SMILES IDX 65 66 47 67 50 68 64 69 83 70 48 71 49 72 63 74 84 75 51 76
REMARK SMILES IDX 35 77 36 78 44 79 37 80 39 81 45 82 38 83 40 84 41 85 42 86
REMARK SMILES IDX 43 87 67 88 68 89 76 90 69 91 71 92 77 93 70 94 72 95 73 96
REMARK SMILES IDX 74 97 75 98 52 99 53 100 61 101 54 102 56 103 62 104 55 105
REMARK SMILES IDX 57 106 58 107 59 108 60 109
REMARK H PARENT 16 7 9 17 93 27 23 43 82 62 50 73
REMARK Flexibility Score: inf
ROOT
ATOM      1  C   UNL     1      -7.167  -0.337  -2.773  1.00  0.00     0.002 C 
ENDROOT
BRANCH   1   2
ATOM      2  C   UNL     1      -6.100   0.121  -1.790  1.00  0.00     0.021 C 
BRANCH   2   3
ATOM      3  C   UNL     1      -5.767   1.617  -1.769  1.00  0.00     0.116 C 
BRANCH   3   4
ATOM      4  N   UNL     1      -6.887   2.523  -1.445  1.00  0.00    -0.352 N 
ATOM      5  C   UNL     1      -7.035   3.584  -0.551  1.00  0.00     0.251 C 
ATOM      6  O   UNL     1      -8.127   4.134  -0.431  1.00  0.00    -0.269 OA
ATOM      7  H   UNL     1      -7.700   2.340  -1.970  1.00  0.00     0.163 HD
BRANCH   5   8
ATOM      8  C   UNL     1      -5.907   4.070   0.287  1.00  0.00     0.039 A 
ATOM      9  C   UNL     1      -3.646   4.249   1.997  1.00  0.00     0.041 A 
ATOM     10  C   UNL     1      -4.890   4.671   2.458  1.00  0.00     0.027 A 
ATOM     11  C   UNL     1      -3.630   3.874   0.681  1.00  0.00     0.027 A 
ATOM     12  C   UNL     1      -6.034   4.525   1.617  1.00  0.00     0.016 A 
ATOM     13  C   UNL     1      -4.654   3.963  -0.228  1.00  0.00     0.016 A 
BRANCH   9  14
ATOM     14  N   UNL     1      -2.514   4.062   2.826  1.00  0.00    -0.325 N 
ATOM     15  C   UNL     1      -1.216   3.624   2.594  1.00  0.00     0.238 C 
ATOM     16  O   UNL     1      -0.543   3.399   3.612  1.00  0.00    -0.273 OA
ATOM     17  H   UNL     1      -2.682   4.293   3.768  1.00  0.00     0.169 HD
BRANCH  15  18
ATOM     18  C   UNL     1      -0.533   3.515   1.200  1.00  0.00     0.160 C 
ATOM     19  C   UNL     1       1.313  -0.527   0.943  1.00  0.00     0.301 C 
ATOM     20  N   UNL     1       0.754   0.792   1.149  1.00  0.00    -0.194 N 
ATOM     21  C   UNL     1       1.589   1.902   1.280  1.00  0.00     0.311 C 
ATOM     22  C   UNL     1      -0.612   0.895   1.176  1.00  0.00     0.319 C 
ATOM     23  O   UNL     1       2.812   1.793   1.406  1.00  0.00    -0.247 OA
ATOM     24  C   UNL     1       0.988   3.329   1.269  1.00  0.00     0.153 C 
ATOM     25  S   UNL     1      -1.068   2.164   0.138  1.00  0.00    -0.024 SA
ATOM     26  N   UNL     1      -1.356   0.088   1.857  1.00  0.00    -0.235 N 
ATOM     27  H   UNL     1      -1.010  -0.818   2.027  1.00  0.00     0.313 HD
BRANCH  26  28
ATOM     28  C   UNL     1      -2.628   0.410   2.372  1.00  0.00     0.126 A 
ATOM     29  C   UNL     1      -2.629   0.774   3.730  1.00  0.00     0.052 A 
ATOM     30  C   UNL     1      -3.870   0.207   1.754  1.00  0.00     0.064 A 
ATOM     31  C   UNL     1      -3.802   0.964   4.457  1.00  0.00     0.005 A 
ATOM     32  C   UNL     1      -5.078   0.384   2.489  1.00  0.00     0.060 A 
ATOM     33  C   UNL     1      -5.023   0.775   3.836  1.00  0.00     0.013 A 
BRANCH  32  34
ATOM     34  C   UNL     1      -6.446   0.145   1.895  1.00  0.00     0.416 C 
ATOM     35  F   UNL     1      -6.565  -1.064   1.285  1.00  0.00    -0.166 F 
ATOM     36  F   UNL     1      -7.458   0.187   2.814  1.00  0.00    -0.166 F 
ATOM     37  F   UNL     1      -6.776   1.085   0.976  1.00  0.00    -0.166 F 
ENDBRANCH  32  34
ENDBRANCH  26  28
ENDBRANCH  15  18
ENDBRANCH   9  14
ENDBRANCH   5   8
ENDBRANCH   3   4
ENDBRANCH   2   3
ENDBRANCH   1   2
BRANCH   1  38
ATOM     38  C   UNL     1      -6.770  -0.258  -4.246  1.00  0.00     0.002 C 
BRANCH  38  39
ATOM     39  C   UNL     1      -5.498  -1.022  -4.634  1.00  0.00     0.021 C 
BRANCH  39  40
ATOM     40  C   UNL     1      -5.487  -2.506  -4.269  1.00  0.00     0.116 C 
BRANCH  40  41
ATOM     41  N   UNL     1      -6.505  -3.252  -4.994  1.00  0.00    -0.352 N 
ATOM     42  C   UNL     1      -6.349  -4.279  -5.892  1.00  0.00     0.251 C 
ATOM     43  H   UNL     1      -7.434  -2.982  -4.816  1.00  0.00     0.163 HD
ATOM     44  O   UNL     1      -7.297  -4.632  -6.592  1.00  0.00    -0.269 OA
BRANCH  42  45
ATOM     45  C   UNL     1      -5.042  -4.958  -6.021  1.00  0.00     0.039 A 
ATOM     46  C   UNL     1      -4.525  -5.207  -7.295  1.00  0.00     0.014 A 
ATOM     47  C   UNL     1      -4.340  -5.372  -4.884  1.00  0.00     0.014 A 
ATOM     48  C   UNL     1      -3.279  -5.828  -7.428  1.00  0.00     0.010 A 
ATOM     49  C   UNL     1      -3.072  -5.934  -5.019  1.00  0.00     0.010 A 
ATOM     50  C   UNL     1      -2.531  -6.176  -6.291  1.00  0.00    -0.014 A 
BRANCH  50  51
ATOM     51  C   UNL     1      -1.183  -6.789  -6.413  1.00  0.00     0.031 A 
ATOM     52  C   UNL     1      -0.933  -8.184  -5.904  1.00  0.00     0.074 A 
ATOM     53  C   UNL     1      -0.162  -6.060  -6.905  1.00  0.00     0.049 A 
ATOM     54  N   UNL     1       0.184  -8.864  -5.877  1.00  0.00    -0.248 NA
ATOM     55  C   UNL     1      -2.083  -8.901  -5.328  1.00  0.00     0.031 C 
ATOM     56  C   UNL     1      -0.257  -4.671  -7.359  1.00  0.00     0.029 A 
ATOM     57  N   UNL     1       1.163  -6.376  -7.080  1.00  0.00    -0.354 N 
ATOM     58  C   UNL     1      -0.117 -10.068  -5.251  1.00  0.00     0.074 A 
ATOM     59  C   UNL     1      -1.516 -10.014  -4.886  1.00  0.00     0.031 C 
ATOM     60  C   UNL     1       0.955  -4.255  -7.759  1.00  0.00     0.029 A 
ATOM     61  C   UNL     1       1.919  -5.334  -7.566  1.00  0.00     0.049 A 
ATOM     62  H   UNL     1       1.537  -7.264  -6.877  1.00  0.00     0.167 HD
ATOM     63  C   UNL     1       0.688 -11.134  -5.026  1.00  0.00     0.034 A 
ATOM     64  C   UNL     1       3.240  -5.254  -7.821  1.00  0.00     0.034 A 
ATOM     65  C   UNL     1       2.067 -11.202  -5.430  1.00  0.00     0.049 A 
ATOM     66  C   UNL     1       4.103  -6.467  -7.602  1.00  0.00     0.074 A 
ATOM     67  C   UNL     1       2.941 -12.270  -5.330  1.00  0.00     0.029 A 
ATOM     68  N   UNL     1       2.776 -10.158  -6.004  1.00  0.00    -0.354 N 
ATOM     69  N   UNL     1       3.762  -7.654  -7.161  1.00  0.00    -0.248 NA
ATOM     70  C   UNL     1       5.526  -6.345  -7.953  1.00  0.00     0.031 C 
ATOM     71  C   UNL     1       4.186 -11.865  -5.822  1.00  0.00     0.029 A 
ATOM     72  C   UNL     1       4.079 -10.553  -6.254  1.00  0.00     0.049 A 
ATOM     73  H   UNL     1       2.408  -9.268  -6.204  1.00  0.00     0.167 HD
ATOM     74  C   UNL     1       4.916  -8.428  -7.215  1.00  0.00     0.074 A 
ATOM     75  C   UNL     1       5.961  -7.581  -7.753  1.00  0.00     0.031 C 
ATOM     76  C   UNL     1       5.097  -9.718  -6.840  1.00  0.00     0.034 A 
BRANCH  63  77
ATOM     77  C   UNL     1       0.084 -12.341  -4.356  1.00  0.00     0.023 A 
ATOM     78  C   UNL     1      -0.833 -13.144  -5.067  1.00  0.00     0.012 A 
ATOM     79  C   UNL     1       0.467 -12.719  -3.054  1.00  0.00     0.148 A 
ATOM     80  C   UNL     1      -1.385 -14.282  -4.481  1.00  0.00     0.002 A 
ATOM     81  C   UNL     1      -0.053 -13.880  -2.494  1.00  0.00     0.091 A 
ATOM     82  F   UNL     1       1.324 -11.934  -2.387  1.00  0.00    -0.205 F 
ATOM     83  C   UNL     1      -0.987 -14.656  -3.200  1.00  0.00     0.022 A 
BRANCH  81  84
ATOM     84  S   UNL     1       0.456 -14.491  -0.883  1.00  0.00     0.127 S 
ATOM     85  O   UNL     1      -0.746 -14.250  -0.083  1.00  0.00    -0.237 OA
ATOM     86  O   UNL     1       0.728 -15.903  -1.161  1.00  0.00    -0.237 OA
ATOM     87  O   UNL     1       1.623 -13.710  -0.507  1.00  0.00    -0.744 OA
ENDBRANCH  81  84
ENDBRANCH  63  77
BRANCH  64  88
ATOM     88  C   UNL     1       3.816  -3.995  -8.374  1.00  0.00     0.023 A 
ATOM     89  C   UNL     1       4.270  -3.969  -9.707  1.00  0.00     0.012 A 
ATOM     90  C   UNL     1       3.889  -2.820  -7.601  1.00  0.00     0.148 A 
ATOM     91  C   UNL     1       4.817  -2.806 -10.250  1.00  0.00     0.002 A 
ATOM     92  C   UNL     1       4.383  -1.649  -8.167  1.00  0.00     0.091 A 
ATOM     93  F   UNL     1       3.463  -2.868  -6.331  1.00  0.00    -0.205 F 
ATOM     94  C   UNL     1       4.864  -1.645  -9.484  1.00  0.00     0.022 A 
BRANCH  92  95
ATOM     95  S   UNL     1       4.345  -0.081  -7.290  1.00  0.00     0.127 S 
ATOM     96  O   UNL     1       5.771   0.134  -7.009  1.00  0.00    -0.237 OA
ATOM     97  O   UNL     1       3.789   0.819  -8.312  1.00  0.00    -0.237 OA
ATOM     98  O   UNL     1       3.495  -0.283  -6.146  1.00  0.00    -0.744 OA
ENDBRANCH  92  95
ENDBRANCH  64  88
BRANCH  76  99
ATOM     99  C   UNL     1       6.466 -10.316  -7.029  1.00  0.00     0.023 A 
ATOM    100  C   UNL     1       7.525  -9.926  -6.186  1.00  0.00     0.012 A 
ATOM    101  C   UNL     1       6.684 -11.321  -7.993  1.00  0.00     0.148 A 
ATOM    102  C   UNL     1       8.787 -10.503  -6.320  1.00  0.00     0.002 A 
ATOM    103  C   UNL     1       7.931 -11.927  -8.088  1.00  0.00     0.091 A 
ATOM    104  F   UNL     1       5.668 -11.665  -8.799  1.00  0.00    -0.205 F 
ATOM    105  C   UNL     1       8.987 -11.511  -7.261  1.00  0.00     0.022 A 
BRANCH 103 106
ATOM    106  S   UNL     1       8.252 -13.299  -9.202  1.00  0.00     0.127 S 
ATOM    107  O   UNL     1       9.080 -12.663 -10.226  1.00  0.00    -0.237 OA
ATOM    108  O   UNL     1       8.966 -14.240  -8.339  1.00  0.00    -0.237 OA
ATOM    109  O   UNL     1       6.947 -13.764  -9.653  1.00  0.00    -0.744 OA
ENDBRANCH 103 106
ENDBRANCH  76  99
ENDBRANCH  50  51
ENDBRANCH  42  45
ENDBRANCH  40  41
ENDBRANCH  39  40
ENDBRANCH  38  39
ENDBRANCH   1  38
TORSDOF 20
