REMARK SMILES CCOc1oc(C[C@H]2CCCCO2)nc1C(=O)NCCCCCCNC(=O)c1ccc(-c2c3nc(c(-c4cccc(S(=O)(=O)[O-])c4F)c4ccc([nH]4)c(-c4cccc(S(=O)(=O)[O-])c4F)c4nc(c(-c5cccc(S(=O)(=O)[O-])c5F)c5ccc2[nH]5)C=C4)C=C3)cc1
REMARK SMILES IDX 22 1 21 2 20 3 19 4 18 5 16 6 17 7 15 9 4 10 5 11 6 12 14 13
REMARK SMILES IDX 3 14 2 15 1 16 7 17 8 18 9 19 13 20 10 21 12 22 11 23 23 24
REMARK SMILES IDX 24 25 25 26 26 27 27 29 28 30 29 31 90 32 30 33 89 34 31 35
REMARK SMILES IDX 32 36 33 37 83 38 34 39 88 40 82 41 84 42 35 43 87 44 81 45
REMARK SMILES IDX 80 46 36 48 68 49 48 50 67 51 49 52 52 53 66 54 85 55 50 56
REMARK SMILES IDX 51 57 65 59 86 60 53 61 37 62 38 63 46 64 39 65 41 66 47 67
REMARK SMILES IDX 40 68 42 69 43 70 44 71 45 72 69 73 70 74 78 75 71 76 73 77
REMARK SMILES IDX 79 78 72 79 74 80 75 81 76 82 77 83 54 84 55 85 63 86 56 87
REMARK SMILES IDX 58 88 64 89 57 90 59 91 60 92 61 93 62 94
REMARK H PARENT 18 8 25 28 84 47 52 58
REMARK Flexibility Score: inf
ROOT
ATOM      1  C   UNL     1      12.803  -1.856   6.225  1.00  0.00     0.002 C 
ENDROOT
BRANCH   1   2
ATOM      2  C   UNL     1      12.329  -1.273   7.558  1.00  0.00     0.002 C 
BRANCH   2   3
ATOM      3  C   UNL     1      11.238  -0.202   7.472  1.00  0.00     0.021 C 
BRANCH   3   4
ATOM      4  C   UNL     1      10.042  -0.543   6.586  1.00  0.00     0.116 C 
BRANCH   4   5
ATOM      5  N   UNL     1       9.361  -1.755   7.007  1.00  0.00    -0.350 N 
ATOM      6  C   UNL     1       8.059  -1.965   7.393  1.00  0.00     0.277 C 
ATOM      7  O   UNL     1       7.738  -3.114   7.698  1.00  0.00    -0.267 OA
ATOM      8  H   UNL     1       9.927  -2.560   7.017  1.00  0.00     0.163 HD
BRANCH   6   9
ATOM      9  C   UNL     1       7.128  -0.849   7.461  1.00  0.00     0.212 A 
ATOM     10  C   UNL     1       5.974  -0.790   8.217  1.00  0.00     0.318 A 
ATOM     11  O   UNL     1       5.372   0.419   8.004  1.00  0.00    -0.409 OA
ATOM     12  C   UNL     1       6.191   1.037   7.099  1.00  0.00     0.202 A 
ATOM     13  N   UNL     1       7.236   0.327   6.740  1.00  0.00    -0.204 NA
BRANCH  10  14
ATOM     14  O   UNL     1       5.313  -1.607   9.029  1.00  0.00    -0.464 OA
BRANCH  14  15
ATOM     15  C   UNL     1       5.745  -1.568  10.388  1.00  0.00     0.230 C 
ATOM     16  C   UNL     1       6.846  -2.581  10.652  1.00  0.00     0.049 C 
ENDBRANCH  14  15
ENDBRANCH  10  14
BRANCH  12  17
ATOM     17  C   UNL     1       5.816   2.392   6.633  1.00  0.00     0.129 C 
BRANCH  17  18
ATOM     18  C   UNL     1       4.836   2.344   5.457  1.00  0.00     0.127 C 
ATOM     19  C   UNL     1       3.413   1.996   5.914  1.00  0.00     0.033 C 
ATOM     20  O   UNL     1       4.835   3.644   4.843  1.00  0.00    -0.378 OA
ATOM     21  C   UNL     1       2.421   2.103   4.760  1.00  0.00     0.005 C 
ATOM     22  C   UNL     1       4.022   3.687   3.670  1.00  0.00     0.160 C 
ATOM     23  C   UNL     1       2.567   3.437   4.038  1.00  0.00     0.029 C 
ENDBRANCH  17  18
ENDBRANCH  12  17
ENDBRANCH   6   9
ENDBRANCH   4   5
ENDBRANCH   3   4
ENDBRANCH   2   3
ENDBRANCH   1   2
BRANCH   1  24
ATOM     24  C   UNL     1      13.237  -0.842   5.164  1.00  0.00     0.021 C 
BRANCH  24  25
ATOM     25  C   UNL     1      14.331   0.126   5.594  1.00  0.00     0.116 C 
BRANCH  25  26
ATOM     26  N   UNL     1      15.578  -0.551   5.906  1.00  0.00    -0.352 N 
ATOM     27  C   UNL     1      16.841  -0.304   5.426  1.00  0.00     0.251 C 
ATOM     28  H   UNL     1      15.508  -1.291   6.552  1.00  0.00     0.163 HD
ATOM     29  O   UNL     1      17.754  -1.087   5.674  1.00  0.00    -0.269 OA
BRANCH  27  30
ATOM     30  C   UNL     1      17.096   0.893   4.593  1.00  0.00     0.039 A 
ATOM     31  C   UNL     1      17.860   0.756   3.431  1.00  0.00     0.014 A 
ATOM     32  C   UNL     1      16.590   2.145   4.955  1.00  0.00     0.014 A 
ATOM     33  C   UNL     1      18.071   1.863   2.605  1.00  0.00     0.010 A 
ATOM     34  C   UNL     1      16.742   3.230   4.096  1.00  0.00     0.010 A 
ATOM     35  C   UNL     1      17.490   3.104   2.916  1.00  0.00    -0.014 A 
BRANCH  35  36
ATOM     36  C   UNL     1      17.652   4.279   2.021  1.00  0.00     0.031 A 
ATOM     37  C   UNL     1      18.380   5.505   2.503  1.00  0.00     0.074 A 
ATOM     38  C   UNL     1      17.071   4.275   0.805  1.00  0.00     0.049 A 
ATOM     39  N   UNL     1      18.571   6.645   1.892  1.00  0.00    -0.248 NA
ATOM     40  C   UNL     1      18.947   5.452   3.861  1.00  0.00     0.031 C 
ATOM     41  C   UNL     1      16.272   3.179   0.252  1.00  0.00     0.029 A 
ATOM     42  N   UNL     1      17.038   5.236  -0.176  1.00  0.00    -0.354 N 
ATOM     43  C   UNL     1      19.248   7.454   2.796  1.00  0.00     0.074 A 
ATOM     44  C   UNL     1      19.404   6.687   4.013  1.00  0.00     0.031 C 
ATOM     45  C   UNL     1      15.831   3.527  -0.968  1.00  0.00     0.029 A 
ATOM     46  C   UNL     1      16.292   4.878  -1.275  1.00  0.00     0.049 A 
ATOM     47  H   UNL     1      17.505   6.099  -0.099  1.00  0.00     0.167 HD
ATOM     48  C   UNL     1      19.727   8.708   2.622  1.00  0.00     0.034 A 
ATOM     49  C   UNL     1      16.009   5.562  -2.401  1.00  0.00     0.034 A 
ATOM     50  C   UNL     1      19.613   9.451   1.395  1.00  0.00     0.049 A 
ATOM     51  C   UNL     1      16.591   6.938  -2.587  1.00  0.00     0.074 A 
ATOM     52  C   UNL     1      20.134  10.697   1.092  1.00  0.00     0.029 A 
ATOM     53  N   UNL     1      18.932   9.017   0.269  1.00  0.00    -0.354 N 
ATOM     54  N   UNL     1      17.362   7.623  -1.779  1.00  0.00    -0.248 NA
ATOM     55  C   UNL     1      16.295   7.619  -3.856  1.00  0.00     0.031 C 
ATOM     56  C   UNL     1      19.757  11.021  -0.216  1.00  0.00     0.029 A 
ATOM     57  C   UNL     1      19.016   9.970  -0.732  1.00  0.00     0.049 A 
ATOM     58  H   UNL     1      18.458   8.158   0.192  1.00  0.00     0.167 HD
ATOM     59  C   UNL     1      17.674   8.798  -2.454  1.00  0.00     0.074 A 
ATOM     60  C   UNL     1      17.025   8.721  -3.747  1.00  0.00     0.031 C 
ATOM     61  C   UNL     1      18.416   9.853  -2.036  1.00  0.00     0.034 A 
BRANCH  48  62
ATOM     62  C   UNL     1      20.484   9.333   3.765  1.00  0.00     0.023 A 
ATOM     63  C   UNL     1      21.773   8.856   4.081  1.00  0.00     0.012 A 
ATOM     64  C   UNL     1      19.953  10.419   4.488  1.00  0.00     0.148 A 
ATOM     65  C   UNL     1      22.508   9.427   5.119  1.00  0.00     0.002 A 
ATOM     66  C   UNL     1      20.710  11.010   5.495  1.00  0.00     0.091 A 
ATOM     67  F   UNL     1      18.718  10.845   4.189  1.00  0.00    -0.205 F 
ATOM     68  C   UNL     1      21.982  10.509   5.818  1.00  0.00     0.022 A 
BRANCH  66  69
ATOM     69  S   UNL     1      20.152  12.456   6.403  1.00  0.00     0.127 S 
ATOM     70  O   UNL     1      19.840  11.881   7.711  1.00  0.00    -0.237 OA
ATOM     71  O   UNL     1      21.339  13.312   6.382  1.00  0.00    -0.237 OA
ATOM     72  O   UNL     1      19.014  12.980   5.662  1.00  0.00    -0.744 OA
ENDBRANCH  66  69
ENDBRANCH  48  62
BRANCH  49  73
ATOM     73  C   UNL     1      15.196   4.925  -3.476  1.00  0.00     0.023 A 
ATOM     74  C   UNL     1      15.822   4.552  -4.682  1.00  0.00     0.012 A 
ATOM     75  C   UNL     1      13.823   4.665  -3.307  1.00  0.00     0.148 A 
ATOM     76  C   UNL     1      15.089   3.962  -5.712  1.00  0.00     0.002 A 
ATOM     77  C   UNL     1      13.110   4.028  -4.316  1.00  0.00     0.091 A 
ATOM     78  F   UNL     1      13.241   5.040  -2.159  1.00  0.00    -0.205 F 
ATOM     79  C   UNL     1      13.737   3.691  -5.526  1.00  0.00     0.022 A 
BRANCH  77  80
ATOM     80  S   UNL     1      11.398   3.524  -4.109  1.00  0.00     0.127 S 
ATOM     81  O   UNL     1      10.694   4.513  -4.920  1.00  0.00    -0.237 OA
ATOM     82  O   UNL     1      11.409   2.168  -4.661  1.00  0.00    -0.237 OA
ATOM     83  O   UNL     1      11.147   3.581  -2.675  1.00  0.00    -0.744 OA
ENDBRANCH  77  80
ENDBRANCH  49  73
BRANCH  61  84
ATOM     84  C   UNL     1      18.602  11.000  -2.994  1.00  0.00     0.023 A 
ATOM     85  C   UNL     1      17.529  11.877  -3.248  1.00  0.00     0.012 A 
ATOM     86  C   UNL     1      19.857  11.253  -3.581  1.00  0.00     0.148 A 
ATOM     87  C   UNL     1      17.695  12.972  -4.096  1.00  0.00     0.002 A 
ATOM     88  C   UNL     1      20.027  12.372  -4.388  1.00  0.00     0.091 A 
ATOM     89  F   UNL     1      20.860  10.395  -3.343  1.00  0.00    -0.205 F 
ATOM     90  C   UNL     1      18.945  13.226  -4.655  1.00  0.00     0.022 A 
BRANCH  88  91
ATOM     91  S   UNL     1      21.624  12.827  -5.074  1.00  0.00     0.127 S 
ATOM     92  O   UNL     1      21.462  12.455  -6.479  1.00  0.00    -0.237 OA
ATOM     93  O   UNL     1      21.670  14.269  -4.827  1.00  0.00    -0.237 OA
ATOM     94  O   UNL     1      22.612  12.057  -4.331  1.00  0.00    -0.744 OA
ENDBRANCH  88  91
ENDBRANCH  61  84
ENDBRANCH  35  36
ENDBRANCH  27  30
ENDBRANCH  25  26
ENDBRANCH  24  25
ENDBRANCH   1  24
TORSDOF 20
