REMARK SMILES CC(C)=CCC[C@H](C)CC(=O)NCCCCCCNC(=O)c1ccc(-c2c3nc(c(-c4cccc(S(=O)(=O)[O-])c4F)c4ccc([nH]4)c(-c4cccc(S(=O)(=O)[O-])c4F)c4nc(c(-c5cccc(S(=O)(=O)[O-])c5F)c5ccc2[nH]5)C=C4)C=C3)cc1
REMARK SMILES IDX 15 1 14 2 13 3 12 4 10 5 11 6 9 8 7 9 8 10 6 11 5 12 4 13
REMARK SMILES IDX 1 14 2 15 3 16 16 17 17 18 18 19 19 20 20 21 21 23 22 24
REMARK SMILES IDX 23 25 84 26 24 27 83 28 25 29 26 30 27 31 77 32 28 33 82 34
REMARK SMILES IDX 76 35 78 36 29 37 81 38 75 39 74 40 30 42 62 43 42 44 61 45
REMARK SMILES IDX 43 46 46 47 60 48 79 49 44 50 45 51 59 53 80 54 47 55 31 56
REMARK SMILES IDX 32 57 40 58 33 59 35 60 41 61 34 62 36 63 37 64 38 65 39 66
REMARK SMILES IDX 63 67 64 68 72 69 65 70 67 71 73 72 66 73 68 74 69 75 70 76
REMARK SMILES IDX 71 77 48 78 49 79 57 80 50 81 52 82 58 83 51 84 53 85 54 86
REMARK SMILES IDX 55 87 56 88
REMARK H PARENT 12 7 19 22 78 41 46 52
REMARK Flexibility Score: inf
ROOT
ATOM      1  C   UNL     1       5.464  -0.470  -1.026  1.00  0.00     0.002 C 
ENDROOT
BRANCH   1   2
ATOM      2  C   UNL     1       4.603   0.791  -1.116  1.00  0.00     0.021 C 
BRANCH   2   3
ATOM      3  C   UNL     1       5.270   1.958  -1.843  1.00  0.00     0.116 C 
BRANCH   3   4
ATOM      4  N   UNL     1       5.179   1.797  -3.283  1.00  0.00    -0.356 N 
ATOM      5  C   UNL     1       4.488   2.531  -4.200  1.00  0.00     0.220 C 
ATOM      6  O   UNL     1       4.478   2.155  -5.373  1.00  0.00    -0.275 OA
ATOM      7  H   UNL     1       5.695   1.044  -3.653  1.00  0.00     0.163 HD
BRANCH   5   8
ATOM      8  C   UNL     1       3.750   3.786  -3.770  1.00  0.00     0.103 C 
BRANCH   8   9
ATOM      9  C   UNL     1       2.237   3.575  -3.612  1.00  0.00    -0.005 C 
ATOM     10  C   UNL     1       1.880   2.542  -2.541  1.00  0.00     0.008 C 
BRANCH   9  11
ATOM     11  C   UNL     1       1.484   4.905  -3.379  1.00  0.00     0.008 C 
BRANCH  11  12
ATOM     12  C   UNL     1       1.659   5.572  -2.006  1.00  0.00     0.027 C 
BRANCH  12  13
ATOM     13  C   UNL     1       2.742   6.615  -1.967  1.00  0.00    -0.028 C 
ATOM     14  C   UNL     1       1.219   8.566  -1.554  1.00  0.00     0.039 C 
ATOM     15  C   UNL     1       2.570   7.934  -1.745  1.00  0.00    -0.080 C 
ATOM     16  C   UNL     1       3.765   8.843  -1.654  1.00  0.00     0.039 C 
ENDBRANCH  12  13
ENDBRANCH  11  12
ENDBRANCH   9  11
ENDBRANCH   8   9
ENDBRANCH   5   8
ENDBRANCH   3   4
ENDBRANCH   2   3
ENDBRANCH   1   2
BRANCH   1  17
ATOM     17  C   UNL     1       6.733  -0.330  -0.180  1.00  0.00     0.002 C 
BRANCH  17  18
ATOM     18  C   UNL     1       6.526   0.222   1.234  1.00  0.00     0.021 C 
BRANCH  18  19
ATOM     19  C   UNL     1       5.488  -0.515   2.078  1.00  0.00     0.116 C 
BRANCH  19  20
ATOM     20  N   UNL     1       5.823  -1.918   2.253  1.00  0.00    -0.352 N 
ATOM     21  C   UNL     1       5.968  -2.645   3.407  1.00  0.00     0.251 C 
ATOM     22  H   UNL     1       5.967  -2.421   1.420  1.00  0.00     0.163 HD
ATOM     23  O   UNL     1       6.447  -3.774   3.354  1.00  0.00    -0.269 OA
BRANCH  21  24
ATOM     24  C   UNL     1       5.559  -2.075   4.710  1.00  0.00     0.039 A 
ATOM     25  C   UNL     1       6.389  -2.275   5.816  1.00  0.00     0.014 A 
ATOM     26  C   UNL     1       4.351  -1.387   4.858  1.00  0.00     0.014 A 
ATOM     27  C   UNL     1       6.024  -1.757   7.061  1.00  0.00     0.010 A 
ATOM     28  C   UNL     1       4.021  -0.813   6.085  1.00  0.00     0.010 A 
ATOM     29  C   UNL     1       4.844  -1.007   7.204  1.00  0.00    -0.014 A 
BRANCH  29  30
ATOM     30  C   UNL     1       4.472  -0.427   8.520  1.00  0.00     0.031 A 
ATOM     31  C   UNL     1       3.236  -0.892   9.242  1.00  0.00     0.074 A 
ATOM     32  C   UNL     1       5.228   0.557   9.047  1.00  0.00     0.049 A 
ATOM     33  N   UNL     1       2.779  -0.525  10.412  1.00  0.00    -0.248 NA
ATOM     34  C   UNL     1       2.388  -1.878   8.553  1.00  0.00     0.031 C 
ATOM     35  C   UNL     1       6.397   1.160   8.404  1.00  0.00     0.029 A 
ATOM     36  N   UNL     1       5.118   1.232  10.236  1.00  0.00    -0.354 N 
ATOM     37  C   UNL     1       1.583  -1.211  10.588  1.00  0.00     0.074 A 
ATOM     38  C   UNL     1       1.363  -1.987   9.387  1.00  0.00     0.031 C 
ATOM     39  C   UNL     1       6.904   2.105   9.211  1.00  0.00     0.029 A 
ATOM     40  C   UNL     1       6.091   2.186  10.421  1.00  0.00     0.049 A 
ATOM     41  H   UNL     1       4.409   1.052  10.895  1.00  0.00     0.167 HD
ATOM     42  C   UNL     1       0.759  -1.222  11.663  1.00  0.00     0.034 A 
ATOM     43  C   UNL     1       6.313   3.022  11.454  1.00  0.00     0.034 A 
ATOM     44  C   UNL     1       1.004  -0.485  12.874  1.00  0.00     0.049 A 
ATOM     45  C   UNL     1       5.425   2.937  12.666  1.00  0.00     0.074 A 
ATOM     46  C   UNL     1       0.278  -0.496  14.052  1.00  0.00     0.029 A 
ATOM     47  N   UNL     1       2.055   0.399  13.063  1.00  0.00    -0.354 N 
ATOM     48  N   UNL     1       4.397   2.152  12.882  1.00  0.00    -0.248 NA
ATOM     49  C   UNL     1       5.756   3.818  13.794  1.00  0.00     0.031 C 
ATOM     50  C   UNL     1       0.883   0.392  14.948  1.00  0.00     0.029 A 
ATOM     51  C   UNL     1       1.997   0.941  14.335  1.00  0.00     0.049 A 
ATOM     52  H   UNL     1       2.742   0.610  12.390  1.00  0.00     0.167 HD
ATOM     53  C   UNL     1       3.981   2.419  14.181  1.00  0.00     0.074 A 
ATOM     54  C   UNL     1       4.885   3.419  14.711  1.00  0.00     0.031 C 
ATOM     55  C   UNL     1       2.934   1.897  14.868  1.00  0.00     0.034 A 
BRANCH  42  56
ATOM     56  C   UNL     1      -0.456  -2.114  11.604  1.00  0.00     0.023 A 
ATOM     57  C   UNL     1      -0.291  -3.513  11.675  1.00  0.00     0.012 A 
ATOM     58  C   UNL     1      -1.756  -1.575  11.539  1.00  0.00     0.148 A 
ATOM     59  C   UNL     1      -1.396  -4.362  11.646  1.00  0.00     0.002 A 
ATOM     60  C   UNL     1      -2.855  -2.427  11.554  1.00  0.00     0.091 A 
ATOM     61  F   UNL     1      -1.894  -0.244  11.450  1.00  0.00    -0.205 F 
ATOM     62  C   UNL     1      -2.676  -3.820  11.596  1.00  0.00     0.022 A 
BRANCH  60  63
ATOM     63  S   UNL     1      -4.548  -1.825  11.570  1.00  0.00     0.127 S 
ATOM     64  O   UNL     1      -4.990  -2.152  10.216  1.00  0.00    -0.237 OA
ATOM     65  O   UNL     1      -5.155  -2.639  12.623  1.00  0.00    -0.237 OA
ATOM     66  O   UNL     1      -4.464  -0.404  11.876  1.00  0.00    -0.744 OA
ENDBRANCH  60  63
ENDBRANCH  42  56
BRANCH  43  67
ATOM     67  C   UNL     1       7.482   3.945  11.424  1.00  0.00     0.023 A 
ATOM     68  C   UNL     1       8.579   3.698  12.272  1.00  0.00     0.012 A 
ATOM     69  C   UNL     1       7.532   5.040  10.539  1.00  0.00     0.148 A 
ATOM     70  C   UNL     1       9.690   4.542  12.264  1.00  0.00     0.002 A 
ATOM     71  C   UNL     1       8.665   5.844  10.497  1.00  0.00     0.091 A 
ATOM     72  F   UNL     1       6.473   5.266   9.749  1.00  0.00    -0.205 F 
ATOM     73  C   UNL     1       9.738   5.608  11.370  1.00  0.00     0.022 A 
BRANCH  71  74
ATOM     74  S   UNL     1       8.866   7.153   9.283  1.00  0.00     0.127 S 
ATOM     75  O   UNL     1       8.689   8.350  10.101  1.00  0.00    -0.237 OA
ATOM     76  O   UNL     1      10.232   6.924   8.812  1.00  0.00    -0.237 OA
ATOM     77  O   UNL     1       7.840   6.913   8.277  1.00  0.00    -0.744 OA
ENDBRANCH  71  74
ENDBRANCH  43  67
BRANCH  55  78
ATOM     78  C   UNL     1       2.723   2.376  16.281  1.00  0.00     0.023 A 
ATOM     79  C   UNL     1       2.241   3.680  16.513  1.00  0.00     0.012 A 
ATOM     80  C   UNL     1       2.948   1.518  17.375  1.00  0.00     0.148 A 
ATOM     81  C   UNL     1       2.026   4.136  17.813  1.00  0.00     0.002 A 
ATOM     82  C   UNL     1       2.685   1.963  18.666  1.00  0.00     0.091 A 
ATOM     83  F   UNL     1       3.426   0.287  17.139  1.00  0.00    -0.205 F 
ATOM     84  C   UNL     1       2.237   3.275  18.887  1.00  0.00     0.022 A 
BRANCH  82  85
ATOM     85  S   UNL     1       2.841   0.887  20.096  1.00  0.00     0.127 S 
ATOM     86  O   UNL     1       4.120   1.318  20.657  1.00  0.00    -0.237 OA
ATOM     87  O   UNL     1       1.670   1.255  20.895  1.00  0.00    -0.237 OA
ATOM     88  O   UNL     1       2.806  -0.472  19.573  1.00  0.00    -0.744 OA
ENDBRANCH  82  85
ENDBRANCH  55  78
ENDBRANCH  29  30
ENDBRANCH  21  24
ENDBRANCH  19  20
ENDBRANCH  18  19
ENDBRANCH  17  18
ENDBRANCH   1  17
TORSDOF 20
