REMARK SMILES COc1cccc(N2/C(=[NH+]/C(=O)CCC(=O)NCCCCCCNC(=O)c3ccc(-c4c5nc(c(-c6cccc(S(=O)(=O)[O-])c6F)c6ccc([nH]6)c(-c6cccc(S(=O)(=O)[O-])c6F)c6nc(c(-c7cccc(S(=O)(=O)[O-])c7F)c7ccc4[nH]7)C=C6)C=C5)cc3)S[C@@H]3CS(=O)(=O)C[C@H]32)c1
REMARK SMILES IDX 20 1 19 2 18 3 17 4 15 5 16 6 14 8 13 9 11 10 8 11 9 12
REMARK SMILES IDX 97 13 10 14 90 15 91 16 96 17 92 19 93 20 12 21 94 22 95 23
REMARK SMILES IDX 7 24 3 25 4 26 98 27 5 28 6 29 2 30 1 31 21 32 22 33 23 34
REMARK SMILES IDX 24 35 25 36 26 38 27 39 28 40 89 41 29 42 88 43 30 44 31 45
REMARK SMILES IDX 32 46 82 47 33 48 87 49 81 50 83 51 34 52 86 53 80 54 79 55
REMARK SMILES IDX 35 57 67 58 47 59 66 60 48 61 51 62 65 63 84 64 49 65 50 66
REMARK SMILES IDX 64 68 85 69 52 70 36 71 37 72 45 73 38 74 40 75 46 76 39 77
REMARK SMILES IDX 41 78 42 79 43 80 44 81 68 82 69 83 77 84 70 85 72 86 78 87
REMARK SMILES IDX 71 88 73 89 74 90 75 91 76 92 53 93 54 94 62 95 55 96 57 97
REMARK SMILES IDX 63 98 56 99 58 100 59 101 60 102 61 103
REMARK H PARENT 17 7 10 18 24 37 83 56 51 67
REMARK Flexibility Score: inf
ROOT
ATOM      1  C   UNL     1       4.551   2.008  -1.216  1.00  0.00     0.002 C 
ENDROOT
BRANCH   1   2
ATOM      2  C   UNL     1       5.817   1.128  -1.298  1.00  0.00     0.021 C 
BRANCH   2   3
ATOM      3  C   UNL     1       5.762  -0.258  -0.606  1.00  0.00     0.116 C 
BRANCH   3   4
ATOM      4  N   UNL     1       4.619  -1.101  -0.960  1.00  0.00    -0.356 N 
ATOM      5  C   UNL     1       4.473  -2.204  -1.743  1.00  0.00     0.220 C 
ATOM      6  O   UNL     1       3.361  -2.741  -1.775  1.00  0.00    -0.275 OA
ATOM      7  H   UNL     1       3.777  -0.807  -0.543  1.00  0.00     0.163 HD
BRANCH   5   8
ATOM      8  C   UNL     1       5.606  -2.766  -2.570  1.00  0.00     0.112 C 
BRANCH   8   9
ATOM      9  C   UNL     1       5.295  -2.587  -4.053  1.00  0.00     0.138 C 
BRANCH   9  10
ATOM     10  C   UNL     1       5.611  -1.158  -4.367  1.00  0.00     0.308 C 
ATOM     11  N   UNL     1       3.743   1.926  -4.902  1.00  0.00    -0.216 N 
ATOM     12  C   UNL     1       4.619   0.833  -4.976  1.00  0.00     0.319 C 
ATOM     13  C   UNL     1       4.541   3.164  -4.890  1.00  0.00     0.212 C 
ATOM     14  N   UNL     1       4.515  -0.325  -4.417  1.00  0.00    -0.204 N 
ATOM     15  S   UNL     1       6.043   1.307  -5.967  1.00  0.00    -0.029 SA
ATOM     16  C   UNL     1       5.525   3.002  -6.056  1.00  0.00     0.120 C 
ATOM     17  C   UNL     1       4.016   4.567  -5.062  1.00  0.00     0.188 C 
ATOM     18  H   UNL     1       3.657  -0.612  -4.029  1.00  0.00     0.316 HD
ATOM     19  C   UNL     1       6.584   4.032  -5.823  1.00  0.00     0.156 C 
ATOM     20  S   UNL     1       5.571   5.441  -5.490  1.00  0.00     0.155 S 
ATOM     21  O   UNL     1       6.792  -0.812  -4.326  1.00  0.00    -0.247 OA
ATOM     22  O   UNL     1       5.359   6.186  -6.707  1.00  0.00    -0.229 OA
ATOM     23  O   UNL     1       6.167   6.018  -4.308  1.00  0.00    -0.229 OA
BRANCH  11  24
ATOM     24  C   UNL     1       2.412   1.903  -4.452  1.00  0.00     0.132 A 
ATOM     25  C   UNL     1       0.621   1.172  -2.927  1.00  0.00     0.123 A 
ATOM     26  C   UNL     1      -0.327   1.802  -3.729  1.00  0.00     0.047 A 
ATOM     27  C   UNL     1       1.972   1.190  -3.314  1.00  0.00     0.098 A 
ATOM     28  C   UNL     1       0.069   2.479  -4.876  1.00  0.00     0.008 A 
ATOM     29  C   UNL     1       1.423   2.542  -5.220  1.00  0.00     0.052 A 
BRANCH  25  30
ATOM     30  O   UNL     1       0.086   0.497  -1.863  1.00  0.00    -0.497 OA
ATOM     31  C   UNL     1       0.868   0.411  -0.680  1.00  0.00     0.278 C 
ENDBRANCH  25  30
ENDBRANCH  11  24
ENDBRANCH   9  10
ENDBRANCH   8   9
ENDBRANCH   5   8
ENDBRANCH   3   4
ENDBRANCH   2   3
ENDBRANCH   1   2
BRANCH   1  32
ATOM     32  C   UNL     1       4.475   3.318  -0.393  1.00  0.00     0.002 C 
BRANCH  32  33
ATOM     33  C   UNL     1       5.536   4.436  -0.525  1.00  0.00     0.021 C 
BRANCH  33  34
ATOM     34  C   UNL     1       5.374   5.543  -1.603  1.00  0.00     0.116 C 
BRANCH  34  35
ATOM     35  N   UNL     1       4.221   6.448  -1.537  1.00  0.00    -0.352 N 
ATOM     36  C   UNL     1       4.003   7.668  -2.189  1.00  0.00     0.251 C 
ATOM     37  H   UNL     1       3.490   6.153  -0.946  1.00  0.00     0.163 HD
ATOM     38  O   UNL     1       2.844   8.067  -2.315  1.00  0.00    -0.269 OA
BRANCH  36  39
ATOM     39  C   UNL     1       5.096   8.499  -2.776  1.00  0.00     0.039 A 
ATOM     40  C   UNL     1       5.874   9.360  -2.014  1.00  0.00     0.014 A 
ATOM     41  C   UNL     1       5.303   8.518  -4.151  1.00  0.00     0.014 A 
ATOM     42  C   UNL     1       6.967  10.038  -2.606  1.00  0.00     0.010 A 
ATOM     43  C   UNL     1       6.520   9.000  -4.682  1.00  0.00     0.010 A 
ATOM     44  C   UNL     1       7.424   9.736  -3.912  1.00  0.00    -0.014 A 
BRANCH  44  45
ATOM     45  C   UNL     1       8.840  10.104  -4.354  1.00  0.00     0.031 A 
ATOM     46  C   UNL     1       9.226  10.586  -5.757  1.00  0.00     0.074 A 
ATOM     47  C   UNL     1       9.871   9.908  -3.489  1.00  0.00     0.049 A 
ATOM     48  N   UNL     1      10.393  11.023  -6.188  1.00  0.00    -0.248 NA
ATOM     49  C   UNL     1       8.218  10.521  -6.825  1.00  0.00     0.031 C 
ATOM     50  C   UNL     1       9.768   9.236  -2.189  1.00  0.00     0.029 A 
ATOM     51  N   UNL     1      11.208  10.252  -3.551  1.00  0.00    -0.354 N 
ATOM     52  C   UNL     1      10.262  11.236  -7.562  1.00  0.00     0.074 A 
ATOM     53  C   UNL     1       8.925  10.815  -7.908  1.00  0.00     0.031 C 
ATOM     54  C   UNL     1      10.936   9.319  -1.538  1.00  0.00     0.029 A 
ATOM     55  C   UNL     1      11.910   9.983  -2.392  1.00  0.00     0.049 A 
ATOM     56  H   UNL     1      11.622  10.652  -4.350  1.00  0.00     0.167 HD
ATOM     57  C   UNL     1      11.134  11.775  -8.458  1.00  0.00     0.034 A 
ATOM     58  C   UNL     1      13.184  10.241  -2.025  1.00  0.00     0.034 A 
ATOM     59  C   UNL     1      12.453  12.247  -8.125  1.00  0.00     0.049 A 
ATOM     60  C   UNL     1      14.097  10.960  -2.978  1.00  0.00     0.074 A 
ATOM     61  C   UNL     1      13.351  12.940  -8.921  1.00  0.00     0.029 A 
ATOM     62  N   UNL     1      13.075  12.059  -6.902  1.00  0.00    -0.354 N 
ATOM     63  N   UNL     1      13.853  11.371  -4.197  1.00  0.00    -0.248 NA
ATOM     64  C   UNL     1      15.448  11.285  -2.494  1.00  0.00     0.031 C 
ATOM     65  C   UNL     1      14.529  13.135  -8.192  1.00  0.00     0.029 A 
ATOM     66  C   UNL     1      14.347  12.607  -6.925  1.00  0.00     0.049 A 
ATOM     67  H   UNL     1      12.671  11.604  -6.128  1.00  0.00     0.167 HD
ATOM     68  C   UNL     1      15.005  12.026  -4.616  1.00  0.00     0.074 A 
ATOM     69  C   UNL     1      15.938  11.982  -3.510  1.00  0.00     0.031 C 
ATOM     70  C   UNL     1      15.265  12.599  -5.816  1.00  0.00     0.034 A 
BRANCH  57  71
ATOM     71  C   UNL     1      10.663  11.962  -9.891  1.00  0.00     0.023 A 
ATOM     72  C   UNL     1       9.624  12.879 -10.165  1.00  0.00     0.012 A 
ATOM     73  C   UNL     1      11.280  11.293 -10.970  1.00  0.00     0.148 A 
ATOM     74  C   UNL     1       9.162  13.074 -11.467  1.00  0.00     0.002 A 
ATOM     75  C   UNL     1      10.849  11.533 -12.273  1.00  0.00     0.091 A 
ATOM     76  F   UNL     1      12.273  10.432 -10.706  1.00  0.00    -0.205 F 
ATOM     77  C   UNL     1       9.778  12.407 -12.521  1.00  0.00     0.022 A 
BRANCH  75  78
ATOM     78  S   UNL     1      11.631  10.797 -13.716  1.00  0.00     0.127 S 
ATOM     79  O   UNL     1      10.590   9.882 -14.181  1.00  0.00    -0.237 OA
ATOM     80  O   UNL     1      11.845  11.961 -14.577  1.00  0.00    -0.237 OA
ATOM     81  O   UNL     1      12.851  10.164 -13.236  1.00  0.00    -0.744 OA
ENDBRANCH  75  78
ENDBRANCH  57  71
BRANCH  58  82
ATOM     82  C   UNL     1      13.650   9.893  -0.646  1.00  0.00     0.023 A 
ATOM     83  C   UNL     1      13.909  10.923   0.282  1.00  0.00     0.012 A 
ATOM     84  C   UNL     1      13.797   8.553  -0.235  1.00  0.00     0.148 A 
ATOM     85  C   UNL     1      14.335  10.627   1.579  1.00  0.00     0.002 A 
ATOM     86  C   UNL     1      14.160   8.264   1.076  1.00  0.00     0.091 A 
ATOM     87  F   UNL     1      13.553   7.586  -1.131  1.00  0.00    -0.205 F 
ATOM     88  C   UNL     1      14.448   9.299   1.979  1.00  0.00     0.022 A 
BRANCH  86  89
ATOM     89  S   UNL     1      14.192   6.588   1.723  1.00  0.00     0.127 S 
ATOM     90  O   UNL     1      15.617   6.391   1.974  1.00  0.00    -0.237 OA
ATOM     91  O   UNL     1      13.366   6.715   2.924  1.00  0.00    -0.237 OA
ATOM     92  O   UNL     1      13.612   5.751   0.681  1.00  0.00    -0.744 OA
ENDBRANCH  86  89
ENDBRANCH  58  82
BRANCH  70  93
ATOM     93  C   UNL     1      16.603  13.267  -6.002  1.00  0.00     0.023 A 
ATOM     94  C   UNL     1      17.776  12.492  -6.094  1.00  0.00     0.012 A 
ATOM     95  C   UNL     1      16.686  14.665  -6.155  1.00  0.00     0.148 A 
ATOM     96  C   UNL     1      19.014  13.100  -6.300  1.00  0.00     0.002 A 
ATOM     97  C   UNL     1      17.915  15.259  -6.415  1.00  0.00     0.091 A 
ATOM     98  F   UNL     1      15.562  15.388  -6.045  1.00  0.00    -0.205 F 
ATOM     99  C   UNL     1      19.082  14.481  -6.473  1.00  0.00     0.022 A 
BRANCH  97 100
ATOM    100  S   UNL     1      18.084  17.016  -6.750  1.00  0.00     0.127 S 
ATOM    101  O   UNL     1      18.783  17.481  -5.553  1.00  0.00    -0.237 OA
ATOM    102  O   UNL     1      18.893  17.020  -7.969  1.00  0.00    -0.237 OA
ATOM    103  O   UNL     1      16.731  17.527  -6.918  1.00  0.00    -0.744 OA
ENDBRANCH  97 100
ENDBRANCH  70  93
ENDBRANCH  44  45
ENDBRANCH  36  39
ENDBRANCH  34  35
ENDBRANCH  33  34
ENDBRANCH  32  33
ENDBRANCH   1  32
TORSDOF 20
