REMARK SMILES COCc1cccc(C(=O)N2C[C@@H](O)C[C@@H]2C(=O)NCCCCCCNC(=O)c2ccc(-c3c4nc(c(-c5cccc(S(=O)(=O)[O-])c5F)c5ccc([nH]5)c(-c5cccc(S(=O)(=O)[O-])c5F)c5nc(c(-c6cccc(S(=O)(=O)[O-])c6F)c6ccc3[nH]6)C=C5)C=C4)cc2)c1
REMARK SMILES IDX 22 1 21 2 20 3 19 4 17 5 18 6 16 8 11 9 12 10 13 11 15 12
REMARK SMILES IDX 9 13 10 14 8 15 4 16 5 17 92 18 6 19 7 20 3 21 2 22 1 23
REMARK SMILES IDX 14 24 23 26 24 27 25 28 26 29 27 30 28 32 29 33 30 34 91 35
REMARK SMILES IDX 31 36 90 37 32 38 33 39 34 40 84 41 35 42 89 43 83 44 85 45
REMARK SMILES IDX 36 46 88 47 82 48 81 49 37 51 69 52 49 53 68 54 50 55 53 56
REMARK SMILES IDX 67 57 86 58 51 59 52 60 66 62 87 63 54 64 38 65 39 66 47 67
REMARK SMILES IDX 40 68 42 69 48 70 41 71 43 72 44 73 45 74 46 75 70 76 71 77
REMARK SMILES IDX 79 78 72 79 74 80 80 81 73 82 75 83 76 84 77 85 78 86 55 87
REMARK SMILES IDX 56 88 64 89 57 90 59 91 65 92 58 93 60 94 61 95 62 96 63 97
REMARK H PARENT 19 7 14 25 26 31 85 50 53 61
REMARK Flexibility Score: inf
ROOT
ATOM      1  C   UNL     1      -5.738   3.349   4.829  1.00  0.00     0.002 C 
ENDROOT
BRANCH   1   2
ATOM      2  C   UNL     1      -4.388   2.935   5.428  1.00  0.00     0.021 C 
BRANCH   2   3
ATOM      3  C   UNL     1      -4.070   1.447   5.289  1.00  0.00     0.116 C 
BRANCH   3   4
ATOM      4  N   UNL     1      -3.872   1.068   3.904  1.00  0.00    -0.354 N 
ATOM      5  C   UNL     1      -2.705   0.826   3.241  1.00  0.00     0.242 C 
ATOM      6  O   UNL     1      -2.757   0.576   2.033  1.00  0.00    -0.273 OA
ATOM      7  H   UNL     1      -4.693   0.973   3.369  1.00  0.00     0.163 HD
BRANCH   5   8
ATOM      8  C   UNL     1      -1.380   0.793   4.025  1.00  0.00     0.177 C 
ATOM      9  N   UNL     1      -0.326   1.440   3.254  1.00  0.00    -0.324 N 
ATOM     10  C   UNL     1       0.783   0.531   3.030  1.00  0.00     0.152 C 
ATOM     11  C   UNL     1       0.114  -0.837   3.043  1.00  0.00     0.136 C 
ATOM     12  C   UNL     1      -0.929  -0.671   4.155  1.00  0.00     0.069 C 
BRANCH   9  13
ATOM     13  C   UNL     1      -0.455   2.768   2.898  1.00  0.00     0.254 C 
ATOM     14  O   UNL     1      -1.123   3.562   3.554  1.00  0.00    -0.269 OA
BRANCH  13  15
ATOM     15  C   UNL     1       0.121   3.204   1.599  1.00  0.00     0.040 A 
ATOM     16  C   UNL     1       0.735   2.693  -0.709  1.00  0.00    -0.022 A 
ATOM     17  C   UNL     1       1.115   4.032  -0.875  1.00  0.00     0.006 A 
ATOM     18  C   UNL     1       0.175   2.316   0.516  1.00  0.00     0.020 A 
ATOM     19  C   UNL     1       0.973   4.952   0.170  1.00  0.00     0.001 A 
ATOM     20  C   UNL     1       0.490   4.537   1.412  1.00  0.00     0.014 A 
BRANCH  16  21
ATOM     21  C   UNL     1       0.920   1.704  -1.838  1.00  0.00     0.195 C 
BRANCH  21  22
ATOM     22  O   UNL     1       0.527   0.369  -1.510  1.00  0.00    -0.380 OA
ATOM     23  C   UNL     1       1.564  -0.396  -0.907  1.00  0.00     0.195 C 
ENDBRANCH  21  22
ENDBRANCH  16  21
ENDBRANCH  13  15
ENDBRANCH   9  13
BRANCH  11  24
ATOM     24  O   UNL     1       1.023  -1.894   3.295  1.00  0.00    -0.391 OA
ATOM     25  H   UNL     1       1.469  -1.742   4.143  1.00  0.00     0.211 HD
ENDBRANCH  11  24
ENDBRANCH   5   8
ENDBRANCH   3   4
ENDBRANCH   2   3
ENDBRANCH   1   2
BRANCH   1  26
ATOM     26  C   UNL     1      -6.949   2.549   5.322  1.00  0.00     0.002 C 
BRANCH  26  27
ATOM     27  C   UNL     1      -7.110   2.475   6.843  1.00  0.00     0.021 C 
BRANCH  27  28
ATOM     28  C   UNL     1      -7.259   3.824   7.539  1.00  0.00     0.116 C 
BRANCH  28  29
ATOM     29  N   UNL     1      -8.469   4.520   7.132  1.00  0.00    -0.352 N 
ATOM     30  C   UNL     1      -9.467   5.055   7.910  1.00  0.00     0.251 C 
ATOM     31  H   UNL     1      -8.591   4.623   6.161  1.00  0.00     0.163 HD
ATOM     32  O   UNL     1     -10.507   5.447   7.389  1.00  0.00    -0.269 OA
BRANCH  30  33
ATOM     33  C   UNL     1      -9.295   5.138   9.377  1.00  0.00     0.039 A 
ATOM     34  C   UNL     1     -10.348   4.738  10.204  1.00  0.00     0.014 A 
ATOM     35  C   UNL     1      -8.105   5.613   9.935  1.00  0.00     0.014 A 
ATOM     36  C   UNL     1     -10.184   4.755  11.592  1.00  0.00     0.010 A 
ATOM     37  C   UNL     1      -7.920   5.568  11.315  1.00  0.00     0.010 A 
ATOM     38  C   UNL     1      -8.957   5.140  12.158  1.00  0.00    -0.014 A 
BRANCH  38  39
ATOM     39  C   UNL     1      -8.729   5.074  13.624  1.00  0.00     0.031 A 
ATOM     40  C   UNL     1      -8.462   6.327  14.411  1.00  0.00     0.074 A 
ATOM     41  C   UNL     1      -8.668   3.871  14.230  1.00  0.00     0.049 A 
ATOM     42  N   UNL     1      -8.181   6.457  15.682  1.00  0.00    -0.248 NA
ATOM     43  C   UNL     1      -8.489   7.599  13.670  1.00  0.00     0.031 C 
ATOM     44  C   UNL     1      -8.829   2.578  13.562  1.00  0.00     0.029 A 
ATOM     45  N   UNL     1      -8.424   3.539  15.540  1.00  0.00    -0.354 N 
ATOM     46  C   UNL     1      -7.965   7.814  15.887  1.00  0.00     0.074 A 
ATOM     47  C   UNL     1      -8.118   8.464  14.604  1.00  0.00     0.031 C 
ATOM     48  C   UNL     1      -8.679   1.595  14.463  1.00  0.00     0.029 A 
ATOM     49  C   UNL     1      -8.386   2.183  15.767  1.00  0.00     0.049 A 
ATOM     50  H   UNL     1      -8.289   4.208  16.249  1.00  0.00     0.167 HD
ATOM     51  C   UNL     1      -7.695   8.465  17.044  1.00  0.00     0.034 A 
ATOM     52  C   UNL     1      -8.138   1.490  16.895  1.00  0.00     0.034 A 
ATOM     53  C   UNL     1      -7.591   7.823  18.327  1.00  0.00     0.049 A 
ATOM     54  C   UNL     1      -7.882   2.240  18.174  1.00  0.00     0.074 A 
ATOM     55  C   UNL     1      -7.416   8.406  19.569  1.00  0.00     0.029 A 
ATOM     56  N   UNL     1      -7.648   6.453  18.533  1.00  0.00    -0.354 N 
ATOM     57  N   UNL     1      -7.850   3.534  18.378  1.00  0.00    -0.248 NA
ATOM     58  C   UNL     1      -7.662   1.435  19.385  1.00  0.00     0.031 C 
ATOM     59  C   UNL     1      -7.351   7.387  20.526  1.00  0.00     0.029 A 
ATOM     60  C   UNL     1      -7.501   6.170  19.880  1.00  0.00     0.049 A 
ATOM     61  H   UNL     1      -7.774   5.781  17.825  1.00  0.00     0.167 HD
ATOM     62  C   UNL     1      -7.637   3.700  19.742  1.00  0.00     0.074 A 
ATOM     63  C   UNL     1      -7.572   2.373  20.319  1.00  0.00     0.031 C 
ATOM     64  C   UNL     1      -7.490   4.847  20.450  1.00  0.00     0.034 A 
BRANCH  51  65
ATOM     65  C   UNL     1      -7.556   9.964  16.987  1.00  0.00     0.023 A 
ATOM     66  C   UNL     1      -8.706  10.757  16.794  1.00  0.00     0.012 A 
ATOM     67  C   UNL     1      -6.310  10.591  17.184  1.00  0.00     0.148 A 
ATOM     68  C   UNL     1      -8.615  12.148  16.765  1.00  0.00     0.002 A 
ATOM     69  C   UNL     1      -6.233  11.979  17.196  1.00  0.00     0.091 A 
ATOM     70  F   UNL     1      -5.224   9.821  17.344  1.00  0.00    -0.205 F 
ATOM     71  C   UNL     1      -7.382  12.758  16.977  1.00  0.00     0.022 A 
BRANCH  69  72
ATOM     72  S   UNL     1      -4.705  12.861  17.534  1.00  0.00     0.127 S 
ATOM     73  O   UNL     1      -4.360  13.373  16.208  1.00  0.00    -0.237 OA
ATOM     74  O   UNL     1      -5.141  13.882  18.487  1.00  0.00    -0.237 OA
ATOM     75  O   UNL     1      -3.787  11.873  18.083  1.00  0.00    -0.744 OA
ENDBRANCH  69  72
ENDBRANCH  51  65
BRANCH  52  76
ATOM     76  C   UNL     1      -8.194   0.001  16.878  1.00  0.00     0.023 A 
ATOM     77  C   UNL     1      -9.264  -0.655  17.518  1.00  0.00     0.012 A 
ATOM     78  C   UNL     1      -7.222  -0.766  16.205  1.00  0.00     0.148 A 
ATOM     79  C   UNL     1      -9.351  -2.047  17.512  1.00  0.00     0.002 A 
ATOM     80  C   UNL     1      -7.344  -2.150  16.157  1.00  0.00     0.091 A 
ATOM     81  F   UNL     1      -6.204  -0.125  15.615  1.00  0.00    -0.205 F 
ATOM     82  C   UNL     1      -8.399  -2.794  16.823  1.00  0.00     0.022 A 
BRANCH  80  83
ATOM     83  S   UNL     1      -6.239  -3.177  15.182  1.00  0.00     0.127 S 
ATOM     84  O   UNL     1      -5.421  -3.805  16.216  1.00  0.00    -0.237 OA
ATOM     85  O   UNL     1      -7.175  -4.076  14.505  1.00  0.00    -0.237 OA
ATOM     86  O   UNL     1      -5.542  -2.261  14.289  1.00  0.00    -0.744 OA
ENDBRANCH  80  83
ENDBRANCH  52  76
BRANCH  64  87
ATOM     87  C   UNL     1      -7.263   4.728  21.933  1.00  0.00     0.023 A 
ATOM     88  C   UNL     1      -6.011   4.294  22.412  1.00  0.00     0.012 A 
ATOM     89  C   UNL     1      -8.259   5.117  22.851  1.00  0.00     0.148 A 
ATOM     90  C   UNL     1      -5.763   4.223  23.782  1.00  0.00     0.002 A 
ATOM     91  C   UNL     1      -7.988   5.086  24.215  1.00  0.00     0.091 A 
ATOM     92  F   UNL     1      -9.450   5.508  22.376  1.00  0.00    -0.205 F 
ATOM     93  C   UNL     1      -6.745   4.630  24.682  1.00  0.00     0.022 A 
BRANCH  91  94
ATOM     94  S   UNL     1      -9.160   5.678  25.441  1.00  0.00     0.127 S 
ATOM     95  O   UNL     1      -9.640   4.425  26.023  1.00  0.00    -0.237 OA
ATOM     96  O   UNL     1      -8.310   6.475  26.326  1.00  0.00    -0.237 OA
ATOM     97  O   UNL     1     -10.154   6.448  24.705  1.00  0.00    -0.744 OA
ENDBRANCH  91  94
ENDBRANCH  64  87
ENDBRANCH  38  39
ENDBRANCH  30  33
ENDBRANCH  28  29
ENDBRANCH  27  28
ENDBRANCH  26  27
ENDBRANCH   1  26
TORSDOF 21
