REMARK SMILES O=C(NCCCCCCNC(=O)C1(CC(=O)N2CCOCC2)CCCCCCCCCCC1)c1ccc(-c2c3nc(c(-c4cccc(S(=O)(=O)[O-])c4F)c4ccc([nH]4)c(-c4cccc(S(=O)(=O)[O-])c4F)c4nc(c(-c5cccc(S(=O)(=O)[O-])c5F)c5ccc2[nH]5)C=C4)C=C3)cc1
REMARK SMILES IDX 8 1 7 2 6 3 5 4 4 5 3 6 1 7 2 8 34 10 35 11 96 12 36 13
REMARK SMILES IDX 95 14 37 15 38 16 39 17 89 18 40 19 94 20 88 21 90 22 41 23
REMARK SMILES IDX 93 24 87 25 86 26 42 28 74 29 54 30 73 31 55 32 58 33 72 34
REMARK SMILES IDX 91 35 56 36 57 37 71 39 92 40 59 41 43 42 44 43 52 44 45 45
REMARK SMILES IDX 47 46 53 47 46 48 48 49 49 50 50 51 51 52 75 53 76 54 84 55
REMARK SMILES IDX 77 56 79 57 85 58 78 59 80 60 81 61 82 62 83 63 60 64 61 65
REMARK SMILES IDX 69 66 62 67 64 68 70 69 63 70 65 71 66 72 67 73 68 74 9 75
REMARK SMILES IDX 10 76 11 77 12 79 13 80 14 81 15 82 16 83 17 84 18 85 22 86
REMARK SMILES IDX 19 87 21 88 20 89 23 90 24 91 25 92 26 93 27 94 33 96 32 97
REMARK SMILES IDX 31 98 30 99 29 100 28 101
REMARK H PARENT 3 9 90 27 58 38 10 78
REMARK Flexibility Score: 80.00
ROOT
ATOM      1  C   UNL     1       6.053   3.080  -2.392  1.00  0.00     0.021 C 
ENDROOT
BRANCH   1   2
ATOM      2  C   UNL     1       4.537   2.839  -2.520  1.00  0.00     0.002 C 
BRANCH   2   3
ATOM      3  C   UNL     1       3.942   1.471  -2.860  1.00  0.00     0.002 C 
BRANCH   3   4
ATOM      4  C   UNL     1       4.473   0.260  -2.123  1.00  0.00     0.021 C 
BRANCH   4   5
ATOM      5  C   UNL     1       4.148   0.296  -0.649  1.00  0.00     0.116 C 
BRANCH   5   6
ATOM      6  N   UNL     1       2.719   0.418  -0.379  1.00  0.00    -0.352 N 
ATOM      7  O   UNL     1       0.787  -0.076   0.688  1.00  0.00    -0.269 OA
ATOM      8  C   UNL     1       1.989  -0.166   0.639  1.00  0.00     0.251 C 
ATOM      9  H   UNL     1       2.211   0.988  -1.000  1.00  0.00     0.163 HD
BRANCH   8  10
ATOM     10  C   UNL     1       2.760  -0.930   1.641  1.00  0.00     0.039 A 
ATOM     11  C   UNL     1       3.919  -0.358   2.160  1.00  0.00     0.014 A 
ATOM     12  C   UNL     1       2.404  -2.245   1.939  1.00  0.00     0.014 A 
ATOM     13  C   UNL     1       4.833  -1.166   2.802  1.00  0.00     0.010 A 
ATOM     14  C   UNL     1       3.257  -3.012   2.734  1.00  0.00     0.010 A 
ATOM     15  C   UNL     1       4.489  -2.485   3.146  1.00  0.00    -0.014 A 
BRANCH  15  16
ATOM     16  C   UNL     1       5.407  -3.209   4.055  1.00  0.00     0.031 A 
ATOM     17  C   UNL     1       6.075  -4.491   3.659  1.00  0.00     0.074 A 
ATOM     18  C   UNL     1       5.667  -2.623   5.242  1.00  0.00     0.049 A 
ATOM     19  N   UNL     1       6.939  -5.197   4.339  1.00  0.00    -0.248 NA
ATOM     20  C   UNL     1       5.727  -5.068   2.351  1.00  0.00     0.031 C 
ATOM     21  C   UNL     1       5.017  -1.399   5.728  1.00  0.00     0.029 A 
ATOM     22  N   UNL     1       6.556  -2.935   6.231  1.00  0.00    -0.354 N 
ATOM     23  C   UNL     1       7.199  -6.326   3.574  1.00  0.00     0.074 A 
ATOM     24  C   UNL     1       6.407  -6.208   2.368  1.00  0.00     0.031 C 
ATOM     25  C   UNL     1       5.591  -1.016   6.872  1.00  0.00     0.029 A 
ATOM     26  C   UNL     1       6.571  -2.019   7.257  1.00  0.00     0.049 A 
ATOM     27  H   UNL     1       7.130  -3.735   6.212  1.00  0.00     0.167 HD
ATOM     28  C   UNL     1       8.028  -7.359   3.859  1.00  0.00     0.034 A 
ATOM     29  C   UNL     1       7.279  -1.997   8.400  1.00  0.00     0.034 A 
ATOM     30  C   UNL     1       8.831  -7.432   5.053  1.00  0.00     0.049 A 
ATOM     31  C   UNL     1       8.239  -3.117   8.647  1.00  0.00     0.074 A 
ATOM     32  C   UNL     1       9.715  -8.424   5.439  1.00  0.00     0.029 A 
ATOM     33  N   UNL     1       8.854  -6.468   6.052  1.00  0.00    -0.354 N 
ATOM     34  N   UNL     1       8.518  -4.142   7.878  1.00  0.00    -0.248 NA
ATOM     35  C   UNL     1       8.990  -3.078   9.905  1.00  0.00     0.031 C 
ATOM     36  C   UNL     1      10.268  -8.061   6.672  1.00  0.00     0.029 A 
ATOM     37  C   UNL     1       9.742  -6.836   7.049  1.00  0.00     0.049 A 
ATOM     38  H   UNL     1       8.317  -5.643   6.052  1.00  0.00     0.167 HD
ATOM     39  C   UNL     1       9.472  -4.878   8.562  1.00  0.00     0.074 A 
ATOM     40  C   UNL     1       9.764  -4.147   9.781  1.00  0.00     0.031 C 
ATOM     41  C   UNL     1      10.031  -6.069   8.234  1.00  0.00     0.034 A 
BRANCH  28  42
ATOM     42  C   UNL     1       8.138  -8.477   2.854  1.00  0.00     0.023 A 
ATOM     43  C   UNL     1       8.862  -8.271   1.662  1.00  0.00     0.012 A 
ATOM     44  C   UNL     1       7.592  -9.749   3.117  1.00  0.00     0.148 A 
ATOM     45  C   UNL     1       9.023  -9.305   0.739  1.00  0.00     0.002 A 
ATOM     46  C   UNL     1       7.788 -10.786   2.210  1.00  0.00     0.091 A 
ATOM     47  F   UNL     1       6.888  -9.922   4.245  1.00  0.00    -0.205 F 
ATOM     48  C   UNL     1       8.497 -10.563   1.018  1.00  0.00     0.022 A 
BRANCH  46  49
ATOM     49  S   UNL     1       7.211 -12.462   2.508  1.00  0.00     0.127 S 
ATOM     50  O   UNL     1       6.135 -12.582   1.525  1.00  0.00    -0.237 OA
ATOM     51  O   UNL     1       8.402 -13.256   2.206  1.00  0.00    -0.237 OA
ATOM     52  O   UNL     1       6.792 -12.501   3.901  1.00  0.00    -0.744 OA
ENDBRANCH  46  49
ENDBRANCH  28  42
BRANCH  29  53
ATOM     53  C   UNL     1       7.097  -0.871   9.357  1.00  0.00     0.023 A 
ATOM     54  C   UNL     1       8.142   0.047   9.565  1.00  0.00     0.012 A 
ATOM     55  C   UNL     1       5.857  -0.652   9.990  1.00  0.00     0.148 A 
ATOM     56  C   UNL     1       7.960   1.153  10.398  1.00  0.00     0.002 A 
ATOM     57  C   UNL     1       5.659   0.490  10.755  1.00  0.00     0.091 A 
ATOM     58  F   UNL     1       4.876  -1.547   9.802  1.00  0.00    -0.205 F 
ATOM     59  C   UNL     1       6.714   1.385  10.977  1.00  0.00     0.022 A 
BRANCH  57  60
ATOM     60  S   UNL     1       4.026   0.935  11.358  1.00  0.00     0.127 S 
ATOM     61  O   UNL     1       4.055   0.413  12.720  1.00  0.00    -0.237 OA
ATOM     62  O   UNL     1       4.041   2.396  11.256  1.00  0.00    -0.237 OA
ATOM     63  O   UNL     1       3.098   0.290  10.437  1.00  0.00    -0.744 OA
ENDBRANCH  57  60
ENDBRANCH  29  53
BRANCH  41  64
ATOM     64  C   UNL     1      11.007  -6.642   9.222  1.00  0.00     0.023 A 
ATOM     65  C   UNL     1      10.527  -7.194  10.427  1.00  0.00     0.012 A 
ATOM     66  C   UNL     1      12.386  -6.655   8.950  1.00  0.00     0.148 A 
ATOM     67  C   UNL     1      11.414  -7.715  11.366  1.00  0.00     0.002 A 
ATOM     68  C   UNL     1      13.260  -7.217   9.872  1.00  0.00     0.091 A 
ATOM     69  F   UNL     1      12.822  -6.100   7.809  1.00  0.00    -0.205 F 
ATOM     70  C   UNL     1      12.778  -7.736  11.085  1.00  0.00     0.022 A 
BRANCH  68  71
ATOM     71  S   UNL     1      15.020  -7.355   9.549  1.00  0.00     0.127 S 
ATOM     72  O   UNL     1      15.555  -6.239  10.328  1.00  0.00    -0.237 OA
ATOM     73  O   UNL     1      15.336  -8.680  10.084  1.00  0.00    -0.237 OA
ATOM     74  O   UNL     1      15.165  -7.242   8.103  1.00  0.00    -0.744 OA
ENDBRANCH  68  71
ENDBRANCH  41  64
ENDBRANCH  15  16
ENDBRANCH   8  10
ENDBRANCH   5   6
ENDBRANCH   4   5
ENDBRANCH   3   4
ENDBRANCH   2   3
ENDBRANCH   1   2
BRANCH   1  75
ATOM     75  C   UNL     1       7.018   2.641  -3.496  1.00  0.00     0.116 C 
BRANCH  75  76
ATOM     76  N   UNL     1       6.813   3.166  -4.863  1.00  0.00    -0.356 N 
ATOM     77  C   UNL     1       7.487   3.115  -6.094  1.00  0.00     0.226 C 
ATOM     78  H   UNL     1       5.983   3.692  -4.927  1.00  0.00     0.163 HD
ATOM     79  O   UNL     1       6.999   3.511  -7.147  1.00  0.00    -0.274 OA
BRANCH  77  80
ATOM     80  C   UNL     1       8.874   2.608  -6.116  1.00  0.00     0.058 C 
BRANCH  80  81
ATOM     81  C   UNL     1       9.642   2.203  -7.445  1.00  0.00     0.117 C 
BRANCH  81  82
ATOM     82  C   UNL     1       9.696   0.771  -8.113  1.00  0.00     0.223 C 
ATOM     83  O   UNL     1       9.059   0.644  -9.172  1.00  0.00    -0.275 OA
ATOM     84  N   UNL     1      10.519  -0.306  -7.693  1.00  0.00    -0.338 N 
ATOM     85  C   UNL     1      10.872  -0.683  -6.307  1.00  0.00     0.148 C 
ATOM     86  C   UNL     1      10.563  -1.454  -8.618  1.00  0.00     0.148 C 
ATOM     87  C   UNL     1      11.851  -1.846  -6.091  1.00  0.00     0.181 C 
ATOM     88  C   UNL     1      11.704  -2.436  -8.332  1.00  0.00     0.181 C 
ATOM     89  O   UNL     1      11.616  -2.924  -6.992  1.00  0.00    -0.378 OA
ENDBRANCH  81  82
ENDBRANCH  80  81
BRANCH  80  90
ATOM     90  C   UNL     1       9.554   3.964  -5.595  1.00  0.00     0.017 C 
BRANCH  90  91
ATOM     91  C   UNL     1       8.704   5.231  -5.059  1.00  0.00     0.001 C 
BRANCH  91  92
ATOM     92  C   UNL     1       7.675   5.974  -6.002  1.00  0.00     0.000 C 
BRANCH  92  93
ATOM     93  C   UNL     1       6.225   6.306  -5.501  1.00  0.00     0.000 C 
BRANCH  93  94
ATOM     94  C   UNL     1       5.007   5.321  -5.387  1.00  0.00     0.000 CG0
ATOM     95  G   UNL     1       4.567   4.406  -6.595  1.00  0.00     0.000 G0
ENDBRANCH  93  94
ENDBRANCH  92  93
ENDBRANCH  91  92
ENDBRANCH  90  91
ENDBRANCH  80  90
BRANCH  80  96
ATOM     96  C   UNL     1       8.628   1.298  -5.395  1.00  0.00     0.017 C 
BRANCH  96  97
ATOM     97  C   UNL     1       7.439   0.373  -5.965  1.00  0.00     0.001 C 
BRANCH  97  98
ATOM     98  C   UNL     1       6.226   0.879  -6.892  1.00  0.00     0.000 C 
BRANCH  98  99
ATOM     99  C   UNL     1       5.007   1.522  -6.158  1.00  0.00     0.000 C 
BRANCH  99 100
ATOM    100  C   UNL     1       4.182   2.846  -6.508  1.00  0.00     0.000 C 
BRANCH 100 101
ATOM    101  C   UNL     1       4.567   4.406  -6.595  1.00  0.00     0.000 CG0
ATOM    102  G   UNL     1       5.007   5.321  -5.387  1.00  0.00     0.000 G0
ENDBRANCH 100 101
ENDBRANCH  99 100
ENDBRANCH  98  99
ENDBRANCH  97  98
ENDBRANCH  96  97
ENDBRANCH  80  96
ENDBRANCH  77  80
ENDBRANCH  75  76
ENDBRANCH   1  75
TORSDOF 18
