REMARK SMILES Cn1cc(C[C@H](C(=O)NCCCCCCNC(=O)c2ccc(-c3c4nc(c(-c5cccc(S(=O)(=O)[O-])c5F)c5ccc([nH]5)c(-c5cccc(S(=O)(=O)[O-])c5F)c5nc(c(-c6cccc(S(=O)(=O)[O-])c6F)c6ccc3[nH]6)C=C5)C=C4)cc2)c2ccc(F)cc2)cn1
REMARK SMILES IDX 13 1 12 2 11 3 10 4 9 5 7 6 8 7 6 9 5 10 4 11 1 12 2 13 3 14
REMARK SMILES IDX 90 15 89 16 82 17 83 18 88 19 84 20 87 21 85 22 86 23 14 24
REMARK SMILES IDX 15 25 16 26 17 27 18 29 19 30 20 31 81 32 21 33 80 34 22 35
REMARK SMILES IDX 23 36 24 37 74 38 25 39 79 40 73 41 75 42 26 43 78 44 72 45
REMARK SMILES IDX 71 46 27 48 59 49 39 50 58 51 40 52 43 53 57 54 76 55 41 56
REMARK SMILES IDX 42 57 56 59 77 60 44 61 28 62 29 63 37 64 30 65 32 66 38 67
REMARK SMILES IDX 31 68 33 69 34 70 35 71 36 72 60 73 61 74 69 75 62 76 64 77
REMARK SMILES IDX 70 78 63 79 65 80 66 81 67 82 68 83 45 84 46 85 54 86 47 87
REMARK SMILES IDX 49 88 55 89 48 90 50 91 51 92 52 93 53 94
REMARK H PARENT 9 8 16 28 75 47 43 58
REMARK Flexibility Score: inf
ROOT
ATOM      1  C   UNL     1       2.401  -6.385   1.707  1.00  0.00     0.002 C 
ENDROOT
BRANCH   1   2
ATOM      2  C   UNL     1       3.371  -5.212   1.889  1.00  0.00     0.002 C 
BRANCH   2   3
ATOM      3  C   UNL     1       3.822  -4.554   0.579  1.00  0.00     0.021 C 
BRANCH   3   4
ATOM      4  C   UNL     1       2.683  -3.835  -0.147  1.00  0.00     0.116 C 
BRANCH   4   5
ATOM      5  N   UNL     1       2.498  -2.518   0.419  1.00  0.00    -0.356 N 
ATOM      6  C   UNL     1       3.061  -1.334   0.050  1.00  0.00     0.227 C 
ATOM      7  O   UNL     1       2.990  -0.416   0.875  1.00  0.00    -0.274 OA
ATOM      8  H   UNL     1       1.876  -2.470   1.181  1.00  0.00     0.163 HD
BRANCH   6   9
ATOM      9  C   UNL     1       3.680  -1.133  -1.353  1.00  0.00     0.113 C 
BRANCH   9  10
ATOM     10  C   UNL     1       3.721   0.397  -1.572  1.00  0.00     0.057 C 
BRANCH  10  11
ATOM     11  C   UNL     1       3.989   0.929  -2.938  1.00  0.00    -0.009 A 
ATOM     12  C   UNL     1       4.342   3.547  -5.391  1.00  0.00     0.173 C 
ATOM     13  N   UNL     1       4.259   2.346  -4.598  1.00  0.00    -0.276 N 
ATOM     14  C   UNL     1       4.066   2.273  -3.254  1.00  0.00     0.112 A 
ATOM     15  N   UNL     1       4.335   1.143  -5.189  1.00  0.00    -0.182 NA
ATOM     16  C   UNL     1       4.180   0.282  -4.179  1.00  0.00     0.138 A 
ENDBRANCH  10  11
ENDBRANCH   9  10
BRANCH   9  17
ATOM     17  C   UNL     1       5.035  -1.827  -1.504  1.00  0.00    -0.035 A 
ATOM     18  C   UNL     1       5.144  -3.003  -2.274  1.00  0.00     0.007 A 
ATOM     19  C   UNL     1       6.187  -1.355  -0.855  1.00  0.00     0.007 A 
ATOM     20  C   UNL     1       6.336  -3.729  -2.322  1.00  0.00     0.039 A 
ATOM     21  C   UNL     1       7.393  -2.059  -0.941  1.00  0.00     0.039 A 
ATOM     22  C   UNL     1       7.450  -3.250  -1.652  1.00  0.00     0.123 A 
ATOM     23  F   UNL     1       8.594  -3.945  -1.686  1.00  0.00    -0.207 F 
ENDBRANCH   9  17
ENDBRANCH   6   9
ENDBRANCH   4   5
ENDBRANCH   3   4
ENDBRANCH   2   3
ENDBRANCH   1   2
BRANCH   1  24
ATOM     24  C   UNL     1       2.920  -7.516   0.814  1.00  0.00     0.021 C 
BRANCH  24  25
ATOM     25  C   UNL     1       4.206  -8.169   1.312  1.00  0.00     0.116 C 
BRANCH  25  26
ATOM     26  N   UNL     1       4.012  -8.807   2.606  1.00  0.00    -0.352 N 
ATOM     27  C   UNL     1       4.162 -10.126   2.953  1.00  0.00     0.251 C 
ATOM     28  H   UNL     1       3.733  -8.207   3.335  1.00  0.00     0.163 HD
ATOM     29  O   UNL     1       3.708 -10.537   4.017  1.00  0.00    -0.269 OA
BRANCH  27  30
ATOM     30  C   UNL     1       4.870 -11.048   2.041  1.00  0.00     0.039 A 
ATOM     31  C   UNL     1       4.342 -12.322   1.815  1.00  0.00     0.014 A 
ATOM     32  C   UNL     1       6.064 -10.661   1.426  1.00  0.00     0.014 A 
ATOM     33  C   UNL     1       4.990 -13.191   0.934  1.00  0.00     0.010 A 
ATOM     34  C   UNL     1       6.667 -11.499   0.494  1.00  0.00     0.010 A 
ATOM     35  C   UNL     1       6.144 -12.777   0.248  1.00  0.00    -0.014 A 
BRANCH  35  36
ATOM     36  C   UNL     1       6.817 -13.664  -0.734  1.00  0.00     0.031 A 
ATOM     37  C   UNL     1       8.226 -14.134  -0.490  1.00  0.00     0.074 A 
ATOM     38  C   UNL     1       6.193 -13.971  -1.888  1.00  0.00     0.049 A 
ATOM     39  N   UNL     1       8.994 -14.867  -1.254  1.00  0.00    -0.248 NA
ATOM     40  C   UNL     1       8.866 -13.700   0.763  1.00  0.00     0.031 C 
ATOM     41  C   UNL     1       4.858 -13.509  -2.275  1.00  0.00     0.029 A 
ATOM     42  N   UNL     1       6.609 -14.720  -2.959  1.00  0.00    -0.354 N 
ATOM     43  C   UNL     1      10.216 -14.949  -0.597  1.00  0.00     0.074 A 
ATOM     44  C   UNL     1      10.098 -14.164   0.612  1.00  0.00     0.031 C 
ATOM     45  C   UNL     1       4.563 -13.990  -3.493  1.00  0.00     0.029 A 
ATOM     46  C   UNL     1       5.695 -14.768  -3.986  1.00  0.00     0.049 A 
ATOM     47  H   UNL     1       7.478 -15.181  -2.990  1.00  0.00     0.167 HD
ATOM     48  C   UNL     1      11.326 -15.639  -0.952  1.00  0.00     0.034 A 
ATOM     49  C   UNL     1       5.763 -15.366  -5.191  1.00  0.00     0.034 A 
ATOM     50  C   UNL     1      11.422 -16.453  -2.133  1.00  0.00     0.049 A 
ATOM     51  C   UNL     1       6.991 -16.161  -5.544  1.00  0.00     0.074 A 
ATOM     52  C   UNL     1      12.464 -17.271  -2.533  1.00  0.00     0.029 A 
ATOM     53  N   UNL     1      10.444 -16.545  -3.112  1.00  0.00    -0.354 N 
ATOM     54  N   UNL     1       8.073 -16.366  -4.832  1.00  0.00    -0.248 NA
ATOM     55  C   UNL     1       6.994 -16.836  -6.849  1.00  0.00     0.031 C 
ATOM     56  C   UNL     1      12.127 -17.837  -3.767  1.00  0.00     0.029 A 
ATOM     57  C   UNL     1      10.863 -17.394  -4.122  1.00  0.00     0.049 A 
ATOM     58  H   UNL     1       9.579 -16.076  -3.092  1.00  0.00     0.167 HD
ATOM     59  C   UNL     1       8.869 -17.222  -5.585  1.00  0.00     0.074 A 
ATOM     60  C   UNL     1       8.134 -17.512  -6.800  1.00  0.00     0.031 C 
ATOM     61  C   UNL     1      10.101 -17.713  -5.303  1.00  0.00     0.034 A 
BRANCH  48  62
ATOM     62  C   UNL     1      12.513 -15.579  -0.024  1.00  0.00     0.023 A 
ATOM     63  C   UNL     1      12.452 -16.227   1.228  1.00  0.00     0.012 A 
ATOM     64  C   UNL     1      13.701 -14.926  -0.405  1.00  0.00     0.148 A 
ATOM     65  C   UNL     1      13.537 -16.189   2.102  1.00  0.00     0.002 A 
ATOM     66  C   UNL     1      14.796 -14.933   0.452  1.00  0.00     0.091 A 
ATOM     67  F   UNL     1      13.735 -14.297  -1.589  1.00  0.00    -0.205 F 
ATOM     68  C   UNL     1      14.711 -15.552   1.710  1.00  0.00     0.022 A 
BRANCH  66  69
ATOM     69  S   UNL     1      16.379 -14.211   0.006  1.00  0.00     0.127 S 
ATOM     70  O   UNL     1      16.402 -13.011   0.842  1.00  0.00    -0.237 OA
ATOM     71  O   UNL     1      17.320 -15.255   0.413  1.00  0.00    -0.237 OA
ATOM     72  O   UNL     1      16.320 -13.975  -1.430  1.00  0.00    -0.744 OA
ENDBRANCH  66  69
ENDBRANCH  48  62
BRANCH  49  73
ATOM     73  C   UNL     1       4.600 -15.297  -6.119  1.00  0.00     0.023 A 
ATOM     74  C   UNL     1       3.831 -16.455  -6.347  1.00  0.00     0.012 A 
ATOM     75  C   UNL     1       4.225 -14.091  -6.741  1.00  0.00     0.148 A 
ATOM     76  C   UNL     1       2.727 -16.421  -7.199  1.00  0.00     0.002 A 
ATOM     77  C   UNL     1       3.092 -14.050  -7.546  1.00  0.00     0.091 A 
ATOM     78  F   UNL     1       4.975 -13.002  -6.518  1.00  0.00    -0.205 F 
ATOM     79  C   UNL     1       2.352 -15.217  -7.790  1.00  0.00     0.022 A 
BRANCH  77  80
ATOM     80  S   UNL     1       2.456 -12.520  -8.240  1.00  0.00     0.127 S 
ATOM     81  O   UNL     1       2.710 -12.709  -9.665  1.00  0.00    -0.237 OA
ATOM     82  O   UNL     1       1.046 -12.577  -7.852  1.00  0.00    -0.237 OA
ATOM     83  O   UNL     1       3.211 -11.452  -7.599  1.00  0.00    -0.744 OA
ENDBRANCH  77  80
ENDBRANCH  49  73
BRANCH  61  84
ATOM     84  C   UNL     1      10.729 -18.644  -6.307  1.00  0.00     0.023 A 
ATOM     85  C   UNL     1      11.212 -18.136  -7.529  1.00  0.00     0.012 A 
ATOM     86  C   UNL     1      10.908 -20.009  -6.006  1.00  0.00     0.148 A 
ATOM     87  C   UNL     1      11.835 -18.978  -8.450  1.00  0.00     0.002 A 
ATOM     88  C   UNL     1      11.574 -20.831  -6.907  1.00  0.00     0.091 A 
ATOM     89  F   UNL     1      10.425 -20.477  -4.847  1.00  0.00    -0.205 F 
ATOM     90  C   UNL     1      12.027 -20.321  -8.134  1.00  0.00     0.022 A 
BRANCH  88  91
ATOM     91  S   UNL     1      11.953 -22.549  -6.543  1.00  0.00     0.127 S 
ATOM     92  O   UNL     1      11.020 -23.253  -7.421  1.00  0.00    -0.237 OA
ATOM     93  O   UNL     1      13.358 -22.649  -6.940  1.00  0.00    -0.237 OA
ATOM     94  O   UNL     1      11.717 -22.718  -5.115  1.00  0.00    -0.744 OA
ENDBRANCH  88  91
ENDBRANCH  61  84
ENDBRANCH  35  36
ENDBRANCH  27  30
ENDBRANCH  25  26
ENDBRANCH  24  25
ENDBRANCH   1  24
TORSDOF 19
