REMARK SMILES CO[C@@H]1C[C@@H](C(=O)NCCCCCCNC(=O)c2ccc(-c3c4nc(c(-c5cccc(S(=O)(=O)[O-])c5F)c5ccc([nH]5)c(-c5cccc(S(=O)(=O)[O-])c5F)c5nc(c(-c6cccc(S(=O)(=O)[O-])c6F)c6ccc3[nH]6)C=C5)C=C4)cc2)N(S(=O)(=O)c2ccc(Cl)cc2F)C1
REMARK SMILES IDX 12 1 11 2 10 3 9 4 8 5 6 6 7 7 5 9 3 10 4 11 93 12 81 13
REMARK SMILES IDX 2 14 1 15 82 16 83 17 84 18 85 19 86 20 91 21 87 22 90 23
REMARK SMILES IDX 92 24 88 25 89 26 13 27 14 28 15 29 16 30 17 32 18 33 19 34
REMARK SMILES IDX 80 35 20 36 79 37 21 38 22 39 23 40 73 41 24 42 78 43 72 44
REMARK SMILES IDX 74 45 25 46 77 47 71 48 70 49 26 51 58 52 38 53 57 54 39 55
REMARK SMILES IDX 42 56 56 57 75 58 40 59 41 60 55 62 76 63 43 64 27 65 28 66
REMARK SMILES IDX 36 67 29 68 31 69 37 70 30 71 32 72 33 73 34 74 35 75 59 76
REMARK SMILES IDX 60 77 68 78 61 79 63 80 69 81 62 82 64 83 65 84 66 85 67 86
REMARK SMILES IDX 44 87 45 88 53 89 46 90 48 91 54 92 47 93 49 94 50 95 51 96
REMARK SMILES IDX 52 97
REMARK H PARENT 8 8 15 31 74 50 42 61
REMARK Flexibility Score: inf
ROOT
ATOM      1  C   UNL     1      -0.496   9.142   3.930  1.00  0.00     0.002 C 
ENDROOT
BRANCH   1   2
ATOM      2  C   UNL     1       0.177   9.162   2.558  1.00  0.00     0.002 C 
BRANCH   2   3
ATOM      3  C   UNL     1       1.178   8.025   2.325  1.00  0.00     0.021 C 
BRANCH   3   4
ATOM      4  C   UNL     1       0.557   6.631   2.272  1.00  0.00     0.116 C 
BRANCH   4   5
ATOM      5  N   UNL     1      -0.297   6.512   1.110  1.00  0.00    -0.355 N 
ATOM      6  C   UNL     1      -0.328   5.655   0.067  1.00  0.00     0.238 C 
ATOM      7  O   UNL     1      -1.171   5.929  -0.800  1.00  0.00    -0.273 OA
ATOM      8  H   UNL     1      -1.003   7.197   1.073  1.00  0.00     0.163 HD
BRANCH   6   9
ATOM      9  C   UNL     1       0.515   4.405  -0.059  1.00  0.00     0.165 C 
ATOM     10  C   UNL     1       1.194   2.250   0.683  1.00  0.00     0.135 C 
ATOM     11  C   UNL     1       0.387   3.456   1.128  1.00  0.00     0.064 C 
ATOM     12  C   UNL     1       2.319   2.847  -0.177  1.00  0.00     0.135 C 
ATOM     13  N   UNL     1       1.915   4.268  -0.541  1.00  0.00    -0.183 NA
BRANCH  10  14
ATOM     14  O   UNL     1       0.352   1.385  -0.086  1.00  0.00    -0.380 OA
ATOM     15  C   UNL     1       0.847   0.051  -0.116  1.00  0.00     0.195 C 
ENDBRANCH  10  14
BRANCH  13  16
ATOM     16  S   UNL     1       3.187   5.330  -0.247  1.00  0.00     0.246 S 
ATOM     17  O   UNL     1       3.326   5.401   1.193  1.00  0.00    -0.207 OA
ATOM     18  O   UNL     1       4.302   4.852  -1.043  1.00  0.00    -0.207 OA
BRANCH  16  19
ATOM     19  C   UNL     1       2.902   6.966  -0.800  1.00  0.00     0.118 A 
ATOM     20  C   UNL     1       3.777   7.954  -0.309  1.00  0.00     0.026 A 
ATOM     21  C   UNL     1       1.878   7.321  -1.655  1.00  0.00     0.144 A 
ATOM     22  C   UNL     1       3.567   9.298  -0.621  1.00  0.00     0.022 A 
ATOM     23  C   UNL     1       1.640   8.667  -1.941  1.00  0.00     0.061 A 
ATOM     24  F   UNL     1       1.106   6.401  -2.239  1.00  0.00    -0.205 F 
ATOM     25  C   UNL     1       2.478   9.650  -1.414  1.00  0.00     0.044 A 
ATOM     26  Cl  UNL     1       2.167  11.309  -1.740  1.00  0.00    -0.084 Cl
ENDBRANCH  16  19
ENDBRANCH  13  16
ENDBRANCH   6   9
ENDBRANCH   4   5
ENDBRANCH   3   4
ENDBRANCH   2   3
ENDBRANCH   1   2
BRANCH   1  27
ATOM     27  C   UNL     1       0.470   9.188   5.118  1.00  0.00     0.021 C 
BRANCH  27  28
ATOM     28  C   UNL     1       1.456  10.355   5.098  1.00  0.00     0.116 C 
BRANCH  28  29
ATOM     29  N   UNL     1       0.777  11.641   5.117  1.00  0.00    -0.352 N 
ATOM     30  C   UNL     1       0.941  12.693   5.983  1.00  0.00     0.251 C 
ATOM     31  H   UNL     1       0.106  11.775   4.410  1.00  0.00     0.163 HD
ATOM     32  O   UNL     1       0.138  13.622   5.977  1.00  0.00    -0.269 OA
BRANCH  30  33
ATOM     33  C   UNL     1       2.077  12.698   6.928  1.00  0.00     0.039 A 
ATOM     34  C   UNL     1       1.840  13.034   8.263  1.00  0.00     0.014 A 
ATOM     35  C   UNL     1       3.372  12.393   6.497  1.00  0.00     0.014 A 
ATOM     36  C   UNL     1       2.896  13.021   9.176  1.00  0.00     0.010 A 
ATOM     37  C   UNL     1       4.413  12.324   7.421  1.00  0.00     0.010 A 
ATOM     38  C   UNL     1       4.187  12.647   8.767  1.00  0.00    -0.014 A 
BRANCH  38  39
ATOM     39  C   UNL     1       5.297  12.572   9.749  1.00  0.00     0.031 A 
ATOM     40  C   UNL     1       6.461  13.521   9.669  1.00  0.00     0.074 A 
ATOM     41  C   UNL     1       5.285  11.602  10.684  1.00  0.00     0.049 A 
ATOM     42  N   UNL     1       7.489  13.630  10.471  1.00  0.00    -0.248 NA
ATOM     43  C   UNL     1       6.490  14.451   8.528  1.00  0.00     0.031 C 
ATOM     44  C   UNL     1       4.268  10.554  10.799  1.00  0.00     0.029 A 
ATOM     45  N   UNL     1       6.161  11.329  11.703  1.00  0.00    -0.354 N 
ATOM     46  C   UNL     1       8.298  14.617   9.922  1.00  0.00     0.074 A 
ATOM     47  C   UNL     1       7.660  15.052   8.698  1.00  0.00     0.031 C 
ATOM     48  C   UNL     1       4.574   9.758  11.836  1.00  0.00     0.029 A 
ATOM     49  C   UNL     1       5.808  10.234  12.456  1.00  0.00     0.049 A 
ATOM     50  H   UNL     1       6.967  11.866  11.879  1.00  0.00     0.167 HD
ATOM     51  C   UNL     1       9.448  15.140  10.410  1.00  0.00     0.034 A 
ATOM     52  C   UNL     1       6.400   9.685  13.534  1.00  0.00     0.034 A 
ATOM     53  C   UNL     1      10.051  14.742  11.654  1.00  0.00     0.049 A 
ATOM     54  C   UNL     1       7.626  10.341  14.107  1.00  0.00     0.074 A 
ATOM     55  C   UNL     1      11.152  15.287  12.291  1.00  0.00     0.029 A 
ATOM     56  N   UNL     1       9.608  13.696  12.448  1.00  0.00    -0.354 N 
ATOM     57  N   UNL     1       8.264  11.406  13.687  1.00  0.00    -0.248 NA
ATOM     58  C   UNL     1       8.187   9.748  15.330  1.00  0.00     0.031 C 
ATOM     59  C   UNL     1      11.379  14.563  13.468  1.00  0.00     0.029 A 
ATOM     60  C   UNL     1      10.416  13.572  13.566  1.00  0.00     0.049 A 
ATOM     61  H   UNL     1       8.832  13.124  12.247  1.00  0.00     0.167 HD
ATOM     62  C   UNL     1       9.286  11.625  14.603  1.00  0.00     0.074 A 
ATOM     63  C   UNL     1       9.161  10.600  15.619  1.00  0.00     0.031 C 
ATOM     64  C   UNL     1      10.254  12.575  14.592  1.00  0.00     0.034 A 
BRANCH  51  65
ATOM     65  C   UNL     1      10.089  16.258   9.632  1.00  0.00     0.023 A 
ATOM     66  C   UNL     1       9.494  17.536   9.647  1.00  0.00     0.012 A 
ATOM     67  C   UNL     1      11.297  16.068   8.934  1.00  0.00     0.148 A 
ATOM     68  C   UNL     1      10.072  18.599   8.956  1.00  0.00     0.002 A 
ATOM     69  C   UNL     1      11.888  17.142   8.277  1.00  0.00     0.091 A 
ATOM     70  F   UNL     1      11.836  14.840   8.907  1.00  0.00    -0.205 F 
ATOM     71  C   UNL     1      11.273  18.405   8.280  1.00  0.00     0.022 A 
BRANCH  69  72
ATOM     72  S   UNL     1      13.471  17.006   7.437  1.00  0.00     0.127 S 
ATOM     73  O   UNL     1      13.059  16.961   6.036  1.00  0.00    -0.237 OA
ATOM     74  O   UNL     1      14.143  18.243   7.835  1.00  0.00    -0.237 OA
ATOM     75  O   UNL     1      14.089  15.792   7.953  1.00  0.00    -0.744 OA
ENDBRANCH  69  72
ENDBRANCH  51  65
BRANCH  52  76
ATOM     76  C   UNL     1       5.772   8.510  14.199  1.00  0.00     0.023 A 
ATOM     77  C   UNL     1       5.130   8.684  15.441  1.00  0.00     0.012 A 
ATOM     78  C   UNL     1       5.756   7.241  13.589  1.00  0.00     0.148 A 
ATOM     79  C   UNL     1       4.505   7.610  16.075  1.00  0.00     0.002 A 
ATOM     80  C   UNL     1       5.087   6.187  14.202  1.00  0.00     0.091 A 
ATOM     81  F   UNL     1       6.386   7.091  12.415  1.00  0.00    -0.205 F 
ATOM     82  C   UNL     1       4.473   6.366  15.451  1.00  0.00     0.022 A 
BRANCH  80  83
ATOM     83  S   UNL     1       4.879   4.593  13.400  1.00  0.00     0.127 S 
ATOM     84  O   UNL     1       5.853   3.770  14.110  1.00  0.00    -0.237 OA
ATOM     85  O   UNL     1       3.479   4.282  13.692  1.00  0.00    -0.237 OA
ATOM     86  O   UNL     1       5.151   4.832  11.988  1.00  0.00    -0.744 OA
ENDBRANCH  80  83
ENDBRANCH  52  76
BRANCH  64  87
ATOM     87  C   UNL     1      11.260  12.549  15.712  1.00  0.00     0.023 A 
ATOM     88  C   UNL     1      12.251  11.547  15.728  1.00  0.00     0.012 A 
ATOM     89  C   UNL     1      11.265  13.540  16.713  1.00  0.00     0.148 A 
ATOM     90  C   UNL     1      13.209  11.512  16.740  1.00  0.00     0.002 A 
ATOM     91  C   UNL     1      12.249  13.523  17.695  1.00  0.00     0.091 A 
ATOM     92  F   UNL     1      10.302  14.474  16.698  1.00  0.00    -0.205 F 
ATOM     93  C   UNL     1      13.216  12.505  17.716  1.00  0.00     0.022 A 
BRANCH  91  94
ATOM     94  S   UNL     1      12.373  14.819  18.934  1.00  0.00     0.127 S 
ATOM     95  O   UNL     1      11.687  14.212  20.073  1.00  0.00    -0.237 OA
ATOM     96  O   UNL     1      13.820  14.963  19.101  1.00  0.00    -0.237 OA
ATOM     97  O   UNL     1      11.722  15.982  18.346  1.00  0.00    -0.744 OA
ENDBRANCH  91  94
ENDBRANCH  64  87
ENDBRANCH  38  39
ENDBRANCH  30  33
ENDBRANCH  28  29
ENDBRANCH  27  28
ENDBRANCH   1  27
TORSDOF 19
