REMARK SMILES CC(C)[C@H](NC(=O)[C@H](C)NC(=O)CNC(=O)OCc1ccccc1)C(=O)NCCCCCCNC(=O)c1ccc(-c2c3nc(c(-c4cccc(S(=O)(=O)[O-])c4F)c4ccc([nH]4)c(-c4cccc(S(=O)(=O)[O-])c4F)c4nc(c(-c5cccc(S(=O)(=O)[O-])c5F)c5ccc2[nH]5)C=C4)C=C3)cc1
REMARK SMILES IDX 28 1 27 2 25 3 26 4 4 6 2 7 1 8 3 9 5 10 6 11 7 13 8 14 9 15
REMARK SMILES IDX 10 16 11 17 12 19 13 20 14 21 15 22 16 24 17 25 18 26 19 27
REMARK SMILES IDX 20 28 24 29 21 30 23 31 22 32 29 33 30 34 31 35 32 36 33 37
REMARK SMILES IDX 34 38 35 39 36 41 37 42 38 43 99 44 39 45 98 46 40 47 41 48
REMARK SMILES IDX 42 49 92 50 43 51 97 52 91 53 93 54 44 55 96 56 90 57 89 58
REMARK SMILES IDX 45 60 77 61 57 62 76 63 58 64 61 65 75 66 94 67 59 68 60 69
REMARK SMILES IDX 74 71 95 72 62 73 46 74 47 75 55 76 48 77 50 78 56 79 49 80
REMARK SMILES IDX 51 81 52 82 53 83 54 84 78 85 79 86 87 87 80 88 82 89 88 90
REMARK SMILES IDX 81 91 83 92 84 93 85 94 86 95 63 96 64 97 72 98 65 99 67 100
REMARK SMILES IDX 73 101 66 102 68 103 69 104 70 105 71 106
REMARK H PARENT 27 5 5 12 10 18 14 23 34 40 93 59 61 70
REMARK Flexibility Score: inf
ROOT
ATOM      1  C   UNL     1       0.188   2.894   0.838  1.00  0.00     0.116 C 
ENDROOT
BRANCH   1   2
ATOM      2  N   UNL     1       0.850   1.663   0.477  1.00  0.00    -0.354 N 
ATOM      3  C   UNL     1       0.376   0.393   0.443  1.00  0.00     0.242 C 
ATOM      4  O   UNL     1       1.066  -0.448  -0.144  1.00  0.00    -0.273 OA
ATOM      5  H   UNL     1       1.794   1.761   0.213  1.00  0.00     0.163 HD
BRANCH   3   6
ATOM      6  C   UNL     1      -1.015   0.008   1.009  1.00  0.00     0.173 C 
BRANCH   6   7
ATOM      7  C   UNL     1      -2.145   0.161  -0.073  1.00  0.00     0.015 C 
ATOM      8  C   UNL     1      -3.142   1.307   0.143  1.00  0.00     0.010 C 
ATOM      9  C   UNL     1      -1.620   0.251  -1.516  1.00  0.00     0.010 C 
ENDBRANCH   6   7
BRANCH   6  10
ATOM     10  N   UNL     1      -1.323   0.657   2.294  1.00  0.00    -0.342 N 
ATOM     11  C   UNL     1      -0.831   0.528   3.551  1.00  0.00     0.242 C 
ATOM     12  H   UNL     1      -2.038   1.330   2.226  1.00  0.00     0.164 HD
ATOM     13  O   UNL     1      -1.381   1.227   4.413  1.00  0.00    -0.273 OA
BRANCH  11  14
ATOM     14  C   UNL     1       0.235  -0.495   3.990  1.00  0.00     0.168 C 
ATOM     15  C   UNL     1       1.355  -0.797   3.017  1.00  0.00     0.041 C 
BRANCH  14  16
ATOM     16  N   UNL     1      -0.421  -1.719   4.437  1.00  0.00    -0.343 N 
ATOM     17  C   UNL     1      -0.188  -2.447   5.569  1.00  0.00     0.240 C 
ATOM     18  H   UNL     1      -1.127  -2.066   3.845  1.00  0.00     0.164 HD
ATOM     19  O   UNL     1      -0.859  -3.464   5.761  1.00  0.00    -0.273 OA
BRANCH  17  20
ATOM     20  C   UNL     1       0.886  -2.006   6.573  1.00  0.00     0.219 C 
BRANCH  20  21
ATOM     21  N   UNL     1       2.207  -2.110   5.979  1.00  0.00    -0.312 N 
ATOM     22  C   UNL     1       3.121  -1.113   5.854  1.00  0.00     0.407 C 
ATOM     23  H   UNL     1       2.466  -2.994   5.631  1.00  0.00     0.167 HD
ATOM     24  O   UNL     1       4.086  -1.240   5.105  1.00  0.00    -0.225 OA
BRANCH  22  25
ATOM     25  O   UNL     1       2.833  -0.015   6.586  1.00  0.00    -0.445 OA
BRANCH  25  26
ATOM     26  C   UNL     1       3.642   1.144   6.325  1.00  0.00     0.270 C 
BRANCH  26  27
ATOM     27  C   UNL     1       4.887   1.244   7.179  1.00  0.00    -0.011 A 
ATOM     28  C   UNL     1       5.704   0.134   7.440  1.00  0.00     0.007 A 
ATOM     29  C   UNL     1       5.309   2.500   7.645  1.00  0.00     0.007 A 
ATOM     30  C   UNL     1       6.898   0.268   8.149  1.00  0.00     0.000 A 
ATOM     31  C   UNL     1       6.503   2.633   8.359  1.00  0.00     0.000 A 
ATOM     32  C   UNL     1       7.298   1.517   8.609  1.00  0.00     0.000 A 
ENDBRANCH  26  27
ENDBRANCH  25  26
ENDBRANCH  22  25
ENDBRANCH  20  21
ENDBRANCH  17  20
ENDBRANCH  14  16
ENDBRANCH  11  14
ENDBRANCH   6  10
ENDBRANCH   3   6
ENDBRANCH   1   2
BRANCH   1  33
ATOM     33  C   UNL     1       0.978   3.694   1.865  1.00  0.00     0.021 C 
BRANCH  33  34
ATOM     34  C   UNL     1       2.378   4.126   1.415  1.00  0.00     0.002 C 
BRANCH  34  35
ATOM     35  C   UNL     1       2.467   4.758   0.022  1.00  0.00     0.002 C 
BRANCH  35  36
ATOM     36  C   UNL     1       1.497   5.909  -0.252  1.00  0.00     0.021 C 
BRANCH  36  37
ATOM     37  C   UNL     1       1.552   7.053   0.750  1.00  0.00     0.116 C 
BRANCH  37  38
ATOM     38  N   UNL     1       2.848   7.709   0.762  1.00  0.00    -0.352 N 
ATOM     39  C   UNL     1       3.146   9.035   0.564  1.00  0.00     0.251 C 
ATOM     40  H   UNL     1       3.619   7.122   0.937  1.00  0.00     0.163 HD
ATOM     41  O   UNL     1       4.312   9.390   0.426  1.00  0.00    -0.269 OA
BRANCH  39  42
ATOM     42  C   UNL     1       2.051  10.027   0.494  1.00  0.00     0.039 A 
ATOM     43  C   UNL     1       2.052  10.962  -0.543  1.00  0.00     0.014 A 
ATOM     44  C   UNL     1       1.020  10.022   1.438  1.00  0.00     0.014 A 
ATOM     45  C   UNL     1       0.984  11.853  -0.671  1.00  0.00     0.010 A 
ATOM     46  C   UNL     1      -0.076  10.862   1.268  1.00  0.00     0.010 A 
ATOM     47  C   UNL     1      -0.106  11.787   0.213  1.00  0.00    -0.014 A 
BRANCH  47  48
ATOM     48  C   UNL     1      -1.298  12.654   0.038  1.00  0.00     0.031 A 
ATOM     49  C   UNL     1      -1.671  13.653   1.099  1.00  0.00     0.074 A 
ATOM     50  C   UNL     1      -2.102  12.471  -1.029  1.00  0.00     0.049 A 
ATOM     51  N   UNL     1      -2.716  14.437   1.161  1.00  0.00    -0.248 NA
ATOM     52  C   UNL     1      -0.765  13.768   2.254  1.00  0.00     0.031 C 
ATOM     53  C   UNL     1      -1.889  11.480  -2.087  1.00  0.00     0.029 A 
ATOM     54  N   UNL     1      -3.277  13.085  -1.382  1.00  0.00    -0.354 N 
ATOM     55  C   UNL     1      -2.615  15.110   2.372  1.00  0.00     0.074 A 
ATOM     56  C   UNL     1      -1.421  14.621   3.028  1.00  0.00     0.031 C 
ATOM     57  C   UNL     1      -2.900  11.552  -2.967  1.00  0.00     0.029 A 
ATOM     58  C   UNL     1      -3.849  12.569  -2.522  1.00  0.00     0.049 A 
ATOM     59  H   UNL     1      -3.673  13.826  -0.869  1.00  0.00     0.167 HD
ATOM     60  C   UNL     1      -3.426  16.068   2.881  1.00  0.00     0.034 A 
ATOM     61  C   UNL     1      -5.011  12.869  -3.133  1.00  0.00     0.034 A 
ATOM     62  C   UNL     1      -4.586  16.583   2.205  1.00  0.00     0.049 A 
ATOM     63  C   UNL     1      -5.878  13.959  -2.564  1.00  0.00     0.074 A 
ATOM     64  C   UNL     1      -5.417  17.620   2.593  1.00  0.00     0.029 A 
ATOM     65  N   UNL     1      -5.088  16.095   1.009  1.00  0.00    -0.354 N 
ATOM     66  N   UNL     1      -5.678  14.700  -1.501  1.00  0.00    -0.248 NA
ATOM     67  C   UNL     1      -7.113  14.278  -3.294  1.00  0.00     0.031 C 
ATOM     68  C   UNL     1      -6.435  17.743   1.642  1.00  0.00     0.029 A 
ATOM     69  C   UNL     1      -6.224  16.799   0.650  1.00  0.00     0.049 A 
ATOM     70  H   UNL     1      -4.694  15.356   0.491  1.00  0.00     0.167 HD
ATOM     71  C   UNL     1      -6.742  15.593  -1.452  1.00  0.00     0.074 A 
ATOM     72  C   UNL     1      -7.573  15.315  -2.605  1.00  0.00     0.031 C 
ATOM     73  C   UNL     1      -7.015  16.546  -0.528  1.00  0.00     0.034 A 
BRANCH  60  74
ATOM     74  C   UNL     1      -3.055  16.665   4.213  1.00  0.00     0.023 A 
ATOM     75  C   UNL     1      -1.943  17.527   4.303  1.00  0.00     0.012 A 
ATOM     76  C   UNL     1      -3.839  16.428   5.359  1.00  0.00     0.148 A 
ATOM     77  C   UNL     1      -1.597  18.117   5.517  1.00  0.00     0.002 A 
ATOM     78  C   UNL     1      -3.513  17.054   6.557  1.00  0.00     0.091 A 
ATOM     79  F   UNL     1      -4.880  15.589   5.260  1.00  0.00    -0.205 F 
ATOM     80  C   UNL     1      -2.387  17.889   6.640  1.00  0.00     0.022 A 
BRANCH  78  81
ATOM     81  S   UNL     1      -4.512  16.887   8.041  1.00  0.00     0.127 S 
ATOM     82  O   UNL     1      -3.653  16.055   8.882  1.00  0.00    -0.237 OA
ATOM     83  O   UNL     1      -4.639  18.275   8.485  1.00  0.00    -0.237 OA
ATOM     84  O   UNL     1      -5.760  16.269   7.616  1.00  0.00    -0.744 OA
ENDBRANCH  78  81
ENDBRANCH  60  74
BRANCH  61  85
ATOM     85  C   UNL     1      -5.394  12.163  -4.389  1.00  0.00     0.023 A 
ATOM     86  C   UNL     1      -5.374  12.866  -5.609  1.00  0.00     0.012 A 
ATOM     87  C   UNL     1      -5.742  10.799  -4.388  1.00  0.00     0.148 A 
ATOM     88  C   UNL     1      -5.723  12.232  -6.802  1.00  0.00     0.002 A 
ATOM     89  C   UNL     1      -6.033  10.158  -5.587  1.00  0.00     0.091 A 
ATOM     90  F   UNL     1      -5.767  10.150  -3.216  1.00  0.00    -0.205 F 
ATOM     91  C   UNL     1      -6.042  10.876  -6.793  1.00  0.00     0.022 A 
BRANCH  89  92
ATOM     92  S   UNL     1      -6.321   8.387  -5.685  1.00  0.00     0.127 S 
ATOM     93  O   UNL     1      -7.755   8.330  -5.951  1.00  0.00    -0.237 OA
ATOM     94  O   UNL     1      -5.469   8.003  -6.811  1.00  0.00    -0.237 OA
ATOM     95  O   UNL     1      -5.891   7.848  -4.401  1.00  0.00    -0.744 OA
ENDBRANCH  89  92
ENDBRANCH  61  85
BRANCH  73  96
ATOM     96  C   UNL     1      -8.249  17.385  -0.730  1.00  0.00     0.023 A 
ATOM     97  C   UNL     1      -9.521  16.823  -0.501  1.00  0.00     0.012 A 
ATOM     98  C   UNL     1      -8.145  18.750  -1.062  1.00  0.00     0.148 A 
ATOM     99  C   UNL     1     -10.672  17.599  -0.627  1.00  0.00     0.002 A 
ATOM    100  C   UNL     1      -9.293  19.530  -1.138  1.00  0.00     0.091 A 
ATOM    101  F   UNL     1      -6.927  19.261  -1.292  1.00  0.00    -0.205 F 
ATOM    102  C   UNL     1     -10.557  18.954  -0.932  1.00  0.00     0.022 A 
BRANCH 100 103
ATOM    103  S   UNL     1      -9.239  21.301  -1.431  1.00  0.00     0.127 S 
ATOM    104  O   UNL     1      -9.771  21.394  -2.790  1.00  0.00    -0.237 OA
ATOM    105  O   UNL     1     -10.129  21.815  -0.390  1.00  0.00    -0.237 OA
ATOM    106  O   UNL     1      -7.843  21.691  -1.280  1.00  0.00    -0.744 OA
ENDBRANCH 100 103
ENDBRANCH  73  96
ENDBRANCH  47  48
ENDBRANCH  39  42
ENDBRANCH  37  38
ENDBRANCH  36  37
ENDBRANCH  35  36
ENDBRANCH  34  35
ENDBRANCH  33  34
ENDBRANCH   1  33
TORSDOF 25
