REMARK SMILES CC[NH+](CC)CCS[C@H](F)C(=O)NCCCCCCNC(=O)c1ccc(-c2c3nc(c(-c4cccc(S(=O)(=O)[O-])c4F)c4ccc([nH]4)c(-c4cccc(S(=O)(=O)[O-])c4F)c4nc(c(-c5cccc(S(=O)(=O)[O-])c5F)c5ccc2[nH]5)C=C4)C=C3)cc1
REMARK SMILES IDX 15 1 14 2 13 3 11 4 12 5 9 7 10 8 8 9 7 10 6 11 3 12 2 14
REMARK SMILES IDX 1 15 4 16 5 17 16 18 17 19 18 20 19 21 20 22 21 23 22 25
REMARK SMILES IDX 23 26 24 27 85 28 25 29 84 30 26 31 27 32 28 33 78 34 29 35
REMARK SMILES IDX 83 36 77 37 79 38 30 39 82 40 76 41 75 42 31 44 63 45 43 46
REMARK SMILES IDX 62 47 44 48 47 49 61 50 80 51 45 52 46 53 60 55 81 56 48 57
REMARK SMILES IDX 32 58 33 59 41 60 34 61 36 62 42 63 35 64 37 65 38 66 39 67
REMARK SMILES IDX 40 68 64 69 65 70 73 71 66 72 68 73 74 74 67 75 69 76 70 77
REMARK SMILES IDX 71 78 72 79 49 80 50 81 58 82 51 83 53 84 59 85 52 86 54 87
REMARK SMILES IDX 55 88 56 89 57 90
REMARK H PARENT 13 6 3 13 20 24 79 43 47 54
REMARK Flexibility Score: inf
ROOT
ATOM      1  C   UNL     1       3.314   2.768   1.198  1.00  0.00     0.021 C 
ENDROOT
BRANCH   1   2
ATOM      2  C   UNL     1       2.577   1.596   1.834  1.00  0.00     0.116 C 
BRANCH   2   3
ATOM      3  N   UNL     1       1.632   0.964   0.936  1.00  0.00    -0.353 N 
ATOM      4  C   UNL     1       1.048  -0.269   1.036  1.00  0.00     0.265 C 
ATOM      5  O   UNL     1       0.262  -0.591   0.136  1.00  0.00    -0.271 OA
ATOM      6  H   UNL     1       1.376   1.494   0.147  1.00  0.00     0.163 HD
BRANCH   4   7
ATOM      7  C   UNL     1       1.331  -1.203   2.219  1.00  0.00     0.313 C 
ATOM      8  F   UNL     1       2.510  -0.975   2.860  1.00  0.00    -0.225 F 
BRANCH   7   9
ATOM      9  S   UNL     1      -0.023  -1.222   3.432  1.00  0.00    -0.110 SA
BRANCH   9  10
ATOM     10  C   UNL     1       0.265   0.350   4.320  1.00  0.00     0.134 C 
BRANCH  10  11
ATOM     11  C   UNL     1      -0.482   1.610   3.812  1.00  0.00     0.273 C 
BRANCH  11  12
ATOM     12  N   UNL     1      -1.937   1.771   3.949  1.00  0.00    -0.335 N 
ATOM     13  H   UNL     1      -2.091   2.569   3.333  1.00  0.00     0.348 HD
BRANCH  12  14
ATOM     14  C   UNL     1      -2.777   0.733   3.355  1.00  0.00     0.258 C 
ATOM     15  C   UNL     1      -2.629   0.645   1.839  1.00  0.00     0.071 C 
ENDBRANCH  12  14
BRANCH  12  16
ATOM     16  C   UNL     1      -2.397   2.210   5.270  1.00  0.00     0.258 C 
ATOM     17  C   UNL     1      -2.083   1.304   6.452  1.00  0.00     0.071 C 
ENDBRANCH  12  16
ENDBRANCH  11  12
ENDBRANCH  10  11
ENDBRANCH   9  10
ENDBRANCH   7   9
ENDBRANCH   4   7
ENDBRANCH   2   3
ENDBRANCH   1   2
BRANCH   1  18
ATOM     18  C   UNL     1       2.445   3.947   0.748  1.00  0.00     0.002 C 
BRANCH  18  19
ATOM     19  C   UNL     1       1.520   4.573   1.795  1.00  0.00     0.002 C 
BRANCH  19  20
ATOM     20  C   UNL     1       2.163   4.998   3.116  1.00  0.00     0.021 C 
BRANCH  20  21
ATOM     21  C   UNL     1       3.430   5.838   3.009  1.00  0.00     0.116 C 
BRANCH  21  22
ATOM     22  N   UNL     1       3.260   7.060   2.243  1.00  0.00    -0.352 N 
ATOM     23  C   UNL     1       3.812   8.299   2.464  1.00  0.00     0.251 C 
ATOM     24  H   UNL     1       2.668   6.992   1.459  1.00  0.00     0.163 HD
ATOM     25  O   UNL     1       3.499   9.246   1.746  1.00  0.00    -0.269 OA
BRANCH  23  26
ATOM     26  C   UNL     1       4.752   8.503   3.591  1.00  0.00     0.039 A 
ATOM     27  C   UNL     1       4.577   9.619   4.414  1.00  0.00     0.014 A 
ATOM     28  C   UNL     1       5.787   7.600   3.850  1.00  0.00     0.014 A 
ATOM     29  C   UNL     1       5.397   9.794   5.532  1.00  0.00     0.010 A 
ATOM     30  C   UNL     1       6.553   7.735   5.006  1.00  0.00     0.010 A 
ATOM     31  C   UNL     1       6.369   8.834   5.859  1.00  0.00    -0.014 A 
BRANCH  31  32
ATOM     32  C   UNL     1       7.189   8.959   7.093  1.00  0.00     0.031 A 
ATOM     33  C   UNL     1       8.685   9.099   7.003  1.00  0.00     0.074 A 
ATOM     34  C   UNL     1       6.594   8.864   8.299  1.00  0.00     0.049 A 
ATOM     35  N   UNL     1       9.565   9.172   7.968  1.00  0.00    -0.248 NA
ATOM     36  C   UNL     1       9.273   9.136   5.654  1.00  0.00     0.031 C 
ATOM     37  C   UNL     1       5.163   8.649   8.522  1.00  0.00     0.029 A 
ATOM     38  N   UNL     1       7.123   8.911   9.566  1.00  0.00    -0.354 N 
ATOM     39  C   UNL     1      10.807   9.228   7.347  1.00  0.00     0.074 A 
ATOM     40  C   UNL     1      10.570   9.146   5.923  1.00  0.00     0.031 C 
ATOM     41  C   UNL     1       4.927   8.587   9.842  1.00  0.00     0.029 A 
ATOM     42  C   UNL     1       6.190   8.725  10.560  1.00  0.00     0.049 A 
ATOM     43  H   UNL     1       8.079   9.062   9.746  1.00  0.00     0.167 HD
ATOM     44  C   UNL     1      12.033   9.364   7.908  1.00  0.00     0.034 A 
ATOM     45  C   UNL     1       6.335   8.663  11.899  1.00  0.00     0.034 A 
ATOM     46  C   UNL     1      12.263   9.485   9.323  1.00  0.00     0.049 A 
ATOM     47  C   UNL     1       7.703   8.852  12.497  1.00  0.00     0.074 A 
ATOM     48  C   UNL     1      13.457   9.715   9.983  1.00  0.00     0.029 A 
ATOM     49  N   UNL     1      11.283   9.374  10.297  1.00  0.00    -0.354 N 
ATOM     50  N   UNL     1       8.846   9.064  11.891  1.00  0.00    -0.248 NA
ATOM     51  C   UNL     1       7.797   8.830  13.964  1.00  0.00     0.031 C 
ATOM     52  C   UNL     1      13.204   9.713  11.358  1.00  0.00     0.029 A 
ATOM     53  C   UNL     1      11.846   9.518  11.554  1.00  0.00     0.049 A 
ATOM     54  H   UNL     1      10.327   9.217  10.121  1.00  0.00     0.167 HD
ATOM     55  C   UNL     1       9.786   9.238  12.900  1.00  0.00     0.074 A 
ATOM     56  C   UNL     1       9.074   9.128  14.157  1.00  0.00     0.031 C 
ATOM     57  C   UNL     1      11.120   9.458  12.796  1.00  0.00     0.034 A 
BRANCH  44  58
ATOM     58  C   UNL     1      13.223   9.438   6.985  1.00  0.00     0.023 A 
ATOM     59  C   UNL     1      13.414  10.583   6.184  1.00  0.00     0.012 A 
ATOM     60  C   UNL     1      14.181   8.407   6.955  1.00  0.00     0.148 A 
ATOM     61  C   UNL     1      14.520  10.684   5.341  1.00  0.00     0.002 A 
ATOM     62  C   UNL     1      15.306   8.536   6.147  1.00  0.00     0.091 A 
ATOM     63  F   UNL     1      13.974   7.317   7.708  1.00  0.00    -0.205 F 
ATOM     64  C   UNL     1      15.470   9.667   5.331  1.00  0.00     0.022 A 
BRANCH  62  65
ATOM     65  S   UNL     1      16.628   7.320   6.123  1.00  0.00     0.127 S 
ATOM     66  O   UNL     1      16.465   6.735   4.792  1.00  0.00    -0.237 OA
ATOM     67  O   UNL     1      17.817   8.157   6.280  1.00  0.00    -0.237 OA
ATOM     68  O   UNL     1      16.366   6.419   7.236  1.00  0.00    -0.744 OA
ENDBRANCH  62  65
ENDBRANCH  44  58
BRANCH  45  69
ATOM     69  C   UNL     1       5.141   8.469  12.771  1.00  0.00     0.023 A 
ATOM     70  C   UNL     1       4.696   9.530  13.584  1.00  0.00     0.012 A 
ATOM     71  C   UNL     1       4.433   7.252  12.782  1.00  0.00     0.148 A 
ATOM     72  C   UNL     1       3.590   9.370  14.420  1.00  0.00     0.002 A 
ATOM     73  C   UNL     1       3.299   7.118  13.574  1.00  0.00     0.091 A 
ATOM     74  F   UNL     1       4.878   6.251  12.009  1.00  0.00    -0.205 F 
ATOM     75  C   UNL     1       2.886   8.169  14.408  1.00  0.00     0.022 A 
BRANCH  73  76
ATOM     76  S   UNL     1       2.255   5.657  13.522  1.00  0.00     0.127 S 
ATOM     77  O   UNL     1       2.509   5.061  14.831  1.00  0.00    -0.237 OA
ATOM     78  O   UNL     1       0.924   6.243  13.359  1.00  0.00    -0.237 OA
ATOM     79  O   UNL     1       2.714   4.886  12.375  1.00  0.00    -0.744 OA
ENDBRANCH  73  76
ENDBRANCH  45  69
BRANCH  57  80
ATOM     80  C   UNL     1      11.902   9.638  14.072  1.00  0.00     0.023 A 
ATOM     81  C   UNL     1      12.141   8.534  14.915  1.00  0.00     0.012 A 
ATOM     82  C   UNL     1      12.462  10.889  14.397  1.00  0.00     0.148 A 
ATOM     83  C   UNL     1      12.895   8.681  16.079  1.00  0.00     0.002 A 
ATOM     84  C   UNL     1      13.256  11.017  15.530  1.00  0.00     0.091 A 
ATOM     85  F   UNL     1      12.209  11.932  13.592  1.00  0.00    -0.205 F 
ATOM     86  C   UNL     1      13.462   9.917  16.379  1.00  0.00     0.022 A 
BRANCH  84  87
ATOM     87  S   UNL     1      14.108  12.543  15.944  1.00  0.00     0.127 S 
ATOM     88  O   UNL     1      13.352  12.999  17.109  1.00  0.00    -0.237 OA
ATOM     89  O   UNL     1      15.461  12.072  16.241  1.00  0.00    -0.237 OA
ATOM     90  O   UNL     1      14.009  13.391  14.764  1.00  0.00    -0.744 OA
ENDBRANCH  84  87
ENDBRANCH  57  80
ENDBRANCH  31  32
ENDBRANCH  23  26
ENDBRANCH  21  22
ENDBRANCH  20  21
ENDBRANCH  19  20
ENDBRANCH  18  19
ENDBRANCH   1  18
TORSDOF 22
