REMARK SMILES Cc1cc(C[N@@H+]2C[C@H](C)[C@H](C(=O)NCCCCCCNC(=O)c3ccc(-c4c5nc(c(-c6cccc(S(=O)(=O)[O-])c6F)c6ccc([nH]6)c(-c6cccc(S(=O)(=O)[O-])c6F)c6nc(c(-c7cccc(S(=O)(=O)[O-])c7F)c7ccc4[nH]7)C=C6)C=C5)cc3)C2)ccc1Br
REMARK SMILES IDX 17 1 16 2 15 3 14 4 13 5 11 6 12 7 10 9 6 10 7 11 86 12 8 14
REMARK SMILES IDX 9 15 5 16 4 17 1 18 2 19 3 20 89 21 88 22 90 23 87 24 18 25
REMARK SMILES IDX 19 26 20 27 21 28 22 30 23 31 24 32 85 33 25 34 84 35 26 36
REMARK SMILES IDX 27 37 28 38 78 39 29 40 83 41 77 42 79 43 30 44 82 45 76 46
REMARK SMILES IDX 75 47 31 49 63 50 43 51 62 52 44 53 47 54 61 55 80 56 45 57
REMARK SMILES IDX 46 58 60 60 81 61 48 62 32 63 33 64 41 65 34 66 36 67 42 68
REMARK SMILES IDX 35 69 37 70 38 71 39 72 40 73 64 74 65 75 73 76 66 77 68 78
REMARK SMILES IDX 74 79 67 80 69 81 70 82 71 83 72 84 49 85 50 86 58 87 51 88
REMARK SMILES IDX 53 89 59 90 52 91 54 92 55 93 56 94 57 95
REMARK H PARENT 13 8 6 13 20 29 79 48 47 59
REMARK Flexibility Score: inf
ROOT
ATOM      1  C   UNL     1      -1.258  -1.734  -3.505  1.00  0.00     0.002 C 
ENDROOT
BRANCH   1   2
ATOM      2  C   UNL     1      -0.987  -0.245  -3.749  1.00  0.00     0.002 C 
BRANCH   2   3
ATOM      3  C   UNL     1       0.081   0.394  -2.856  1.00  0.00     0.021 C 
BRANCH   3   4
ATOM      4  C   UNL     1       1.484  -0.196  -2.994  1.00  0.00     0.116 C 
BRANCH   4   5
ATOM      5  N   UNL     1       2.136   0.237  -4.216  1.00  0.00    -0.356 N 
ATOM      6  C   UNL     1       3.287   0.917  -4.445  1.00  0.00     0.229 C 
ATOM      7  O   UNL     1       3.528   1.198  -5.626  1.00  0.00    -0.275 OA
ATOM      8  H   UNL     1       1.650  -0.009  -5.035  1.00  0.00     0.163 HD
BRANCH   6   9
ATOM      9  C   UNL     1       4.262   1.367  -3.364  1.00  0.00     0.142 C 
ATOM     10  N   UNL     1       5.091   1.089  -1.156  1.00  0.00    -0.330 N 
ATOM     11  C   UNL     1       4.837   2.509  -1.343  1.00  0.00     0.266 C 
ATOM     12  C   UNL     1       4.710   0.330  -2.341  1.00  0.00     0.276 C 
ATOM     13  H   UNL     1       6.106   1.009  -1.081  1.00  0.00     0.348 HD
ATOM     14  C   UNL     1       3.952   2.648  -2.584  1.00  0.00     0.059 C 
ATOM     15  C   UNL     1       2.499   2.918  -2.221  1.00  0.00     0.015 C 
BRANCH  10  16
ATOM     16  C   UNL     1       4.816   0.497   0.148  1.00  0.00     0.299 C 
BRANCH  16  17
ATOM     17  C   UNL     1       3.361   0.327   0.537  1.00  0.00     0.007 A 
ATOM     18  C   UNL     1       0.875  -2.540   0.848  1.00  0.00     0.045 C 
ATOM     19  C   UNL     1       1.407  -1.133   0.881  1.00  0.00    -0.036 A 
ATOM     20  C   UNL     1       2.747  -0.937   0.484  1.00  0.00     0.014 A 
ATOM     21  C   UNL     1       0.677  -0.022   1.325  1.00  0.00     0.020 A 
ATOM     22  C   UNL     1       1.276   1.238   1.385  1.00  0.00     0.016 A 
ATOM     23  Br  UNL     1      -1.131  -0.123   1.889  1.00  0.00    -0.051 Br
ATOM     24  C   UNL     1       2.610   1.406   1.015  1.00  0.00     0.011 A 
ENDBRANCH  16  17
ENDBRANCH  10  16
ENDBRANCH   6   9
ENDBRANCH   4   5
ENDBRANCH   3   4
ENDBRANCH   2   3
ENDBRANCH   1   2
BRANCH   1  25
ATOM     25  C   UNL     1      -1.517  -2.130  -2.050  1.00  0.00     0.021 C 
BRANCH  25  26
ATOM     26  C   UNL     1      -2.711  -1.454  -1.382  1.00  0.00     0.116 C 
BRANCH  26  27
ATOM     27  N   UNL     1      -3.980  -1.896  -1.931  1.00  0.00    -0.352 N 
ATOM     28  C   UNL     1      -5.052  -2.479  -1.299  1.00  0.00     0.251 C 
ATOM     29  H   UNL     1      -4.088  -1.758  -2.900  1.00  0.00     0.163 HD
ATOM     30  O   UNL     1      -5.964  -2.949  -1.976  1.00  0.00    -0.269 OA
BRANCH  28  31
ATOM     31  C   UNL     1      -5.117  -2.565   0.181  1.00  0.00     0.039 A 
ATOM     32  C   UNL     1      -5.598  -3.743   0.762  1.00  0.00     0.014 A 
ATOM     33  C   UNL     1      -4.759  -1.491   1.001  1.00  0.00     0.014 A 
ATOM     34  C   UNL     1      -5.681  -3.856   2.154  1.00  0.00     0.010 A 
ATOM     35  C   UNL     1      -4.775  -1.632   2.391  1.00  0.00     0.010 A 
ATOM     36  C   UNL     1      -5.251  -2.809   2.986  1.00  0.00    -0.014 A 
BRANCH  36  37
ATOM     37  C   UNL     1      -5.305  -2.941   4.469  1.00  0.00     0.031 A 
ATOM     38  C   UNL     1      -6.180  -2.030   5.293  1.00  0.00     0.074 A 
ATOM     39  C   UNL     1      -4.529  -3.853   5.090  1.00  0.00     0.049 A 
ATOM     40  N   UNL     1      -6.361  -2.010   6.589  1.00  0.00    -0.248 NA
ATOM     41  C   UNL     1      -6.935  -0.993   4.571  1.00  0.00     0.031 C 
ATOM     42  C   UNL     1      -3.577  -4.745   4.426  1.00  0.00     0.029 A 
ATOM     43  N   UNL     1      -4.406  -4.170   6.422  1.00  0.00    -0.354 N 
ATOM     44  C   UNL     1      -7.220  -0.946   6.841  1.00  0.00     0.074 A 
ATOM     45  C   UNL     1      -7.499  -0.322   5.565  1.00  0.00     0.031 C 
ATOM     46  C   UNL     1      -2.977  -5.513   5.349  1.00  0.00     0.029 A 
ATOM     47  C   UNL     1      -3.478  -5.154   6.673  1.00  0.00     0.049 A 
ATOM     48  H   UNL     1      -4.932  -3.733   7.130  1.00  0.00     0.167 HD
ATOM     49  C   UNL     1      -7.755  -0.540   8.018  1.00  0.00     0.034 A 
ATOM     50  C   UNL     1      -3.072  -5.706   7.834  1.00  0.00     0.034 A 
ATOM     51  C   UNL     1      -7.513  -1.183   9.282  1.00  0.00     0.049 A 
ATOM     52  C   UNL     1      -3.714  -5.266   9.123  1.00  0.00     0.074 A 
ATOM     53  C   UNL     1      -8.081  -0.900  10.513  1.00  0.00     0.029 A 
ATOM     54  N   UNL     1      -6.626  -2.228   9.484  1.00  0.00    -0.354 N 
ATOM     55  N   UNL     1      -4.652  -4.372   9.315  1.00  0.00    -0.248 NA
ATOM     56  C   UNL     1      -3.269  -5.941  10.352  1.00  0.00     0.031 C 
ATOM     57  C   UNL     1      -7.515  -1.756  11.464  1.00  0.00     0.029 A 
ATOM     58  C   UNL     1      -6.620  -2.594  10.820  1.00  0.00     0.049 A 
ATOM     59  H   UNL     1      -6.080  -2.648   8.781  1.00  0.00     0.167 HD
ATOM     60  C   UNL     1      -4.935  -4.401  10.677  1.00  0.00     0.074 A 
ATOM     61  C   UNL     1      -4.085  -5.420  11.258  1.00  0.00     0.031 C 
ATOM     62  C   UNL     1      -5.809  -3.643  11.383  1.00  0.00     0.034 A 
BRANCH  49  63
ATOM     63  C   UNL     1      -8.704   0.631   7.990  1.00  0.00     0.023 A 
ATOM     64  C   UNL     1      -9.986   0.475   7.423  1.00  0.00     0.012 A 
ATOM     65  C   UNL     1      -8.357   1.862   8.582  1.00  0.00     0.148 A 
ATOM     66  C   UNL     1     -10.893   1.534   7.412  1.00  0.00     0.002 A 
ATOM     67  C   UNL     1      -9.284   2.899   8.609  1.00  0.00     0.091 A 
ATOM     68  F   UNL     1      -7.129   1.999   9.101  1.00  0.00    -0.205 F 
ATOM     69  C   UNL     1     -10.546   2.741   8.014  1.00  0.00     0.022 A 
BRANCH  67  70
ATOM     70  S   UNL     1      -8.966   4.465   9.430  1.00  0.00     0.127 S 
ATOM     71  O   UNL     1      -8.835   5.373   8.293  1.00  0.00    -0.237 OA
ATOM     72  O   UNL     1     -10.181   4.650  10.222  1.00  0.00    -0.237 OA
ATOM     73  O   UNL     1      -7.754   4.268  10.215  1.00  0.00    -0.744 OA
ENDBRANCH  67  70
ENDBRANCH  49  63
BRANCH  50  74
ATOM     74  C   UNL     1      -2.046  -6.788   7.825  1.00  0.00     0.023 A 
ATOM     75  C   UNL     1      -2.422  -8.105   8.153  1.00  0.00     0.012 A 
ATOM     76  C   UNL     1      -0.708  -6.523   7.474  1.00  0.00     0.148 A 
ATOM     77  C   UNL     1      -1.478  -9.133   8.164  1.00  0.00     0.002 A 
ATOM     78  C   UNL     1       0.215  -7.562   7.430  1.00  0.00     0.091 A 
ATOM     79  F   UNL     1      -0.366  -5.261   7.178  1.00  0.00    -0.205 F 
ATOM     80  C   UNL     1      -0.163  -8.864   7.793  1.00  0.00     0.022 A 
BRANCH  78  81
ATOM     81  S   UNL     1       1.893  -7.333   6.834  1.00  0.00     0.127 S 
ATOM     82  O   UNL     1       2.670  -7.474   8.063  1.00  0.00    -0.237 OA
ATOM     83  O   UNL     1       2.031  -8.441   5.887  1.00  0.00    -0.237 OA
ATOM     84  O   UNL     1       1.916  -6.014   6.217  1.00  0.00    -0.744 OA
ENDBRANCH  78  81
ENDBRANCH  50  74
BRANCH  62  85
ATOM     85  C   UNL     1      -5.927  -3.903  12.864  1.00  0.00     0.023 A 
ATOM     86  C   UNL     1      -4.880  -3.528  13.729  1.00  0.00     0.012 A 
ATOM     87  C   UNL     1      -7.104  -4.459  13.404  1.00  0.00     0.148 A 
ATOM     88  C   UNL     1      -4.988  -3.736  15.104  1.00  0.00     0.002 A 
ATOM     89  C   UNL     1      -7.224  -4.617  14.780  1.00  0.00     0.091 A 
ATOM     90  F   UNL     1      -8.082  -4.828  12.564  1.00  0.00    -0.205 F 
ATOM     91  C   UNL     1      -6.162  -4.268  15.630  1.00  0.00     0.022 A 
BRANCH  89  92
ATOM     92  S   UNL     1      -8.736  -5.204  15.553  1.00  0.00     0.127 S 
ATOM     93  O   UNL     1      -8.356  -6.555  15.963  1.00  0.00    -0.237 OA
ATOM     94  O   UNL     1      -8.908  -4.258  16.657  1.00  0.00    -0.237 OA
ATOM     95  O   UNL     1      -9.767  -5.127  14.527  1.00  0.00    -0.744 OA
ENDBRANCH  89  92
ENDBRANCH  62  85
ENDBRANCH  36  37
ENDBRANCH  28  31
ENDBRANCH  26  27
ENDBRANCH  25  26
ENDBRANCH   1  25
TORSDOF 18
