REMARK SMILES N#CCCNC(=O)COc1ccc(C(=O)NCCCCCCNC(=O)c2ccc(-c3c4nc(c(-c5cccc(S(=O)(=O)[O-])c5F)c5ccc([nH]5)c(-c5cccc(S(=O)(=O)[O-])c5F)c5nc(c(-c6cccc(S(=O)(=O)[O-])c6F)c6ccc3[nH]6)C=C5)C=C4)cc2)nc1
REMARK SMILES IDX 18 1 17 2 16 3 14 4 15 5 13 7 10 8 11 9 90 10 12 11 89 12
REMARK SMILES IDX 9 13 8 14 6 15 5 16 7 18 4 19 3 20 2 21 1 22 19 23 20 24
REMARK SMILES IDX 21 25 22 26 23 27 24 28 25 30 26 31 27 32 88 33 28 34 87 35
REMARK SMILES IDX 29 36 30 37 31 38 81 39 32 40 86 41 80 42 82 43 33 44 85 45
REMARK SMILES IDX 79 46 78 47 34 49 66 50 46 51 65 52 47 53 50 54 64 55 83 56
REMARK SMILES IDX 48 57 49 58 63 60 84 61 51 62 35 63 36 64 44 65 37 66 39 67
REMARK SMILES IDX 45 68 38 69 40 70 41 71 42 72 43 73 67 74 68 75 76 76 69 77
REMARK SMILES IDX 71 78 77 79 70 80 72 81 73 82 74 83 75 84 52 85 53 86 61 87
REMARK SMILES IDX 54 88 56 89 62 90 55 91 57 92 58 93 59 94 60 95
REMARK H PARENT 16 6 5 17 23 29 82 48 50 59
REMARK Flexibility Score: inf
ROOT
ATOM      1  C   UNL     1       2.037   4.893   4.398  1.00  0.00     0.021 C 
ENDROOT
BRANCH   1   2
ATOM      2  C   UNL     1       3.226   5.471   3.638  1.00  0.00     0.116 C 
BRANCH   2   3
ATOM      3  N   UNL     1       4.481   5.343   4.358  1.00  0.00    -0.351 N 
ATOM      4  C   UNL     1       5.688   4.758   4.027  1.00  0.00     0.269 C 
ATOM      5  O   UNL     1       6.560   4.750   4.899  1.00  0.00    -0.268 OA
ATOM      6  H   UNL     1       4.470   5.751   5.253  1.00  0.00     0.163 HD
BRANCH   4   7
ATOM      7  C   UNL     1       5.962   4.125   2.689  1.00  0.00     0.128 A 
ATOM      8  C   UNL     1       6.478   2.767   0.330  1.00  0.00     0.138 A 
ATOM      9  C   UNL     1       5.612   3.851   0.327  1.00  0.00     0.050 A 
ATOM     10  C   UNL     1       7.102   2.467   1.534  1.00  0.00     0.158 A 
ATOM     11  C   UNL     1       5.383   4.563   1.507  1.00  0.00     0.038 A 
ATOM     12  N   UNL     1       6.855   3.099   2.707  1.00  0.00    -0.247 NA
BRANCH   8  13
ATOM     13  O   UNL     1       6.747   1.935  -0.716  1.00  0.00    -0.482 OA
BRANCH  13  14
ATOM     14  C   UNL     1       6.388   2.372  -2.018  1.00  0.00     0.329 C 
BRANCH  14  15
ATOM     15  C   UNL     1       4.902   2.463  -2.388  1.00  0.00     0.257 C 
ATOM     16  N   UNL     1       4.043   1.450  -2.086  1.00  0.00    -0.352 N 
ATOM     17  H   UNL     1       3.095   1.630  -2.284  1.00  0.00     0.163 HD
ATOM     18  O   UNL     1       4.463   3.454  -2.973  1.00  0.00    -0.271 OA
BRANCH  16  19
ATOM     19  C   UNL     1       4.320   0.142  -1.514  1.00  0.00     0.131 C 
BRANCH  19  20
ATOM     20  C   UNL     1       3.779  -0.034  -0.094  1.00  0.00     0.141 C 
BRANCH  20  21
ATOM     21  C   UNL     1       2.259  -0.034  -0.094  1.00  0.00     0.064 C 
ATOM     22  N   UNL     1       0.998  -0.034  -0.094  1.00  0.00    -0.198 NA
ENDBRANCH  20  21
ENDBRANCH  19  20
ENDBRANCH  16  19
ENDBRANCH  14  15
ENDBRANCH  13  14
ENDBRANCH   8  13
ENDBRANCH   4   7
ENDBRANCH   2   3
ENDBRANCH   1   2
BRANCH   1  23
ATOM     23  C   UNL     1       1.510   5.742   5.556  1.00  0.00     0.002 C 
BRANCH  23  24
ATOM     24  C   UNL     1       1.128   7.185   5.206  1.00  0.00     0.002 C 
BRANCH  24  25
ATOM     25  C   UNL     1       0.194   7.357   4.004  1.00  0.00     0.021 C 
BRANCH  25  26
ATOM     26  C   UNL     1      -1.138   6.620   4.105  1.00  0.00     0.116 C 
BRANCH  26  27
ATOM     27  N   UNL     1      -1.915   7.054   5.254  1.00  0.00    -0.352 N 
ATOM     28  C   UNL     1      -3.188   7.567   5.305  1.00  0.00     0.251 C 
ATOM     29  H   UNL     1      -1.463   6.968   6.124  1.00  0.00     0.163 HD
ATOM     30  O   UNL     1      -3.598   8.081   6.340  1.00  0.00    -0.269 OA
BRANCH  28  31
ATOM     31  C   UNL     1      -4.059   7.505   4.111  1.00  0.00     0.039 A 
ATOM     32  C   UNL     1      -4.824   8.624   3.773  1.00  0.00     0.014 A 
ATOM     33  C   UNL     1      -4.140   6.340   3.342  1.00  0.00     0.014 A 
ATOM     34  C   UNL     1      -5.634   8.591   2.636  1.00  0.00     0.010 A 
ATOM     35  C   UNL     1      -4.889   6.336   2.168  1.00  0.00     0.010 A 
ATOM     36  C   UNL     1      -5.654   7.456   1.809  1.00  0.00    -0.014 A 
BRANCH  36  37
ATOM     37  C   UNL     1      -6.458   7.427   0.561  1.00  0.00     0.031 A 
ATOM     38  C   UNL     1      -7.575   6.432   0.398  1.00  0.00     0.074 A 
ATOM     39  C   UNL     1      -6.123   8.236  -0.463  1.00  0.00     0.049 A 
ATOM     40  N   UNL     1      -8.351   6.226  -0.634  1.00  0.00    -0.248 NA
ATOM     41  C   UNL     1      -7.837   5.530   1.532  1.00  0.00     0.031 C 
ATOM     42  C   UNL     1      -5.003   9.180  -0.460  1.00  0.00     0.029 A 
ATOM     43  N   UNL     1      -6.668   8.370  -1.715  1.00  0.00    -0.354 N 
ATOM     44  C   UNL     1      -9.159   5.148  -0.295  1.00  0.00     0.074 A 
ATOM     45  C   UNL     1      -8.761   4.724   1.030  1.00  0.00     0.031 C 
ATOM     46  C   UNL     1      -4.941   9.792  -1.653  1.00  0.00     0.029 A 
ATOM     47  C   UNL     1      -5.994   9.263  -2.515  1.00  0.00     0.049 A 
ATOM     48  H   UNL     1      -7.465   7.875  -2.013  1.00  0.00     0.167 HD
ATOM     49  C   UNL     1     -10.157   4.576  -1.010  1.00  0.00     0.034 A 
ATOM     50  C   UNL     1      -6.189   9.608  -3.803  1.00  0.00     0.034 A 
ATOM     51  C   UNL     1     -10.574   5.027  -2.310  1.00  0.00     0.049 A 
ATOM     52  C   UNL     1      -7.338   8.998  -4.558  1.00  0.00     0.074 A 
ATOM     53  C   UNL     1     -11.646   4.591  -3.068  1.00  0.00     0.029 A 
ATOM     54  N   UNL     1      -9.929   6.003  -3.055  1.00  0.00    -0.354 N 
ATOM     55  N   UNL     1      -8.208   8.105  -4.153  1.00  0.00    -0.248 NA
ATOM     56  C   UNL     1      -7.558   9.471  -5.932  1.00  0.00     0.031 C 
ATOM     57  C   UNL     1     -11.626   5.276  -4.288  1.00  0.00     0.029 A 
ATOM     58  C   UNL     1     -10.566   6.168  -4.273  1.00  0.00     0.049 A 
ATOM     59  H   UNL     1      -9.134   6.504  -2.760  1.00  0.00     0.167 HD
ATOM     60  C   UNL     1      -9.095   7.930  -5.208  1.00  0.00     0.074 A 
ATOM     61  C   UNL     1      -8.670   8.828  -6.263  1.00  0.00     0.031 C 
ATOM     62  C   UNL     1     -10.159   7.094  -5.300  1.00  0.00     0.034 A 
BRANCH  49  63
ATOM     63  C   UNL     1     -10.892   3.416  -0.387  1.00  0.00     0.023 A 
ATOM     64  C   UNL     1     -11.739   3.635   0.720  1.00  0.00     0.012 A 
ATOM     65  C   UNL     1     -10.785   2.120  -0.927  1.00  0.00     0.148 A 
ATOM     66  C   UNL     1     -12.433   2.576   1.304  1.00  0.00     0.002 A 
ATOM     67  C   UNL     1     -11.518   1.079  -0.370  1.00  0.00     0.091 A 
ATOM     68  F   UNL     1      -9.960   1.925  -1.966  1.00  0.00    -0.205 F 
ATOM     69  C   UNL     1     -12.331   1.302   0.754  1.00  0.00     0.022 A 
BRANCH  67  70
ATOM     70  S   UNL     1     -11.522  -0.580  -1.060  1.00  0.00     0.127 S 
ATOM     71  O   UNL     1     -10.762  -1.320  -0.054  1.00  0.00    -0.237 OA
ATOM     72  O   UNL     1     -12.951  -0.894  -1.096  1.00  0.00    -0.237 OA
ATOM     73  O   UNL     1     -10.892  -0.473  -2.368  1.00  0.00    -0.744 OA
ENDBRANCH  67  70
ENDBRANCH  49  63
BRANCH  50  74
ATOM     74  C   UNL     1      -5.299  10.620  -4.438  1.00  0.00     0.023 A 
ATOM     75  C   UNL     1      -5.800  11.901  -4.735  1.00  0.00     0.012 A 
ATOM     76  C   UNL     1      -3.945  10.332  -4.703  1.00  0.00     0.148 A 
ATOM     77  C   UNL     1      -4.977  12.870  -5.311  1.00  0.00     0.002 A 
ATOM     78  C   UNL     1      -3.117  11.319  -5.222  1.00  0.00     0.091 A 
ATOM     79  F   UNL     1      -3.491   9.103  -4.419  1.00  0.00    -0.205 F 
ATOM     80  C   UNL     1      -3.634  12.583  -5.543  1.00  0.00     0.022 A 
BRANCH  78  81
ATOM     81  S   UNL     1      -1.347  11.085  -5.423  1.00  0.00     0.127 S 
ATOM     82  O   UNL     1      -1.208  11.093  -6.877  1.00  0.00    -0.237 OA
ATOM     83  O   UNL     1      -0.810  12.266  -4.746  1.00  0.00    -0.237 OA
ATOM     84  O   UNL     1      -1.038   9.823  -4.765  1.00  0.00    -0.744 OA
ENDBRANCH  78  81
ENDBRANCH  50  74
BRANCH  62  85
ATOM     85  C   UNL     1     -10.968   7.126  -6.571  1.00  0.00     0.023 A 
ATOM     86  C   UNL     1     -10.434   6.590  -7.759  1.00  0.00     0.012 A 
ATOM     87  C   UNL     1     -12.288   7.619  -6.566  1.00  0.00     0.148 A 
ATOM     88  C   UNL     1     -11.189   6.576  -8.932  1.00  0.00     0.002 A 
ATOM     89  C   UNL     1     -13.053   7.552  -7.724  1.00  0.00     0.091 A 
ATOM     90  F   UNL     1     -12.772   8.141  -5.429  1.00  0.00    -0.205 F 
ATOM     91  C   UNL     1     -12.501   7.044  -8.911  1.00  0.00     0.022 A 
BRANCH  89  92
ATOM     92  S   UNL     1     -14.782   8.039  -7.766  1.00  0.00     0.127 S 
ATOM     93  O   UNL     1     -14.725   9.271  -8.552  1.00  0.00    -0.237 OA
ATOM     94  O   UNL     1     -15.406   6.907  -8.451  1.00  0.00    -0.237 OA
ATOM     95  O   UNL     1     -15.188   8.204  -6.377  1.00  0.00    -0.744 OA
ENDBRANCH  89  92
ENDBRANCH  62  85
ENDBRANCH  36  37
ENDBRANCH  28  31
ENDBRANCH  26  27
ENDBRANCH  25  26
ENDBRANCH  24  25
ENDBRANCH  23  24
ENDBRANCH   1  23
TORSDOF 22
