REMARK SMILES O=C1NC(=O)/C(=C/c2ccc(OCc3cn(-c4ccc(C(=O)NCCCCCCNC(=O)c5ccc(-c6c7nc(c(-c8cccc(S(=O)(=O)[O-])c8F)c8ccc([nH]8)c(-c8cccc(S(=O)(=O)[O-])c8F)c8nc(c(-c9cccc(S(=O)(=O)[O-])c9F)c9ccc6[nH]9)C=C8)C=C7)cc5)cc4)nn3)cc2)S1
REMARK SMILES IDX 25 1 24 2 23 3 21 4 22 5 20 7 17 8 18 9 97 10 19 11 96 12
REMARK SMILES IDX 16 13 14 14 15 15 99 16 98 17 13 18 12 19 11 20 8 21 9 22
REMARK SMILES IDX 101 23 10 24 100 25 7 26 1 27 2 28 3 29 102 30 4 31 6 33
REMARK SMILES IDX 5 34 26 35 27 36 28 37 29 38 30 39 31 40 32 42 33 43 34 44
REMARK SMILES IDX 95 45 35 46 94 47 36 48 37 49 38 50 88 51 39 52 93 53 87 54
REMARK SMILES IDX 89 55 40 56 92 57 86 58 85 59 41 61 73 62 53 63 72 64 54 65
REMARK SMILES IDX 57 66 71 67 90 68 55 69 56 70 70 72 91 73 58 74 42 75 43 76
REMARK SMILES IDX 51 77 44 78 46 79 52 80 45 81 47 82 48 83 49 84 50 85 74 86
REMARK SMILES IDX 75 87 83 88 76 89 78 90 84 91 77 92 79 93 80 94 81 95 82 96
REMARK SMILES IDX 59 97 60 98 68 99 61 100 63 101 69 102 62 103 64 104 65 105
REMARK SMILES IDX 66 106 67 107
REMARK H PARENT 23 6 3 32 30 41 89 60 57 71
REMARK Flexibility Score: inf
ROOT
ATOM      1  C   UNL     1      -8.101  10.044  -2.433  1.00  0.00     0.021 C 
ENDROOT
BRANCH   1   2
ATOM      2  C   UNL     1      -7.661  10.472  -1.032  1.00  0.00     0.116 C 
BRANCH   2   3
ATOM      3  N   UNL     1      -8.287   9.634  -0.031  1.00  0.00    -0.352 N 
ATOM      4  C   UNL     1      -7.825   8.603   0.745  1.00  0.00     0.251 C 
ATOM      5  O   UNL     1      -8.623   8.102   1.539  1.00  0.00    -0.269 OA
ATOM      6  H   UNL     1      -9.235   9.848   0.124  1.00  0.00     0.163 HD
BRANCH   4   7
ATOM      7  C   UNL     1      -6.400   8.159   0.759  1.00  0.00     0.039 A 
ATOM      8  C   UNL     1      -3.683   7.530   1.114  1.00  0.00     0.066 A 
ATOM      9  C   UNL     1      -4.618   7.176   2.093  1.00  0.00     0.029 A 
ATOM     10  C   UNL     1      -4.116   8.103  -0.083  1.00  0.00     0.029 A 
ATOM     11  C   UNL     1      -5.960   7.518   1.926  1.00  0.00     0.016 A 
ATOM     12  C   UNL     1      -5.481   8.351  -0.277  1.00  0.00     0.016 A 
BRANCH   8  13
ATOM     13  N   UNL     1      -2.311   7.305   1.359  1.00  0.00    -0.220 N 
ATOM     14  C   UNL     1      -0.129   7.381   1.438  1.00  0.00     0.120 A 
ATOM     15  C   UNL     1      -1.219   7.946   0.811  1.00  0.00     0.144 A 
ATOM     16  N   UNL     1      -0.577   6.476   2.364  1.00  0.00    -0.131 NA
ATOM     17  N   UNL     1      -1.897   6.457   2.328  1.00  0.00    -0.062 NA
BRANCH  14  18
ATOM     18  C   UNL     1       1.330   7.678   1.338  1.00  0.00     0.289 C 
BRANCH  18  19
ATOM     19  O   UNL     1       2.040   6.995   0.293  1.00  0.00    -0.487 OA
BRANCH  19  20
ATOM     20  C   UNL     1       2.155   5.633   0.356  1.00  0.00     0.119 A 
ATOM     21  C   UNL     1       2.204   2.831   0.124  1.00  0.00    -0.024 A 
ATOM     22  C   UNL     1       2.649   3.631  -0.931  1.00  0.00     0.012 A 
ATOM     23  C   UNL     1       1.825   3.439   1.323  1.00  0.00     0.012 A 
ATOM     24  C   UNL     1       2.617   5.026  -0.814  1.00  0.00     0.047 A 
ATOM     25  C   UNL     1       1.826   4.830   1.445  1.00  0.00     0.047 A 
BRANCH  21  26
ATOM     26  C   UNL     1       2.141   1.375  -0.021  1.00  0.00     0.029 C 
ATOM     27  O   UNL     1      -2.421  -0.759   0.204  1.00  0.00    -0.261 OA
ATOM     28  C   UNL     1      -1.241  -0.450   0.053  1.00  0.00     0.290 C 
ATOM     29  N   UNL     1      -0.224  -1.329  -0.096  1.00  0.00    -0.282 N 
ATOM     30  S   UNL     1      -0.620   1.182   0.090  1.00  0.00    -0.022 SA
ATOM     31  C   UNL     1       1.049  -0.840  -0.115  1.00  0.00     0.265 C 
ATOM     32  H   UNL     1      -0.398  -2.294  -0.187  1.00  0.00     0.174 HD
ATOM     33  C   UNL     1       1.017   0.644  -0.025  1.00  0.00     0.083 C 
ATOM     34  O   UNL     1       2.055  -1.526  -0.149  1.00  0.00    -0.268 OA
ENDBRANCH  21  26
ENDBRANCH  19  20
ENDBRANCH  18  19
ENDBRANCH  14  18
ENDBRANCH   8  13
ENDBRANCH   4   7
ENDBRANCH   2   3
ENDBRANCH   1   2
BRANCH   1  35
ATOM     35  C   UNL     1      -9.505  10.542  -2.798  1.00  0.00     0.002 C 
BRANCH  35  36
ATOM     36  C   UNL     1      -9.722  12.060  -2.675  1.00  0.00     0.002 C 
BRANCH  36  37
ATOM     37  C   UNL     1      -8.675  12.954  -3.360  1.00  0.00     0.021 C 
BRANCH  37  38
ATOM     38  C   UNL     1      -8.743  12.915  -4.878  1.00  0.00     0.116 C 
BRANCH  38  39
ATOM     39  N   UNL     1      -9.998  13.489  -5.377  1.00  0.00    -0.352 N 
ATOM     40  C   UNL     1     -10.528  13.468  -6.651  1.00  0.00     0.251 C 
ATOM     41  H   UNL     1     -10.543  13.957  -4.704  1.00  0.00     0.163 HD
ATOM     42  O   UNL     1     -11.384  14.280  -6.987  1.00  0.00    -0.269 OA
BRANCH  40  43
ATOM     43  C   UNL     1     -10.063  12.441  -7.595  1.00  0.00     0.039 A 
ATOM     44  C   UNL     1      -9.922  12.691  -8.965  1.00  0.00     0.014 A 
ATOM     45  C   UNL     1      -9.757  11.195  -7.064  1.00  0.00     0.014 A 
ATOM     46  C   UNL     1      -9.420  11.678  -9.778  1.00  0.00     0.010 A 
ATOM     47  C   UNL     1      -9.050  10.302  -7.808  1.00  0.00     0.010 A 
ATOM     48  C   UNL     1      -8.990  10.488  -9.180  1.00  0.00    -0.014 A 
BRANCH  48  49
ATOM     49  C   UNL     1      -8.422   9.390  -9.939  1.00  0.00     0.031 A 
ATOM     50  C   UNL     1      -7.103   9.686 -10.546  1.00  0.00     0.074 A 
ATOM     51  C   UNL     1      -8.908   8.136  -9.796  1.00  0.00     0.049 A 
ATOM     52  N   UNL     1      -6.823   9.816 -11.799  1.00  0.00    -0.248 NA
ATOM     53  C   UNL     1      -5.995  10.052  -9.648  1.00  0.00     0.031 C 
ATOM     54  C   UNL     1      -9.962   7.677  -8.878  1.00  0.00     0.029 A 
ATOM     55  N   UNL     1      -8.416   6.970 -10.286  1.00  0.00    -0.354 N 
ATOM     56  C   UNL     1      -5.445  10.014 -11.847  1.00  0.00     0.074 A 
ATOM     57  C   UNL     1      -5.060  10.425 -10.525  1.00  0.00     0.031 C 
ATOM     58  C   UNL     1      -9.821   6.351  -8.666  1.00  0.00     0.029 A 
ATOM     59  C   UNL     1      -8.785   5.849  -9.548  1.00  0.00     0.049 A 
ATOM     60  H   UNL     1      -7.851   6.921 -11.091  1.00  0.00     0.167 HD
ATOM     61  C   UNL     1      -4.697   9.526 -12.877  1.00  0.00     0.034 A 
ATOM     62  C   UNL     1      -8.204   4.625  -9.598  1.00  0.00     0.034 A 
ATOM     63  C   UNL     1      -5.541   9.072 -13.959  1.00  0.00     0.049 A 
ATOM     64  C   UNL     1      -7.426   4.564 -10.861  1.00  0.00     0.074 A 
ATOM     65  C   UNL     1      -6.552   9.640 -14.710  1.00  0.00     0.029 A 
ATOM     66  N   UNL     1      -5.683   7.710 -14.108  1.00  0.00    -0.354 N 
ATOM     67  N   UNL     1      -7.973   4.597 -12.046  1.00  0.00    -0.248 NA
ATOM     68  C   UNL     1      -6.025   4.953 -10.808  1.00  0.00     0.031 C 
ATOM     69  C   UNL     1      -7.531   8.610 -14.834  1.00  0.00     0.029 A 
ATOM     70  C   UNL     1      -7.021   7.454 -14.239  1.00  0.00     0.049 A 
ATOM     71  H   UNL     1      -4.958   7.045 -14.117  1.00  0.00     0.167 HD
ATOM     72  C   UNL     1      -7.151   5.445 -12.779  1.00  0.00     0.074 A 
ATOM     73  C   UNL     1      -5.916   5.544 -12.001  1.00  0.00     0.031 C 
ATOM     74  C   UNL     1      -7.653   6.238 -13.774  1.00  0.00     0.034 A 
BRANCH  61  75
ATOM     75  C   UNL     1      -3.250   9.078 -12.787  1.00  0.00     0.023 A 
ATOM     76  C   UNL     1      -2.625   8.711 -14.002  1.00  0.00     0.012 A 
ATOM     77  C   UNL     1      -2.566   8.741 -11.597  1.00  0.00     0.148 A 
ATOM     78  C   UNL     1      -1.433   7.978 -14.028  1.00  0.00     0.002 A 
ATOM     79  C   UNL     1      -1.339   8.088 -11.629  1.00  0.00     0.091 A 
ATOM     80  F   UNL     1      -3.145   8.920 -10.409  1.00  0.00    -0.205 F 
ATOM     81  C   UNL     1      -0.786   7.670 -12.839  1.00  0.00     0.022 A 
BRANCH  79  82
ATOM     82  S   UNL     1      -0.435   7.715 -10.119  1.00  0.00     0.127 S 
ATOM     83  O   UNL     1      -0.650   6.276  -9.998  1.00  0.00    -0.237 OA
ATOM     84  O   UNL     1       0.926   8.112 -10.480  1.00  0.00    -0.237 OA
ATOM     85  O   UNL     1      -1.042   8.543  -9.084  1.00  0.00    -0.744 OA
ENDBRANCH  79  82
ENDBRANCH  61  75
BRANCH  62  86
ATOM     86  C   UNL     1      -8.046   3.624  -8.516  1.00  0.00     0.023 A 
ATOM     87  C   UNL     1      -7.782   2.278  -8.835  1.00  0.00     0.012 A 
ATOM     88  C   UNL     1      -7.907   4.024  -7.167  1.00  0.00     0.148 A 
ATOM     89  C   UNL     1      -7.377   1.367  -7.849  1.00  0.00     0.002 A 
ATOM     90  C   UNL     1      -7.522   3.112  -6.188  1.00  0.00     0.091 A 
ATOM     91  F   UNL     1      -8.054   5.318  -6.856  1.00  0.00    -0.205 F 
ATOM     92  C   UNL     1      -7.246   1.783  -6.527  1.00  0.00     0.022 A 
BRANCH  90  93
ATOM     93  S   UNL     1      -7.328   3.598  -4.466  1.00  0.00     0.127 S 
ATOM     94  O   UNL     1      -7.994   2.500  -3.765  1.00  0.00    -0.237 OA
ATOM     95  O   UNL     1      -5.876   3.631  -4.325  1.00  0.00    -0.237 OA
ATOM     96  O   UNL     1      -8.005   4.884  -4.342  1.00  0.00    -0.744 OA
ENDBRANCH  90  93
ENDBRANCH  62  86
BRANCH  74  97
ATOM     97  C   UNL     1      -9.067   6.009 -14.248  1.00  0.00     0.023 A 
ATOM     98  C   UNL     1     -10.186   6.142 -13.399  1.00  0.00     0.012 A 
ATOM     99  C   UNL     1      -9.281   5.862 -15.629  1.00  0.00     0.148 A 
ATOM    100  C   UNL     1     -11.486   6.110 -13.914  1.00  0.00     0.002 A 
ATOM    101  C   UNL     1     -10.571   5.881 -16.143  1.00  0.00     0.091 A 
ATOM    102  F   UNL     1      -8.210   5.736 -16.427  1.00  0.00    -0.205 F 
ATOM    103  C   UNL     1     -11.678   5.996 -15.289  1.00  0.00     0.022 A 
BRANCH 101 104
ATOM    104  S   UNL     1     -10.862   5.876 -17.913  1.00  0.00     0.127 S 
ATOM    105  O   UNL     1     -11.210   4.479 -18.161  1.00  0.00    -0.237 OA
ATOM    106  O   UNL     1     -11.973   6.819 -18.058  1.00  0.00    -0.237 OA
ATOM    107  O   UNL     1      -9.617   6.335 -18.519  1.00  0.00    -0.744 OA
ENDBRANCH 101 104
ENDBRANCH  74  97
ENDBRANCH  48  49
ENDBRANCH  40  43
ENDBRANCH  38  39
ENDBRANCH  37  38
ENDBRANCH  36  37
ENDBRANCH  35  36
ENDBRANCH   1  35
TORSDOF 21
