REMARK SMILES Cc1nnc(-c2ccccc2-c2cc(NCC(=O)NCCCCCCNC(=O)c3ccc(-c4c5nc(c(-c6cccc(S(=O)(=O)[O-])c6F)c6ccc([nH]6)c(-c6cccc(S(=O)(=O)[O-])c6F)c6nc(c(-c7cccc(S(=O)(=O)[O-])c7F)c7ccc4[nH]7)C=C6)C=C5)cc3)nc3[nH]ccc23)o1
REMARK SMILES IDX 22 1 21 2 20 3 19 4 17 5 18 6 16 8 15 9 14 11 12 12 13 13
REMARK SMILES IDX 97 14 93 15 96 16 92 17 94 18 95 19 11 21 6 22 7 23 8 24
REMARK SMILES IDX 10 25 9 26 5 27 1 28 2 29 3 30 98 31 4 32 23 33 24 34 25 35
REMARK SMILES IDX 26 36 27 37 28 39 29 40 30 41 91 42 31 43 90 44 32 45 33 46
REMARK SMILES IDX 34 47 84 48 35 49 89 50 83 51 85 52 36 53 88 54 82 55 81 56
REMARK SMILES IDX 37 58 69 59 49 60 68 61 50 62 53 63 67 64 86 65 51 66 52 67
REMARK SMILES IDX 66 69 87 70 54 71 38 72 39 73 47 74 40 75 42 76 48 77 41 78
REMARK SMILES IDX 43 79 44 80 45 81 46 82 70 83 71 84 79 85 72 86 74 87 80 88
REMARK SMILES IDX 73 89 75 90 76 91 77 92 78 93 55 94 56 95 64 96 57 97 59 98
REMARK SMILES IDX 65 99 58 100 60 101 61 102 62 103 63 104
REMARK H PARENT 19 7 15 10 94 20 26 38 85 57 53 68
REMARK Flexibility Score: inf
ROOT
ATOM      1  C   UNL     1      -1.074  -3.775  -1.037  1.00  0.00     0.002 C 
ENDROOT
BRANCH   1   2
ATOM      2  C   UNL     1      -0.015  -2.962  -1.794  1.00  0.00     0.021 C 
BRANCH   2   3
ATOM      3  C   UNL     1       0.461  -3.632  -3.082  1.00  0.00     0.116 C 
BRANCH   3   4
ATOM      4  N   UNL     1      -0.549  -3.524  -4.118  1.00  0.00    -0.355 N 
ATOM      5  C   UNL     1      -0.565  -2.691  -5.202  1.00  0.00     0.239 C 
ATOM      6  O   UNL     1      -1.590  -2.648  -5.889  1.00  0.00    -0.273 OA
ATOM      7  H   UNL     1      -1.322  -4.127  -4.029  1.00  0.00     0.163 HD
BRANCH   5   8
ATOM      8  C   UNL     1       0.671  -1.848  -5.545  1.00  0.00     0.214 C 
BRANCH   8   9
ATOM      9  N   UNL     1       0.821  -0.720  -4.629  1.00  0.00    -0.361 N 
ATOM     10  H   UNL     1       0.095  -0.062  -4.536  1.00  0.00     0.162 HD
BRANCH   9  11
ATOM     11  C   UNL     1       1.989  -0.576  -3.888  1.00  0.00     0.129 A 
ATOM     12  C   UNL     1       3.167   0.596  -2.100  1.00  0.00    -0.003 A 
ATOM     13  C   UNL     1       2.050   0.451  -2.944  1.00  0.00     0.056 A 
ATOM     14  C   UNL     1       4.219  -0.324  -2.286  1.00  0.00     0.027 A 
ATOM     15  C   UNL     1       4.062  -1.267  -3.292  1.00  0.00     0.140 A 
ATOM     16  C   UNL     1       5.483  -0.586  -1.682  1.00  0.00     0.030 A 
ATOM     17  N   UNL     1       3.012  -1.421  -4.113  1.00  0.00    -0.213 NA
ATOM     18  N   UNL     1       5.175  -2.064  -3.309  1.00  0.00    -0.346 N 
ATOM     19  C   UNL     1       6.048  -1.662  -2.334  1.00  0.00     0.085 A 
ATOM     20  H   UNL     1       5.324  -2.814  -3.929  1.00  0.00     0.167 HD
BRANCH  12  21
ATOM     21  C   UNL     1       3.262   1.637  -1.067  1.00  0.00    -0.005 A 
ATOM     22  C   UNL     1       2.375   1.718   0.031  1.00  0.00     0.047 A 
ATOM     23  C   UNL     1       2.532   2.740   0.985  1.00  0.00     0.014 A 
ATOM     24  C   UNL     1       3.558   3.676   0.870  1.00  0.00     0.001 A 
ATOM     25  C   UNL     1       4.285   2.603  -1.165  1.00  0.00     0.009 A 
ATOM     26  C   UNL     1       4.435   3.608  -0.206  1.00  0.00     0.001 A 
BRANCH  22  27
ATOM     27  C   UNL     1       1.306   0.760   0.240  1.00  0.00     0.248 A 
ATOM     28  C   UNL     1      -2.166   0.188   0.099  1.00  0.00     0.113 C 
ATOM     29  C   UNL     1      -0.711   0.106   0.296  1.00  0.00     0.213 A 
ATOM     30  N   UNL     1       0.014  -0.891   0.751  1.00  0.00    -0.113 NA
ATOM     31  O   UNL     1       0.037   1.200  -0.045  1.00  0.00    -0.421 OA
ATOM     32  N   UNL     1       1.327  -0.472   0.702  1.00  0.00    -0.108 NA
ENDBRANCH  22  27
ENDBRANCH  12  21
ENDBRANCH   9  11
ENDBRANCH   8   9
ENDBRANCH   5   8
ENDBRANCH   3   4
ENDBRANCH   2   3
ENDBRANCH   1   2
BRANCH   1  33
ATOM     33  C   UNL     1      -0.603  -5.151  -0.549  1.00  0.00     0.002 C 
BRANCH  33  34
ATOM     34  C   UNL     1       0.624  -5.127   0.365  1.00  0.00     0.021 C 
BRANCH  34  35
ATOM     35  C   UNL     1       0.422  -4.374   1.675  1.00  0.00     0.116 C 
BRANCH  35  36
ATOM     36  N   UNL     1      -0.585  -5.007   2.518  1.00  0.00    -0.352 N 
ATOM     37  C   UNL     1      -0.491  -5.425   3.820  1.00  0.00     0.251 C 
ATOM     38  H   UNL     1      -1.459  -5.156   2.090  1.00  0.00     0.163 HD
ATOM     39  O   UNL     1      -1.391  -6.103   4.314  1.00  0.00    -0.269 OA
BRANCH  37  40
ATOM     40  C   UNL     1       0.699  -5.076   4.624  1.00  0.00     0.039 A 
ATOM     41  C   UNL     1       1.290  -6.062   5.419  1.00  0.00     0.014 A 
ATOM     42  C   UNL     1       1.230  -3.784   4.597  1.00  0.00     0.014 A 
ATOM     43  C   UNL     1       2.445  -5.764   6.145  1.00  0.00     0.010 A 
ATOM     44  C   UNL     1       2.425  -3.512   5.258  1.00  0.00     0.010 A 
ATOM     45  C   UNL     1       3.039  -4.495   6.047  1.00  0.00    -0.014 A 
BRANCH  45  46
ATOM     46  C   UNL     1       4.305  -4.182   6.759  1.00  0.00     0.031 A 
ATOM     47  C   UNL     1       4.336  -3.114   7.819  1.00  0.00     0.074 A 
ATOM     48  C   UNL     1       5.442  -4.810   6.402  1.00  0.00     0.049 A 
ATOM     49  N   UNL     1       5.347  -2.686   8.530  1.00  0.00    -0.248 NA
ATOM     50  C   UNL     1       3.070  -2.419   8.099  1.00  0.00     0.031 C 
ATOM     51  C   UNL     1       5.556  -5.816   5.345  1.00  0.00     0.029 A 
ATOM     52  N   UNL     1       6.723  -4.682   6.879  1.00  0.00    -0.354 N 
ATOM     53  C   UNL     1       4.848  -1.656   9.318  1.00  0.00     0.074 A 
ATOM     54  C   UNL     1       3.455  -1.492   8.964  1.00  0.00     0.031 C 
ATOM     55  C   UNL     1       6.831  -6.231   5.268  1.00  0.00     0.029 A 
ATOM     56  C   UNL     1       7.631  -5.496   6.242  1.00  0.00     0.049 A 
ATOM     57  H   UNL     1       6.968  -4.067   7.607  1.00  0.00     0.167 HD
ATOM     58  C   UNL     1       5.480  -0.931  10.273  1.00  0.00     0.034 A 
ATOM     59  C   UNL     1       8.959  -5.634   6.424  1.00  0.00     0.034 A 
ATOM     60  C   UNL     1       6.861  -1.109  10.634  1.00  0.00     0.049 A 
ATOM     61  C   UNL     1       9.640  -4.819   7.489  1.00  0.00     0.074 A 
ATOM     62  C   UNL     1       7.580  -0.476  11.632  1.00  0.00     0.029 A 
ATOM     63  N   UNL     1       7.739  -1.976   9.999  1.00  0.00    -0.354 N 
ATOM     64  N   UNL     1       9.121  -3.952   8.325  1.00  0.00    -0.248 NA
ATOM     65  C   UNL     1      11.085  -5.026   7.659  1.00  0.00     0.031 C 
ATOM     66  C   UNL     1       8.901  -0.933  11.577  1.00  0.00     0.029 A 
ATOM     67  C   UNL     1       8.996  -1.883  10.572  1.00  0.00     0.049 A 
ATOM     68  H   UNL     1       7.503  -2.570   9.251  1.00  0.00     0.167 HD
ATOM     69  C   UNL     1      10.165  -3.543   9.148  1.00  0.00     0.074 A 
ATOM     70  C   UNL     1      11.343  -4.269   8.716  1.00  0.00     0.031 C 
ATOM     71  C   UNL     1      10.152  -2.643  10.163  1.00  0.00     0.034 A 
BRANCH  58  72
ATOM     72  C   UNL     1       4.662   0.098  11.015  1.00  0.00     0.023 A 
ATOM     73  C   UNL     1       3.630  -0.323  11.881  1.00  0.00     0.012 A 
ATOM     74  C   UNL     1       4.919   1.476  10.871  1.00  0.00     0.148 A 
ATOM     75  C   UNL     1       2.832   0.608  12.545  1.00  0.00     0.002 A 
ATOM     76  C   UNL     1       4.152   2.397  11.577  1.00  0.00     0.091 A 
ATOM     77  F   UNL     1       5.889   1.863  10.032  1.00  0.00    -0.205 F 
ATOM     78  C   UNL     1       3.098   1.966  12.399  1.00  0.00     0.022 A 
BRANCH  76  79
ATOM     79  S   UNL     1       4.468   4.164  11.520  1.00  0.00     0.127 S 
ATOM     80  O   UNL     1       3.348   4.639  10.709  1.00  0.00    -0.237 OA
ATOM     81  O   UNL     1       4.397   4.536  12.934  1.00  0.00    -0.237 OA
ATOM     82  O   UNL     1       5.786   4.315  10.920  1.00  0.00    -0.744 OA
ENDBRANCH  76  79
ENDBRANCH  58  72
BRANCH  59  83
ATOM     83  C   UNL     1       9.715  -6.646   5.633  1.00  0.00     0.023 A 
ATOM     84  C   UNL     1      10.202  -7.798   6.283  1.00  0.00     0.012 A 
ATOM     85  C   UNL     1       9.925  -6.497   4.249  1.00  0.00     0.148 A 
ATOM     86  C   UNL     1      10.909  -8.769   5.575  1.00  0.00     0.002 A 
ATOM     87  C   UNL     1      10.585  -7.494   3.539  1.00  0.00     0.091 A 
ATOM     88  F   UNL     1       9.458  -5.392   3.652  1.00  0.00    -0.205 F 
ATOM     89  C   UNL     1      11.093  -8.622   4.203  1.00  0.00     0.022 A 
BRANCH  87  90
ATOM     90  S   UNL     1      10.767  -7.453   1.752  1.00  0.00     0.127 S 
ATOM     91  O   UNL     1      12.216  -7.341   1.601  1.00  0.00    -0.237 OA
ATOM     92  O   UNL     1      10.206  -8.748   1.365  1.00  0.00    -0.237 OA
ATOM     93  O   UNL     1       9.999  -6.302   1.300  1.00  0.00    -0.744 OA
ENDBRANCH  87  90
ENDBRANCH  59  83
BRANCH  71  94
ATOM     94  C   UNL     1      11.439  -2.419  10.915  1.00  0.00     0.023 A 
ATOM     95  C   UNL     1      12.509  -1.739  10.299  1.00  0.00     0.012 A 
ATOM     96  C   UNL     1      11.563  -2.826  12.258  1.00  0.00     0.148 A 
ATOM     97  C   UNL     1      13.694  -1.503  10.995  1.00  0.00     0.002 A 
ATOM     98  C   UNL     1      12.725  -2.538  12.963  1.00  0.00     0.091 A 
ATOM     99  F   UNL     1      10.541  -3.487  12.822  1.00  0.00    -0.205 F 
ATOM    100  C   UNL     1      13.798  -1.891  12.329  1.00  0.00     0.022 A 
BRANCH  98 101
ATOM    101  S   UNL     1      12.911  -2.909  14.711  1.00  0.00     0.127 S 
ATOM    102  O   UNL     1      13.887  -3.997  14.683  1.00  0.00    -0.237 OA
ATOM    103  O   UNL     1      13.421  -1.645  15.242  1.00  0.00    -0.237 OA
ATOM    104  O   UNL     1      11.584  -3.274  15.188  1.00  0.00    -0.744 OA
ENDBRANCH  98 101
ENDBRANCH  71  94
ENDBRANCH  45  46
ENDBRANCH  37  40
ENDBRANCH  35  36
ENDBRANCH  34  35
ENDBRANCH  33  34
ENDBRANCH   1  33
TORSDOF 20
