REMARK SMILES CC(C)(C)N(CC(=O)NCCCCCCNC(=O)c1ccc(-c2c3nc(c(-c4cccc(S(=O)(=O)[O-])c4F)c4ccc([nH]4)c(-c4cccc(S(=O)(=O)[O-])c4F)c4nc(c(-c5cccc(S(=O)(=O)[O-])c5F)c5ccc2[nH]5)C=C4)C=C3)cc1)C(=O)Nc1ccc([N+](=O)[O-])cc1
REMARK SMILES IDX 12 1 11 2 10 3 9 4 7 5 8 6 6 8 5 9 2 10 1 11 3 12 4 13 82 14
REMARK SMILES IDX 83 15 84 16 85 18 86 19 93 20 87 21 92 22 88 23 89 24 90 25
REMARK SMILES IDX 91 26 13 27 14 28 15 29 16 30 17 31 18 33 19 34 20 35 81 36
REMARK SMILES IDX 21 37 80 38 22 39 23 40 24 41 74 42 25 43 79 44 73 45 75 46
REMARK SMILES IDX 26 47 78 48 72 49 71 50 27 52 59 53 39 54 58 55 40 56 43 57
REMARK SMILES IDX 57 58 76 59 41 60 42 61 56 63 77 64 44 65 28 66 29 67 37 68
REMARK SMILES IDX 30 69 32 70 38 71 31 72 33 73 34 74 35 75 36 76 60 77 61 78
REMARK SMILES IDX 69 79 62 80 64 81 70 82 63 83 65 84 66 85 67 86 68 87 45 88
REMARK SMILES IDX 46 89 54 90 47 91 49 92 55 93 48 94 50 95 51 96 52 97 53 98
REMARK H PARENT 9 7 84 17 16 32 75 51 43 62
REMARK Flexibility Score: inf
ROOT
ATOM      1  C   UNL     1       5.329   2.193  -2.952  1.00  0.00     0.002 C 
ENDROOT
BRANCH   1   2
ATOM      2  C   UNL     1       3.906   1.796  -2.547  1.00  0.00     0.021 C 
BRANCH   2   3
ATOM      3  C   UNL     1       3.792   0.983  -1.264  1.00  0.00     0.116 C 
BRANCH   3   4
ATOM      4  N   UNL     1       4.193   1.677  -0.071  1.00  0.00    -0.355 N 
ATOM      5  C   UNL     1       3.466   1.865   1.065  1.00  0.00     0.239 C 
ATOM      6  O   UNL     1       4.108   1.932   2.121  1.00  0.00    -0.273 OA
ATOM      7  H   UNL     1       5.099   2.062  -0.076  1.00  0.00     0.163 HD
BRANCH   5   8
ATOM      8  C   UNL     1       1.921   1.937   1.101  1.00  0.00     0.221 C 
BRANCH   8   9
ATOM      9  N   UNL     1       1.117   2.248  -0.103  1.00  0.00    -0.310 N 
BRANCH   9  10
ATOM     10  C   UNL     1       0.215   1.138  -0.671  1.00  0.00     0.037 C 
ATOM     11  C   UNL     1       0.458  -0.275  -0.061  1.00  0.00     0.034 C 
ATOM     12  C   UNL     1       0.338   0.962  -2.208  1.00  0.00     0.034 C 
ATOM     13  C   UNL     1      -1.264   1.464  -0.335  1.00  0.00     0.034 C 
ENDBRANCH   9  10
BRANCH   9  14
ATOM     14  C   UNL     1       0.857   3.547  -0.543  1.00  0.00     0.322 C 
ATOM     15  O   UNL     1       0.192   3.779  -1.559  1.00  0.00    -0.248 OA
ATOM     16  N   UNL     1       1.064   4.656   0.216  1.00  0.00    -0.308 N 
ATOM     17  H   UNL     1       0.410   5.361   0.007  1.00  0.00     0.171 HD
BRANCH  16  18
ATOM     18  C   UNL     1       1.950   5.062   1.210  1.00  0.00     0.043 A 
ATOM     19  C   UNL     1       1.438   5.820   2.270  1.00  0.00     0.033 A 
ATOM     20  C   UNL     1       3.311   4.786   1.161  1.00  0.00     0.033 A 
ATOM     21  C   UNL     1       2.241   6.115   3.376  1.00  0.00     0.088 A 
ATOM     22  C   UNL     1       4.125   5.062   2.266  1.00  0.00     0.088 A 
ATOM     23  C   UNL     1       3.571   5.682   3.390  1.00  0.00     0.269 A 
BRANCH  23  24
ATOM     24  N   UNL     1       4.377   5.851   4.603  1.00  0.00     0.062 N 
ATOM     25  O   UNL     1       3.950   6.627   5.472  1.00  0.00    -0.258 OA
ATOM     26  O   UNL     1       5.431   5.208   4.694  1.00  0.00    -0.258 OA
ENDBRANCH  23  24
ENDBRANCH  16  18
ENDBRANCH   9  14
ENDBRANCH   8   9
ENDBRANCH   5   8
ENDBRANCH   3   4
ENDBRANCH   2   3
ENDBRANCH   1   2
BRANCH   1  27
ATOM     27  C   UNL     1       6.382   1.081  -2.896  1.00  0.00     0.002 C 
BRANCH  27  28
ATOM     28  C   UNL     1       6.025  -0.224  -3.611  1.00  0.00     0.021 C 
BRANCH  28  29
ATOM     29  C   UNL     1       5.683  -0.078  -5.086  1.00  0.00     0.116 C 
BRANCH  29  30
ATOM     30  N   UNL     1       6.827   0.347  -5.873  1.00  0.00    -0.352 N 
ATOM     31  C   UNL     1       7.387  -0.267  -6.971  1.00  0.00     0.251 C 
ATOM     32  H   UNL     1       7.258   1.184  -5.584  1.00  0.00     0.163 HD
ATOM     33  O   UNL     1       8.463   0.105  -7.409  1.00  0.00    -0.269 OA
BRANCH  31  34
ATOM     34  C   UNL     1       6.669  -1.399  -7.599  1.00  0.00     0.039 A 
ATOM     35  C   UNL     1       7.366  -2.575  -7.886  1.00  0.00     0.014 A 
ATOM     36  C   UNL     1       5.304  -1.299  -7.880  1.00  0.00     0.014 A 
ATOM     37  C   UNL     1       6.679  -3.673  -8.410  1.00  0.00     0.010 A 
ATOM     38  C   UNL     1       4.609  -2.417  -8.327  1.00  0.00     0.010 A 
ATOM     39  C   UNL     1       5.291  -3.611  -8.612  1.00  0.00    -0.014 A 
BRANCH  39  40
ATOM     40  C   UNL     1       4.524  -4.761  -9.156  1.00  0.00     0.031 A 
ATOM     41  C   UNL     1       3.804  -4.612 -10.471  1.00  0.00     0.074 A 
ATOM     42  C   UNL     1       4.393  -5.892  -8.434  1.00  0.00     0.049 A 
ATOM     43  N   UNL     1       2.969  -5.431 -11.053  1.00  0.00    -0.248 NA
ATOM     44  C   UNL     1       4.030  -3.359 -11.214  1.00  0.00     0.031 C 
ATOM     45  C   UNL     1       4.990  -6.135  -7.119  1.00  0.00     0.029 A 
ATOM     46  N   UNL     1       3.682  -7.039  -8.691  1.00  0.00    -0.354 N 
ATOM     47  C   UNL     1       2.543  -4.781 -12.206  1.00  0.00     0.074 A 
ATOM     48  C   UNL     1       3.179  -3.483 -12.222  1.00  0.00     0.031 C 
ATOM     49  C   UNL     1       4.610  -7.347  -6.679  1.00  0.00     0.029 A 
ATOM     50  C   UNL     1       3.719  -7.954  -7.662  1.00  0.00     0.049 A 
ATOM     51  H   UNL     1       3.191  -7.192  -9.530  1.00  0.00     0.167 HD
ATOM     52  C   UNL     1       1.723  -5.236 -13.182  1.00  0.00     0.034 A 
ATOM     53  C   UNL     1       3.089  -9.138  -7.522  1.00  0.00     0.034 A 
ATOM     54  C   UNL     1       1.133  -6.545 -13.189  1.00  0.00     0.049 A 
ATOM     55  C   UNL     1       2.210  -9.633  -8.642  1.00  0.00     0.074 A 
ATOM     56  C   UNL     1       0.333  -7.123 -14.158  1.00  0.00     0.029 A 
ATOM     57  N   UNL     1       1.289  -7.485 -12.183  1.00  0.00    -0.354 N 
ATOM     58  N   UNL     1       1.918  -9.052  -9.780  1.00  0.00    -0.248 NA
ATOM     59  C   UNL     1       1.603 -10.963  -8.476  1.00  0.00     0.031 C 
ATOM     60  C   UNL     1      -0.004  -8.411 -13.733  1.00  0.00     0.029 A 
ATOM     61  C   UNL     1       0.609  -8.644 -12.512  1.00  0.00     0.049 A 
ATOM     62  H   UNL     1       1.807  -7.349 -11.357  1.00  0.00     0.167 HD
ATOM     63  C   UNL     1       1.140  -9.964 -10.485  1.00  0.00     0.074 A 
ATOM     64  C   UNL     1       1.015 -11.141  -9.651  1.00  0.00     0.031 C 
ATOM     65  C   UNL     1       0.567  -9.835 -11.706  1.00  0.00     0.034 A 
BRANCH  52  66
ATOM     66  C   UNL     1       1.470  -4.337 -14.364  1.00  0.00     0.023 A 
ATOM     67  C   UNL     1       2.504  -4.118 -15.298  1.00  0.00     0.012 A 
ATOM     68  C   UNL     1       0.199  -3.776 -14.595  1.00  0.00     0.148 A 
ATOM     69  C   UNL     1       2.287  -3.332 -16.427  1.00  0.00     0.002 A 
ATOM     70  C   UNL     1      -0.023  -3.031 -15.748  1.00  0.00     0.091 A 
ATOM     71  F   UNL     1      -0.766  -3.983 -13.688  1.00  0.00    -0.205 F 
ATOM     72  C   UNL     1       1.022  -2.799 -16.658  1.00  0.00     0.022 A 
BRANCH  70  73
ATOM     73  S   UNL     1      -1.635  -2.366 -16.182  1.00  0.00     0.127 S 
ATOM     74  O   UNL     1      -1.397  -0.927 -16.083  1.00  0.00    -0.237 OA
ATOM     75  O   UNL     1      -1.812  -2.863 -17.546  1.00  0.00    -0.237 OA
ATOM     76  O   UNL     1      -2.571  -2.908 -15.207  1.00  0.00    -0.744 OA
ENDBRANCH  70  73
ENDBRANCH  52  66
BRANCH  53  77
ATOM     77  C   UNL     1       3.299  -9.966  -6.300  1.00  0.00     0.023 A 
ATOM     78  C   UNL     1       3.993 -11.188  -6.401  1.00  0.00     0.012 A 
ATOM     79  C   UNL     1       2.808  -9.560  -5.045  1.00  0.00     0.148 A 
ATOM     80  C   UNL     1       4.151 -12.013  -5.286  1.00  0.00     0.002 A 
ATOM     81  C   UNL     1       3.019 -10.359  -3.926  1.00  0.00     0.091 A 
ATOM     82  F   UNL     1       2.138  -8.402  -4.967  1.00  0.00    -0.205 F 
ATOM     83  C   UNL     1       3.671 -11.595  -4.048  1.00  0.00     0.022 A 
BRANCH  81  84
ATOM     84  S   UNL     1       2.548  -9.832  -2.275  1.00  0.00     0.127 S 
ATOM     85  O   UNL     1       1.345 -10.626  -2.038  1.00  0.00    -0.237 OA
ATOM     86  O   UNL     1       3.713 -10.227  -1.482  1.00  0.00    -0.237 OA
ATOM     87  O   UNL     1       2.354  -8.391  -2.369  1.00  0.00    -0.744 OA
ENDBRANCH  81  84
ENDBRANCH  53  77
BRANCH  65  88
ATOM     88  C   UNL     1      -0.185 -11.014 -12.262  1.00  0.00     0.023 A 
ATOM     89  C   UNL     1      -1.452 -11.350 -11.748  1.00  0.00     0.012 A 
ATOM     90  C   UNL     1       0.328 -11.723 -13.367  1.00  0.00     0.148 A 
ATOM     91  C   UNL     1      -2.188 -12.392 -12.310  1.00  0.00     0.002 A 
ATOM     92  C   UNL     1      -0.433 -12.727 -13.953  1.00  0.00     0.091 A 
ATOM     93  F   UNL     1       1.544 -11.396 -13.828  1.00  0.00    -0.205 F 
ATOM     94  C   UNL     1      -1.685 -13.070 -13.419  1.00  0.00     0.022 A 
BRANCH  92  95
ATOM     95  S   UNL     1       0.087 -13.585 -15.443  1.00  0.00     0.127 S 
ATOM     96  O   UNL     1       0.390 -14.919 -14.927  1.00  0.00    -0.237 OA
ATOM     97  O   UNL     1      -1.112 -13.510 -16.277  1.00  0.00    -0.237 OA
ATOM     98  O   UNL     1       1.230 -12.842 -15.958  1.00  0.00    -0.744 OA
ENDBRANCH  92  95
ENDBRANCH  65  88
ENDBRANCH  39  40
ENDBRANCH  31  34
ENDBRANCH  29  30
ENDBRANCH  28  29
ENDBRANCH  27  28
ENDBRANCH   1  27
TORSDOF 21
