REMARK SMILES O=C(NCCCCCCNC(=O)[C@@H]1CN(C(=O)C[NH+]2CCOCC2)C[C@H]1c1ccc2c(c1)OCO2)c1ccc(-c2c3nc(c(-c4cccc(S(=O)(=O)[O-])c4F)c4ccc([nH]4)c(-c4cccc(S(=O)(=O)[O-])c4F)c4nc(c(-c5cccc(S(=O)(=O)[O-])c5F)c5ccc2[nH]5)C=C4)C=C3)cc1
REMARK SMILES IDX 6 1 5 2 4 3 3 4 1 5 2 6 36 8 37 9 98 10 38 11 97 12 39 13
REMARK SMILES IDX 40 14 41 15 91 16 42 17 96 18 90 19 92 20 43 21 95 22 89 23
REMARK SMILES IDX 88 24 44 26 76 27 56 28 75 29 57 30 60 31 74 32 93 33 58 34
REMARK SMILES IDX 59 35 73 37 94 38 61 39 45 40 46 41 54 42 47 43 49 44 55 45
REMARK SMILES IDX 48 46 50 47 51 48 52 49 53 50 77 51 78 52 86 53 79 54 81 55
REMARK SMILES IDX 87 56 80 57 82 58 83 59 84 60 85 61 62 62 63 63 71 64 64 65
REMARK SMILES IDX 66 66 72 67 65 68 67 69 68 70 69 71 70 72 7 73 8 74 9 75
REMARK SMILES IDX 10 76 11 77 12 79 13 80 14 81 26 82 15 83 25 84 27 85 28 86
REMARK SMILES IDX 32 87 29 88 31 89 30 90 33 91 35 92 34 93 16 94 17 95 18 96
REMARK SMILES IDX 19 97 20 98 24 99 21 101 23 102 22 103
REMARK H PARENT 3 7 92 25 60 36 10 78 19 100
REMARK Flexibility Score: inf
ROOT
ATOM      1  C   UNL     1       4.167  -0.409  -3.925  1.00  0.00     0.002 C 
ENDROOT
BRANCH   1   2
ATOM      2  C   UNL     1       4.609  -1.048  -2.608  1.00  0.00     0.021 C 
BRANCH   2   3
ATOM      3  C   UNL     1       4.415  -0.176  -1.375  1.00  0.00     0.116 C 
BRANCH   3   4
ATOM      4  N   UNL     1       3.014   0.094  -1.100  1.00  0.00    -0.352 N 
ATOM      5  O   UNL     1       1.105   0.068   0.097  1.00  0.00    -0.269 OA
ATOM      6  C   UNL     1       2.328  -0.046   0.082  1.00  0.00     0.251 C 
ATOM      7  H   UNL     1       2.486   0.421  -1.864  1.00  0.00     0.163 HD
BRANCH   6   8
ATOM      8  C   UNL     1       3.068  -0.359   1.324  1.00  0.00     0.039 A 
ATOM      9  C   UNL     1       4.247   0.321   1.640  1.00  0.00     0.014 A 
ATOM     10  C   UNL     1       2.578  -1.348   2.182  1.00  0.00     0.014 A 
ATOM     11  C   UNL     1       5.002  -0.076   2.739  1.00  0.00     0.010 A 
ATOM     12  C   UNL     1       3.297  -1.690   3.332  1.00  0.00     0.010 A 
ATOM     13  C   UNL     1       4.529  -1.076   3.605  1.00  0.00    -0.014 A 
BRANCH  13  14
ATOM     14  C   UNL     1       5.306  -1.402   4.828  1.00  0.00     0.031 A 
ATOM     15  C   UNL     1       5.927  -2.757   5.028  1.00  0.00     0.074 A 
ATOM     16  C   UNL     1       5.457  -0.444   5.764  1.00  0.00     0.049 A 
ATOM     17  N   UNL     1       6.669  -3.180   6.020  1.00  0.00    -0.248 NA
ATOM     18  C   UNL     1       5.683  -3.771   3.990  1.00  0.00     0.031 C 
ATOM     19  C   UNL     1       4.856   0.892   5.702  1.00  0.00     0.029 A 
ATOM     20  N   UNL     1       6.157  -0.437   6.943  1.00  0.00    -0.354 N 
ATOM     21  C   UNL     1       6.959  -4.511   5.743  1.00  0.00     0.074 A 
ATOM     22  C   UNL     1       6.300  -4.832   4.495  1.00  0.00     0.031 C 
ATOM     23  C   UNL     1       5.233   1.595   6.779  1.00  0.00     0.029 A 
ATOM     24  C   UNL     1       6.064   0.751   7.629  1.00  0.00     0.049 A 
ATOM     25  H   UNL     1       6.676  -1.209   7.266  1.00  0.00     0.167 HD
ATOM     26  C   UNL     1       7.722  -5.378   6.452  1.00  0.00     0.034 A 
ATOM     27  C   UNL     1       6.582   1.120   8.816  1.00  0.00     0.034 A 
ATOM     28  C   UNL     1       8.397  -5.044   7.679  1.00  0.00     0.049 A 
ATOM     29  C   UNL     1       7.449   0.148   9.563  1.00  0.00     0.074 A 
ATOM     30  C   UNL     1       9.223  -5.842   8.453  1.00  0.00     0.029 A 
ATOM     31  N   UNL     1       8.327  -3.813   8.314  1.00  0.00    -0.354 N 
ATOM     32  N   UNL     1       7.809  -1.065   9.220  1.00  0.00    -0.248 NA
ATOM     33  C   UNL     1       8.005   0.603  10.844  1.00  0.00     0.031 C 
ATOM     34  C   UNL     1       9.646  -5.095   9.558  1.00  0.00     0.029 A 
ATOM     35  C   UNL     1       9.095  -3.828   9.467  1.00  0.00     0.049 A 
ATOM     36  H   UNL     1       7.808  -3.041   7.992  1.00  0.00     0.167 HD
ATOM     37  C   UNL     1       8.650  -1.511  10.231  1.00  0.00     0.074 A 
ATOM     38  C   UNL     1       8.773  -0.424  11.182  1.00  0.00     0.031 C 
ATOM     39  C   UNL     1       9.246  -2.720  10.375  1.00  0.00     0.034 A 
BRANCH  26  40
ATOM     40  C   UNL     1       7.921  -6.762   5.891  1.00  0.00     0.023 A 
ATOM     41  C   UNL     1       8.789  -6.940   4.794  1.00  0.00     0.012 A 
ATOM     42  C   UNL     1       7.323  -7.889   6.487  1.00  0.00     0.148 A 
ATOM     43  C   UNL     1       9.040  -8.213   4.284  1.00  0.00     0.002 A 
ATOM     44  C   UNL     1       7.606  -9.160   5.996  1.00  0.00     0.091 A 
ATOM     45  F   UNL     1       6.485  -7.700   7.516  1.00  0.00    -0.205 F 
ATOM     46  C   UNL     1       8.458  -9.322   4.891  1.00  0.00     0.022 A 
BRANCH  44  47
ATOM     47  S   UNL     1       6.962 -10.658   6.751  1.00  0.00     0.127 S 
ATOM     48  O   UNL     1       5.961 -11.075   5.771  1.00  0.00    -0.237 OA
ATOM     49  O   UNL     1       8.150 -11.511   6.809  1.00  0.00    -0.237 OA
ATOM     50  O   UNL     1       6.440 -10.258   8.050  1.00  0.00    -0.744 OA
ENDBRANCH  44  47
ENDBRANCH  26  40
BRANCH  27  51
ATOM     51  C   UNL     1       6.332   2.494   9.335  1.00  0.00     0.023 A 
ATOM     52  C   UNL     1       7.391   3.420   9.388  1.00  0.00     0.012 A 
ATOM     53  C   UNL     1       5.043   2.903   9.726  1.00  0.00     0.148 A 
ATOM     54  C   UNL     1       7.175   4.720   9.844  1.00  0.00     0.002 A 
ATOM     55  C   UNL     1       4.823   4.217  10.121  1.00  0.00     0.091 A 
ATOM     56  F   UNL     1       4.049   2.003   9.690  1.00  0.00    -0.205 F 
ATOM     57  C   UNL     1       5.890   5.123  10.197  1.00  0.00     0.022 A 
BRANCH  55  58
ATOM     58  S   UNL     1       3.168   4.839  10.439  1.00  0.00     0.127 S 
ATOM     59  O   UNL     1       3.097   4.775  11.895  1.00  0.00    -0.237 OA
ATOM     60  O   UNL     1       3.233   6.192   9.884  1.00  0.00    -0.237 OA
ATOM     61  O   UNL     1       2.279   3.943   9.710  1.00  0.00    -0.744 OA
ENDBRANCH  55  58
ENDBRANCH  27  51
BRANCH  39  62
ATOM     62  C   UNL     1      10.098  -2.925  11.598  1.00  0.00     0.023 A 
ATOM     63  C   UNL     1       9.481  -3.095  12.853  1.00  0.00     0.012 A 
ATOM     64  C   UNL     1      11.501  -3.000  11.500  1.00  0.00     0.148 A 
ATOM     65  C   UNL     1      10.248  -3.304  13.998  1.00  0.00     0.002 A 
ATOM     66  C   UNL     1      12.257  -3.250  12.639  1.00  0.00     0.091 A 
ATOM     67  F   UNL     1      12.071  -2.811  10.300  1.00  0.00    -0.205 F 
ATOM     68  C   UNL     1      11.634  -3.392  13.889  1.00  0.00     0.022 A 
BRANCH  66  69
ATOM     69  S   UNL     1      14.040  -3.462  12.573  1.00  0.00     0.127 S 
ATOM     70  O   UNL     1      14.512  -2.172  13.070  1.00  0.00    -0.237 OA
ATOM     71  O   UNL     1      14.257  -4.584  13.488  1.00  0.00    -0.237 OA
ATOM     72  O   UNL     1      14.352  -3.755  11.181  1.00  0.00    -0.744 OA
ENDBRANCH  66  69
ENDBRANCH  39  62
ENDBRANCH  13  14
ENDBRANCH   6   8
ENDBRANCH   3   4
ENDBRANCH   2   3
ENDBRANCH   1   2
BRANCH   1  73
ATOM     73  C   UNL     1       4.817   0.939  -4.253  1.00  0.00     0.002 C 
BRANCH  73  74
ATOM     74  C   UNL     1       6.349   0.966  -4.189  1.00  0.00     0.021 C 
BRANCH  74  75
ATOM     75  C   UNL     1       7.037  -0.092  -5.046  1.00  0.00     0.116 C 
BRANCH  75  76
ATOM     76  N   UNL     1       6.790   0.129  -6.460  1.00  0.00    -0.356 N 
ATOM     77  C   UNL     1       7.664   0.259  -7.495  1.00  0.00     0.225 C 
ATOM     78  H   UNL     1       5.840   0.196  -6.709  1.00  0.00     0.163 HD
ATOM     79  O   UNL     1       7.203   0.390  -8.630  1.00  0.00    -0.275 OA
BRANCH  77  80
ATOM     80  C   UNL     1       9.152   0.208  -7.238  1.00  0.00     0.107 C 
ATOM     81  C   UNL     1       9.826   1.374  -7.941  1.00  0.00     0.133 C 
ATOM     82  C   UNL     1       9.832  -1.038  -7.859  1.00  0.00     0.053 C 
ATOM     83  N   UNL     1      11.197   0.925  -8.050  1.00  0.00    -0.336 N 
ATOM     84  C   UNL     1      11.244  -0.517  -8.230  1.00  0.00     0.129 C 
BRANCH  82  85
ATOM     85  C   UNL     1       9.727  -2.253  -6.943  1.00  0.00    -0.038 A 
ATOM     86  C   UNL     1       8.455  -2.867  -6.781  1.00  0.00     0.008 A 
ATOM     87  C   UNL     1      10.812  -2.785  -6.228  1.00  0.00     0.054 A 
ATOM     88  C   UNL     1       8.256  -3.941  -5.905  1.00  0.00     0.051 A 
ATOM     89  C   UNL     1      10.592  -3.862  -5.389  1.00  0.00     0.166 A 
ATOM     90  C   UNL     1       9.349  -4.417  -5.222  1.00  0.00     0.165 A 
ATOM     91  O   UNL     1      11.542  -4.485  -4.639  1.00  0.00    -0.454 OA
ATOM     92  O   UNL     1       9.352  -5.449  -4.340  1.00  0.00    -0.454 OA
ATOM     93  C   UNL     1      10.747  -5.489  -3.972  1.00  0.00     0.468 C 
ENDBRANCH  82  85
BRANCH  83  94
ATOM     94  C   UNL     1      12.337   1.695  -7.988  1.00  0.00     0.277 C 
ATOM     95  O   UNL     1      13.460   1.214  -8.158  1.00  0.00    -0.268 OA
BRANCH  94  96
ATOM     96  C   UNL     1      12.172   3.186  -7.655  1.00  0.00     0.363 C 
BRANCH  96  97
ATOM     97  N   UNL     1      11.560   3.916  -8.786  1.00  0.00    -0.323 N 
ATOM     98  C   UNL     1      12.500   4.048  -9.924  1.00  0.00     0.291 C 
ATOM     99  C   UNL     1      11.124   5.269  -8.381  1.00  0.00     0.291 C 
ATOM    100  H   UNL     1      10.751   3.367  -9.076  1.00  0.00     0.348 HD
ATOM    101  C   UNL     1      13.628   5.070  -9.691  1.00  0.00     0.221 C 
ATOM    102  C   UNL     1      12.277   6.264  -8.170  1.00  0.00     0.221 C 
ATOM    103  O   UNL     1      13.103   6.356  -9.337  1.00  0.00    -0.370 OA
ENDBRANCH  96  97
ENDBRANCH  94  96
ENDBRANCH  83  94
ENDBRANCH  77  80
ENDBRANCH  75  76
ENDBRANCH  74  75
ENDBRANCH  73  74
ENDBRANCH   1  73
TORSDOF 20
