REMARK SMILES COc1cccc(Cn2c(=O)c(=O)n(CC(=O)NCCCCCCNC(=O)c3ccc(-c4c5nc(c(-c6cccc(S(=O)(=O)[O-])c6F)c6ccc([nH]6)c(-c6cccc(S(=O)(=O)[O-])c6F)c6nc(c(-c7cccc(S(=O)(=O)[O-])c7F)c7ccc4[nH]7)C=C6)C=C5)cc3)c3ccccc32)c1
REMARK SMILES IDX 21 1 20 2 19 3 18 4 16 5 17 6 15 8 14 9 9 10 10 11 96 12
REMARK SMILES IDX 11 13 12 14 91 15 95 16 13 17 92 18 94 19 93 20 8 21 7 22
REMARK SMILES IDX 3 23 4 24 97 25 5 26 6 27 2 28 1 29 22 30 23 31 24 32 25 33
REMARK SMILES IDX 26 34 27 36 28 37 29 38 90 39 30 40 89 41 31 42 32 43 33 44
REMARK SMILES IDX 83 45 34 46 88 47 82 48 84 49 35 50 87 51 81 52 80 53 36 55
REMARK SMILES IDX 68 56 48 57 67 58 49 59 52 60 66 61 85 62 50 63 51 64 65 66
REMARK SMILES IDX 86 67 53 68 37 69 38 70 46 71 39 72 41 73 47 74 40 75 42 76
REMARK SMILES IDX 43 77 44 78 45 79 69 80 70 81 78 82 71 83 73 84 79 85 72 86
REMARK SMILES IDX 74 87 75 88 76 89 77 90 54 91 55 92 63 93 56 94 58 95 64 96
REMARK SMILES IDX 57 97 59 98 60 99 61 100 62 101
REMARK H PARENT 18 7 25 35 84 54 52 65
REMARK Flexibility Score: inf
ROOT
ATOM      1  C   UNL     1      -0.041   1.685  -8.718  1.00  0.00     0.002 C 
ENDROOT
BRANCH   1   2
ATOM      2  C   UNL     1       1.059   1.277  -7.726  1.00  0.00     0.021 C 
BRANCH   2   3
ATOM      3  C   UNL     1       0.812  -0.088  -7.085  1.00  0.00     0.116 C 
BRANCH   3   4
ATOM      4  N   UNL     1       1.181  -1.151  -7.996  1.00  0.00    -0.355 N 
ATOM      5  C   UNL     1       2.358  -1.805  -8.165  1.00  0.00     0.240 C 
ATOM      6  O   UNL     1       2.383  -2.660  -9.062  1.00  0.00    -0.273 OA
ATOM      7  H   UNL     1       0.457  -1.450  -8.592  1.00  0.00     0.163 HD
BRANCH   5   8
ATOM      8  C   UNL     1       3.538  -1.722  -7.189  1.00  0.00     0.226 C 
BRANCH   8   9
ATOM      9  N   UNL     1       4.044  -0.516  -6.550  1.00  0.00    -0.293 N 
ATOM     10  N   UNL     1       5.221   1.565  -5.057  1.00  0.00    -0.298 N 
ATOM     11  C   UNL     1       4.924   0.365  -4.440  1.00  0.00     0.317 A 
ATOM     12  C   UNL     1       5.505   1.478  -6.446  1.00  0.00     0.068 A 
ATOM     13  O   UNL     1       5.438  -0.060  -3.408  1.00  0.00    -0.263 OA
ATOM     14  C   UNL     1       3.868  -0.448  -5.172  1.00  0.00     0.317 A 
ATOM     15  C   UNL     1       4.949   0.396  -7.191  1.00  0.00     0.069 A 
ATOM     16  C   UNL     1       6.451   2.324  -7.039  1.00  0.00     0.028 A 
ATOM     17  O   UNL     1       3.009  -1.053  -4.534  1.00  0.00    -0.263 OA
ATOM     18  C   UNL     1       5.324   0.234  -8.529  1.00  0.00     0.028 A 
ATOM     19  C   UNL     1       6.868   2.092  -8.351  1.00  0.00     0.002 A 
ATOM     20  C   UNL     1       6.298   1.061  -9.095  1.00  0.00     0.002 A 
BRANCH  10  21
ATOM     21  C   UNL     1       5.371   2.758  -4.220  1.00  0.00     0.162 C 
BRANCH  21  22
ATOM     22  C   UNL     1       4.046   2.999  -3.489  1.00  0.00    -0.024 A 
ATOM     23  C   UNL     1       2.339   1.958  -2.108  1.00  0.00     0.119 A 
ATOM     24  C   UNL     1       1.375   2.805  -2.637  1.00  0.00     0.046 A 
ATOM     25  C   UNL     1       3.675   2.122  -2.454  1.00  0.00     0.052 A 
ATOM     26  C   UNL     1       1.757   3.804  -3.537  1.00  0.00     0.004 A 
ATOM     27  C   UNL     1       3.080   3.878  -3.993  1.00  0.00     0.006 A 
BRANCH  23  28
ATOM     28  O   UNL     1       2.005   0.780  -1.500  1.00  0.00    -0.497 OA
ATOM     29  C   UNL     1       1.492   0.937  -0.188  1.00  0.00     0.278 C 
ENDBRANCH  23  28
ENDBRANCH  21  22
ENDBRANCH  10  21
ENDBRANCH   8   9
ENDBRANCH   5   8
ENDBRANCH   3   4
ENDBRANCH   2   3
ENDBRANCH   1   2
BRANCH   1  30
ATOM     30  C   UNL     1      -1.363   2.100  -8.060  1.00  0.00     0.002 C 
BRANCH  30  31
ATOM     31  C   UNL     1      -1.295   3.382  -7.220  1.00  0.00     0.021 C 
BRANCH  31  32
ATOM     32  C   UNL     1      -0.900   4.638  -7.998  1.00  0.00     0.116 C 
BRANCH  32  33
ATOM     33  N   UNL     1      -1.833   4.904  -9.081  1.00  0.00    -0.352 N 
ATOM     34  C   UNL     1      -2.715   5.940  -9.244  1.00  0.00     0.251 C 
ATOM     35  H   UNL     1      -1.830   4.240  -9.808  1.00  0.00     0.163 HD
ATOM     36  O   UNL     1      -3.637   5.827 -10.048  1.00  0.00    -0.269 OA
BRANCH  34  37
ATOM     37  C   UNL     1      -2.550   7.199  -8.484  1.00  0.00     0.039 A 
ATOM     38  C   UNL     1      -3.691   7.875  -8.040  1.00  0.00     0.014 A 
ATOM     39  C   UNL     1      -1.286   7.767  -8.299  1.00  0.00     0.014 A 
ATOM     40  C   UNL     1      -3.564   9.114  -7.407  1.00  0.00     0.010 A 
ATOM     41  C   UNL     1      -1.156   8.974  -7.616  1.00  0.00     0.010 A 
ATOM     42  C   UNL     1      -2.295   9.674  -7.193  1.00  0.00    -0.014 A 
BRANCH  42  43
ATOM     43  C   UNL     1      -2.147  11.015  -6.576  1.00  0.00     0.031 A 
ATOM     44  C   UNL     1      -1.623  12.167  -7.394  1.00  0.00     0.074 A 
ATOM     45  C   UNL     1      -2.419  11.183  -5.268  1.00  0.00     0.049 A 
ATOM     46  N   UNL     1      -1.410  13.405  -7.032  1.00  0.00    -0.248 NA
ATOM     47  C   UNL     1      -1.266  11.886  -8.796  1.00  0.00     0.031 C 
ATOM     48  C   UNL     1      -2.846  10.124  -4.351  1.00  0.00     0.029 A 
ATOM     49  N   UNL     1      -2.351  12.301  -4.477  1.00  0.00    -0.354 N 
ATOM     50  C   UNL     1      -0.860  14.038  -8.140  1.00  0.00     0.074 A 
ATOM     51  C   UNL     1      -0.746  13.042  -9.183  1.00  0.00     0.031 C 
ATOM     52  C   UNL     1      -3.000  10.644  -3.122  1.00  0.00     0.029 A 
ATOM     53  C   UNL     1      -2.677  12.067  -3.161  1.00  0.00     0.049 A 
ATOM     54  H   UNL     1      -2.094  13.188  -4.819  1.00  0.00     0.167 HD
ATOM     55  C   UNL     1      -0.514  15.338  -8.290  1.00  0.00     0.034 A 
ATOM     56  C   UNL     1      -2.718  12.909  -2.110  1.00  0.00     0.034 A 
ATOM     57  C   UNL     1      -0.703  16.341  -7.278  1.00  0.00     0.049 A 
ATOM     58  C   UNL     1      -2.418  14.367  -2.330  1.00  0.00     0.074 A 
ATOM     59  C   UNL     1      -0.495  17.706  -7.369  1.00  0.00     0.029 A 
ATOM     60  N   UNL     1      -1.149  16.088  -5.991  1.00  0.00    -0.354 N 
ATOM     61  N   UNL     1      -2.081  14.982  -3.438  1.00  0.00    -0.248 NA
ATOM     62  C   UNL     1      -2.550  15.257  -1.167  1.00  0.00     0.031 C 
ATOM     63  C   UNL     1      -0.814  18.279  -6.133  1.00  0.00     0.029 A 
ATOM     64  C   UNL     1      -1.222  17.270  -5.275  1.00  0.00     0.049 A 
ATOM     65  H   UNL     1      -1.381  15.199  -5.638  1.00  0.00     0.167 HD
ATOM     66  C   UNL     1      -1.988  16.330  -3.114  1.00  0.00     0.074 A 
ATOM     67  C   UNL     1      -2.333  16.447  -1.712  1.00  0.00     0.031 C 
ATOM     68  C   UNL     1      -1.628  17.375  -3.898  1.00  0.00     0.034 A 
BRANCH  55  69
ATOM     69  C   UNL     1       0.029  15.774  -9.624  1.00  0.00     0.023 A 
ATOM     70  C   UNL     1      -0.853  15.912 -10.715  1.00  0.00     0.012 A 
ATOM     71  C   UNL     1       1.386  16.116  -9.784  1.00  0.00     0.148 A 
ATOM     72  C   UNL     1      -0.391  16.361 -11.951  1.00  0.00     0.002 A 
ATOM     73  C   UNL     1       1.833  16.598 -11.009  1.00  0.00     0.091 A 
ATOM     74  F   UNL     1       2.213  15.957  -8.741  1.00  0.00    -0.205 F 
ATOM     75  C   UNL     1       0.949  16.714 -12.095  1.00  0.00     0.022 A 
BRANCH  73  76
ATOM     76  S   UNL     1       3.524  17.141 -11.281  1.00  0.00     0.127 S 
ATOM     77  O   UNL     1       4.037  16.084 -12.152  1.00  0.00    -0.237 OA
ATOM     78  O   UNL     1       3.331  18.433 -11.941  1.00  0.00    -0.237 OA
ATOM     79  O   UNL     1       4.138  17.217  -9.963  1.00  0.00    -0.744 OA
ENDBRANCH  73  76
ENDBRANCH  55  69
BRANCH  56  80
ATOM     80  C   UNL     1      -3.150  12.409  -0.775  1.00  0.00     0.023 A 
ATOM     81  C   UNL     1      -4.413  12.781  -0.277  1.00  0.00     0.012 A 
ATOM     82  C   UNL     1      -2.338  11.549  -0.012  1.00  0.00     0.148 A 
ATOM     83  C   UNL     1      -4.847  12.332   0.971  1.00  0.00     0.002 A 
ATOM     84  C   UNL     1      -2.798  11.063   1.208  1.00  0.00     0.091 A 
ATOM     85  F   UNL     1      -1.130  11.218  -0.490  1.00  0.00    -0.205 F 
ATOM     86  C   UNL     1      -4.046  11.465   1.708  1.00  0.00     0.022 A 
BRANCH  84  87
ATOM     87  S   UNL     1      -1.873   9.839   2.142  1.00  0.00     0.127 S 
ATOM     88  O   UNL     1      -1.152  10.672   3.100  1.00  0.00    -0.237 OA
ATOM     89  O   UNL     1      -2.935   9.015   2.720  1.00  0.00    -0.237 OA
ATOM     90  O   UNL     1      -1.060   9.146   1.150  1.00  0.00    -0.744 OA
ENDBRANCH  84  87
ENDBRANCH  56  80
BRANCH  68  91
ATOM     91  C   UNL     1      -1.599  18.741  -3.268  1.00  0.00     0.023 A 
ATOM     92  C   UNL     1      -0.544  19.077  -2.397  1.00  0.00     0.012 A 
ATOM     93  C   UNL     1      -2.564  19.713  -3.597  1.00  0.00     0.148 A 
ATOM     94  C   UNL     1      -0.465  20.353  -1.841  1.00  0.00     0.002 A 
ATOM     95  C   UNL     1      -2.454  20.995  -3.071  1.00  0.00     0.091 A 
ATOM     96  F   UNL     1      -3.573  19.368  -4.410  1.00  0.00    -0.205 F 
ATOM     97  C   UNL     1      -1.411  21.314  -2.186  1.00  0.00     0.022 A 
BRANCH  95  98
ATOM     98  S   UNL     1      -3.582  22.313  -3.540  1.00  0.00     0.127 S 
ATOM     99  O   UNL     1      -4.513  22.326  -2.413  1.00  0.00    -0.237 OA
ATOM    100  O   UNL     1      -2.698  23.477  -3.613  1.00  0.00    -0.237 OA
ATOM    101  O   UNL     1      -4.145  21.909  -4.822  1.00  0.00    -0.744 OA
ENDBRANCH  95  98
ENDBRANCH  68  91
ENDBRANCH  42  43
ENDBRANCH  34  37
ENDBRANCH  32  33
ENDBRANCH  31  32
ENDBRANCH  30  31
ENDBRANCH   1  30
TORSDOF 20
