REMARK SMILES Cc1ccc2c(c1C)O[C@@H](C(=O)NCCCCCCNC(=O)c1ccc(-c3c4nc(c(-c5cccc(S(=O)(=O)[O-])c5F)c5ccc([nH]5)c(-c5cccc(S(=O)(=O)[O-])c5F)c5nc(c(-c6cccc(S(=O)(=O)[O-])c6F)c6ccc3[nH]6)C=C5)C=C4)cc1)CC2=O
REMARK SMILES IDX 18 1 17 2 16 3 15 4 14 5 13 6 11 7 12 8 10 10 1 11 2 12 3 13
REMARK SMILES IDX 7 14 4 15 6 16 8 17 5 18 9 19 87 20 86 21 88 22 19 23 20 24
REMARK SMILES IDX 21 25 22 27 23 28 24 29 85 30 25 31 84 32 26 33 27 34 28 35
REMARK SMILES IDX 78 36 29 37 83 38 77 39 79 40 30 41 82 42 76 43 75 44 31 46
REMARK SMILES IDX 63 47 43 48 62 49 44 50 47 51 61 52 80 53 45 54 46 55 60 57
REMARK SMILES IDX 81 58 48 59 32 60 33 61 41 62 34 63 36 64 42 65 35 66 37 67
REMARK SMILES IDX 38 68 39 69 40 70 64 71 65 72 73 73 66 74 68 75 74 76 67 77
REMARK SMILES IDX 69 78 70 79 71 80 72 81 49 82 50 83 58 84 51 85 53 86 59 87
REMARK SMILES IDX 52 88 54 89 55 90 56 91 57 92
REMARK H PARENT 13 9 20 26 79 45 47 56
REMARK Flexibility Score: inf
ROOT
ATOM      1  C   UNL     1       4.324  -3.537  -1.279  1.00  0.00     0.021 C 
ENDROOT
BRANCH   1   2
ATOM      2  C   UNL     1       4.536  -3.613  -2.793  1.00  0.00     0.002 C 
BRANCH   2   3
ATOM      3  C   UNL     1       3.838  -4.787  -3.495  1.00  0.00     0.002 C 
BRANCH   3   4
ATOM      4  C   UNL     1       2.325  -4.868  -3.273  1.00  0.00     0.021 C 
BRANCH   4   5
ATOM      5  C   UNL     1       1.590  -3.617  -3.751  1.00  0.00     0.116 C 
BRANCH   5   6
ATOM      6  N   UNL     1       0.801  -3.853  -4.938  1.00  0.00    -0.353 N 
ATOM      7  C   UNL     1      -0.532  -3.776  -5.180  1.00  0.00     0.261 C 
ATOM      8  O   UNL     1      -0.867  -3.879  -6.369  1.00  0.00    -0.271 OA
ATOM      9  H   UNL     1       1.333  -4.120  -5.722  1.00  0.00     0.163 HD
BRANCH   7  10
ATOM     10  C   UNL     1      -1.627  -3.647  -4.084  1.00  0.00     0.269 C 
ATOM     11  C   UNL     1       0.888  -0.055   0.108  1.00  0.00     0.045 C 
ATOM     12  C   UNL     1       0.182  -1.279  -0.416  1.00  0.00    -0.044 A 
ATOM     13  C   UNL     1       0.439  -2.491   0.252  1.00  0.00     0.005 A 
ATOM     14  C   UNL     1      -0.675  -1.275  -1.538  1.00  0.00    -0.005 A 
ATOM     15  C   UNL     1      -0.082  -3.695  -0.215  1.00  0.00     0.016 A 
ATOM     16  C   UNL     1      -1.108  -2.513  -2.062  1.00  0.00     0.134 A 
ATOM     17  C   UNL     1      -1.073  -0.010  -2.254  1.00  0.00     0.049 C 
ATOM     18  C   UNL     1      -0.829  -3.706  -1.392  1.00  0.00     0.060 A 
ATOM     19  O   UNL     1      -1.693  -2.471  -3.297  1.00  0.00    -0.479 OA
ATOM     20  C   UNL     1      -1.182  -4.990  -2.018  1.00  0.00     0.170 C 
ATOM     21  C   UNL     1      -1.879  -4.946  -3.340  1.00  0.00     0.136 C 
ATOM     22  O   UNL     1      -0.916  -6.056  -1.470  1.00  0.00    -0.294 OA
ENDBRANCH   7  10
ENDBRANCH   5   6
ENDBRANCH   4   5
ENDBRANCH   3   4
ENDBRANCH   2   3
ENDBRANCH   1   2
BRANCH   1  23
ATOM     23  C   UNL     1       4.779  -4.780  -0.522  1.00  0.00     0.116 C 
BRANCH  23  24
ATOM     24  N   UNL     1       6.192  -5.053  -0.752  1.00  0.00    -0.352 N 
ATOM     25  C   UNL     1       7.241  -4.955   0.123  1.00  0.00     0.251 C 
ATOM     26  H   UNL     1       6.424  -5.347  -1.662  1.00  0.00     0.163 HD
ATOM     27  O   UNL     1       8.399  -4.957  -0.291  1.00  0.00    -0.269 OA
BRANCH  25  28
ATOM     28  C   UNL     1       6.966  -4.849   1.567  1.00  0.00     0.039 A 
ATOM     29  C   UNL     1       7.608  -3.861   2.316  1.00  0.00     0.014 A 
ATOM     30  C   UNL     1       6.076  -5.741   2.174  1.00  0.00     0.014 A 
ATOM     31  C   UNL     1       7.325  -3.741   3.676  1.00  0.00     0.010 A 
ATOM     32  C   UNL     1       5.752  -5.583   3.516  1.00  0.00     0.010 A 
ATOM     33  C   UNL     1       6.387  -4.593   4.280  1.00  0.00    -0.014 A 
BRANCH  33  34
ATOM     34  C   UNL     1       6.091  -4.497   5.727  1.00  0.00     0.031 A 
ATOM     35  C   UNL     1       6.527  -5.601   6.648  1.00  0.00     0.074 A 
ATOM     36  C   UNL     1       5.392  -3.448   6.201  1.00  0.00     0.049 A 
ATOM     37  N   UNL     1       6.344  -5.713   7.937  1.00  0.00    -0.248 NA
ATOM     38  C   UNL     1       7.250  -6.733   6.043  1.00  0.00     0.031 C 
ATOM     39  C   UNL     1       4.873  -2.343   5.394  1.00  0.00     0.029 A 
ATOM     40  N   UNL     1       4.982  -3.152   7.476  1.00  0.00    -0.354 N 
ATOM     41  C   UNL     1       6.908  -6.930   8.292  1.00  0.00     0.074 A 
ATOM     42  C   UNL     1       7.415  -7.538   7.083  1.00  0.00     0.031 C 
ATOM     43  C   UNL     1       4.219  -1.486   6.194  1.00  0.00     0.029 A 
ATOM     44  C   UNL     1       4.253  -1.990   7.565  1.00  0.00     0.049 A 
ATOM     45  H   UNL     1       5.190  -3.718   8.254  1.00  0.00     0.167 HD
ATOM     46  C   UNL     1       7.024  -7.477   9.523  1.00  0.00     0.034 A 
ATOM     47  C   UNL     1       3.678  -1.399   8.630  1.00  0.00     0.034 A 
ATOM     48  C   UNL     1       6.557  -6.854  10.728  1.00  0.00     0.049 A 
ATOM     49  C   UNL     1       3.827  -2.023   9.989  1.00  0.00     0.074 A 
ATOM     50  C   UNL     1       6.693  -7.301  12.030  1.00  0.00     0.029 A 
ATOM     51  N   UNL     1       5.862  -5.658  10.782  1.00  0.00    -0.354 N 
ATOM     52  N   UNL     1       4.470  -3.116  10.323  1.00  0.00    -0.248 NA
ATOM     53  C   UNL     1       3.200  -1.326  11.121  1.00  0.00     0.031 C 
ATOM     54  C   UNL     1       6.063  -6.382  12.872  1.00  0.00     0.029 A 
ATOM     55  C   UNL     1       5.553  -5.354  12.095  1.00  0.00     0.049 A 
ATOM     56  H   UNL     1       5.623  -5.106  10.002  1.00  0.00     0.167 HD
ATOM     57  C   UNL     1       4.348  -3.224  11.704  1.00  0.00     0.074 A 
ATOM     58  C   UNL     1       3.576  -2.081  12.147  1.00  0.00     0.031 C 
ATOM     59  C   UNL     1       4.825  -4.189  12.525  1.00  0.00     0.034 A 
BRANCH  46  60
ATOM     60  C   UNL     1       7.740  -8.791   9.646  1.00  0.00     0.023 A 
ATOM     61  C   UNL     1       9.147  -8.814   9.585  1.00  0.00     0.012 A 
ATOM     62  C   UNL     1       7.034  -9.976   9.926  1.00  0.00     0.148 A 
ATOM     63  C   UNL     1       9.844 -10.002   9.795  1.00  0.00     0.002 A 
ATOM     64  C   UNL     1       7.737 -11.150  10.165  1.00  0.00     0.091 A 
ATOM     65  F   UNL     1       5.695  -9.927   9.964  1.00  0.00    -0.205 F 
ATOM     66  C   UNL     1       9.141 -11.165  10.096  1.00  0.00     0.022 A 
BRANCH  64  67
ATOM     67  S   UNL     1       6.933 -12.692  10.612  1.00  0.00     0.127 S 
ATOM     68  O   UNL     1       7.289 -13.548   9.480  1.00  0.00    -0.237 OA
ATOM     69  O   UNL     1       7.602 -13.031  11.868  1.00  0.00    -0.237 OA
ATOM     70  O   UNL     1       5.514 -12.389  10.733  1.00  0.00    -0.744 OA
ENDBRANCH  64  67
ENDBRANCH  46  60
BRANCH  47  71
ATOM     71  C   UNL     1       2.969  -0.103   8.450  1.00  0.00     0.023 A 
ATOM     72  C   UNL     1       3.595   1.086   8.869  1.00  0.00     0.012 A 
ATOM     73  C   UNL     1       1.720  -0.038   7.805  1.00  0.00     0.148 A 
ATOM     74  C   UNL     1       2.982   2.321   8.656  1.00  0.00     0.002 A 
ATOM     75  C   UNL     1       1.132   1.198   7.563  1.00  0.00     0.091 A 
ATOM     76  F   UNL     1       1.149  -1.186   7.414  1.00  0.00    -0.205 F 
ATOM     77  C   UNL     1       1.757   2.378   7.997  1.00  0.00     0.022 A 
BRANCH  75  78
ATOM     78  S   UNL     1      -0.394   1.383   6.634  1.00  0.00     0.127 S 
ATOM     79  O   UNL     1      -1.273   2.002   7.623  1.00  0.00    -0.237 OA
ATOM     80  O   UNL     1       0.027   2.263   5.544  1.00  0.00    -0.237 OA
ATOM     81  O   UNL     1      -0.772   0.039   6.218  1.00  0.00    -0.744 OA
ENDBRANCH  75  78
ENDBRANCH  47  71
BRANCH  59  82
ATOM     82  C   UNL     1       4.556  -4.071  13.999  1.00  0.00     0.023 A 
ATOM     83  C   UNL     1       3.295  -4.441  14.503  1.00  0.00     0.012 A 
ATOM     84  C   UNL     1       5.597  -3.745  14.891  1.00  0.00     0.148 A 
ATOM     85  C   UNL     1       3.072  -4.486  15.879  1.00  0.00     0.002 A 
ATOM     86  C   UNL     1       5.378  -3.826  16.260  1.00  0.00     0.091 A 
ATOM     87  F   UNL     1       6.786  -3.394  14.381  1.00  0.00    -0.205 F 
ATOM     88  C   UNL     1       4.115  -4.193  16.755  1.00  0.00     0.022 A 
BRANCH  86  89
ATOM     89  S   UNL     1       6.676  -3.541  17.469  1.00  0.00     0.127 S 
ATOM     90  O   UNL     1       6.187  -2.345  18.153  1.00  0.00    -0.237 OA
ATOM     91  O   UNL     1       6.626  -4.765  18.268  1.00  0.00    -0.237 OA
ATOM     92  O   UNL     1       7.905  -3.358  16.709  1.00  0.00    -0.744 OA
ENDBRANCH  86  89
ENDBRANCH  59  82
ENDBRANCH  33  34
ENDBRANCH  25  28
ENDBRANCH  23  24
ENDBRANCH   1  23
TORSDOF 16
