REMARK SMILES O=C(NCCCCCCNC(=O)[C@@H]1CCCN(C(=O)Nc2ccccc2)C1)c1ccc(-c2c3nc(c(-c4cccc(S(=O)(=O)[O-])c4F)c4ccc([nH]4)c(-c4cccc(S(=O)(=O)[O-])c4F)c4nc(c(-c5cccc(S(=O)(=O)[O-])c5F)c5ccc2[nH]5)C=C4)C=C3)cc1
REMARK SMILES IDX 6 1 5 2 4 3 3 4 1 5 2 6 28 8 29 9 90 10 30 11 89 12 31 13
REMARK SMILES IDX 32 14 33 15 83 16 34 17 88 18 82 19 84 20 35 21 87 22 81 23
REMARK SMILES IDX 80 24 36 26 68 27 48 28 67 29 49 30 52 31 66 32 85 33 50 34
REMARK SMILES IDX 51 35 65 37 86 38 53 39 37 40 38 41 46 42 39 43 41 44 47 45
REMARK SMILES IDX 40 46 42 47 43 48 44 49 45 50 69 51 70 52 78 53 71 54 73 55
REMARK SMILES IDX 79 56 72 57 74 58 75 59 76 60 77 61 54 62 55 63 63 64 56 65
REMARK SMILES IDX 58 66 64 67 57 68 59 69 60 70 61 71 62 72 7 73 8 74 9 75
REMARK SMILES IDX 10 76 11 77 12 79 13 80 14 81 27 82 15 83 17 84 16 85 18 86
REMARK SMILES IDX 19 87 20 88 21 90 22 91 26 92 23 93 25 94 24 95
REMARK H PARENT 3 7 84 25 52 36 10 78 20 89
REMARK Flexibility Score: inf
ROOT
ATOM      1  C   UNL     1       3.697  -2.888  -2.799  1.00  0.00     0.002 C 
ENDROOT
BRANCH   1   2
ATOM      2  C   UNL     1       4.361  -2.400  -1.510  1.00  0.00     0.021 C 
BRANCH   2   3
ATOM      3  C   UNL     1       4.195  -0.912  -1.222  1.00  0.00     0.116 C 
BRANCH   3   4
ATOM      4  N   UNL     1       2.802  -0.524  -1.067  1.00  0.00    -0.352 N 
ATOM      5  O   UNL     1       0.922   0.100   0.001  1.00  0.00    -0.269 OA
ATOM      6  C   UNL     1       2.147   0.009   0.017  1.00  0.00     0.251 C 
ATOM      7  H   UNL     1       2.241  -0.665  -1.863  1.00  0.00     0.163 HD
BRANCH   6   8
ATOM      8  C   UNL     1       2.911   0.448   1.205  1.00  0.00     0.039 A 
ATOM      9  C   UNL     1       4.085   1.188   1.062  1.00  0.00     0.014 A 
ATOM     10  C   UNL     1       2.439   0.131   2.481  1.00  0.00     0.014 A 
ATOM     11  C   UNL     1       4.870   1.469   2.175  1.00  0.00     0.010 A 
ATOM     12  C   UNL     1       3.181   0.498   3.608  1.00  0.00     0.010 A 
ATOM     13  C   UNL     1       4.424   1.135   3.465  1.00  0.00    -0.014 A 
BRANCH  13  14
ATOM     14  C   UNL     1       5.245   1.516   4.644  1.00  0.00     0.031 A 
ATOM     15  C   UNL     1       5.813   0.476   5.572  1.00  0.00     0.074 A 
ATOM     16  C   UNL     1       5.479   2.824   4.876  1.00  0.00     0.049 A 
ATOM     17  N   UNL     1       6.578   0.642   6.622  1.00  0.00    -0.248 NA
ATOM     18  C   UNL     1       5.476  -0.929   5.297  1.00  0.00     0.031 C 
ATOM     19  C   UNL     1       4.944   3.928   4.074  1.00  0.00     0.029 A 
ATOM     20  N   UNL     1       6.223   3.448   5.844  1.00  0.00    -0.354 N 
ATOM     21  C   UNL     1       6.775  -0.625   7.159  1.00  0.00     0.074 A 
ATOM     22  C   UNL     1       6.044  -1.552   6.322  1.00  0.00     0.031 C 
ATOM     23  C   UNL     1       5.405   5.089   4.560  1.00  0.00     0.029 A 
ATOM     24  C   UNL     1       6.221   4.820   5.738  1.00  0.00     0.049 A 
ATOM     25  H   UNL     1       6.712   2.962   6.546  1.00  0.00     0.167 HD
ATOM     26  C   UNL     1       7.508  -0.985   8.241  1.00  0.00     0.034 A 
ATOM     27  C   UNL     1       6.800   5.760   6.508  1.00  0.00     0.034 A 
ATOM     28  C   UNL     1       8.263  -0.063   9.050  1.00  0.00     0.049 A 
ATOM     29  C   UNL     1       7.624   5.328   7.687  1.00  0.00     0.074 A 
ATOM     30  C   UNL     1       9.098  -0.340  10.118  1.00  0.00     0.029 A 
ATOM     31  N   UNL     1       8.265   1.314   8.889  1.00  0.00    -0.354 N 
ATOM     32  N   UNL     1       7.910   4.115   8.093  1.00  0.00    -0.248 NA
ATOM     33  C   UNL     1       8.226   6.394   8.499  1.00  0.00     0.031 C 
ATOM     34  C   UNL     1       9.584   0.873  10.621  1.00  0.00     0.029 A 
ATOM     35  C   UNL     1       9.075   1.903   9.847  1.00  0.00     0.049 A 
ATOM     36  H   UNL     1       7.765   1.803   8.197  1.00  0.00     0.167 HD
ATOM     37  C   UNL     1       8.752   4.270   9.187  1.00  0.00     0.074 A 
ATOM     38  C   UNL     1       8.947   5.695   9.364  1.00  0.00     0.031 C 
ATOM     39  C   UNL     1       9.301   3.320   9.983  1.00  0.00     0.034 A 
BRANCH  26  40
ATOM     40  C   UNL     1       7.556  -2.449   8.604  1.00  0.00     0.023 A 
ATOM     41  C   UNL     1       8.292  -3.345   7.801  1.00  0.00     0.012 A 
ATOM     42  C   UNL     1       6.929  -2.927   9.772  1.00  0.00     0.148 A 
ATOM     43  C   UNL     1       8.373  -4.697   8.134  1.00  0.00     0.002 A 
ATOM     44  C   UNL     1       7.051  -4.268  10.121  1.00  0.00     0.091 A 
ATOM     45  F   UNL     1       6.217  -2.067  10.514  1.00  0.00    -0.205 F 
ATOM     46  C   UNL     1       7.762  -5.156   9.298  1.00  0.00     0.022 A 
BRANCH  44  47
ATOM     47  S   UNL     1       6.366  -4.936  11.642  1.00  0.00     0.127 S 
ATOM     48  O   UNL     1       5.218  -5.691  11.142  1.00  0.00    -0.237 OA
ATOM     49  O   UNL     1       7.467  -5.761  12.141  1.00  0.00    -0.237 OA
ATOM     50  O   UNL     1       6.047  -3.785  12.475  1.00  0.00    -0.744 OA
ENDBRANCH  44  47
ENDBRANCH  26  40
BRANCH  27  51
ATOM     51  C   UNL     1       6.665   7.199   6.148  1.00  0.00     0.023 A 
ATOM     52  C   UNL     1       7.793   7.903   5.683  1.00  0.00     0.012 A 
ATOM     53  C   UNL     1       5.424   7.859   6.220  1.00  0.00     0.148 A 
ATOM     54  C   UNL     1       7.692   9.246   5.320  1.00  0.00     0.002 A 
ATOM     55  C   UNL     1       5.317   9.180   5.801  1.00  0.00     0.091 A 
ATOM     56  F   UNL     1       4.366   7.175   6.679  1.00  0.00    -0.205 F 
ATOM     57  C   UNL     1       6.453   9.880   5.367  1.00  0.00     0.022 A 
BRANCH  55  58
ATOM     58  S   UNL     1       3.739  10.030   5.695  1.00  0.00     0.127 S 
ATOM     59  O   UNL     1       3.837  10.980   6.799  1.00  0.00    -0.237 OA
ATOM     60  O   UNL     1       3.805  10.625   4.360  1.00  0.00    -0.237 OA
ATOM     61  O   UNL     1       2.726   8.993   5.838  1.00  0.00    -0.744 OA
ENDBRANCH  55  58
ENDBRANCH  27  51
BRANCH  39  62
ATOM     62  C   UNL     1      10.199   3.786  11.099  1.00  0.00     0.023 A 
ATOM     63  C   UNL     1       9.646   4.424  12.226  1.00  0.00     0.012 A 
ATOM     64  C   UNL     1      11.586   3.545  11.052  1.00  0.00     0.148 A 
ATOM     65  C   UNL     1      10.464   4.849  13.272  1.00  0.00     0.002 A 
ATOM     66  C   UNL     1      12.388   3.926  12.120  1.00  0.00     0.091 A 
ATOM     67  F   UNL     1      12.097   2.956   9.960  1.00  0.00    -0.205 F 
ATOM     68  C   UNL     1      11.832   4.590  13.225  1.00  0.00     0.022 A 
BRANCH  66  69
ATOM     69  S   UNL     1      14.143   3.545  12.184  1.00  0.00     0.127 S 
ATOM     70  O   UNL     1      14.741   4.849  11.905  1.00  0.00    -0.237 OA
ATOM     71  O   UNL     1      14.310   3.079  13.561  1.00  0.00    -0.237 OA
ATOM     72  O   UNL     1      14.366   2.522  11.171  1.00  0.00    -0.744 OA
ENDBRANCH  66  69
ENDBRANCH  39  62
ENDBRANCH  13  14
ENDBRANCH   6   8
ENDBRANCH   3   4
ENDBRANCH   2   3
ENDBRANCH   1   2
BRANCH   1  73
ATOM     73  C   UNL     1       4.138  -2.183  -4.088  1.00  0.00     0.002 C 
BRANCH  73  74
ATOM     74  C   UNL     1       5.648  -2.112  -4.322  1.00  0.00     0.021 C 
BRANCH  74  75
ATOM     75  C   UNL     1       6.351  -3.463  -4.407  1.00  0.00     0.116 C 
BRANCH  75  76
ATOM     76  N   UNL     1       6.435  -3.964  -5.762  1.00  0.00    -0.356 N 
ATOM     77  C   UNL     1       7.490  -4.255  -6.564  1.00  0.00     0.224 C 
ATOM     78  H   UNL     1       5.559  -4.124  -6.182  1.00  0.00     0.163 HD
ATOM     79  O   UNL     1       7.215  -4.748  -7.667  1.00  0.00    -0.275 OA
BRANCH  77  80
ATOM     80  C   UNL     1       8.960  -3.999  -6.215  1.00  0.00     0.098 C 
ATOM     81  C   UNL     1       9.445  -4.435  -4.839  1.00  0.00     0.017 C 
ATOM     82  C   UNL     1       9.418  -2.599  -6.599  1.00  0.00     0.134 C 
ATOM     83  C   UNL     1       9.816  -3.315  -3.869  1.00  0.00     0.022 C 
ATOM     84  N   UNL     1       9.049  -1.593  -5.611  1.00  0.00    -0.324 N 
ATOM     85  C   UNL     1       9.494  -1.865  -4.250  1.00  0.00     0.121 C 
BRANCH  84  86
ATOM     86  C   UNL     1       8.365  -0.484  -6.069  1.00  0.00     0.321 C 
ATOM     87  O   UNL     1       8.032  -0.376  -7.256  1.00  0.00    -0.248 OA
ATOM     88  N   UNL     1       7.868   0.474  -5.248  1.00  0.00    -0.308 N 
ATOM     89  H   UNL     1       7.138   0.984  -5.668  1.00  0.00     0.171 HD
BRANCH  88  90
ATOM     90  C   UNL     1       8.143   0.912  -3.952  1.00  0.00     0.042 A 
ATOM     91  C   UNL     1       7.054   1.282  -3.157  1.00  0.00     0.026 A 
ATOM     92  C   UNL     1       9.432   1.011  -3.436  1.00  0.00     0.026 A 
ATOM     93  C   UNL     1       7.245   1.585  -1.809  1.00  0.00     0.002 A 
ATOM     94  C   UNL     1       9.624   1.312  -2.086  1.00  0.00     0.002 A 
ATOM     95  C   UNL     1       8.527   1.569  -1.266  1.00  0.00     0.000 A 
ENDBRANCH  88  90
ENDBRANCH  84  86
ENDBRANCH  77  80
ENDBRANCH  75  76
ENDBRANCH  74  75
ENDBRANCH  73  74
ENDBRANCH   1  73
TORSDOF 18
