REMARK SMILES CC(C)OC(=O)c1c(NC(=O)[C@H]2[C@@H](C(=O)NCCCCCCNC(=O)c3ccc(-c4c5nc(c(-c6cccc(S(=O)(=O)[O-])c6F)c6ccc([nH]6)c(-c6cccc(S(=O)(=O)[O-])c6F)c6nc(c(-c7cccc(S(=O)(=O)[O-])c7F)c7ccc4[nH]7)C=C6)C=C5)cc3)[C@@H]3C=C[C@H]2CC3)sc2c1CCC2
REMARK SMILES IDX 18 1 17 2 16 3 14 4 15 5 13 7 12 8 92 9 89 10 91 11 93 12
REMARK SMILES IDX 90 13 94 14 10 15 9 16 11 18 8 19 7 20 97 21 95 22 96 23
REMARK SMILES IDX 98 24 100 25 99 26 5 27 6 28 4 29 2 30 1 31 3 32 19 33 20 34
REMARK SMILES IDX 21 35 22 36 23 37 24 38 25 40 26 41 27 42 88 43 28 44 87 45
REMARK SMILES IDX 29 46 30 47 31 48 81 49 32 50 86 51 80 52 82 53 33 54 85 55
REMARK SMILES IDX 79 56 78 57 34 59 66 60 46 61 65 62 47 63 50 64 64 65 83 66
REMARK SMILES IDX 48 67 49 68 63 70 84 71 51 72 35 73 36 74 44 75 37 76 39 77
REMARK SMILES IDX 45 78 38 79 40 80 41 81 42 82 43 83 67 84 68 85 76 86 69 87
REMARK SMILES IDX 71 88 77 89 70 90 72 91 73 92 74 93 75 94 52 95 53 96 61 97
REMARK SMILES IDX 54 98 56 99 62 100 55 101 57 102 58 103 59 104 60 105
REMARK H PARENT 16 6 9 17 23 39 82 58 50 69
REMARK Flexibility Score: inf
ROOT
ATOM      1  C   UNL     1      -7.971   3.234  -1.880  1.00  0.00     0.021 C 
ENDROOT
BRANCH   1   2
ATOM      2  C   UNL     1      -8.127   1.747  -1.591  1.00  0.00     0.116 C 
BRANCH   2   3
ATOM      3  N   UNL     1      -7.668   0.912  -2.683  1.00  0.00    -0.356 N 
ATOM      4  C   UNL     1      -6.775  -0.107  -2.759  1.00  0.00     0.224 C 
ATOM      5  O   UNL     1      -6.320  -0.322  -3.891  1.00  0.00    -0.275 OA
ATOM      6  H   UNL     1      -8.090   1.129  -3.545  1.00  0.00     0.163 HD
BRANCH   4   7
ATOM      7  C   UNL     1      -6.255  -0.936  -1.574  1.00  0.00     0.098 C 
ATOM      8  C   UNL     1      -6.245  -2.509  -1.817  1.00  0.00     0.099 C 
ATOM      9  C   UNL     1      -6.940  -3.207  -0.598  1.00  0.00     0.025 C 
ATOM     10  C   UNL     1      -6.772  -0.683  -0.130  1.00  0.00     0.025 C 
ATOM     11  C   UNL     1      -6.099  -2.874   0.613  1.00  0.00    -0.027 C 
ATOM     12  C   UNL     1      -8.348  -2.623  -0.383  1.00  0.00     0.009 C 
ATOM     13  C   UNL     1      -5.986  -1.559   0.835  1.00  0.00    -0.027 C 
ATOM     14  C   UNL     1      -8.243  -1.136  -0.026  1.00  0.00     0.009 C 
BRANCH   8  15
ATOM     15  C   UNL     1      -6.797  -3.122  -3.109  1.00  0.00     0.229 C 
ATOM     16  N   UNL     1      -6.406  -4.376  -3.549  1.00  0.00    -0.317 N 
ATOM     17  H   UNL     1      -6.444  -4.529  -4.521  1.00  0.00     0.170 HD
ATOM     18  O   UNL     1      -7.724  -2.597  -3.736  1.00  0.00    -0.274 OA
BRANCH  16  19
ATOM     19  C   UNL     1      -5.968  -5.441  -2.772  1.00  0.00     0.110 A 
ATOM     20  C   UNL     1      -6.460  -6.750  -2.794  1.00  0.00     0.098 A 
ATOM     21  C   UNL     1      -6.117  -7.371  -1.553  1.00  0.00    -0.017 A 
ATOM     22  S   UNL     1      -4.678  -5.281  -1.653  1.00  0.00    -0.122 S 
ATOM     23  C   UNL     1      -5.266  -6.596  -0.813  1.00  0.00     0.011 A 
ATOM     24  C   UNL     1      -6.457  -8.609  -0.807  1.00  0.00     0.038 C 
ATOM     25  C   UNL     1      -5.010  -7.069   0.562  1.00  0.00     0.047 C 
ATOM     26  C   UNL     1      -6.007  -8.264   0.653  1.00  0.00     0.010 C 
BRANCH  20  27
ATOM     27  C   UNL     1      -7.296  -7.245  -3.879  1.00  0.00     0.341 C 
ATOM     28  O   UNL     1      -7.264  -6.739  -5.000  1.00  0.00    -0.246 OA
BRANCH  27  29
ATOM     29  O   UNL     1      -8.073  -8.308  -3.538  1.00  0.00    -0.459 OA
BRANCH  29  30
ATOM     30  C   UNL     1      -8.817  -8.996  -4.572  1.00  0.00     0.170 C 
ATOM     31  C   UNL     1      -9.752  -8.107  -5.393  1.00  0.00     0.052 C 
ATOM     32  C   UNL     1      -7.871  -9.818  -5.441  1.00  0.00     0.052 C 
ENDBRANCH  29  30
ENDBRANCH  27  29
ENDBRANCH  20  27
ENDBRANCH  16  19
ENDBRANCH   8  15
ENDBRANCH   4   7
ENDBRANCH   2   3
ENDBRANCH   1   2
BRANCH   1  33
ATOM     33  C   UNL     1      -9.041   3.821  -2.796  1.00  0.00     0.002 C 
BRANCH  33  34
ATOM     34  C   UNL     1     -10.503   3.572  -2.395  1.00  0.00     0.002 C 
BRANCH  34  35
ATOM     35  C   UNL     1     -10.904   3.823  -0.933  1.00  0.00     0.021 C 
BRANCH  35  36
ATOM     36  C   UNL     1     -10.674   5.239  -0.427  1.00  0.00     0.116 C 
BRANCH  36  37
ATOM     37  N   UNL     1     -11.432   6.239  -1.181  1.00  0.00    -0.352 N 
ATOM     38  C   UNL     1     -11.310   7.616  -1.156  1.00  0.00     0.251 C 
ATOM     39  H   UNL     1     -12.121   5.884  -1.788  1.00  0.00     0.163 HD
ATOM     40  O   UNL     1     -12.235   8.329  -1.531  1.00  0.00    -0.269 OA
BRANCH  38  41
ATOM     41  C   UNL     1     -10.052   8.213  -0.675  1.00  0.00     0.039 A 
ATOM     42  C   UNL     1     -10.033   9.385   0.084  1.00  0.00     0.014 A 
ATOM     43  C   UNL     1      -8.868   7.551  -0.978  1.00  0.00     0.014 A 
ATOM     44  C   UNL     1      -8.816   9.829   0.596  1.00  0.00     0.010 A 
ATOM     45  C   UNL     1      -7.720   7.864  -0.304  1.00  0.00     0.010 A 
ATOM     46  C   UNL     1      -7.663   9.047   0.414  1.00  0.00    -0.014 A 
BRANCH  46  47
ATOM     47  C   UNL     1      -6.399   9.396   1.050  1.00  0.00     0.031 A 
ATOM     48  C   UNL     1      -6.505   9.632   2.511  1.00  0.00     0.074 A 
ATOM     49  C   UNL     1      -5.206   9.326   0.419  1.00  0.00     0.049 A 
ATOM     50  N   UNL     1      -6.459  10.770   3.119  1.00  0.00    -0.248 NA
ATOM     51  C   UNL     1      -6.886   8.506   3.378  1.00  0.00     0.031 C 
ATOM     52  C   UNL     1      -4.915   8.804  -0.925  1.00  0.00     0.029 A 
ATOM     53  N   UNL     1      -3.962   9.583   0.907  1.00  0.00    -0.354 N 
ATOM     54  C   UNL     1      -6.531  10.467   4.476  1.00  0.00     0.074 A 
ATOM     55  C   UNL     1      -7.030   9.120   4.555  1.00  0.00     0.031 C 
ATOM     56  C   UNL     1      -3.595   8.539  -1.033  1.00  0.00     0.029 A 
ATOM     57  C   UNL     1      -2.927   9.048   0.146  1.00  0.00     0.049 A 
ATOM     58  H   UNL     1      -3.808  10.103   1.729  1.00  0.00     0.167 HD
ATOM     59  C   UNL     1      -5.897  11.245   5.395  1.00  0.00     0.034 A 
ATOM     60  C   UNL     1      -1.615   8.999   0.480  1.00  0.00     0.034 A 
ATOM     61  C   UNL     1      -5.480  12.499   4.812  1.00  0.00     0.049 A 
ATOM     62  C   UNL     1      -1.396  10.038   1.509  1.00  0.00     0.074 A 
ATOM     63  C   UNL     1      -6.114  13.545   4.172  1.00  0.00     0.029 A 
ATOM     64  N   UNL     1      -4.148  12.608   4.491  1.00  0.00    -0.354 N 
ATOM     65  N   UNL     1      -1.505  11.315   1.273  1.00  0.00    -0.248 NA
ATOM     66  C   UNL     1      -1.478   9.648   2.905  1.00  0.00     0.031 C 
ATOM     67  C   UNL     1      -5.213  13.944   3.139  1.00  0.00     0.029 A 
ATOM     68  C   UNL     1      -4.053  13.175   3.250  1.00  0.00     0.049 A 
ATOM     69  H   UNL     1      -3.393  12.326   5.057  1.00  0.00     0.167 HD
ATOM     70  C   UNL     1      -2.141  11.815   2.402  1.00  0.00     0.074 A 
ATOM     71  C   UNL     1      -1.979  10.775   3.417  1.00  0.00     0.031 C 
ATOM     72  C   UNL     1      -2.988  12.883   2.313  1.00  0.00     0.034 A 
BRANCH  59  73
ATOM     73  C   UNL     1      -5.274  10.748   6.685  1.00  0.00     0.023 A 
ATOM     74  C   UNL     1      -4.740  11.728   7.554  1.00  0.00     0.012 A 
ATOM     75  C   UNL     1      -4.927   9.404   6.953  1.00  0.00     0.148 A 
ATOM     76  C   UNL     1      -3.849  11.398   8.580  1.00  0.00     0.002 A 
ATOM     77  C   UNL     1      -4.103   9.072   8.024  1.00  0.00     0.091 A 
ATOM     78  F   UNL     1      -5.274   8.435   6.106  1.00  0.00    -0.205 F 
ATOM     79  C   UNL     1      -3.531  10.068   8.818  1.00  0.00     0.022 A 
BRANCH  77  80
ATOM     80  S   UNL     1      -3.697   7.363   8.405  1.00  0.00     0.127 S 
ATOM     81  O   UNL     1      -2.300   7.295   7.987  1.00  0.00    -0.237 OA
ATOM     82  O   UNL     1      -3.916   7.321   9.851  1.00  0.00    -0.237 OA
ATOM     83  O   UNL     1      -4.635   6.554   7.637  1.00  0.00    -0.744 OA
ENDBRANCH  77  80
ENDBRANCH  59  73
BRANCH  60  84
ATOM     84  C   UNL     1      -0.584   7.985   0.163  1.00  0.00     0.023 A 
ATOM     85  C   UNL     1       0.780   8.319   0.283  1.00  0.00     0.012 A 
ATOM     86  C   UNL     1      -0.930   6.621   0.042  1.00  0.00     0.148 A 
ATOM     87  C   UNL     1       1.765   7.325   0.330  1.00  0.00     0.002 A 
ATOM     88  C   UNL     1       0.053   5.636   0.090  1.00  0.00     0.091 A 
ATOM     89  F   UNL     1      -2.226   6.288  -0.021  1.00  0.00    -0.205 F 
ATOM     90  C   UNL     1       1.401   5.984   0.247  1.00  0.00     0.022 A 
BRANCH  88  91
ATOM     91  S   UNL     1      -0.342   3.882   0.033  1.00  0.00     0.127 S 
ATOM     92  O   UNL     1       0.575   3.400  -0.999  1.00  0.00    -0.237 OA
ATOM     93  O   UNL     1      -0.016   3.455   1.391  1.00  0.00    -0.237 OA
ATOM     94  O   UNL     1      -1.752   3.803  -0.330  1.00  0.00    -0.744 OA
ENDBRANCH  88  91
ENDBRANCH  60  84
BRANCH  72  95
ATOM     95  C   UNL     1      -2.985  13.687   1.036  1.00  0.00     0.023 A 
ATOM     96  C   UNL     1      -3.367  13.147  -0.210  1.00  0.00     0.012 A 
ATOM     97  C   UNL     1      -2.748  15.068   1.131  1.00  0.00     0.148 A 
ATOM     98  C   UNL     1      -3.487  13.964  -1.339  1.00  0.00     0.002 A 
ATOM     99  C   UNL     1      -2.915  15.885   0.020  1.00  0.00     0.091 A 
ATOM    100  F   UNL     1      -2.386  15.567   2.323  1.00  0.00    -0.205 F 
ATOM    101  C   UNL     1      -3.275  15.336  -1.220  1.00  0.00     0.022 A 
BRANCH  99 102
ATOM    102  S   UNL     1      -2.779  17.669   0.143  1.00  0.00     0.127 S 
ATOM    103  O   UNL     1      -1.489  17.922  -0.495  1.00  0.00    -0.237 OA
ATOM    104  O   UNL     1      -3.941  18.127  -0.622  1.00  0.00    -0.237 OA
ATOM    105  O   UNL     1      -2.847  17.979   1.566  1.00  0.00    -0.744 OA
ENDBRANCH  99 102
ENDBRANCH  72  95
ENDBRANCH  46  47
ENDBRANCH  38  41
ENDBRANCH  36  37
ENDBRANCH  35  36
ENDBRANCH  34  35
ENDBRANCH  33  34
ENDBRANCH   1  33
TORSDOF 21
