REMARK SMILES O=C(NCCCCCCNC(=O)[C@H]1C[C@@H]1C(=O)Nc1ccc(Cl)c(Br)c1)c1ccc(-c2c3nc(c(-c4cccc(S(=O)(=O)[O-])c4F)c4ccc([nH]4)c(-c4cccc(S(=O)(=O)[O-])c4F)c4nc(c(-c5cccc(S(=O)(=O)[O-])c5F)c5ccc2[nH]5)C=C4)C=C3)cc1
REMARK SMILES IDX 6 1 5 2 4 3 3 4 1 5 2 6 27 8 28 9 89 10 29 11 88 12 30 13
REMARK SMILES IDX 31 14 32 15 82 16 33 17 87 18 81 19 83 20 34 21 86 22 80 23
REMARK SMILES IDX 79 24 35 26 67 27 47 28 66 29 48 30 51 31 65 32 84 33 49 34
REMARK SMILES IDX 50 35 64 37 85 38 52 39 36 40 37 41 45 42 38 43 40 44 46 45
REMARK SMILES IDX 39 46 41 47 42 48 43 49 44 50 68 51 69 52 77 53 70 54 72 55
REMARK SMILES IDX 78 56 71 57 73 58 74 59 75 60 76 61 53 62 54 63 62 64 55 65
REMARK SMILES IDX 57 66 63 67 56 68 58 69 59 70 60 71 61 72 7 73 8 74 9 75
REMARK SMILES IDX 10 76 11 77 12 79 13 80 14 81 15 82 16 83 17 84 18 85 19 87
REMARK SMILES IDX 20 88 26 89 21 90 24 91 22 92 25 93 23 94
REMARK H PARENT 3 7 83 25 51 36 10 78 18 86
REMARK Flexibility Score: inf
ROOT
ATOM      1  C   UNL     1      12.290  -1.146  -2.445  1.00  0.00     0.002 C 
ENDROOT
BRANCH   1   2
ATOM      2  C   UNL     1      13.711  -1.546  -2.854  1.00  0.00     0.021 C 
BRANCH   2   3
ATOM      3  C   UNL     1      14.775  -0.476  -2.627  1.00  0.00     0.116 C 
BRANCH   3   4
ATOM      4  N   UNL     1      14.931  -0.151  -1.221  1.00  0.00    -0.352 N 
ATOM      5  O   UNL     1      15.995   0.072   0.744  1.00  0.00    -0.269 OA
ATOM      6  C   UNL     1      16.078  -0.032  -0.477  1.00  0.00     0.251 C 
ATOM      7  H   UNL     1      14.093   0.007  -0.730  1.00  0.00     0.163 HD
BRANCH   6   8
ATOM      8  C   UNL     1      17.408  -0.035  -1.130  1.00  0.00     0.039 A 
ATOM      9  C   UNL     1      18.455  -0.723  -0.509  1.00  0.00     0.014 A 
ATOM     10  C   UNL     1      17.649   0.692  -2.301  1.00  0.00     0.014 A 
ATOM     11  C   UNL     1      19.736  -0.695  -1.064  1.00  0.00     0.010 A 
ATOM     12  C   UNL     1      18.915   0.674  -2.885  1.00  0.00     0.010 A 
ATOM     13  C   UNL     1      19.977   0.005  -2.257  1.00  0.00    -0.014 A 
BRANCH  13  14
ATOM     14  C   UNL     1      21.348   0.114  -2.814  1.00  0.00     0.031 A 
ATOM     15  C   UNL     1      22.050   1.446  -2.812  1.00  0.00     0.074 A 
ATOM     16  C   UNL     1      21.953  -0.965  -3.347  1.00  0.00     0.049 A 
ATOM     17  N   UNL     1      23.226   1.758  -3.289  1.00  0.00    -0.248 NA
ATOM     18  C   UNL     1      21.328   2.581  -2.210  1.00  0.00     0.031 C 
ATOM     19  C   UNL     1      21.365  -2.302  -3.446  1.00  0.00     0.029 A 
ATOM     20  N   UNL     1      23.196  -1.104  -3.912  1.00  0.00    -0.354 N 
ATOM     21  C   UNL     1      23.369   3.124  -3.081  1.00  0.00     0.074 A 
ATOM     22  C   UNL     1      22.152   3.589  -2.454  1.00  0.00     0.031 C 
ATOM     23  C   UNL     1      22.255  -3.130  -4.018  1.00  0.00     0.029 A 
ATOM     24  C   UNL     1      23.467  -2.381  -4.343  1.00  0.00     0.049 A 
ATOM     25  H   UNL     1      23.834  -0.359  -4.000  1.00  0.00     0.167 HD
ATOM     26  C   UNL     1      24.432   3.916  -3.352  1.00  0.00     0.034 A 
ATOM     27  C   UNL     1      24.570  -2.893  -4.923  1.00  0.00     0.034 A 
ATOM     28  C   UNL     1      25.672   3.445  -3.900  1.00  0.00     0.049 A 
ATOM     29  C   UNL     1      25.757  -2.002  -5.169  1.00  0.00     0.074 A 
ATOM     30  C   UNL     1      26.829   4.163  -4.146  1.00  0.00     0.029 A 
ATOM     31  N   UNL     1      25.925   2.134  -4.267  1.00  0.00    -0.354 N 
ATOM     32  N   UNL     1      25.906  -0.733  -4.878  1.00  0.00    -0.248 NA
ATOM     33  C   UNL     1      26.935  -2.616  -5.801  1.00  0.00     0.031 C 
ATOM     34  C   UNL     1      27.788   3.281  -4.652  1.00  0.00     0.029 A 
ATOM     35  C   UNL     1      27.223   2.018  -4.728  1.00  0.00     0.049 A 
ATOM     36  H   UNL     1      25.277   1.395  -4.208  1.00  0.00     0.167 HD
ATOM     37  C   UNL     1      27.198  -0.401  -5.268  1.00  0.00     0.074 A 
ATOM     38  C   UNL     1      27.797  -1.605  -5.805  1.00  0.00     0.031 C 
ATOM     39  C   UNL     1      27.823   0.799  -5.205  1.00  0.00     0.034 A 
BRANCH  26  40
ATOM     40  C   UNL     1      24.333   5.368  -2.978  1.00  0.00     0.023 A 
ATOM     41  C   UNL     1      24.527   5.739  -1.633  1.00  0.00     0.012 A 
ATOM     42  C   UNL     1      24.119   6.362  -3.951  1.00  0.00     0.148 A 
ATOM     43  C   UNL     1      24.494   7.080  -1.257  1.00  0.00     0.002 A 
ATOM     44  C   UNL     1      24.114   7.699  -3.573  1.00  0.00     0.091 A 
ATOM     45  F   UNL     1      23.918   5.981  -5.221  1.00  0.00    -0.205 F 
ATOM     46  C   UNL     1      24.297   8.059  -2.227  1.00  0.00     0.022 A 
BRANCH  44  47
ATOM     47  S   UNL     1      23.914   9.043  -4.748  1.00  0.00     0.127 S 
ATOM     48  O   UNL     1      22.601   9.568  -4.374  1.00  0.00    -0.237 OA
ATOM     49  O   UNL     1      25.039   9.915  -4.413  1.00  0.00    -0.237 OA
ATOM     50  O   UNL     1      23.986   8.435  -6.070  1.00  0.00    -0.744 OA
ENDBRANCH  44  47
ENDBRANCH  26  40
BRANCH  27  51
ATOM     51  C   UNL     1      24.632  -4.349  -5.221  1.00  0.00     0.023 A 
ATOM     52  C   UNL     1      25.386  -5.183  -4.373  1.00  0.00     0.012 A 
ATOM     53  C   UNL     1      23.909  -4.918  -6.286  1.00  0.00     0.148 A 
ATOM     54  C   UNL     1      25.427  -6.561  -4.586  1.00  0.00     0.002 A 
ATOM     55  C   UNL     1      23.925  -6.296  -6.471  1.00  0.00     0.091 A 
ATOM     56  F   UNL     1      23.207  -4.101  -7.083  1.00  0.00    -0.205 F 
ATOM     57  C   UNL     1      24.690  -7.118  -5.628  1.00  0.00     0.022 A 
BRANCH  55  58
ATOM     58  S   UNL     1      22.929  -7.118  -7.720  1.00  0.00     0.127 S 
ATOM     59  O   UNL     1      23.952  -7.627  -8.630  1.00  0.00    -0.237 OA
ATOM     60  O   UNL     1      22.242  -8.141  -6.931  1.00  0.00    -0.237 OA
ATOM     61  O   UNL     1      22.054  -6.090  -8.267  1.00  0.00    -0.744 OA
ENDBRANCH  55  58
ENDBRANCH  27  51
BRANCH  39  62
ATOM     62  C   UNL     1      29.232   0.893  -5.717  1.00  0.00     0.023 A 
ATOM     63  C   UNL     1      29.446   1.041  -7.101  1.00  0.00     0.012 A 
ATOM     64  C   UNL     1      30.321   0.977  -4.828  1.00  0.00     0.148 A 
ATOM     65  C   UNL     1      30.729   1.270  -7.595  1.00  0.00     0.002 A 
ATOM     66  C   UNL     1      31.592   1.234  -5.325  1.00  0.00     0.091 A 
ATOM     67  F   UNL     1      30.087   0.823  -3.517  1.00  0.00    -0.205 F 
ATOM     68  C   UNL     1      31.798   1.379  -6.708  1.00  0.00     0.022 A 
BRANCH  66  69
ATOM     69  S   UNL     1      33.021   1.465  -4.261  1.00  0.00     0.127 S 
ATOM     70  O   UNL     1      33.822   0.284  -4.579  1.00  0.00    -0.237 OA
ATOM     71  O   UNL     1      33.573   2.728  -4.754  1.00  0.00    -0.237 OA
ATOM     72  O   UNL     1      32.506   1.518  -2.900  1.00  0.00    -0.744 OA
ENDBRANCH  66  69
ENDBRANCH  39  62
ENDBRANCH  13  14
ENDBRANCH   6   8
ENDBRANCH   3   4
ENDBRANCH   2   3
ENDBRANCH   1   2
BRANCH   1  73
ATOM     73  C   UNL     1      11.744   0.122  -3.111  1.00  0.00     0.002 C 
BRANCH  73  74
ATOM     74  C   UNL     1      11.815   0.141  -4.644  1.00  0.00     0.021 C 
BRANCH  74  75
ATOM     75  C   UNL     1      11.039  -0.989  -5.318  1.00  0.00     0.116 C 
BRANCH  75  76
ATOM     76  N   UNL     1       9.610  -0.793  -5.157  1.00  0.00    -0.356 N 
ATOM     77  C   UNL     1       8.605  -0.438  -6.009  1.00  0.00     0.223 C 
ATOM     78  H   UNL     1       9.300  -0.949  -4.236  1.00  0.00     0.163 HD
ATOM     79  O   UNL     1       7.498  -0.217  -5.517  1.00  0.00    -0.275 OA
BRANCH  77  80
ATOM     80  C   UNL     1       8.716  -0.400  -7.491  1.00  0.00     0.091 C 
ATOM     81  C   UNL     1       9.915  -0.143  -8.345  1.00  0.00     0.028 C 
ATOM     82  C   UNL     1       9.386  -1.559  -8.199  1.00  0.00     0.092 C 
BRANCH  82  83
ATOM     83  C   UNL     1       8.742  -2.260  -9.344  1.00  0.00     0.228 C 
ATOM     84  O   UNL     1       8.898  -1.852 -10.491  1.00  0.00    -0.274 OA
ATOM     85  N   UNL     1       8.149  -3.479  -9.100  1.00  0.00    -0.326 N 
ATOM     86  H   UNL     1       8.109  -4.096  -9.866  1.00  0.00     0.169 HD
BRANCH  85  87
ATOM     87  C   UNL     1       7.596  -3.957  -7.903  1.00  0.00     0.042 A 
ATOM     88  C   UNL     1       6.901  -3.121  -7.031  1.00  0.00     0.028 A 
ATOM     89  C   UNL     1       7.676  -5.320  -7.617  1.00  0.00     0.043 A 
ATOM     90  C   UNL     1       6.363  -3.615  -5.841  1.00  0.00     0.024 A 
ATOM     91  C   UNL     1       7.145  -5.822  -6.419  1.00  0.00     0.038 A 
ATOM     92  C   UNL     1       6.495  -4.965  -5.523  1.00  0.00     0.055 A 
ATOM     93  Br  UNL     1       7.359  -7.679  -6.077  1.00  0.00    -0.049 Br
ATOM     94  Cl  UNL     1       5.817  -5.503  -4.029  1.00  0.00    -0.083 Cl
ENDBRANCH  85  87
ENDBRANCH  82  83
ENDBRANCH  77  80
ENDBRANCH  75  76
ENDBRANCH  74  75
ENDBRANCH  73  74
ENDBRANCH   1  73
TORSDOF 18
