REMARK SMILES C[C@@H]1C(=O)NC(=O)CN1C(=O)NC1(CC(=O)NCCCCCCNC(=O)c2ccc(-c3c4nc(c(-c5cccc(S(=O)(=O)[O-])c5F)c5ccc([nH]5)c(-c5cccc(S(=O)(=O)[O-])c5F)c5nc(c(-c6cccc(S(=O)(=O)[O-])c6F)c6ccc3[nH]6)C=C5)C=C4)cc2)CCC1
REMARK SMILES IDX 20 1 19 2 18 3 17 4 15 5 16 6 14 8 13 9 90 10 92 11 91 12
REMARK SMILES IDX 12 13 10 14 11 15 9 17 1 18 2 19 3 20 4 21 5 22 8 23 6 24
REMARK SMILES IDX 7 26 21 27 22 28 23 29 24 30 25 31 26 33 27 34 28 35 89 36
REMARK SMILES IDX 29 37 88 38 30 39 31 40 32 41 82 42 33 43 87 44 81 45 83 46
REMARK SMILES IDX 34 47 86 48 80 49 79 50 35 52 67 53 47 54 66 55 48 56 51 57
REMARK SMILES IDX 65 58 84 59 49 60 50 61 64 63 85 64 52 65 36 66 37 67 45 68
REMARK SMILES IDX 38 69 40 70 46 71 39 72 41 73 42 74 43 75 44 76 68 77 69 78
REMARK SMILES IDX 77 79 70 80 72 81 78 82 71 83 73 84 74 85 75 86 76 87 53 88
REMARK SMILES IDX 54 89 62 90 55 91 57 92 63 93 56 94 58 95 59 96 60 97 61 98
REMARK H PARENT 17 7 12 16 5 25 24 32 83 51 51 62
REMARK Flexibility Score: inf
ROOT
ATOM      1  C   UNL     1      -1.990   2.335   7.605  1.00  0.00     0.002 C 
ENDROOT
BRANCH   1   2
ATOM      2  C   UNL     1      -1.095   1.305   6.917  1.00  0.00     0.021 C 
BRANCH   2   3
ATOM      3  C   UNL     1      -1.601   0.918   5.537  1.00  0.00     0.116 C 
BRANCH   3   4
ATOM      4  N   UNL     1      -1.361   2.018   4.638  1.00  0.00    -0.356 N 
ATOM      5  C   UNL     1      -0.359   2.094   3.726  1.00  0.00     0.222 C 
ATOM      6  O   UNL     1      -0.005   3.193   3.305  1.00  0.00    -0.275 OA
ATOM      7  H   UNL     1      -1.978   2.783   4.689  1.00  0.00     0.163 HD
BRANCH   5   8
ATOM      8  C   UNL     1       0.166   0.798   3.171  1.00  0.00     0.128 C 
BRANCH   8   9
ATOM      9  C   UNL     1       1.651   0.500   3.333  1.00  0.00     0.051 C 
ATOM     10  C   UNL     1       2.158  -0.959   3.034  1.00  0.00     0.029 C 
ATOM     11  C   UNL     1       2.037   0.166   4.824  1.00  0.00     0.029 C 
ATOM     12  C   UNL     1       1.813  -1.321   4.488  1.00  0.00     0.005 C 
BRANCH   9  13
ATOM     13  N   UNL     1       2.533   1.525   2.738  1.00  0.00    -0.332 N 
ATOM     14  C   UNL     1       2.532   2.264   1.606  1.00  0.00     0.318 C 
ATOM     15  O   UNL     1       3.315   3.220   1.601  1.00  0.00    -0.249 OA
ATOM     16  H   UNL     1       3.314   1.717   3.306  1.00  0.00     0.165 HD
BRANCH  14  17
ATOM     17  N   UNL     1       1.718   2.016   0.538  1.00  0.00    -0.304 N 
ATOM     18  C   UNL     1       1.755   0.141  -1.119  1.00  0.00     0.042 C 
ATOM     19  C   UNL     1       1.105   0.749   0.116  1.00  0.00     0.174 C 
ATOM     20  C   UNL     1      -0.405   0.930  -0.143  1.00  0.00     0.249 C 
ATOM     21  O   UNL     1      -1.177  -0.022  -0.239  1.00  0.00    -0.272 OA
ATOM     22  N   UNL     1      -0.849   2.209  -0.374  1.00  0.00    -0.293 N 
ATOM     23  C   UNL     1       1.429   3.156  -0.331  1.00  0.00     0.222 C 
ATOM     24  C   UNL     1      -0.073   3.332  -0.531  1.00  0.00     0.246 C 
ATOM     25  H   UNL     1      -1.824   2.333  -0.433  1.00  0.00     0.173 HD
ATOM     26  O   UNL     1      -0.566   4.361  -0.992  1.00  0.00    -0.273 OA
ENDBRANCH  14  17
ENDBRANCH   9  13
ENDBRANCH   8   9
ENDBRANCH   5   8
ENDBRANCH   3   4
ENDBRANCH   2   3
ENDBRANCH   1   2
BRANCH   1  27
ATOM     27  C   UNL     1      -3.473   1.952   7.633  1.00  0.00     0.002 C 
BRANCH  27  28
ATOM     28  C   UNL     1      -3.745   0.523   8.110  1.00  0.00     0.021 C 
BRANCH  28  29
ATOM     29  C   UNL     1      -3.079   0.185   9.434  1.00  0.00     0.116 C 
BRANCH  29  30
ATOM     30  N   UNL     1      -3.508   1.099  10.477  1.00  0.00    -0.352 N 
ATOM     31  C   UNL     1      -4.151   0.793  11.646  1.00  0.00     0.251 C 
ATOM     32  H   UNL     1      -3.312   2.052  10.326  1.00  0.00     0.163 HD
ATOM     33  O   UNL     1      -4.711   1.662  12.299  1.00  0.00    -0.269 OA
BRANCH  31  34
ATOM     34  C   UNL     1      -4.151  -0.613  12.088  1.00  0.00     0.039 A 
ATOM     35  C   UNL     1      -5.350  -1.195  12.496  1.00  0.00     0.014 A 
ATOM     36  C   UNL     1      -2.964  -1.355  12.059  1.00  0.00     0.014 A 
ATOM     37  C   UNL     1      -5.362  -2.539  12.859  1.00  0.00     0.010 A 
ATOM     38  C   UNL     1      -2.998  -2.713  12.332  1.00  0.00     0.010 A 
ATOM     39  C   UNL     1      -4.191  -3.311  12.764  1.00  0.00    -0.014 A 
BRANCH  39  40
ATOM     40  C   UNL     1      -4.190  -4.743  13.141  1.00  0.00     0.031 A 
ATOM     41  C   UNL     1      -3.340  -5.216  14.287  1.00  0.00     0.074 A 
ATOM     42  C   UNL     1      -4.904  -5.622  12.412  1.00  0.00     0.049 A 
ATOM     43  N   UNL     1      -3.190  -6.427  14.756  1.00  0.00    -0.248 NA
ATOM     44  C   UNL     1      -2.526  -4.202  14.981  1.00  0.00     0.031 C 
ATOM     45  C   UNL     1      -5.699  -5.289  11.227  1.00  0.00     0.029 A 
ATOM     46  N   UNL     1      -5.059  -6.977  12.547  1.00  0.00    -0.354 N 
ATOM     47  C   UNL     1      -2.245  -6.326  15.769  1.00  0.00     0.074 A 
ATOM     48  C   UNL     1      -1.822  -4.945  15.821  1.00  0.00     0.031 C 
ATOM     49  C   UNL     1      -6.268  -6.408  10.752  1.00  0.00     0.029 A 
ATOM     50  C   UNL     1      -5.854  -7.539  11.577  1.00  0.00     0.049 A 
ATOM     51  H   UNL     1      -4.641  -7.498  13.271  1.00  0.00     0.167 HD
ATOM     52  C   UNL     1      -1.793  -7.291  16.604  1.00  0.00     0.034 A 
ATOM     53  C   UNL     1      -6.204  -8.824  11.373  1.00  0.00     0.034 A 
ATOM     54  C   UNL     1      -2.248  -8.653  16.570  1.00  0.00     0.049 A 
ATOM     55  C   UNL     1      -5.719  -9.870  12.338  1.00  0.00     0.074 A 
ATOM     56  C   UNL     1      -1.926  -9.689  17.428  1.00  0.00     0.029 A 
ATOM     57  N   UNL     1      -3.114  -9.174  15.621  1.00  0.00    -0.354 N 
ATOM     58  N   UNL     1      -4.953  -9.728  13.392  1.00  0.00    -0.248 NA
ATOM     59  C   UNL     1      -6.177 -11.247  12.108  1.00  0.00     0.031 C 
ATOM     60  C   UNL     1      -2.570 -10.845  16.976  1.00  0.00     0.029 A 
ATOM     61  C   UNL     1      -3.325 -10.520  15.860  1.00  0.00     0.049 A 
ATOM     62  H   UNL     1      -3.519  -8.660  14.885  1.00  0.00     0.167 HD
ATOM     63  C   UNL     1      -4.865 -10.988  13.973  1.00  0.00     0.074 A 
ATOM     64  C   UNL     1      -5.675 -11.876  13.162  1.00  0.00     0.031 C 
ATOM     65  C   UNL     1      -4.170 -11.379  15.069  1.00  0.00     0.034 A 
BRANCH  52  66
ATOM     66  C   UNL     1      -0.783  -6.894  17.649  1.00  0.00     0.023 A 
ATOM     67  C   UNL     1      -1.172  -6.065  18.722  1.00  0.00     0.012 A 
ATOM     68  C   UNL     1       0.539  -7.378  17.596  1.00  0.00     0.148 A 
ATOM     69  C   UNL     1      -0.254  -5.690  19.701  1.00  0.00     0.002 A 
ATOM     70  C   UNL     1       1.435  -7.041  18.604  1.00  0.00     0.091 A 
ATOM     71  F   UNL     1       0.898  -8.146  16.558  1.00  0.00    -0.205 F 
ATOM     72  C   UNL     1       1.046  -6.186  19.648  1.00  0.00     0.022 A 
BRANCH  70  73
ATOM     73  S   UNL     1       3.107  -7.694  18.670  1.00  0.00     0.127 S 
ATOM     74  O   UNL     1       3.901  -6.504  18.367  1.00  0.00    -0.237 OA
ATOM     75  O   UNL     1       3.201  -8.154  20.056  1.00  0.00    -0.237 OA
ATOM     76  O   UNL     1       3.165  -8.753  17.672  1.00  0.00    -0.744 OA
ENDBRANCH  70  73
ENDBRANCH  52  66
BRANCH  53  77
ATOM     77  C   UNL     1      -7.106  -9.176  10.241  1.00  0.00     0.023 A 
ATOM     78  C   UNL     1      -8.424  -9.595  10.507  1.00  0.00     0.012 A 
ATOM     79  C   UNL     1      -6.676  -9.064   8.905  1.00  0.00     0.148 A 
ATOM     80  C   UNL     1      -9.287  -9.928   9.463  1.00  0.00     0.002 A 
ATOM     81  C   UNL     1      -7.558  -9.343   7.868  1.00  0.00     0.091 A 
ATOM     82  F   UNL     1      -5.415  -8.669   8.675  1.00  0.00    -0.205 F 
ATOM     83  C   UNL     1      -8.858  -9.793   8.145  1.00  0.00     0.022 A 
BRANCH  81  84
ATOM     84  S   UNL     1      -7.137  -9.069   6.144  1.00  0.00     0.127 S 
ATOM     85  O   UNL     1      -7.081 -10.434   5.629  1.00  0.00    -0.237 OA
ATOM     86  O   UNL     1      -8.277  -8.279   5.678  1.00  0.00    -0.237 OA
ATOM     87  O   UNL     1      -5.872  -8.346   6.157  1.00  0.00    -0.744 OA
ENDBRANCH  81  84
ENDBRANCH  53  77
BRANCH  65  88
ATOM     88  C   UNL     1      -4.279 -12.822  15.487  1.00  0.00     0.023 A 
ATOM     89  C   UNL     1      -3.657 -13.827  14.721  1.00  0.00     0.012 A 
ATOM     90  C   UNL     1      -4.936 -13.170  16.684  1.00  0.00     0.148 A 
ATOM     91  C   UNL     1      -3.718 -15.161  15.121  1.00  0.00     0.002 A 
ATOM     92  C   UNL     1      -4.946 -14.494  17.104  1.00  0.00     0.091 A 
ATOM     93  F   UNL     1      -5.535 -12.200  17.390  1.00  0.00    -0.205 F 
ATOM     94  C   UNL     1      -4.350 -15.493  16.317  1.00  0.00     0.022 A 
BRANCH  92  95
ATOM     95  S   UNL     1      -5.647 -15.000  18.678  1.00  0.00     0.127 S 
ATOM     96  O   UNL     1      -6.841 -15.727  18.252  1.00  0.00    -0.237 OA
ATOM     97  O   UNL     1      -4.586 -15.840  19.233  1.00  0.00    -0.237 OA
ATOM     98  O   UNL     1      -5.897 -13.772  19.421  1.00  0.00    -0.744 OA
ENDBRANCH  92  95
ENDBRANCH  65  88
ENDBRANCH  39  40
ENDBRANCH  31  34
ENDBRANCH  29  30
ENDBRANCH  28  29
ENDBRANCH  27  28
ENDBRANCH   1  27
TORSDOF 19
