REMARK SMILES C[C@@H](C(=O)NCCCCCCNC(=O)c1ccc(-c2c3nc(c(-c4cccc(S(=O)(=O)[O-])c4F)c4ccc([nH]4)c(-c4cccc(S(=O)(=O)[O-])c4F)c4nc(c(-c5cccc(S(=O)(=O)[O-])c5F)c5ccc2[nH]5)C=C4)C=C3)cc1)[C@H]1CCOC2(CCCCC2)C1
REMARK SMILES IDX 9 1 8 2 7 3 6 4 5 5 3 6 4 7 2 9 1 10 78 11 79 12 88 13 80 14
REMARK SMILES IDX 82 15 81 16 83 17 87 18 84 19 86 20 85 21 10 22 11 23 12 24
REMARK SMILES IDX 13 25 14 27 15 28 16 29 77 30 17 31 76 32 18 33 19 34 20 35
REMARK SMILES IDX 70 36 21 37 75 38 69 39 71 40 22 41 74 42 68 43 67 44 23 46
REMARK SMILES IDX 55 47 35 48 54 49 36 50 39 51 53 52 72 53 37 54 38 55 52 57
REMARK SMILES IDX 73 58 40 59 24 60 25 61 33 62 26 63 28 64 34 65 27 66 29 67
REMARK SMILES IDX 30 68 31 69 32 70 56 71 57 72 65 73 58 74 60 75 66 76 59 77
REMARK SMILES IDX 61 78 62 79 63 80 64 81 41 82 42 83 50 84 43 85 45 86 51 87
REMARK SMILES IDX 44 88 46 89 47 90 48 91 49 92
REMARK H PARENT 5 8 12 26 71 45 39 56
REMARK Flexibility Score: inf
ROOT
ATOM      1  C   UNL     1      -0.473   4.006  -7.776  1.00  0.00     0.002 C 
ENDROOT
BRANCH   1   2
ATOM      2  C   UNL     1      -0.799   4.576  -6.392  1.00  0.00     0.002 C 
BRANCH   2   3
ATOM      3  C   UNL     1      -1.880   3.805  -5.620  1.00  0.00     0.021 C 
BRANCH   3   4
ATOM      4  C   UNL     1      -1.541   2.328  -5.399  1.00  0.00     0.116 C 
BRANCH   4   5
ATOM      5  N   UNL     1      -0.387   2.222  -4.531  1.00  0.00    -0.356 N 
ATOM      6  C   UNL     1      -0.327   2.021  -3.188  1.00  0.00     0.223 C 
ATOM      7  O   UNL     1       0.736   2.298  -2.628  1.00  0.00    -0.275 OA
ATOM      8  H   UNL     1       0.484   2.310  -4.981  1.00  0.00     0.163 HD
BRANCH   6   9
ATOM      9  C   UNL     1      -1.531   1.419  -2.445  1.00  0.00     0.078 C 
ATOM     10  C   UNL     1      -2.661   2.438  -2.281  1.00  0.00     0.018 C 
BRANCH   9  11
ATOM     11  C   UNL     1      -1.047   0.798  -1.092  1.00  0.00     0.006 C 
ATOM     12  C   UNL     1      -1.460   1.577   0.165  1.00  0.00     0.033 C 
ATOM     13  C   UNL     1      -1.484  -0.670  -0.942  1.00  0.00     0.040 C 
ATOM     14  C   UNL     1      -0.971   0.891   1.430  1.00  0.00     0.161 C 
ATOM     15  C   UNL     1      -0.960  -1.284   0.377  1.00  0.00     0.069 C 
ATOM     16  O   UNL     1      -1.391  -0.469   1.482  1.00  0.00    -0.375 OA
ATOM     17  C   UNL     1       0.578  -1.462   0.374  1.00  0.00     0.035 C 
ATOM     18  C   UNL     1      -1.601  -2.674   0.583  1.00  0.00     0.035 C 
ATOM     19  C   UNL     1       1.081  -2.104   1.666  1.00  0.00     0.003 C 
ATOM     20  C   UNL     1      -1.107  -3.357   1.861  1.00  0.00     0.003 C 
ATOM     21  C   UNL     1       0.415  -3.453   1.910  1.00  0.00     0.000 C 
ENDBRANCH   9  11
ENDBRANCH   6   9
ENDBRANCH   4   5
ENDBRANCH   3   4
ENDBRANCH   2   3
ENDBRANCH   1   2
BRANCH   1  22
ATOM     22  C   UNL     1      -1.681   3.851  -8.702  1.00  0.00     0.021 C 
BRANCH  22  23
ATOM     23  C   UNL     1      -2.428   5.151  -8.981  1.00  0.00     0.116 C 
BRANCH  23  24
ATOM     24  N   UNL     1      -1.593   6.111  -9.686  1.00  0.00    -0.352 N 
ATOM     25  C   UNL     1      -1.871   6.818 -10.825  1.00  0.00     0.251 C 
ATOM     26  H   UNL     1      -0.707   6.276  -9.289  1.00  0.00     0.163 HD
ATOM     27  O   UNL     1      -0.968   7.428 -11.403  1.00  0.00    -0.269 OA
BRANCH  25  28
ATOM     28  C   UNL     1      -3.246   6.843 -11.364  1.00  0.00     0.039 A 
ATOM     29  C   UNL     1      -3.436   6.719 -12.743  1.00  0.00     0.014 A 
ATOM     30  C   UNL     1      -4.345   7.011 -10.516  1.00  0.00     0.014 A 
ATOM     31  C   UNL     1      -4.730   6.733 -13.267  1.00  0.00     0.010 A 
ATOM     32  C   UNL     1      -5.636   6.946 -11.031  1.00  0.00     0.010 A 
ATOM     33  C   UNL     1      -5.842   6.831 -12.414  1.00  0.00    -0.014 A 
BRANCH  33  34
ATOM     34  C   UNL     1      -7.224   6.842 -12.954  1.00  0.00     0.031 A 
ATOM     35  C   UNL     1      -8.096   8.057 -12.778  1.00  0.00     0.074 A 
ATOM     36  C   UNL     1      -7.719   5.737 -13.545  1.00  0.00     0.049 A 
ATOM     37  N   UNL     1      -9.329   8.251 -13.167  1.00  0.00    -0.248 NA
ATOM     38  C   UNL     1      -7.518   9.194 -12.041  1.00  0.00     0.031 C 
ATOM     39  C   UNL     1      -7.002   4.470 -13.707  1.00  0.00     0.029 A 
ATOM     40  N   UNL     1      -8.949   5.495 -14.103  1.00  0.00    -0.354 N 
ATOM     41  C   UNL     1      -9.687   9.506 -12.689  1.00  0.00     0.074 A 
ATOM     42  C   UNL     1      -8.553  10.015 -11.950  1.00  0.00     0.031 C 
ATOM     43  C   UNL     1      -7.797   3.592 -14.338  1.00  0.00     0.029 A 
ATOM     44  C   UNL     1      -9.087   4.221 -14.603  1.00  0.00     0.049 A 
ATOM     45  H   UNL     1      -9.665   6.169 -14.143  1.00  0.00     0.167 HD
ATOM     46  C   UNL     1     -10.843  10.188 -12.871  1.00  0.00     0.034 A 
ATOM     47  C   UNL     1     -10.134   3.630 -15.212  1.00  0.00     0.034 A 
ATOM     48  C   UNL     1     -11.947   9.701 -13.653  1.00  0.00     0.049 A 
ATOM     49  C   UNL     1     -11.387   4.430 -15.450  1.00  0.00     0.074 A 
ATOM     50  C   UNL     1     -13.118  10.355 -13.989  1.00  0.00     0.029 A 
ATOM     51  N   UNL     1     -12.019   8.435 -14.215  1.00  0.00    -0.354 N 
ATOM     52  N   UNL     1     -11.642   5.678 -15.140  1.00  0.00    -0.248 NA
ATOM     53  C   UNL     1     -12.481   3.751 -16.159  1.00  0.00     0.031 C 
ATOM     54  C   UNL     1     -13.912   9.474 -14.732  1.00  0.00     0.029 A 
ATOM     55  C   UNL     1     -13.221   8.283 -14.885  1.00  0.00     0.049 A 
ATOM     56  H   UNL     1     -11.319   7.747 -14.148  1.00  0.00     0.167 HD
ATOM     57  C   UNL     1     -12.905   5.948 -15.654  1.00  0.00     0.074 A 
ATOM     58  C   UNL     1     -13.355   4.737 -16.310  1.00  0.00     0.031 C 
ATOM     59  C   UNL     1     -13.632   7.090 -15.581  1.00  0.00     0.034 A 
BRANCH  46  60
ATOM     60  C   UNL     1     -10.954  11.558 -12.252  1.00  0.00     0.023 A 
ATOM     61  C   UNL     1     -10.191  12.625 -12.768  1.00  0.00     0.012 A 
ATOM     62  C   UNL     1     -11.848  11.801 -11.190  1.00  0.00     0.148 A 
ATOM     63  C   UNL     1     -10.283  13.900 -12.213  1.00  0.00     0.002 A 
ATOM     64  C   UNL     1     -11.970  13.086 -10.673  1.00  0.00     0.091 A 
ATOM     65  F   UNL     1     -12.550  10.771 -10.695  1.00  0.00    -0.205 F 
ATOM     66  C   UNL     1     -11.179  14.133 -11.174  1.00  0.00     0.022 A 
BRANCH  64  67
ATOM     67  S   UNL     1     -13.156  13.502  -9.390  1.00  0.00     0.127 S 
ATOM     68  O   UNL     1     -12.284  13.693  -8.232  1.00  0.00    -0.237 OA
ATOM     69  O   UNL     1     -13.754  14.732  -9.911  1.00  0.00    -0.237 OA
ATOM     70  O   UNL     1     -14.070  12.372  -9.308  1.00  0.00    -0.744 OA
ENDBRANCH  64  67
ENDBRANCH  46  60
BRANCH  47  71
ATOM     71  C   UNL     1     -10.010   2.235 -15.721  1.00  0.00     0.023 A 
ATOM     72  C   UNL     1      -9.963   2.012 -17.111  1.00  0.00     0.012 A 
ATOM     73  C   UNL     1      -9.915   1.136 -14.846  1.00  0.00     0.148 A 
ATOM     74  C   UNL     1      -9.858   0.719 -17.622  1.00  0.00     0.002 A 
ATOM     75  C   UNL     1      -9.756  -0.146 -15.361  1.00  0.00     0.091 A 
ATOM     76  F   UNL     1      -9.970   1.367 -13.527  1.00  0.00    -0.205 F 
ATOM     77  C   UNL     1      -9.745  -0.359 -16.749  1.00  0.00     0.022 A 
BRANCH  75  78
ATOM     78  S   UNL     1      -9.475  -1.578 -14.314  1.00  0.00     0.127 S 
ATOM     79  O   UNL     1     -10.727  -2.314 -14.471  1.00  0.00    -0.237 OA
ATOM     80  O   UNL     1      -8.312  -2.196 -14.953  1.00  0.00    -0.237 OA
ATOM     81  O   UNL     1      -9.216  -1.047 -12.982  1.00  0.00    -0.744 OA
ENDBRANCH  75  78
ENDBRANCH  47  71
BRANCH  59  82
ATOM     82  C   UNL     1     -14.975   7.110 -16.265  1.00  0.00     0.023 A 
ATOM     83  C   UNL     1     -16.051   6.380 -15.724  1.00  0.00     0.012 A 
ATOM     84  C   UNL     1     -15.185   7.908 -17.407  1.00  0.00     0.148 A 
ATOM     85  C   UNL     1     -17.306   6.414 -16.331  1.00  0.00     0.002 A 
ATOM     86  C   UNL     1     -16.451   7.978 -17.975  1.00  0.00     0.091 A 
ATOM     87  F   UNL     1     -14.143   8.580 -17.919  1.00  0.00    -0.205 F 
ATOM     88  C   UNL     1     -17.509   7.222 -17.448  1.00  0.00     0.022 A 
BRANCH  86  89
ATOM     89  S   UNL     1     -16.824   9.071 -19.352  1.00  0.00     0.127 S 
ATOM     90  O   UNL     1     -16.920   8.127 -20.464  1.00  0.00    -0.237 OA
ATOM     91  O   UNL     1     -18.098   9.663 -18.943  1.00  0.00    -0.237 OA
ATOM     92  O   UNL     1     -15.717  10.015 -19.423  1.00  0.00    -0.744 OA
ENDBRANCH  86  89
ENDBRANCH  59  82
ENDBRANCH  33  34
ENDBRANCH  25  28
ENDBRANCH  23  24
ENDBRANCH  22  23
ENDBRANCH   1  22
TORSDOF 17
