REMARK SMILES CCCC[C@@H](C(=O)NCCCCCCNC(=O)c1ccc(-c2c3nc(c(-c4cccc(S(=O)(=O)[O-])c4F)c4ccc([nH]4)c(-c4cccc(S(=O)(=O)[O-])c4F)c4nc(c(-c5cccc(S(=O)(=O)[O-])c5F)c5ccc2[nH]5)C=C4)C=C3)cc1)[C@]1(O)CCC[C@H](C(C)(C)C)CC1
REMARK SMILES IDX 10 1 9 2 8 3 6 4 7 5 5 7 4 8 3 9 2 10 1 11 81 12 82 13 83 15
REMARK SMILES IDX 84 16 85 17 86 18 87 20 88 21 89 22 90 23 92 24 91 25 11 27
REMARK SMILES IDX 12 28 13 29 14 30 15 31 16 32 17 34 18 35 19 36 80 37 20 38
REMARK SMILES IDX 79 39 21 40 22 41 23 42 73 43 24 44 78 45 72 46 74 47 25 48
REMARK SMILES IDX 77 49 71 50 70 51 26 53 58 54 38 55 57 56 39 57 42 58 56 59
REMARK SMILES IDX 75 60 40 61 41 62 55 64 76 65 43 66 27 67 28 68 36 69 29 70
REMARK SMILES IDX 31 71 37 72 30 73 32 74 33 75 34 76 35 77 59 78 60 79 68 80
REMARK SMILES IDX 61 81 63 82 69 83 62 84 64 85 65 86 66 87 67 88 44 89 45 90
REMARK SMILES IDX 53 91 46 92 48 93 54 94 47 95 49 96 50 97 51 98 52 99
REMARK H PARENT 8 6 82 14 15 33 74 52 42 63
REMARK Flexibility Score: 90.00
ROOT
ATOM      1  C   UNL     1       0.716  -0.227  -4.719  1.00  0.00     0.021 C 
ENDROOT
BRANCH   1   2
ATOM      2  C   UNL     1      -0.507  -0.630  -3.897  1.00  0.00     0.116 C 
BRANCH   2   3
ATOM      3  N   UNL     1      -0.702  -2.059  -4.027  1.00  0.00    -0.356 N 
ATOM      4  C   UNL     1      -0.381  -3.041  -3.136  1.00  0.00     0.226 C 
ATOM      5  O   UNL     1      -0.046  -4.130  -3.602  1.00  0.00    -0.275 OA
ATOM      6  H   UNL     1      -1.119  -2.360  -4.866  1.00  0.00     0.163 HD
BRANCH   4   7
ATOM      7  C   UNL     1      -0.513  -2.777  -1.635  1.00  0.00     0.110 C 
BRANCH   7   8
ATOM      8  C   UNL     1       0.897  -2.757  -0.983  1.00  0.00     0.016 C 
BRANCH   8   9
ATOM      9  C   UNL     1       1.759  -1.526  -1.323  1.00  0.00     0.001 C 
BRANCH   9  10
ATOM     10  C   UNL     1       1.282  -0.201  -0.709  1.00  0.00    -0.003 C 
ATOM     11  C   UNL     1       1.634  -0.053   0.761  1.00  0.00     0.004 C 
ENDBRANCH   9  10
ENDBRANCH   8   9
ENDBRANCH   7   8
BRANCH   7  12
ATOM     12  C   UNL     1      -1.554  -3.761  -0.937  1.00  0.00     0.076 C 
BRANCH  12  13
ATOM     13  O   UNL     1      -0.842  -4.478   0.104  1.00  0.00    -0.389 OA
ATOM     14  H   UNL     1      -0.123  -4.995  -0.293  1.00  0.00     0.211 HD
ENDBRANCH  12  13
BRANCH  12  15
ATOM     15  C   UNL     1      -2.196  -4.879  -1.790  1.00  0.00     0.036 C 
BRANCH  15  16
ATOM     16  C   UNL     1      -3.211  -4.492  -2.863  1.00  0.00     0.003 C 
BRANCH  16  17
ATOM     17  C   UNL     1      -4.526  -3.930  -2.327  1.00  0.00     0.004 C 
BRANCH  17  18
ATOM     18  C   UNL     1      -4.567  -2.429  -1.968  1.00  0.00    -0.006 CG0
ATOM     19  G   UNL     1      -3.459  -1.950  -1.004  1.00  0.00     0.000 G0
BRANCH  18  20
ATOM     20  C   UNL     1      -4.876  -1.432  -3.183  1.00  0.00    -0.035 C 
ATOM     21  C   UNL     1      -6.410  -1.282  -3.318  1.00  0.00     0.011 C 
ATOM     22  C   UNL     1      -4.323  -0.004  -2.966  1.00  0.00     0.011 C 
ATOM     23  C   UNL     1      -4.358  -1.917  -4.551  1.00  0.00     0.011 C 
ENDBRANCH  18  20
ENDBRANCH  17  18
ENDBRANCH  16  17
ENDBRANCH  15  16
ENDBRANCH  12  15
BRANCH  12  24
ATOM     24  C   UNL     1      -2.669  -2.978  -0.190  1.00  0.00     0.036 C 
BRANCH  24  25
ATOM     25  C   UNL     1      -3.459  -1.950  -1.004  1.00  0.00     0.007 CG0
ATOM     26  G   UNL     1      -4.567  -2.429  -1.968  1.00  0.00     0.000 G0
ENDBRANCH  24  25
ENDBRANCH  12  24
ENDBRANCH   7  12
ENDBRANCH   4   7
ENDBRANCH   2   3
ENDBRANCH   1   2
BRANCH   1  27
ATOM     27  C   UNL     1       0.340   0.117  -6.162  1.00  0.00     0.002 C 
BRANCH  27  28
ATOM     28  C   UNL     1      -0.422   1.440  -6.303  1.00  0.00     0.002 C 
BRANCH  28  29
ATOM     29  C   UNL     1       0.295   2.657  -5.712  1.00  0.00     0.021 C 
BRANCH  29  30
ATOM     30  C   UNL     1       1.727   2.838  -6.202  1.00  0.00     0.116 C 
BRANCH  30  31
ATOM     31  N   UNL     1       1.780   2.969  -7.649  1.00  0.00    -0.352 N 
ATOM     32  C   UNL     1       2.353   3.963  -8.400  1.00  0.00     0.251 C 
ATOM     33  H   UNL     1       1.347   2.247  -8.159  1.00  0.00     0.163 HD
ATOM     34  O   UNL     1       2.101   4.056  -9.596  1.00  0.00    -0.269 OA
BRANCH  32  35
ATOM     35  C   UNL     1       3.273   4.917  -7.750  1.00  0.00     0.039 A 
ATOM     36  C   UNL     1       3.163   6.276  -8.046  1.00  0.00     0.014 A 
ATOM     37  C   UNL     1       4.254   4.460  -6.864  1.00  0.00     0.014 A 
ATOM     38  C   UNL     1       4.027   7.184  -7.434  1.00  0.00     0.010 A 
ATOM     39  C   UNL     1       5.059   5.373  -6.195  1.00  0.00     0.010 A 
ATOM     40  C   UNL     1       4.974   6.740  -6.496  1.00  0.00    -0.014 A 
BRANCH  40  41
ATOM     41  C   UNL     1       5.922   7.685  -5.856  1.00  0.00     0.031 A 
ATOM     42  C   UNL     1       7.400   7.543  -6.107  1.00  0.00     0.074 A 
ATOM     43  C   UNL     1       5.462   8.623  -5.006  1.00  0.00     0.049 A 
ATOM     44  N   UNL     1       8.392   8.234  -5.608  1.00  0.00    -0.248 NA
ATOM     45  C   UNL     1       7.823   6.463  -7.016  1.00  0.00     0.031 C 
ATOM     46  C   UNL     1       4.059   8.812  -4.631  1.00  0.00     0.029 A 
ATOM     47  N   UNL     1       6.129   9.582  -4.288  1.00  0.00    -0.354 N 
ATOM     48  C   UNL     1       9.550   7.654  -6.113  1.00  0.00     0.074 A 
ATOM     49  C   UNL     1       9.143   6.527  -6.921  1.00  0.00     0.031 C 
ATOM     50  C   UNL     1       3.970   9.830  -3.760  1.00  0.00     0.029 A 
ATOM     51  C   UNL     1       5.308  10.347  -3.493  1.00  0.00     0.049 A 
ATOM     52  H   UNL     1       7.104   9.711  -4.337  1.00  0.00     0.167 HD
ATOM     53  C   UNL     1      10.835   8.045  -5.950  1.00  0.00     0.034 A 
ATOM     54  C   UNL     1       5.604  11.351  -2.645  1.00  0.00     0.034 A 
ATOM     55  C   UNL     1      11.230   9.195  -5.184  1.00  0.00     0.049 A 
ATOM     56  C   UNL     1       7.039  11.790  -2.513  1.00  0.00     0.074 A 
ATOM     57  C   UNL     1      12.498   9.720  -5.010  1.00  0.00     0.029 A 
ATOM     58  N   UNL     1      10.360   9.999  -4.464  1.00  0.00    -0.354 N 
ATOM     59  N   UNL     1       8.106  11.317  -3.109  1.00  0.00    -0.248 NA
ATOM     60  C   UNL     1       7.304  12.930  -1.623  1.00  0.00     0.031 C 
ATOM     61  C   UNL     1      12.396  10.832  -4.168  1.00  0.00     0.029 A 
ATOM     62  C   UNL     1      11.062  11.018  -3.845  1.00  0.00     0.049 A 
ATOM     63  H   UNL     1       9.387   9.865  -4.402  1.00  0.00     0.167 HD
ATOM     64  C   UNL     1       9.160  12.130  -2.707  1.00  0.00     0.074 A 
ATOM     65  C   UNL     1       8.598  13.135  -1.827  1.00  0.00     0.031 C 
ATOM     66  C   UNL     1      10.475  12.047  -3.026  1.00  0.00     0.034 A 
BRANCH  53  67
ATOM     67  C   UNL     1      11.904   7.257  -6.663  1.00  0.00     0.023 A 
ATOM     68  C   UNL     1      12.004   7.333  -8.068  1.00  0.00     0.012 A 
ATOM     69  C   UNL     1      12.840   6.487  -5.946  1.00  0.00     0.148 A 
ATOM     70  C   UNL     1      12.994   6.628  -8.751  1.00  0.00     0.002 A 
ATOM     71  C   UNL     1      13.854   5.825  -6.630  1.00  0.00     0.091 A 
ATOM     72  F   UNL     1      12.719   6.409  -4.613  1.00  0.00    -0.205 F 
ATOM     73  C   UNL     1      13.924   5.883  -8.032  1.00  0.00     0.022 A 
BRANCH  71  74
ATOM     74  S   UNL     1      15.152   4.907  -5.793  1.00  0.00     0.127 S 
ATOM     75  O   UNL     1      14.831   3.531  -6.172  1.00  0.00    -0.237 OA
ATOM     76  O   UNL     1      16.360   5.446  -6.418  1.00  0.00    -0.237 OA
ATOM     77  O   UNL     1      15.011   5.211  -4.376  1.00  0.00    -0.744 OA
ENDBRANCH  71  74
ENDBRANCH  53  67
BRANCH  54  78
ATOM     78  C   UNL     1       4.518  12.061  -1.911  1.00  0.00     0.023 A 
ATOM     79  C   UNL     1       4.215  13.395  -2.247  1.00  0.00     0.012 A 
ATOM     80  C   UNL     1       3.780  11.425  -0.894  1.00  0.00     0.148 A 
ATOM     81  C   UNL     1       3.228  14.098  -1.555  1.00  0.00     0.002 A 
ATOM     82  C   UNL     1       2.760  12.113  -0.247  1.00  0.00     0.091 A 
ATOM     83  F   UNL     1       4.088  10.159  -0.583  1.00  0.00    -0.205 F 
ATOM     84  C   UNL     1       2.495  13.455  -0.561  1.00  0.00     0.022 A 
BRANCH  82  85
ATOM     85  S   UNL     1       1.682  11.326   0.955  1.00  0.00     0.127 S 
ATOM     86  O   UNL     1       2.128  11.939   2.204  1.00  0.00    -0.237 OA
ATOM     87  O   UNL     1       0.358  11.750   0.498  1.00  0.00    -0.237 OA
ATOM     88  O   UNL     1       1.929   9.896   0.827  1.00  0.00    -0.744 OA
ENDBRANCH  82  85
ENDBRANCH  54  78
BRANCH  66  89
ATOM     89  C   UNL     1      11.396  13.105  -2.478  1.00  0.00     0.023 A 
ATOM     90  C   UNL     1      11.728  13.113  -1.109  1.00  0.00     0.012 A 
ATOM     91  C   UNL     1      11.989  14.048  -3.341  1.00  0.00     0.148 A 
ATOM     92  C   UNL     1      12.610  14.066  -0.601  1.00  0.00     0.002 A 
ATOM     93  C   UNL     1      12.907  14.960  -2.837  1.00  0.00     0.091 A 
ATOM     94  F   UNL     1      11.645  14.036  -4.637  1.00  0.00    -0.205 F 
ATOM     95  C   UNL     1      13.208  14.980  -1.465  1.00  0.00     0.022 A 
BRANCH  93  96
ATOM     96  S   UNL     1      13.802  16.105  -3.893  1.00  0.00     0.127 S 
ATOM     97  O   UNL     1      13.160  17.377  -3.564  1.00  0.00    -0.237 OA
ATOM     98  O   UNL     1      15.175  15.971  -3.403  1.00  0.00    -0.237 OA
ATOM     99  O   UNL     1      13.600  15.636  -5.256  1.00  0.00    -0.744 OA
ENDBRANCH  93  96
ENDBRANCH  66  89
ENDBRANCH  40  41
ENDBRANCH  32  35
ENDBRANCH  30  31
ENDBRANCH  29  30
ENDBRANCH  28  29
ENDBRANCH  27  28
ENDBRANCH   1  27
TORSDOF 22
