REMARK SMILES CC[C@@H](Oc1ccccc1/C=C1/SC(=O)N(c2ccc(C)c(C)c2)C1=O)C(=O)NCCCCCCNC(=O)c1ccc(-c2c3nc(c(-c4cccc(S(=O)(=O)[O-])c4F)c4ccc([nH]4)c(-c4cccc(S(=O)(=O)[O-])c4F)c4nc(c(-c5cccc(S(=O)(=O)[O-])c5F)c5ccc2[nH]5)C=C4)C=C3)cc1
REMARK SMILES IDX 32 1 31 2 30 3 29 4 27 5 28 6 3 8 2 9 1 10 4 11 5 12 6 13
REMARK SMILES IDX 10 14 7 15 9 16 8 17 11 18 12 19 13 20 25 21 14 22 16 23
REMARK SMILES IDX 26 24 15 25 17 26 18 27 24 28 19 29 22 30 20 31 23 32 21 33
REMARK SMILES IDX 33 34 34 35 35 36 36 37 37 38 38 40 39 41 40 42 101 43 41 44
REMARK SMILES IDX 100 45 42 46 43 47 44 48 94 49 45 50 99 51 93 52 95 53 46 54
REMARK SMILES IDX 98 55 92 56 91 57 47 59 79 60 59 61 78 62 60 63 63 64 77 65
REMARK SMILES IDX 96 66 61 67 62 68 76 70 97 71 64 72 48 73 49 74 57 75 50 76
REMARK SMILES IDX 52 77 58 78 51 79 53 80 54 81 55 82 56 83 80 84 81 85 89 86
REMARK SMILES IDX 82 87 84 88 90 89 83 90 85 91 86 92 87 93 88 94 65 95 66 96
REMARK SMILES IDX 74 97 67 98 69 99 75 100 68 101 70 102 71 103 72 104 73 105
REMARK H PARENT 29 7 36 39 95 58 63 69
REMARK Flexibility Score: inf
ROOT
ATOM      1  C   UNL     1      -3.057   2.809  -4.228  1.00  0.00     0.002 C 
ENDROOT
BRANCH   1   2
ATOM      2  C   UNL     1      -2.124   2.071  -3.242  1.00  0.00     0.021 C 
BRANCH   2   3
ATOM      3  C   UNL     1      -1.462   0.769  -3.717  1.00  0.00     0.116 C 
BRANCH   3   4
ATOM      4  N   UNL     1      -0.118   0.902  -4.253  1.00  0.00    -0.353 N 
ATOM      5  C   UNL     1       1.041   0.269  -3.871  1.00  0.00     0.261 C 
ATOM      6  O   UNL     1       1.959   0.237  -4.700  1.00  0.00    -0.271 OA
ATOM      7  H   UNL     1      -0.024   1.537  -4.999  1.00  0.00     0.163 HD
BRANCH   5   8
ATOM      8  C   UNL     1       1.284  -0.246  -2.421  1.00  0.00     0.261 C 
BRANCH   8   9
ATOM      9  C   UNL     1       1.322   1.003  -1.519  1.00  0.00     0.052 C 
ATOM     10  C   UNL     1       2.414   0.945  -0.457  1.00  0.00     0.008 C 
ENDBRANCH   8   9
BRANCH   8  11
ATOM     11  O   UNL     1       0.300  -1.191  -1.986  1.00  0.00    -0.480 OA
BRANCH  11  12
ATOM     12  C   UNL     1       0.737  -2.116  -1.059  1.00  0.00     0.127 A 
ATOM     13  C   UNL     1       1.186  -3.359  -1.509  1.00  0.00     0.047 A 
ATOM     14  C   UNL     1       0.477  -1.941   0.318  1.00  0.00     0.018 A 
ATOM     15  C   UNL     1       1.419  -4.395  -0.594  1.00  0.00     0.004 A 
ATOM     16  C   UNL     1       0.769  -2.962   1.232  1.00  0.00     0.012 A 
ATOM     17  C   UNL     1       1.230  -4.192   0.773  1.00  0.00     0.001 A 
BRANCH  14  18
ATOM     18  C   UNL     1      -0.263  -0.785   0.825  1.00  0.00     0.033 C 
ATOM     19  C   UNL     1      -1.543  -0.580   0.493  1.00  0.00     0.084 C 
ATOM     20  S   UNL     1      -2.407   0.853   0.885  1.00  0.00    -0.022 SA
ATOM     21  C   UNL     1      -2.393  -1.485  -0.340  1.00  0.00     0.272 C 
ATOM     22  C   UNL     1      -3.739   0.426  -0.185  1.00  0.00     0.298 C 
ATOM     23  N   UNL     1      -3.499  -0.794  -0.770  1.00  0.00    -0.236 N 
ATOM     24  O   UNL     1      -2.162  -2.668  -0.540  1.00  0.00    -0.268 OA
ATOM     25  O   UNL     1      -4.674   1.194  -0.364  1.00  0.00    -0.260 OA
BRANCH  23  26
ATOM     26  C   UNL     1      -4.437  -1.412  -1.617  1.00  0.00     0.053 A 
ATOM     27  C   UNL     1      -5.585  -1.967  -1.073  1.00  0.00     0.027 A 
ATOM     28  C   UNL     1      -4.246  -1.429  -3.005  1.00  0.00     0.030 A 
ATOM     29  C   UNL     1      -6.580  -2.444  -1.919  1.00  0.00     0.006 A 
ATOM     30  C   UNL     1      -5.270  -1.841  -3.873  1.00  0.00    -0.046 A 
ATOM     31  C   UNL     1      -6.468  -2.318  -3.315  1.00  0.00    -0.048 A 
ATOM     32  C   UNL     1      -5.104  -1.654  -5.360  1.00  0.00     0.044 C 
ATOM     33  C   UNL     1      -7.645  -2.723  -4.155  1.00  0.00     0.044 C 
ENDBRANCH  23  26
ENDBRANCH  14  18
ENDBRANCH  11  12
ENDBRANCH   8  11
ENDBRANCH   5   8
ENDBRANCH   3   4
ENDBRANCH   2   3
ENDBRANCH   1   2
BRANCH   1  34
ATOM     34  C   UNL     1      -4.335   2.101  -4.723  1.00  0.00     0.002 C 
BRANCH  34  35
ATOM     35  C   UNL     1      -5.316   1.595  -3.661  1.00  0.00     0.021 C 
BRANCH  35  36
ATOM     36  C   UNL     1      -6.316   2.575  -3.058  1.00  0.00     0.116 C 
BRANCH  36  37
ATOM     37  N   UNL     1      -7.450   2.807  -3.946  1.00  0.00    -0.352 N 
ATOM     38  C   UNL     1      -8.752   2.361  -3.939  1.00  0.00     0.251 C 
ATOM     39  H   UNL     1      -7.242   3.402  -4.702  1.00  0.00     0.163 HD
ATOM     40  O   UNL     1      -9.398   2.510  -4.981  1.00  0.00    -0.269 OA
BRANCH  38  41
ATOM     41  C   UNL     1      -9.430   1.737  -2.762  1.00  0.00     0.039 A 
ATOM     42  C   UNL     1     -10.579   0.961  -2.997  1.00  0.00     0.014 A 
ATOM     43  C   UNL     1      -9.070   1.986  -1.438  1.00  0.00     0.014 A 
ATOM     44  C   UNL     1     -11.345   0.458  -1.933  1.00  0.00     0.010 A 
ATOM     45  C   UNL     1      -9.772   1.396  -0.379  1.00  0.00     0.010 A 
ATOM     46  C   UNL     1     -10.946   0.665  -0.606  1.00  0.00    -0.014 A 
BRANCH  46  47
ATOM     47  C   UNL     1     -11.773   0.191   0.546  1.00  0.00     0.031 A 
ATOM     48  C   UNL     1     -12.324   1.180   1.551  1.00  0.00     0.074 A 
ATOM     49  C   UNL     1     -11.992  -1.127   0.731  1.00  0.00     0.049 A 
ATOM     50  N   UNL     1     -13.030   0.959   2.632  1.00  0.00    -0.248 NA
ATOM     51  C   UNL     1     -12.017   2.602   1.327  1.00  0.00     0.031 C 
ATOM     52  C   UNL     1     -11.473  -2.198  -0.123  1.00  0.00     0.029 A 
ATOM     53  N   UNL     1     -12.693  -1.794   1.707  1.00  0.00    -0.354 N 
ATOM     54  C   UNL     1     -13.201   2.200   3.240  1.00  0.00     0.074 A 
ATOM     55  C   UNL     1     -12.498   3.165   2.426  1.00  0.00     0.031 C 
ATOM     56  C   UNL     1     -11.890  -3.382   0.354  1.00  0.00     0.029 A 
ATOM     57  C   UNL     1     -12.672  -3.163   1.567  1.00  0.00     0.049 A 
ATOM     58  H   UNL     1     -13.166  -1.335   2.438  1.00  0.00     0.167 HD
ATOM     59  C   UNL     1     -13.900   2.518   4.358  1.00  0.00     0.034 A 
ATOM     60  C   UNL     1     -13.217  -4.133   2.328  1.00  0.00     0.034 A 
ATOM     61  C   UNL     1     -14.645   1.568   5.139  1.00  0.00     0.049 A 
ATOM     62  C   UNL     1     -14.020  -3.752   3.544  1.00  0.00     0.074 A 
ATOM     63  C   UNL     1     -15.466   1.803   6.229  1.00  0.00     0.029 A 
ATOM     64  N   UNL     1     -14.650   0.199   4.924  1.00  0.00    -0.354 N 
ATOM     65  N   UNL     1     -14.293  -2.559   4.014  1.00  0.00    -0.248 NA
ATOM     66  C   UNL     1     -14.620  -4.851   4.314  1.00  0.00     0.031 C 
ATOM     67  C   UNL     1     -15.934   0.571   6.698  1.00  0.00     0.029 A 
ATOM     68  C   UNL     1     -15.444  -0.427   5.871  1.00  0.00     0.049 A 
ATOM     69  H   UNL     1     -14.161  -0.262   4.204  1.00  0.00     0.167 HD
ATOM     70  C   UNL     1     -15.132  -2.761   5.104  1.00  0.00     0.074 A 
ATOM     71  C   UNL     1     -15.335  -4.191   5.214  1.00  0.00     0.031 C 
ATOM     72  C   UNL     1     -15.679  -1.847   5.943  1.00  0.00     0.034 A 
BRANCH  59  73
ATOM     73  C   UNL     1     -13.919   3.966   4.789  1.00  0.00     0.023 A 
ATOM     74  C   UNL     1     -14.599   4.927   4.011  1.00  0.00     0.012 A 
ATOM     75  C   UNL     1     -13.304   4.369   5.992  1.00  0.00     0.148 A 
ATOM     76  C   UNL     1     -14.622   6.268   4.393  1.00  0.00     0.002 A 
ATOM     77  C   UNL     1     -13.377   5.699   6.394  1.00  0.00     0.091 A 
ATOM     78  F   UNL     1     -12.650   3.450   6.716  1.00  0.00    -0.205 F 
ATOM     79  C   UNL     1     -14.020   6.652   5.587  1.00  0.00     0.022 A 
BRANCH  77  80
ATOM     80  S   UNL     1     -12.710   6.278   7.958  1.00  0.00     0.127 S 
ATOM     81  O   UNL     1     -11.567   7.075   7.515  1.00  0.00    -0.237 OA
ATOM     82  O   UNL     1     -13.824   7.059   8.497  1.00  0.00    -0.237 OA
ATOM     83  O   UNL     1     -12.380   5.083   8.722  1.00  0.00    -0.744 OA
ENDBRANCH  77  80
ENDBRANCH  59  73
BRANCH  60  84
ATOM     84  C   UNL     1     -13.085  -5.564   1.925  1.00  0.00     0.023 A 
ATOM     85  C   UNL     1     -14.224  -6.265   1.480  1.00  0.00     0.012 A 
ATOM     86  C   UNL     1     -11.843  -6.227   1.962  1.00  0.00     0.148 A 
ATOM     87  C   UNL     1     -14.136  -7.608   1.113  1.00  0.00     0.002 A 
ATOM     88  C   UNL     1     -11.752  -7.548   1.540  1.00  0.00     0.091 A 
ATOM     89  F   UNL     1     -10.774  -5.546   2.397  1.00  0.00    -0.205 F 
ATOM     90  C   UNL     1     -12.899  -8.247   1.133  1.00  0.00     0.022 A 
BRANCH  88  91
ATOM     91  S   UNL     1     -10.183  -8.414   1.411  1.00  0.00     0.127 S 
ATOM     92  O   UNL     1     -10.314  -9.428   2.454  1.00  0.00    -0.237 OA
ATOM     93  O   UNL     1     -10.238  -8.927   0.041  1.00  0.00    -0.237 OA
ATOM     94  O   UNL     1      -9.157  -7.405   1.636  1.00  0.00    -0.744 OA
ENDBRANCH  88  91
ENDBRANCH  60  84
BRANCH  72  95
ATOM     95  C   UNL     1     -16.598  -2.351   7.026  1.00  0.00     0.023 A 
ATOM     96  C   UNL     1     -16.080  -3.079   8.116  1.00  0.00     0.012 A 
ATOM     97  C   UNL     1     -17.974  -2.047   6.991  1.00  0.00     0.148 A 
ATOM     98  C   UNL     1     -16.924  -3.533   9.130  1.00  0.00     0.002 A 
ATOM     99  C   UNL     1     -18.798  -2.453   8.033  1.00  0.00     0.091 A 
ATOM    100  F   UNL     1     -18.452  -1.368   5.938  1.00  0.00    -0.205 F 
ATOM    101  C   UNL     1     -18.279  -3.210   9.094  1.00  0.00     0.022 A 
BRANCH  99 102
ATOM    102  S   UNL     1     -20.532  -1.994   8.123  1.00  0.00     0.127 S 
ATOM    103  O   UNL     1     -21.192  -3.268   7.843  1.00  0.00    -0.237 OA
ATOM    104  O   UNL     1     -20.659  -1.533   9.505  1.00  0.00    -0.237 OA
ATOM    105  O   UNL     1     -20.727  -0.956   7.119  1.00  0.00    -0.744 OA
ENDBRANCH  99 102
ENDBRANCH  72  95
ENDBRANCH  46  47
ENDBRANCH  38  41
ENDBRANCH  36  37
ENDBRANCH  35  36
ENDBRANCH  34  35
ENDBRANCH   1  34
TORSDOF 21
