REMARK SMILES O=C(CCCC[C@@H]1CCSS1)NCCCCCCNC(=O)c1ccc(-c2c3nc(c(-c4cccc(S(=O)(=O)[O-])c4F)c4ccc([nH]4)c(-c4cccc(S(=O)(=O)[O-])c4F)c4nc(c(-c5cccc(S(=O)(=O)[O-])c5F)c5ccc2[nH]5)C=C4)C=C3)cc1
REMARK SMILES IDX 15 1 14 2 13 3 12 4 1 5 2 6 3 8 4 9 5 10 6 11 7 12 8 13
REMARK SMILES IDX 11 14 9 15 10 16 16 17 17 18 18 19 19 20 20 21 21 23 22 24
REMARK SMILES IDX 23 25 84 26 24 27 83 28 25 29 26 30 27 31 77 32 28 33 82 34
REMARK SMILES IDX 76 35 78 36 29 37 81 38 75 39 74 40 30 42 62 43 42 44 61 45
REMARK SMILES IDX 43 46 46 47 60 48 79 49 44 50 45 51 59 53 80 54 47 55 31 56
REMARK SMILES IDX 32 57 40 58 33 59 35 60 41 61 34 62 36 63 37 64 38 65 39 66
REMARK SMILES IDX 63 67 64 68 72 69 65 70 67 71 73 72 66 73 68 74 69 75 70 76
REMARK SMILES IDX 71 77 48 78 49 79 57 80 50 81 52 82 58 83 51 84 53 85 54 86
REMARK SMILES IDX 55 87 56 88
REMARK H PARENT 12 7 19 22 78 41 46 52
REMARK Flexibility Score: inf
ROOT
ATOM      1  C   UNL     1       4.155   1.657   3.356  1.00  0.00     0.002 C 
ENDROOT
BRANCH   1   2
ATOM      2  C   UNL     1       2.646   1.393   3.230  1.00  0.00     0.021 C 
BRANCH   2   3
ATOM      3  C   UNL     1       2.078   1.539   1.818  1.00  0.00     0.116 C 
BRANCH   3   4
ATOM      4  N   UNL     1       2.723   0.617   0.906  1.00  0.00    -0.356 N 
ATOM      5  O   UNL     1       0.874   0.053  -0.335  1.00  0.00    -0.275 OA
ATOM      6  C   UNL     1       2.072  -0.047  -0.102  1.00  0.00     0.219 C 
ATOM      7  H   UNL     1       3.688   0.457   1.017  1.00  0.00     0.163 HD
BRANCH   6   8
ATOM      8  C   UNL     1       2.975  -0.972  -0.899  1.00  0.00     0.100 C 
BRANCH   8   9
ATOM      9  C   UNL     1       3.893  -0.252  -1.888  1.00  0.00     0.010 C 
BRANCH   9  10
ATOM     10  C   UNL     1       5.057   0.553  -1.299  1.00  0.00     0.002 C 
BRANCH  10  11
ATOM     11  C   UNL     1       6.013  -0.206  -0.366  1.00  0.00     0.015 C 
BRANCH  11  12
ATOM     12  C   UNL     1       6.838  -1.291  -1.078  1.00  0.00     0.059 C 
ATOM     13  C   UNL     1       6.459  -2.710  -0.630  1.00  0.00     0.027 C 
ATOM     14  S   UNL     1       8.616  -1.100  -0.693  1.00  0.00    -0.091 SA
ATOM     15  C   UNL     1       7.487  -3.716  -1.133  1.00  0.00     0.083 C 
ATOM     16  S   UNL     1       9.106  -3.087  -0.637  1.00  0.00    -0.094 SA
ENDBRANCH  11  12
ENDBRANCH  10  11
ENDBRANCH   9  10
ENDBRANCH   8   9
ENDBRANCH   6   8
ENDBRANCH   3   4
ENDBRANCH   2   3
ENDBRANCH   1   2
BRANCH   1  17
ATOM     17  C   UNL     1       4.614   3.057   2.939  1.00  0.00     0.002 C 
BRANCH  17  18
ATOM     18  C   UNL     1       3.966   4.209   3.711  1.00  0.00     0.021 C 
BRANCH  18  19
ATOM     19  C   UNL     1       4.119   4.141   5.228  1.00  0.00     0.116 C 
BRANCH  19  20
ATOM     20  N   UNL     1       5.509   4.191   5.655  1.00  0.00    -0.352 N 
ATOM     21  C   UNL     1       6.098   4.966   6.622  1.00  0.00     0.251 C 
ATOM     22  H   UNL     1       6.116   3.578   5.180  1.00  0.00     0.163 HD
ATOM     23  O   UNL     1       7.325   4.974   6.729  1.00  0.00    -0.269 OA
BRANCH  21  24
ATOM     24  C   UNL     1       5.273   5.809   7.517  1.00  0.00     0.039 A 
ATOM     25  C   UNL     1       5.700   7.111   7.793  1.00  0.00     0.014 A 
ATOM     26  C   UNL     1       4.093   5.326   8.090  1.00  0.00     0.014 A 
ATOM     27  C   UNL     1       4.914   7.944   8.592  1.00  0.00     0.010 A 
ATOM     28  C   UNL     1       3.274   6.183   8.825  1.00  0.00     0.010 A 
ATOM     29  C   UNL     1       3.675   7.500   9.087  1.00  0.00    -0.014 A 
BRANCH  29  30
ATOM     30  C   UNL     1       2.786   8.424   9.839  1.00  0.00     0.031 A 
ATOM     31  C   UNL     1       2.418   8.156  11.274  1.00  0.00     0.074 A 
ATOM     32  C   UNL     1       2.255   9.488   9.203  1.00  0.00     0.049 A 
ATOM     33  N   UNL     1       1.691   8.880  12.086  1.00  0.00    -0.248 NA
ATOM     34  C   UNL     1       2.907   6.902  11.868  1.00  0.00     0.031 C 
ATOM     35  C   UNL     1       2.456   9.812   7.788  1.00  0.00     0.029 A 
ATOM     36  N   UNL     1       1.430  10.487   9.656  1.00  0.00    -0.354 N 
ATOM     37  C   UNL     1       1.607   8.159  13.271  1.00  0.00     0.074 A 
ATOM     38  C   UNL     1       2.331   6.923  13.061  1.00  0.00     0.031 C 
ATOM     39  C   UNL     1       1.799  10.945   7.498  1.00  0.00     0.029 A 
ATOM     40  C   UNL     1       1.106  11.414   8.693  1.00  0.00     0.049 A 
ATOM     41  H   UNL     1       1.100  10.534  10.583  1.00  0.00     0.167 HD
ATOM     42  C   UNL     1       1.005   8.502  14.436  1.00  0.00     0.034 A 
ATOM     43  C   UNL     1       0.344  12.523   8.764  1.00  0.00     0.034 A 
ATOM     44  C   UNL     1       0.313   9.746  14.652  1.00  0.00     0.049 A 
ATOM     45  C   UNL     1      -0.275  12.903  10.081  1.00  0.00     0.074 A 
ATOM     46  C   UNL     1      -0.235  10.233  15.826  1.00  0.00     0.029 A 
ATOM     47  N   UNL     1       0.053  10.690  13.671  1.00  0.00    -0.354 N 
ATOM     48  N   UNL     1      -0.184  12.301  11.242  1.00  0.00    -0.248 NA
ATOM     49  C   UNL     1      -1.070  14.139  10.104  1.00  0.00     0.031 C 
ATOM     50  C   UNL     1      -0.861  11.454  15.544  1.00  0.00     0.029 A 
ATOM     51  C   UNL     1      -0.669  11.746  14.204  1.00  0.00     0.049 A 
ATOM     52  H   UNL     1       0.340  10.620  12.731  1.00  0.00     0.167 HD
ATOM     53  C   UNL     1      -0.883  13.099  12.140  1.00  0.00     0.074 A 
ATOM     54  C   UNL     1      -1.365  14.243  11.393  1.00  0.00     0.031 C 
ATOM     55  C   UNL     1      -1.119  12.896  13.461  1.00  0.00     0.034 A 
BRANCH  42  56
ATOM     56  C   UNL     1       1.097   7.528  15.585  1.00  0.00     0.023 A 
ATOM     57  C   UNL     1       2.337   7.312  16.224  1.00  0.00     0.012 A 
ATOM     58  C   UNL     1      -0.049   6.863  16.064  1.00  0.00     0.148 A 
ATOM     59  C   UNL     1       2.442   6.420  17.290  1.00  0.00     0.002 A 
ATOM     60  C   UNL     1       0.056   6.012  17.159  1.00  0.00     0.091 A 
ATOM     61  F   UNL     1      -1.215   7.062  15.434  1.00  0.00    -0.205 F 
ATOM     62  C   UNL     1       1.301   5.779  17.764  1.00  0.00     0.022 A 
BRANCH  60  63
ATOM     63  S   UNL     1      -1.370   5.204  17.895  1.00  0.00     0.127 S 
ATOM     64  O   UNL     1      -1.167   3.816  17.483  1.00  0.00    -0.237 OA
ATOM     65  O   UNL     1      -1.162   5.452  19.323  1.00  0.00    -0.237 OA
ATOM     66  O   UNL     1      -2.540   5.861  17.330  1.00  0.00    -0.744 OA
ENDBRANCH  60  63
ENDBRANCH  42  56
BRANCH  43  67
ATOM     67  C   UNL     1       0.194  13.399   7.568  1.00  0.00     0.023 A 
ATOM     68  C   UNL     1       0.807  14.667   7.561  1.00  0.00     0.012 A 
ATOM     69  C   UNL     1      -0.523  12.976   6.432  1.00  0.00     0.148 A 
ATOM     70  C   UNL     1       0.685  15.511   6.457  1.00  0.00     0.002 A 
ATOM     71  C   UNL     1      -0.593  13.798   5.314  1.00  0.00     0.091 A 
ATOM     72  F   UNL     1      -1.106  11.769   6.463  1.00  0.00    -0.205 F 
ATOM     73  C   UNL     1      -0.006  15.073   5.330  1.00  0.00     0.022 A 
BRANCH  71  74
ATOM     74  S   UNL     1      -1.347  13.268   3.772  1.00  0.00     0.127 S 
ATOM     75  O   UNL     1      -2.514  14.143   3.693  1.00  0.00    -0.237 OA
ATOM     76  O   UNL     1      -0.289  13.562   2.805  1.00  0.00    -0.237 OA
ATOM     77  O   UNL     1      -1.633  11.849   3.939  1.00  0.00    -0.744 OA
ENDBRANCH  71  74
ENDBRANCH  43  67
BRANCH  55  78
ATOM     78  C   UNL     1      -1.919  13.946  14.190  1.00  0.00     0.023 A 
ATOM     79  C   UNL     1      -3.292  14.104  13.911  1.00  0.00     0.012 A 
ATOM     80  C   UNL     1      -1.321  14.754  15.177  1.00  0.00     0.148 A 
ATOM     81  C   UNL     1      -4.043  15.082  14.563  1.00  0.00     0.002 A 
ATOM     82  C   UNL     1      -2.088  15.690  15.862  1.00  0.00     0.091 A 
ATOM     83  F   UNL     1      -0.010  14.605  15.420  1.00  0.00    -0.205 F 
ATOM     84  C   UNL     1      -3.444  15.867  15.544  1.00  0.00     0.022 A 
BRANCH  82  85
ATOM     85  S   UNL     1      -1.424  16.675  17.210  1.00  0.00     0.127 S 
ATOM     86  O   UNL     1      -1.283  17.986  16.580  1.00  0.00    -0.237 OA
ATOM     87  O   UNL     1      -2.488  16.591  18.211  1.00  0.00    -0.237 OA
ATOM     88  O   UNL     1      -0.178  16.029  17.601  1.00  0.00    -0.744 OA
ENDBRANCH  82  85
ENDBRANCH  55  78
ENDBRANCH  29  30
ENDBRANCH  21  24
ENDBRANCH  19  20
ENDBRANCH  18  19
ENDBRANCH  17  18
ENDBRANCH   1  17
TORSDOF 20
