REMARK SMILES Cc1ccc(C)c(Oc2cccc(F)c2C(=O)NCCCCCCNC(=O)c2ccc(-c3c4nc(c(-c5cccc(S(=O)(=O)[O-])c5F)c5ccc([nH]5)c(-c5cccc(S(=O)(=O)[O-])c5F)c5nc(c(-c6cccc(S(=O)(=O)[O-])c6F)c6ccc3[nH]6)C=C5)C=C4)cc2)c1
REMARK SMILES IDX 22 1 21 2 20 3 19 4 18 5 16 6 17 7 15 9 9 10 10 11 11 12
REMARK SMILES IDX 13 13 12 14 14 15 8 16 7 17 1 18 2 19 3 20 91 21 4 22 5 23
REMARK SMILES IDX 6 24 23 25 24 26 25 27 26 28 27 30 28 31 29 32 90 33 30 34
REMARK SMILES IDX 89 35 31 36 32 37 33 38 83 39 34 40 88 41 82 42 84 43 35 44
REMARK SMILES IDX 87 45 81 46 80 47 36 49 68 50 48 51 67 52 49 53 52 54 66 55
REMARK SMILES IDX 85 56 50 57 51 58 65 60 86 61 53 62 37 63 38 64 46 65 39 66
REMARK SMILES IDX 41 67 47 68 40 69 42 70 43 71 44 72 45 73 69 74 70 75 78 76
REMARK SMILES IDX 71 77 73 78 79 79 72 80 74 81 75 82 76 83 77 84 54 85 55 86
REMARK SMILES IDX 63 87 56 88 58 89 64 90 57 91 59 92 60 93 61 94 62 95
REMARK H PARENT 18 8 25 29 84 48 52 59
REMARK Flexibility Score: inf
ROOT
ATOM      1  C   UNL     1      -2.211   7.094   6.161  1.00  0.00     0.002 C 
ENDROOT
BRANCH   1   2
ATOM      2  C   UNL     1      -3.165   7.270   4.974  1.00  0.00     0.002 C 
BRANCH   2   3
ATOM      3  C   UNL     1      -2.607   7.557   3.577  1.00  0.00     0.021 C 
BRANCH   3   4
ATOM      4  C   UNL     1      -1.495   6.658   3.039  1.00  0.00     0.116 C 
BRANCH   4   5
ATOM      5  N   UNL     1      -1.770   5.231   3.064  1.00  0.00    -0.352 N 
ATOM      6  C   UNL     1      -1.278   4.208   2.273  1.00  0.00     0.258 C 
ATOM      7  O   UNL     1      -1.557   3.058   2.621  1.00  0.00    -0.269 OA
ATOM      8  H   UNL     1      -2.411   4.946   3.755  1.00  0.00     0.163 HD
BRANCH   6   9
ATOM      9  C   UNL     1      -0.483   4.447   1.033  1.00  0.00     0.118 A 
ATOM     10  C   UNL     1      -0.650   3.625  -0.096  1.00  0.00     0.143 A 
ATOM     11  C   UNL     1      -0.067   3.963  -1.329  1.00  0.00     0.048 A 
ATOM     12  C   UNL     1       0.796   5.049  -1.418  1.00  0.00     0.007 A 
ATOM     13  C   UNL     1       0.479   5.454   0.941  1.00  0.00     0.139 A 
ATOM     14  C   UNL     1       1.101   5.770  -0.269  1.00  0.00     0.040 A 
ATOM     15  F   UNL     1       0.901   6.111   2.033  1.00  0.00    -0.206 F 
BRANCH  10  16
ATOM     16  O   UNL     1      -1.370   2.450  -0.031  1.00  0.00    -0.456 OA
BRANCH  16  17
ATOM     17  C   UNL     1      -0.656   1.256  -0.011  1.00  0.00     0.130 A 
ATOM     18  C   UNL     1       2.911  -0.122   0.071  1.00  0.00     0.044 C 
ATOM     19  C   UNL     1       1.412  -0.058   0.039  1.00  0.00    -0.047 A 
ATOM     20  C   UNL     1       0.658  -1.231   0.010  1.00  0.00     0.004 A 
ATOM     21  C   UNL     1       0.748   1.177   0.041  1.00  0.00     0.050 A 
ATOM     22  C   UNL     1      -0.736  -1.168  -0.019  1.00  0.00     0.007 A 
ATOM     23  C   UNL     1      -1.406   0.068  -0.030  1.00  0.00    -0.008 A 
ATOM     24  C   UNL     1      -2.909   0.063  -0.045  1.00  0.00     0.048 C 
ENDBRANCH  16  17
ENDBRANCH  10  16
ENDBRANCH   6   9
ENDBRANCH   4   5
ENDBRANCH   3   4
ENDBRANCH   2   3
ENDBRANCH   1   2
BRANCH   1  25
ATOM     25  C   UNL     1      -1.087   8.101   6.441  1.00  0.00     0.021 C 
BRANCH  25  26
ATOM     26  C   UNL     1      -1.433   9.576   6.632  1.00  0.00     0.116 C 
BRANCH  26  27
ATOM     27  N   UNL     1      -2.459   9.841   7.653  1.00  0.00    -0.352 N 
ATOM     28  C   UNL     1      -3.476  10.789   7.768  1.00  0.00     0.251 C 
ATOM     29  H   UNL     1      -2.419   9.219   8.415  1.00  0.00     0.163 HD
ATOM     30  O   UNL     1      -3.967  11.004   8.861  1.00  0.00    -0.269 OA
BRANCH  28  31
ATOM     31  C   UNL     1      -3.975  11.533   6.583  1.00  0.00     0.039 A 
ATOM     32  C   UNL     1      -4.904  12.577   6.634  1.00  0.00     0.014 A 
ATOM     33  C   UNL     1      -3.558  11.124   5.341  1.00  0.00     0.014 A 
ATOM     34  C   UNL     1      -5.436  13.047   5.423  1.00  0.00     0.010 A 
ATOM     35  C   UNL     1      -3.663  11.937   4.266  1.00  0.00     0.010 A 
ATOM     36  C   UNL     1      -4.835  12.639   4.229  1.00  0.00    -0.014 A 
BRANCH  36  37
ATOM     37  C   UNL     1      -5.340  12.885   2.891  1.00  0.00     0.031 A 
ATOM     38  C   UNL     1      -4.992  14.216   2.372  1.00  0.00     0.074 A 
ATOM     39  C   UNL     1      -5.718  11.901   2.040  1.00  0.00     0.049 A 
ATOM     40  N   UNL     1      -5.775  15.234   2.271  1.00  0.00    -0.248 NA
ATOM     41  C   UNL     1      -3.575  14.505   2.108  1.00  0.00     0.031 C 
ATOM     42  C   UNL     1      -5.652  10.444   2.228  1.00  0.00     0.029 A 
ATOM     43  N   UNL     1      -6.093  12.015   0.734  1.00  0.00    -0.354 N 
ATOM     44  C   UNL     1      -4.990  16.222   1.693  1.00  0.00     0.074 A 
ATOM     45  C   UNL     1      -3.624  15.821   1.898  1.00  0.00     0.031 C 
ATOM     46  C   UNL     1      -5.751   9.831   1.024  1.00  0.00     0.029 A 
ATOM     47  C   UNL     1      -6.014  10.832   0.006  1.00  0.00     0.049 A 
ATOM     48  H   UNL     1      -6.396  12.864   0.339  1.00  0.00     0.167 HD
ATOM     49  C   UNL     1      -5.518  17.128   0.827  1.00  0.00     0.034 A 
ATOM     50  C   UNL     1      -6.077  10.723  -1.346  1.00  0.00     0.034 A 
ATOM     51  C   UNL     1      -6.960  17.044   0.793  1.00  0.00     0.049 A 
ATOM     52  C   UNL     1      -6.715  11.966  -1.855  1.00  0.00     0.074 A 
ATOM     53  C   UNL     1      -7.963  17.085   1.741  1.00  0.00     0.029 A 
ATOM     54  N   UNL     1      -7.523  16.467  -0.323  1.00  0.00    -0.354 N 
ATOM     55  N   UNL     1      -7.951  12.306  -1.609  1.00  0.00    -0.248 NA
ATOM     56  C   UNL     1      -5.848  13.049  -2.294  1.00  0.00     0.031 C 
ATOM     57  C   UNL     1      -8.907  16.104   1.319  1.00  0.00     0.029 A 
ATOM     58  C   UNL     1      -8.459  15.566   0.110  1.00  0.00     0.049 A 
ATOM     59  H   UNL     1      -7.294  16.665  -1.260  1.00  0.00     0.167 HD
ATOM     60  C   UNL     1      -7.903  13.683  -1.419  1.00  0.00     0.074 A 
ATOM     61  C   UNL     1      -6.615  14.094  -1.974  1.00  0.00     0.031 C 
ATOM     62  C   UNL     1      -8.761  14.316  -0.562  1.00  0.00     0.034 A 
BRANCH  49  63
ATOM     63  C   UNL     1      -4.752  17.850  -0.254  1.00  0.00     0.023 A 
ATOM     64  C   UNL     1      -5.423  18.912  -0.899  1.00  0.00     0.012 A 
ATOM     65  C   UNL     1      -3.533  17.423  -0.828  1.00  0.00     0.148 A 
ATOM     66  C   UNL     1      -4.933  19.485  -2.075  1.00  0.00     0.002 A 
ATOM     67  C   UNL     1      -2.999  18.065  -1.939  1.00  0.00     0.091 A 
ATOM     68  F   UNL     1      -2.938  16.303  -0.409  1.00  0.00    -0.205 F 
ATOM     69  C   UNL     1      -3.711  19.073  -2.588  1.00  0.00     0.022 A 
BRANCH  67  70
ATOM     70  S   UNL     1      -1.381  17.615  -2.579  1.00  0.00     0.127 S 
ATOM     71  O   UNL     1      -1.738  16.746  -3.695  1.00  0.00    -0.237 OA
ATOM     72  O   UNL     1      -0.830  18.917  -2.956  1.00  0.00    -0.237 OA
ATOM     73  O   UNL     1      -0.693  16.983  -1.459  1.00  0.00    -0.744 OA
ENDBRANCH  67  70
ENDBRANCH  49  63
BRANCH  50  74
ATOM     74  C   UNL     1      -5.395   9.757  -2.248  1.00  0.00     0.023 A 
ATOM     75  C   UNL     1      -5.838   9.613  -3.579  1.00  0.00     0.012 A 
ATOM     76  C   UNL     1      -4.157   9.170  -1.901  1.00  0.00     0.148 A 
ATOM     77  C   UNL     1      -5.063   8.940  -4.534  1.00  0.00     0.002 A 
ATOM     78  C   UNL     1      -3.397   8.486  -2.848  1.00  0.00     0.091 A 
ATOM     79  F   UNL     1      -3.667   9.364  -0.669  1.00  0.00    -0.205 F 
ATOM     80  C   UNL     1      -3.841   8.380  -4.170  1.00  0.00     0.022 A 
BRANCH  78  81
ATOM     81  S   UNL     1      -1.816   7.739  -2.424  1.00  0.00     0.127 S 
ATOM     82  O   UNL     1      -1.845   6.490  -3.185  1.00  0.00    -0.237 OA
ATOM     83  O   UNL     1      -0.862   8.728  -2.916  1.00  0.00    -0.237 OA
ATOM     84  O   UNL     1      -1.849   7.557  -0.976  1.00  0.00    -0.744 OA
ENDBRANCH  78  81
ENDBRANCH  50  74
BRANCH  62  85
ATOM     85  C   UNL     1      -9.950  13.556  -0.018  1.00  0.00     0.023 A 
ATOM     86  C   UNL     1      -9.798  12.389   0.759  1.00  0.00     0.012 A 
ATOM     87  C   UNL     1     -11.220  14.158  -0.088  1.00  0.00     0.148 A 
ATOM     88  C   UNL     1     -10.883  11.832   1.441  1.00  0.00     0.002 A 
ATOM     89  C   UNL     1     -12.285  13.633   0.635  1.00  0.00     0.091 A 
ATOM     90  F   UNL     1     -11.356  15.268  -0.831  1.00  0.00    -0.205 F 
ATOM     91  C   UNL     1     -12.123  12.464   1.395  1.00  0.00     0.022 A 
BRANCH  89  92
ATOM     92  S   UNL     1     -13.863  14.484   0.743  1.00  0.00     0.127 S 
ATOM     93  O   UNL     1     -14.709  13.670  -0.126  1.00  0.00    -0.237 OA
ATOM     94  O   UNL     1     -14.178  14.385   2.170  1.00  0.00    -0.237 OA
ATOM     95  O   UNL     1     -13.616  15.845   0.283  1.00  0.00    -0.744 OA
ENDBRANCH  89  92
ENDBRANCH  62  85
ENDBRANCH  36  37
ENDBRANCH  28  31
ENDBRANCH  26  27
ENDBRANCH  25  26
ENDBRANCH   1  25
TORSDOF 18
