REMARK SMILES CC(C)n1c(CCC(=O)NCCCCCCNC(=O)c2ccc(-c3c4nc(c(-c5cccc(S(=O)(=O)[O-])c5F)c5ccc([nH]5)c(-c5cccc(S(=O)(=O)[O-])c5F)c5nc(c(-c6cccc(S(=O)(=O)[O-])c6F)c6ccc3[nH]6)C=C5)C=C4)cc2)ccc1-c1ccc(F)cc1
REMARK SMILES IDX 13 1 12 2 11 3 10 4 8 5 9 6 7 8 6 9 5 10 4 11 85 12 83 13
REMARK SMILES IDX 84 14 2 15 1 16 3 17 86 18 87 19 92 20 88 21 91 22 89 23
REMARK SMILES IDX 90 24 14 25 15 26 16 27 17 28 18 29 19 31 20 32 21 33 82 34
REMARK SMILES IDX 22 35 81 36 23 37 24 38 25 39 75 40 26 41 80 42 74 43 76 44
REMARK SMILES IDX 27 45 79 46 73 47 72 48 28 50 60 51 40 52 59 53 41 54 44 55
REMARK SMILES IDX 58 56 77 57 42 58 43 59 57 61 78 62 45 63 29 64 30 65 38 66
REMARK SMILES IDX 31 67 33 68 39 69 32 70 34 71 35 72 36 73 37 74 61 75 62 76
REMARK SMILES IDX 70 77 63 78 65 79 71 80 64 81 66 82 67 83 68 84 69 85 46 86
REMARK SMILES IDX 47 87 55 88 48 89 50 90 56 91 49 92 51 93 52 94 53 95 54 96
REMARK H PARENT 10 7 17 30 76 49 44 60
REMARK Flexibility Score: inf
ROOT
ATOM      1  C   UNL     1       0.024   3.796  -2.176  1.00  0.00     0.002 C 
ENDROOT
BRANCH   1   2
ATOM      2  C   UNL     1      -1.000   2.675  -1.944  1.00  0.00     0.021 C 
BRANCH   2   3
ATOM      3  C   UNL     1      -0.791   1.427  -2.808  1.00  0.00     0.116 C 
BRANCH   3   4
ATOM      4  N   UNL     1       0.325   0.599  -2.382  1.00  0.00    -0.356 N 
ATOM      5  C   UNL     1       0.338  -0.561  -1.664  1.00  0.00     0.220 C 
ATOM      6  O   UNL     1       1.429  -1.096  -1.446  1.00  0.00    -0.275 OA
ATOM      7  H   UNL     1       1.212   0.927  -2.655  1.00  0.00     0.163 HD
BRANCH   5   8
ATOM      8  C   UNL     1      -0.947  -1.194  -1.176  1.00  0.00     0.106 C 
BRANCH   8   9
ATOM      9  C   UNL     1      -1.070  -1.198   0.346  1.00  0.00     0.064 C 
BRANCH   9  10
ATOM     10  C   UNL     1      -1.435   0.137   0.933  1.00  0.00     0.019 A 
ATOM     11  N   UNL     1      -0.601   1.071   1.546  1.00  0.00    -0.342 N 
ATOM     12  C   UNL     1      -1.371   2.196   1.888  1.00  0.00     0.048 A 
ATOM     13  C   UNL     1      -2.728   0.635   1.002  1.00  0.00     0.024 A 
ATOM     14  C   UNL     1      -2.689   1.906   1.602  1.00  0.00     0.029 A 
BRANCH  11  15
ATOM     15  C   UNL     1       0.835   0.998   1.858  1.00  0.00     0.081 C 
ATOM     16  C   UNL     1       1.417  -0.385   2.150  1.00  0.00     0.031 C 
ATOM     17  C   UNL     1       1.716   1.713   0.829  1.00  0.00     0.031 C 
ENDBRANCH  11  15
BRANCH  12  18
ATOM     18  C   UNL     1      -0.821   3.478   2.340  1.00  0.00    -0.002 A 
ATOM     19  C   UNL     1      -0.743   3.848   3.680  1.00  0.00     0.013 A 
ATOM     20  C   UNL     1      -0.354   4.373   1.372  1.00  0.00     0.013 A 
ATOM     21  C   UNL     1      -0.142   5.066   4.033  1.00  0.00     0.040 A 
ATOM     22  C   UNL     1       0.276   5.566   1.710  1.00  0.00     0.040 A 
ATOM     23  C   UNL     1       0.383   5.900   3.049  1.00  0.00     0.123 A 
ATOM     24  F   UNL     1       0.939   7.072   3.382  1.00  0.00    -0.207 F 
ENDBRANCH  12  18
ENDBRANCH   9  10
ENDBRANCH   8   9
ENDBRANCH   5   8
ENDBRANCH   3   4
ENDBRANCH   2   3
ENDBRANCH   1   2
BRANCH   1  25
ATOM     25  C   UNL     1      -0.461   5.261  -2.365  1.00  0.00     0.002 C 
BRANCH  25  26
ATOM     26  C   UNL     1      -1.932   5.698  -2.163  1.00  0.00     0.021 C 
BRANCH  26  27
ATOM     27  C   UNL     1      -2.337   6.372  -0.828  1.00  0.00     0.116 C 
BRANCH  27  28
ATOM     28  N   UNL     1      -1.666   7.652  -0.627  1.00  0.00    -0.352 N 
ATOM     29  C   UNL     1      -1.819   8.668   0.291  1.00  0.00     0.251 C 
ATOM     30  H   UNL     1      -0.956   7.826  -1.286  1.00  0.00     0.163 HD
ATOM     31  O   UNL     1      -1.355   9.762  -0.049  1.00  0.00    -0.269 OA
BRANCH  29  32
ATOM     32  C   UNL     1      -2.463   8.567   1.637  1.00  0.00     0.039 A 
ATOM     33  C   UNL     1      -2.950   9.756   2.213  1.00  0.00     0.014 A 
ATOM     34  C   UNL     1      -2.495   7.414   2.418  1.00  0.00     0.014 A 
ATOM     35  C   UNL     1      -3.502   9.773   3.504  1.00  0.00     0.010 A 
ATOM     36  C   UNL     1      -2.964   7.442   3.748  1.00  0.00     0.010 A 
ATOM     37  C   UNL     1      -3.539   8.605   4.276  1.00  0.00    -0.014 A 
BRANCH  37  38
ATOM     38  C   UNL     1      -4.491   8.543   5.437  1.00  0.00     0.031 A 
ATOM     39  C   UNL     1      -5.907   8.070   4.978  1.00  0.00     0.074 A 
ATOM     40  C   UNL     1      -4.075   8.954   6.677  1.00  0.00     0.049 A 
ATOM     41  N   UNL     1      -7.104   8.377   5.407  1.00  0.00    -0.248 NA
ATOM     42  C   UNL     1      -5.995   7.212   3.762  1.00  0.00     0.031 C 
ATOM     43  C   UNL     1      -2.684   9.296   7.050  1.00  0.00     0.029 A 
ATOM     44  N   UNL     1      -4.729   9.163   7.882  1.00  0.00    -0.354 N 
ATOM     45  C   UNL     1      -8.023   7.595   4.656  1.00  0.00     0.074 A 
ATOM     46  C   UNL     1      -7.298   7.037   3.565  1.00  0.00     0.031 C 
ATOM     47  C   UNL     1      -2.614   9.727   8.333  1.00  0.00     0.029 A 
ATOM     48  C   UNL     1      -3.939   9.710   8.930  1.00  0.00     0.049 A 
ATOM     49  H   UNL     1      -5.681   8.945   8.004  1.00  0.00     0.167 HD
ATOM     50  C   UNL     1      -9.296   7.294   5.044  1.00  0.00     0.034 A 
ATOM     51  C   UNL     1      -4.332  10.157  10.169  1.00  0.00     0.034 A 
ATOM     52  C   UNL     1      -9.601   7.894   6.298  1.00  0.00     0.049 A 
ATOM     53  C   UNL     1      -5.759   9.840  10.251  1.00  0.00     0.074 A 
ATOM     54  C   UNL     1     -10.214   9.032   6.750  1.00  0.00     0.029 A 
ATOM     55  N   UNL     1      -9.154   7.180   7.375  1.00  0.00    -0.354 N 
ATOM     56  N   UNL     1      -6.236   8.669  10.532  1.00  0.00    -0.248 NA
ATOM     57  C   UNL     1      -6.727  10.884   9.911  1.00  0.00     0.031 C 
ATOM     58  C   UNL     1      -9.981   9.059   8.148  1.00  0.00     0.029 A 
ATOM     59  C   UNL     1      -9.105   8.019   8.453  1.00  0.00     0.049 A 
ATOM     60  H   UNL     1      -8.910   6.227   7.375  1.00  0.00     0.167 HD
ATOM     61  C   UNL     1      -7.529   8.755  10.084  1.00  0.00     0.074 A 
ATOM     62  C   UNL     1      -7.842  10.165   9.985  1.00  0.00     0.031 C 
ATOM     63  C   UNL     1      -8.102   7.714   9.433  1.00  0.00     0.034 A 
BRANCH  50  64
ATOM     64  C   UNL     1     -10.290   6.236   4.566  1.00  0.00     0.023 A 
ATOM     65  C   UNL     1     -11.628   6.410   5.028  1.00  0.00     0.012 A 
ATOM     66  C   UNL     1      -9.981   4.983   3.999  1.00  0.00     0.148 A 
ATOM     67  C   UNL     1     -12.562   5.375   5.054  1.00  0.00     0.002 A 
ATOM     68  C   UNL     1     -10.946   3.966   3.964  1.00  0.00     0.091 A 
ATOM     69  F   UNL     1      -8.739   4.731   3.575  1.00  0.00    -0.205 F 
ATOM     70  C   UNL     1     -12.216   4.145   4.531  1.00  0.00     0.022 A 
BRANCH  68  71
ATOM     71  S   UNL     1     -10.653   2.363   3.200  1.00  0.00     0.127 S 
ATOM     72  O   UNL     1     -10.422   1.506   4.347  1.00  0.00    -0.237 OA
ATOM     73  O   UNL     1     -11.919   2.122   2.500  1.00  0.00    -0.237 OA
ATOM     74  O   UNL     1      -9.519   2.569   2.294  1.00  0.00    -0.744 OA
ENDBRANCH  68  71
ENDBRANCH  50  64
BRANCH  51  75
ATOM     75  C   UNL     1      -3.760  10.900  11.367  1.00  0.00     0.023 A 
ATOM     76  C   UNL     1      -2.392  11.005  11.648  1.00  0.00     0.012 A 
ATOM     77  C   UNL     1      -4.631  11.574  12.290  1.00  0.00     0.148 A 
ATOM     78  C   UNL     1      -1.921  11.795  12.723  1.00  0.00     0.002 A 
ATOM     79  C   UNL     1      -4.165  12.428  13.287  1.00  0.00     0.091 A 
ATOM     80  F   UNL     1      -5.951  11.373  12.229  1.00  0.00    -0.205 F 
ATOM     81  C   UNL     1      -2.799  12.535  13.516  1.00  0.00     0.022 A 
BRANCH  79  82
ATOM     82  S   UNL     1      -5.274  13.504  14.227  1.00  0.00     0.127 S 
ATOM     83  O   UNL     1      -4.909  13.205  15.610  1.00  0.00    -0.237 OA
ATOM     84  O   UNL     1      -4.862  14.828  13.758  1.00  0.00    -0.237 OA
ATOM     85  O   UNL     1      -6.633  13.129  13.857  1.00  0.00    -0.744 OA
ENDBRANCH  79  82
ENDBRANCH  51  75
BRANCH  63  86
ATOM     86  C   UNL     1      -7.293   6.425   9.504  1.00  0.00     0.023 A 
ATOM     87  C   UNL     1      -7.347   5.682  10.693  1.00  0.00     0.012 A 
ATOM     88  C   UNL     1      -6.379   6.008   8.500  1.00  0.00     0.148 A 
ATOM     89  C   UNL     1      -6.528   4.564  10.877  1.00  0.00     0.002 A 
ATOM     90  C   UNL     1      -5.558   4.896   8.685  1.00  0.00     0.091 A 
ATOM     91  F   UNL     1      -6.327   6.703   7.363  1.00  0.00    -0.205 F 
ATOM     92  C   UNL     1      -5.637   4.171   9.879  1.00  0.00     0.022 A 
BRANCH  90  93
ATOM     93  S   UNL     1      -4.337   4.336   7.478  1.00  0.00     0.127 S 
ATOM     94  O   UNL     1      -3.107   4.280   8.271  1.00  0.00    -0.237 OA
ATOM     95  O   UNL     1      -4.862   3.028   7.097  1.00  0.00    -0.237 OA
ATOM     96  O   UNL     1      -4.313   5.328   6.407  1.00  0.00    -0.744 OA
ENDBRANCH  90  93
ENDBRANCH  63  86
ENDBRANCH  37  38
ENDBRANCH  29  32
ENDBRANCH  27  28
ENDBRANCH  26  27
ENDBRANCH  25  26
ENDBRANCH   1  25
TORSDOF 20
