REMARK SMILES CCOc1cccc(-c2ccc([C@@H](C)C(=O)NCCCCCCNC(=O)c3ccc(-c4c5nc(c(-c6cccc(S(=O)(=O)[O-])c6F)c6ccc([nH]6)c(-c6cccc(S(=O)(=O)[O-])c6F)c6nc(c(-c7cccc(S(=O)(=O)[O-])c7F)c7ccc4[nH]7)C=C6)C=C5)cc3)cc2F)c1
REMARK SMILES IDX 20 1 19 2 18 3 17 4 15 5 16 6 13 8 14 9 12 10 9 11 10 12
REMARK SMILES IDX 91 13 11 14 90 15 92 16 8 17 4 18 5 19 93 20 6 21 7 22 3 23
REMARK SMILES IDX 2 24 1 25 21 26 22 27 23 28 24 29 25 30 26 32 27 33 28 34
REMARK SMILES IDX 89 35 29 36 88 37 30 38 31 39 32 40 82 41 33 42 87 43 81 44
REMARK SMILES IDX 83 45 34 46 86 47 80 48 79 49 35 51 67 52 47 53 66 54 48 55
REMARK SMILES IDX 51 56 65 57 84 58 49 59 50 60 64 62 85 63 52 64 36 65 37 66
REMARK SMILES IDX 45 67 38 68 40 69 46 70 39 71 41 72 42 73 43 74 44 75 68 76
REMARK SMILES IDX 69 77 77 78 70 79 72 80 78 81 71 82 73 83 74 84 75 85 76 86
REMARK SMILES IDX 53 87 54 88 62 89 55 90 57 91 63 92 56 93 58 94 59 95 60 96
REMARK SMILES IDX 61 97
REMARK H PARENT 17 7 24 31 83 50 51 61
REMARK Flexibility Score: inf
ROOT
ATOM      1  C   UNL     1       8.880   2.315   2.470  1.00  0.00     0.002 C 
ENDROOT
BRANCH   1   2
ATOM      2  C   UNL     1       8.652   1.004   1.711  1.00  0.00     0.021 C 
BRANCH   2   3
ATOM      3  C   UNL     1       9.483  -0.165   2.244  1.00  0.00     0.116 C 
BRANCH   3   4
ATOM      4  N   UNL     1       8.784  -0.876   3.293  1.00  0.00    -0.356 N 
ATOM      5  C   UNL     1       8.092  -2.047   3.280  1.00  0.00     0.227 C 
ATOM      6  O   UNL     1       7.503  -2.349   4.325  1.00  0.00    -0.274 OA
ATOM      7  H   UNL     1       8.814  -0.433   4.172  1.00  0.00     0.163 HD
BRANCH   5   8
ATOM      8  C   UNL     1       8.033  -2.990   2.068  1.00  0.00     0.105 C 
ATOM      9  C   UNL     1       9.394  -3.520   1.621  1.00  0.00     0.023 C 
BRANCH   8  10
ATOM     10  C   UNL     1       7.114  -2.511   0.956  1.00  0.00    -0.033 A 
ATOM     11  C   UNL     1       5.269  -1.548  -1.024  1.00  0.00     0.018 A 
ATOM     12  C   UNL     1       6.625  -1.185  -1.033  1.00  0.00     0.012 A 
ATOM     13  C   UNL     1       4.881  -2.448  -0.017  1.00  0.00     0.131 A 
ATOM     14  C   UNL     1       7.533  -1.685  -0.089  1.00  0.00     0.005 A 
ATOM     15  C   UNL     1       5.769  -2.900   0.965  1.00  0.00     0.044 A 
ATOM     16  F   UNL     1       3.625  -2.918   0.043  1.00  0.00    -0.206 F 
BRANCH  11  17
ATOM     17  C   UNL     1       4.316  -0.970  -2.005  1.00  0.00    -0.012 A 
ATOM     18  C   UNL     1       2.067  -0.179  -2.568  1.00  0.00     0.119 A 
ATOM     19  C   UNL     1       2.488   0.203  -3.834  1.00  0.00     0.046 A 
ATOM     20  C   UNL     1       2.963  -0.771  -1.676  1.00  0.00     0.055 A 
ATOM     21  C   UNL     1       3.819   0.015  -4.196  1.00  0.00     0.004 A 
ATOM     22  C   UNL     1       4.718  -0.567  -3.293  1.00  0.00     0.009 A 
BRANCH  18  23
ATOM     23  O   UNL     1       0.738  -0.077  -2.260  1.00  0.00    -0.494 OA
BRANCH  23  24
ATOM     24  C   UNL     1       0.464   0.929  -1.278  1.00  0.00     0.226 C 
ATOM     25  C   UNL     1       0.480   0.365   0.136  1.00  0.00     0.049 C 
ENDBRANCH  23  24
ENDBRANCH  18  23
ENDBRANCH  11  17
ENDBRANCH   8  10
ENDBRANCH   5   8
ENDBRANCH   3   4
ENDBRANCH   2   3
ENDBRANCH   1   2
BRANCH   1  26
ATOM     26  C   UNL     1      10.309   2.870   2.386  1.00  0.00     0.002 C 
BRANCH  26  27
ATOM     27  C   UNL     1      10.847   3.083   0.968  1.00  0.00     0.021 C 
BRANCH  27  28
ATOM     28  C   UNL     1      10.038   4.065   0.123  1.00  0.00     0.116 C 
BRANCH  28  29
ATOM     29  N   UNL     1      10.026   5.396   0.713  1.00  0.00    -0.352 N 
ATOM     30  C   UNL     1      10.497   6.580   0.204  1.00  0.00     0.251 C 
ATOM     31  H   UNL     1       9.621   5.455   1.609  1.00  0.00     0.163 HD
ATOM     32  O   UNL     1      10.632   7.552   0.940  1.00  0.00    -0.269 OA
BRANCH  30  33
ATOM     33  C   UNL     1      10.841   6.682  -1.230  1.00  0.00     0.039 A 
ATOM     34  C   UNL     1      12.012   7.347  -1.604  1.00  0.00     0.014 A 
ATOM     35  C   UNL     1       9.996   6.145  -2.205  1.00  0.00     0.014 A 
ATOM     36  C   UNL     1      12.360   7.430  -2.954  1.00  0.00     0.010 A 
ATOM     37  C   UNL     1      10.380   6.167  -3.543  1.00  0.00     0.010 A 
ATOM     38  C   UNL     1      11.559   6.817  -3.933  1.00  0.00    -0.014 A 
BRANCH  38  39
ATOM     39  C   UNL     1      11.941   6.841  -5.368  1.00  0.00     0.031 A 
ATOM     40  C   UNL     1      11.061   7.530  -6.376  1.00  0.00     0.074 A 
ATOM     41  C   UNL     1      13.035   6.167  -5.775  1.00  0.00     0.049 A 
ATOM     42  N   UNL     1      11.197   7.604  -7.675  1.00  0.00    -0.248 NA
ATOM     43  C   UNL     1       9.855   8.202  -5.861  1.00  0.00     0.031 C 
ATOM     44  C   UNL     1      13.925   5.396  -4.905  1.00  0.00     0.029 A 
ATOM     45  N   UNL     1      13.568   5.998  -7.029  1.00  0.00    -0.354 N 
ATOM     46  C   UNL     1      10.082   8.296  -8.135  1.00  0.00     0.074 A 
ATOM     47  C   UNL     1       9.262   8.590  -6.981  1.00  0.00     0.031 C 
ATOM     48  C   UNL     1      14.894   4.839  -5.649  1.00  0.00     0.029 A 
ATOM     49  C   UNL     1      14.679   5.187  -7.050  1.00  0.00     0.049 A 
ATOM     50  H   UNL     1      13.191   6.418  -7.836  1.00  0.00     0.167 HD
ATOM     51  C   UNL     1       9.783   8.678  -9.400  1.00  0.00     0.034 A 
ATOM     52  C   UNL     1      15.434   4.764  -8.083  1.00  0.00     0.034 A 
ATOM     53  C   UNL     1      10.623   8.420 -10.538  1.00  0.00     0.049 A 
ATOM     54  C   UNL     1      15.101   5.235  -9.473  1.00  0.00     0.074 A 
ATOM     55  C   UNL     1      10.452   8.840 -11.845  1.00  0.00     0.029 A 
ATOM     56  N   UNL     1      11.787   7.669 -10.508  1.00  0.00    -0.354 N 
ATOM     57  N   UNL     1      14.129   6.022  -9.866  1.00  0.00    -0.248 NA
ATOM     58  C   UNL     1      15.989   4.790 -10.556  1.00  0.00     0.031 C 
ATOM     59  C   UNL     1      11.502   8.321 -12.611  1.00  0.00     0.029 A 
ATOM     60  C   UNL     1      12.342   7.604 -11.775  1.00  0.00     0.049 A 
ATOM     61  H   UNL     1      12.165   7.244  -9.704  1.00  0.00     0.167 HD
ATOM     62  C   UNL     1      14.309   6.197 -11.233  1.00  0.00     0.074 A 
ATOM     63  C   UNL     1      15.496   5.450 -11.596  1.00  0.00     0.031 C 
ATOM     64  C   UNL     1      13.553   6.901 -12.112  1.00  0.00     0.034 A 
BRANCH  51  65
ATOM     65  C   UNL     1       8.515   9.465  -9.613  1.00  0.00     0.023 A 
ATOM     66  C   UNL     1       8.437  10.795  -9.151  1.00  0.00     0.012 A 
ATOM     67  C   UNL     1       7.428   8.914 -10.318  1.00  0.00     0.148 A 
ATOM     68  C   UNL     1       7.284  11.552  -9.354  1.00  0.00     0.002 A 
ATOM     69  C   UNL     1       6.299   9.691 -10.558  1.00  0.00     0.091 A 
ATOM     70  F   UNL     1       7.511   7.642 -10.732  1.00  0.00    -0.205 F 
ATOM     71  C   UNL     1       6.221  11.005 -10.067  1.00  0.00     0.022 A 
BRANCH  69  72
ATOM     72  S   UNL     1       4.909   9.106 -11.533  1.00  0.00     0.127 S 
ATOM     73  O   UNL     1       3.877   8.946 -10.509  1.00  0.00    -0.237 OA
ATOM     74  O   UNL     1       4.686  10.222 -12.453  1.00  0.00    -0.237 OA
ATOM     75  O   UNL     1       5.354   7.874 -12.169  1.00  0.00    -0.744 OA
ENDBRANCH  69  72
ENDBRANCH  51  65
BRANCH  52  76
ATOM     76  C   UNL     1      16.621   3.898  -7.832  1.00  0.00     0.023 A 
ATOM     77  C   UNL     1      17.914   4.427  -8.016  1.00  0.00     0.012 A 
ATOM     78  C   UNL     1      16.479   2.570  -7.388  1.00  0.00     0.148 A 
ATOM     79  C   UNL     1      19.043   3.638  -7.796  1.00  0.00     0.002 A 
ATOM     80  C   UNL     1      17.609   1.806  -7.116  1.00  0.00     0.091 A 
ATOM     81  F   UNL     1      15.241   2.082  -7.229  1.00  0.00    -0.205 F 
ATOM     82  C   UNL     1      18.892   2.332  -7.337  1.00  0.00     0.022 A 
BRANCH  80  83
ATOM     83  S   UNL     1      17.509   0.164  -6.395  1.00  0.00     0.127 S 
ATOM     84  O   UNL     1      17.913  -0.680  -7.516  1.00  0.00    -0.237 OA
ATOM     85  O   UNL     1      18.484   0.252  -5.306  1.00  0.00    -0.237 OA
ATOM     86  O   UNL     1      16.130   0.013  -5.951  1.00  0.00    -0.744 OA
ENDBRANCH  80  83
ENDBRANCH  52  76
BRANCH  64  87
ATOM     87  C   UNL     1      14.002   6.935 -13.549  1.00  0.00     0.023 A 
ATOM     88  C   UNL     1      13.868   5.788 -14.355  1.00  0.00     0.012 A 
ATOM     89  C   UNL     1      14.487   8.129 -14.120  1.00  0.00     0.148 A 
ATOM     90  C   UNL     1      14.240   5.818 -15.699  1.00  0.00     0.002 A 
ATOM     91  C   UNL     1      14.807   8.166 -15.472  1.00  0.00     0.091 A 
ATOM     92  F   UNL     1      14.625   9.205 -13.332  1.00  0.00    -0.205 F 
ATOM     93  C   UNL     1      14.697   7.008 -16.259  1.00  0.00     0.022 A 
BRANCH  91  94
ATOM     94  S   UNL     1      15.310   9.678 -16.301  1.00  0.00     0.127 S 
ATOM     95  O   UNL     1      16.733   9.431 -16.532  1.00  0.00    -0.237 OA
ATOM     96  O   UNL     1      14.484   9.658 -17.509  1.00  0.00    -0.237 OA
ATOM     97  O   UNL     1      15.006  10.762 -15.378  1.00  0.00    -0.744 OA
ENDBRANCH  91  94
ENDBRANCH  64  87
ENDBRANCH  38  39
ENDBRANCH  30  33
ENDBRANCH  28  29
ENDBRANCH  27  28
ENDBRANCH  26  27
ENDBRANCH   1  26
TORSDOF 20
