REMARK SMILES O=C(CSCc1nnnn1-c1ccc([N+](=O)[O-])cc1)NCCCCCCNC(=O)c1ccc(-c2c3nc(c(-c4cccc(S(=O)(=O)[O-])c4F)c4ccc([nH]4)c(-c4cccc(S(=O)(=O)[O-])c4F)c4nc(c(-c5cccc(S(=O)(=O)[O-])c5F)c5ccc2[nH]5)C=C4)C=C3)cc1
REMARK SMILES IDX 22 1 21 2 20 3 1 4 2 5 3 7 4 8 5 9 6 10 7 11 10 12 8 13 9 14
REMARK SMILES IDX 11 15 12 16 19 17 13 18 18 19 14 20 15 21 16 22 17 23 23 24
REMARK SMILES IDX 24 25 25 26 26 27 27 28 28 29 29 31 30 32 31 33 92 34 32 35
REMARK SMILES IDX 91 36 33 37 34 38 35 39 85 40 36 41 90 42 84 43 86 44 37 45
REMARK SMILES IDX 89 46 83 47 82 48 38 50 70 51 50 52 69 53 51 54 54 55 68 56
REMARK SMILES IDX 87 57 52 58 53 59 67 61 88 62 55 63 39 64 40 65 48 66 41 67
REMARK SMILES IDX 43 68 49 69 42 70 44 71 45 72 46 73 47 74 71 75 72 76 80 77
REMARK SMILES IDX 73 78 75 79 81 80 74 81 76 82 77 83 78 84 79 85 56 86 57 87
REMARK SMILES IDX 65 88 58 89 60 90 66 91 59 92 61 93 62 94 63 95 64 96
REMARK H PARENT 20 6 27 30 86 49 54 60
REMARK Flexibility Score: inf
ROOT
ATOM      1  C   UNL     1       2.800  -3.231   1.198  1.00  0.00     0.021 C 
ENDROOT
BRANCH   1   2
ATOM      2  C   UNL     1       2.222  -1.852   1.509  1.00  0.00     0.116 C 
BRANCH   2   3
ATOM      3  N   UNL     1       2.863  -0.825   0.715  1.00  0.00    -0.355 N 
ATOM      4  O   UNL     1       0.949   0.318   0.160  1.00  0.00    -0.274 OA
ATOM      5  C   UNL     1       2.156   0.143   0.037  1.00  0.00     0.230 C 
ATOM      6  H   UNL     1       3.845  -0.818   0.657  1.00  0.00     0.163 HD
BRANCH   5   7
ATOM      7  C   UNL     1       3.022   1.024  -0.846  1.00  0.00     0.169 C 
BRANCH   7   8
ATOM      8  S   UNL     1       4.157   2.049   0.159  1.00  0.00    -0.144 SA
BRANCH   8   9
ATOM      9  C   UNL     1       2.948   2.868   1.246  1.00  0.00     0.149 C 
BRANCH   9  10
ATOM     10  C   UNL     1       2.119   3.876   0.541  1.00  0.00     0.166 A 
ATOM     11  N   UNL     1       1.030   3.634  -0.164  1.00  0.00    -0.113 NA
ATOM     12  N   UNL     1       2.208   5.243   0.720  1.00  0.00    -0.196 N 
ATOM     13  N   UNL     1       0.398   4.834  -0.331  1.00  0.00    -0.023 NA
ATOM     14  N   UNL     1       1.065   5.807   0.270  1.00  0.00    -0.040 NA
BRANCH  12  15
ATOM     15  C   UNL     1       3.236   6.037   1.274  1.00  0.00     0.069 A 
ATOM     16  C   UNL     1       2.891   7.190   1.993  1.00  0.00     0.035 A 
ATOM     17  C   UNL     1       4.583   5.703   1.079  1.00  0.00     0.035 A 
ATOM     18  C   UNL     1       3.891   7.981   2.565  1.00  0.00     0.088 A 
ATOM     19  C   UNL     1       5.587   6.510   1.622  1.00  0.00     0.088 A 
ATOM     20  C   UNL     1       5.237   7.639   2.374  1.00  0.00     0.269 A 
BRANCH  20  21
ATOM     21  N   UNL     1       6.290   8.478   2.959  1.00  0.00     0.062 N 
ATOM     22  O   UNL     1       5.939   9.428   3.673  1.00  0.00    -0.258 OA
ATOM     23  O   UNL     1       7.467   8.186   2.706  1.00  0.00    -0.258 OA
ENDBRANCH  20  21
ENDBRANCH  12  15
ENDBRANCH   9  10
ENDBRANCH   8   9
ENDBRANCH   7   8
ENDBRANCH   5   7
ENDBRANCH   2   3
ENDBRANCH   1   2
BRANCH   1  24
ATOM     24  C   UNL     1       4.304  -3.377   1.468  1.00  0.00     0.002 C 
BRANCH  24  25
ATOM     25  C   UNL     1       4.782  -3.018   2.884  1.00  0.00     0.002 C 
BRANCH  25  26
ATOM     26  C   UNL     1       4.101  -3.745   4.052  1.00  0.00     0.021 C 
BRANCH  26  27
ATOM     27  C   UNL     1       4.290  -5.253   4.042  1.00  0.00     0.116 C 
BRANCH  27  28
ATOM     28  N   UNL     1       5.680  -5.668   4.292  1.00  0.00    -0.352 N 
ATOM     29  C   UNL     1       6.199  -6.958   4.317  1.00  0.00     0.251 C 
ATOM     30  H   UNL     1       6.322  -4.941   4.463  1.00  0.00     0.163 HD
ATOM     31  O   UNL     1       7.246  -7.212   4.888  1.00  0.00    -0.269 OA
BRANCH  29  32
ATOM     32  C   UNL     1       5.455  -8.008   3.598  1.00  0.00     0.039 A 
ATOM     33  C   UNL     1       5.315  -9.319   4.064  1.00  0.00     0.014 A 
ATOM     34  C   UNL     1       4.837  -7.603   2.426  1.00  0.00     0.014 A 
ATOM     35  C   UNL     1       4.494 -10.188   3.347  1.00  0.00     0.010 A 
ATOM     36  C   UNL     1       3.813  -8.341   1.927  1.00  0.00     0.010 A 
ATOM     37  C   UNL     1       3.747  -9.677   2.276  1.00  0.00    -0.014 A 
BRANCH  37  38
ATOM     38  C   UNL     1       2.823 -10.475   1.494  1.00  0.00     0.031 A 
ATOM     39  C   UNL     1       1.716 -11.060   2.285  1.00  0.00     0.074 A 
ATOM     40  C   UNL     1       2.830 -10.433   0.141  1.00  0.00     0.049 A 
ATOM     41  N   UNL     1       1.545 -12.303   2.583  1.00  0.00    -0.248 NA
ATOM     42  C   UNL     1       0.793 -10.148   2.979  1.00  0.00     0.031 C 
ATOM     43  C   UNL     1       3.649  -9.589  -0.748  1.00  0.00     0.029 A 
ATOM     44  N   UNL     1       1.967 -11.011  -0.731  1.00  0.00    -0.354 N 
ATOM     45  C   UNL     1       0.337 -12.353   3.271  1.00  0.00     0.074 A 
ATOM     46  C   UNL     1       0.069 -11.007   3.701  1.00  0.00     0.031 C 
ATOM     47  C   UNL     1       3.055  -9.500  -1.957  1.00  0.00     0.029 A 
ATOM     48  C   UNL     1       1.922 -10.404  -1.982  1.00  0.00     0.049 A 
ATOM     49  H   UNL     1       1.419 -11.795  -0.497  1.00  0.00     0.167 HD
ATOM     50  C   UNL     1      -0.481 -13.437   3.166  1.00  0.00     0.034 A 
ATOM     51  C   UNL     1       0.965 -10.580  -2.928  1.00  0.00     0.034 A 
ATOM     52  C   UNL     1       0.202 -14.547   2.544  1.00  0.00     0.049 A 
ATOM     53  C   UNL     1       0.287 -11.863  -2.616  1.00  0.00     0.074 A 
ATOM     54  C   UNL     1       1.372 -15.237   2.803  1.00  0.00     0.029 A 
ATOM     55  N   UNL     1      -0.099 -14.806   1.226  1.00  0.00    -0.354 N 
ATOM     56  N   UNL     1       0.897 -13.017  -2.650  1.00  0.00    -0.248 NA
ATOM     57  C   UNL     1      -0.901 -11.806  -1.778  1.00  0.00     0.031 C 
ATOM     58  C   UNL     1       1.970 -15.424   1.520  1.00  0.00     0.029 A 
ATOM     59  C   UNL     1       1.091 -14.929   0.555  1.00  0.00     0.049 A 
ATOM     60  H   UNL     1      -0.999 -14.886   0.837  1.00  0.00     0.167 HD
ATOM     61  C   UNL     1       0.469 -13.666  -1.498  1.00  0.00     0.074 A 
ATOM     62  C   UNL     1      -0.707 -12.913  -1.053  1.00  0.00     0.031 C 
ATOM     63  C   UNL     1       1.274 -14.546  -0.829  1.00  0.00     0.034 A 
BRANCH  50  64
ATOM     64  C   UNL     1      -1.991 -13.401   3.248  1.00  0.00     0.023 A 
ATOM     65  C   UNL     1      -2.656 -14.648   3.272  1.00  0.00     0.012 A 
ATOM     66  C   UNL     1      -2.788 -12.256   3.023  1.00  0.00     0.148 A 
ATOM     67  C   UNL     1      -4.027 -14.755   3.017  1.00  0.00     0.002 A 
ATOM     68  C   UNL     1      -4.163 -12.359   2.849  1.00  0.00     0.091 A 
ATOM     69  F   UNL     1      -2.218 -11.064   2.837  1.00  0.00    -0.205 F 
ATOM     70  C   UNL     1      -4.783 -13.609   2.810  1.00  0.00     0.022 A 
BRANCH  68  71
ATOM     71  S   UNL     1      -5.196 -10.905   2.619  1.00  0.00     0.127 S 
ATOM     72  O   UNL     1      -5.525 -11.004   1.201  1.00  0.00    -0.237 OA
ATOM     73  O   UNL     1      -6.303 -11.179   3.536  1.00  0.00    -0.237 OA
ATOM     74  O   UNL     1      -4.367  -9.771   3.008  1.00  0.00    -0.744 OA
ENDBRANCH  68  71
ENDBRANCH  50  64
BRANCH  51  75
ATOM     75  C   UNL     1       0.397  -9.570  -3.858  1.00  0.00     0.023 A 
ATOM     76  C   UNL     1      -0.330  -9.976  -4.995  1.00  0.00     0.012 A 
ATOM     77  C   UNL     1       0.348  -8.203  -3.499  1.00  0.00     0.148 A 
ATOM     78  C   UNL     1      -1.089  -9.056  -5.736  1.00  0.00     0.002 A 
ATOM     79  C   UNL     1      -0.389  -7.290  -4.247  1.00  0.00     0.091 A 
ATOM     80  F   UNL     1       0.946  -7.811  -2.366  1.00  0.00    -0.205 F 
ATOM     81  C   UNL     1      -1.120  -7.714  -5.362  1.00  0.00     0.022 A 
BRANCH  79  82
ATOM     82  S   UNL     1      -0.462  -5.546  -3.809  1.00  0.00     0.127 S 
ATOM     83  O   UNL     1      -0.229  -4.900  -5.101  1.00  0.00    -0.237 OA
ATOM     84  O   UNL     1      -1.823  -5.420  -3.296  1.00  0.00    -0.237 OA
ATOM     85  O   UNL     1       0.606  -5.337  -2.838  1.00  0.00    -0.744 OA
ENDBRANCH  79  82
ENDBRANCH  51  75
BRANCH  63  86
ATOM     86  C   UNL     1       2.582 -14.964  -1.462  1.00  0.00     0.023 A 
ATOM     87  C   UNL     1       3.624 -14.050  -1.728  1.00  0.00     0.012 A 
ATOM     88  C   UNL     1       2.842 -16.337  -1.597  1.00  0.00     0.148 A 
ATOM     89  C   UNL     1       4.887 -14.493  -2.133  1.00  0.00     0.002 A 
ATOM     90  C   UNL     1       4.110 -16.778  -1.957  1.00  0.00     0.091 A 
ATOM     91  F   UNL     1       1.847 -17.197  -1.330  1.00  0.00    -0.205 F 
ATOM     92  C   UNL     1       5.134 -15.859  -2.234  1.00  0.00     0.022 A 
BRANCH  90  93
ATOM     93  S   UNL     1       4.524 -18.523  -1.984  1.00  0.00     0.127 S 
ATOM     94  O   UNL     1       4.608 -18.792  -3.418  1.00  0.00    -0.237 OA
ATOM     95  O   UNL     1       5.807 -18.553  -1.280  1.00  0.00    -0.237 OA
ATOM     96  O   UNL     1       3.443 -19.204  -1.282  1.00  0.00    -0.744 OA
ENDBRANCH  90  93
ENDBRANCH  63  86
ENDBRANCH  37  38
ENDBRANCH  29  32
ENDBRANCH  27  28
ENDBRANCH  26  27
ENDBRANCH  25  26
ENDBRANCH  24  25
ENDBRANCH   1  24
TORSDOF 21
