REMARK SMILES O=C(NCCCCCCNC(=O)c1cc(-c2ccccc2)nc(Nc2nc3ccccc3s2)n1)c1ccc(-c2c3nc(c(-c4cccc(S(=O)(=O)[O-])c4F)c4ccc([nH]4)c(-c4cccc(S(=O)(=O)[O-])c4F)c4nc(c(-c5cccc(S(=O)(=O)[O-])c5F)c5ccc2[nH]5)C=C4)C=C3)cc1
REMARK SMILES IDX 6 1 5 2 4 3 3 4 1 5 2 6 35 8 36 9 97 10 37 11 96 12 38 13
REMARK SMILES IDX 39 14 40 15 90 16 41 17 95 18 89 19 91 20 42 21 94 22 88 23
REMARK SMILES IDX 87 24 43 26 75 27 55 28 74 29 56 30 59 31 73 32 92 33 57 34
REMARK SMILES IDX 58 35 72 37 93 38 60 39 44 40 45 41 53 42 46 43 48 44 54 45
REMARK SMILES IDX 47 46 49 47 50 48 51 49 52 50 76 51 77 52 85 53 78 54 80 55
REMARK SMILES IDX 86 56 79 57 81 58 82 59 83 60 84 61 61 62 62 63 70 64 63 65
REMARK SMILES IDX 65 66 71 67 64 68 66 69 67 70 68 71 69 72 7 73 8 74 9 75
REMARK SMILES IDX 10 76 11 77 12 79 13 80 14 81 34 82 15 83 23 84 22 85 16 86
REMARK SMILES IDX 17 87 21 88 18 89 20 90 19 91 24 92 25 94 26 95 33 96 27 97
REMARK SMILES IDX 32 98 28 99 31 100 29 101 30 102
REMARK H PARENT 3 7 91 25 59 36 10 78 24 93
REMARK Flexibility Score: inf
ROOT
ATOM      1  C   UNL     1       4.085   1.487  -3.744  1.00  0.00     0.002 C 
ENDROOT
BRANCH   1   2
ATOM      2  C   UNL     1       4.541   0.320  -2.872  1.00  0.00     0.021 C 
BRANCH   2   3
ATOM      3  C   UNL     1       4.321   0.498  -1.378  1.00  0.00     0.116 C 
BRANCH   3   4
ATOM      4  N   UNL     1       2.917   0.545  -1.009  1.00  0.00    -0.352 N 
ATOM      5  O   UNL     1       1.048  -0.085   0.082  1.00  0.00    -0.269 OA
ATOM      6  C   UNL     1       2.263  -0.142  -0.007  1.00  0.00     0.251 C 
ATOM      7  H   UNL     1       2.356   1.148  -1.548  1.00  0.00     0.163 HD
BRANCH   6   8
ATOM      8  C   UNL     1       3.052  -0.976   0.934  1.00  0.00     0.039 A 
ATOM      9  C   UNL     1       4.241  -0.496   1.484  1.00  0.00     0.014 A 
ATOM     10  C   UNL     1       2.602  -2.261   1.253  1.00  0.00     0.014 A 
ATOM     11  C   UNL     1       5.055  -1.349   2.220  1.00  0.00     0.010 A 
ATOM     12  C   UNL     1       3.379  -3.087   2.076  1.00  0.00     0.010 A 
ATOM     13  C   UNL     1       4.629  -2.651   2.538  1.00  0.00    -0.014 A 
BRANCH  13  14
ATOM     14  C   UNL     1       5.484  -3.482   3.426  1.00  0.00     0.031 A 
ATOM     15  C   UNL     1       6.108  -4.767   2.956  1.00  0.00     0.074 A 
ATOM     16  C   UNL     1       5.729  -3.031   4.673  1.00  0.00     0.049 A 
ATOM     17  N   UNL     1       6.955  -5.543   3.584  1.00  0.00    -0.248 NA
ATOM     18  C   UNL     1       5.734  -5.254   1.619  1.00  0.00     0.031 C 
ATOM     19  C   UNL     1       5.125  -1.833   5.263  1.00  0.00     0.029 A 
ATOM     20  N   UNL     1       6.553  -3.506   5.659  1.00  0.00    -0.354 N 
ATOM     21  C   UNL     1       7.195  -6.619   2.739  1.00  0.00     0.074 A 
ATOM     22  C   UNL     1       6.391  -6.406   1.553  1.00  0.00     0.031 C 
ATOM     23  C   UNL     1       5.632  -1.642   6.489  1.00  0.00     0.029 A 
ATOM     24  C   UNL     1       6.560  -2.725   6.791  1.00  0.00     0.049 A 
ATOM     25  H   UNL     1       7.089  -4.327   5.567  1.00  0.00     0.167 HD
ATOM     26  C   UNL     1       8.024  -7.676   2.924  1.00  0.00     0.034 A 
ATOM     27  C   UNL     1       7.236  -2.860   7.948  1.00  0.00     0.034 A 
ATOM     28  C   UNL     1       8.844  -7.867   4.092  1.00  0.00     0.049 A 
ATOM     29  C   UNL     1       8.194  -4.005   8.097  1.00  0.00     0.074 A 
ATOM     30  C   UNL     1       9.743  -8.887   4.356  1.00  0.00     0.029 A 
ATOM     31  N   UNL     1       8.869  -7.023   5.192  1.00  0.00    -0.354 N 
ATOM     32  N   UNL     1       8.498  -4.941   7.231  1.00  0.00    -0.248 NA
ATOM     33  C   UNL     1       8.925  -4.097   9.367  1.00  0.00     0.031 C 
ATOM     34  C   UNL     1      10.309  -8.661   5.616  1.00  0.00     0.029 A 
ATOM     35  C   UNL     1       9.769  -7.495   6.134  1.00  0.00     0.049 A 
ATOM     36  H   UNL     1       8.326  -6.208   5.290  1.00  0.00     0.167 HD
ATOM     37  C   UNL     1       9.459  -5.731   7.848  1.00  0.00     0.074 A 
ATOM     38  C   UNL     1       9.721  -5.133   9.142  1.00  0.00     0.031 C 
ATOM     39  C   UNL     1      10.047  -6.867   7.399  1.00  0.00     0.034 A 
BRANCH  26  40
ATOM     40  C   UNL     1       8.140  -8.685   1.810  1.00  0.00     0.023 A 
ATOM     41  C   UNL     1       8.880  -8.353   0.657  1.00  0.00     0.012 A 
ATOM     42  C   UNL     1       7.601  -9.981   1.934  1.00  0.00     0.148 A 
ATOM     43  C   UNL     1       9.066  -9.285  -0.363  1.00  0.00     0.002 A 
ATOM     44  C   UNL     1       7.820 -10.917   0.928  1.00  0.00     0.091 A 
ATOM     45  F   UNL     1       6.885 -10.274   3.029  1.00  0.00    -0.205 F 
ATOM     46  C   UNL     1       8.546 -10.569  -0.223  1.00  0.00     0.022 A 
BRANCH  44  47
ATOM     47  S   UNL     1       7.254 -12.619   1.043  1.00  0.00     0.127 S 
ATOM     48  O   UNL     1       6.173 -12.636   0.059  1.00  0.00    -0.237 OA
ATOM     49  O   UNL     1       8.447 -13.369   0.650  1.00  0.00    -0.237 OA
ATOM     50  O   UNL     1       6.843 -12.812   2.427  1.00  0.00    -0.744 OA
ENDBRANCH  44  47
ENDBRANCH  26  40
BRANCH  27  51
ATOM     51  C   UNL     1       7.059  -1.846   9.024  1.00  0.00     0.023 A 
ATOM     52  C   UNL     1       8.114  -0.968   9.335  1.00  0.00     0.012 A 
ATOM     53  C   UNL     1       5.830  -1.707   9.696  1.00  0.00     0.148 A 
ATOM     54  C   UNL     1       7.953   0.017  10.311  1.00  0.00     0.002 A 
ATOM     55  C   UNL     1       5.655  -0.684  10.619  1.00  0.00     0.091 A 
ATOM     56  F   UNL     1       4.842  -2.567   9.405  1.00  0.00    -0.205 F 
ATOM     57  C   UNL     1       6.720   0.170  10.941  1.00  0.00     0.022 A 
BRANCH  55  58
ATOM     58  S   UNL     1       4.045  -0.335  11.335  1.00  0.00     0.127 S 
ATOM     59  O   UNL     1       4.125  -1.036  12.613  1.00  0.00    -0.237 OA
ATOM     60  O   UNL     1       4.055   1.125  11.431  1.00  0.00    -0.237 OA
ATOM     61  O   UNL     1       3.085  -0.858  10.371  1.00  0.00    -0.744 OA
ENDBRANCH  55  58
ENDBRANCH  27  51
BRANCH  39  62
ATOM     62  C   UNL     1      11.028  -7.538   8.323  1.00  0.00     0.023 A 
ATOM     63  C   UNL     1      10.549  -8.228   9.454  1.00  0.00     0.012 A 
ATOM     64  C   UNL     1      12.410  -7.518   8.058  1.00  0.00     0.148 A 
ATOM     65  C   UNL     1      11.434  -8.857  10.328  1.00  0.00     0.002 A 
ATOM     66  C   UNL     1      13.283  -8.183   8.911  1.00  0.00     0.091 A 
ATOM     67  F   UNL     1      12.850  -6.835   6.990  1.00  0.00    -0.205 F 
ATOM     68  C   UNL     1      12.799  -8.843  10.052  1.00  0.00     0.022 A 
BRANCH  66  69
ATOM     69  S   UNL     1      15.046  -8.278   8.581  1.00  0.00     0.127 S 
ATOM     70  O   UNL     1      15.573  -7.238   9.462  1.00  0.00    -0.237 OA
ATOM     71  O   UNL     1      15.371  -9.646   8.990  1.00  0.00    -0.237 OA
ATOM     72  O   UNL     1      15.191  -8.031   7.152  1.00  0.00    -0.744 OA
ENDBRANCH  66  69
ENDBRANCH  39  62
ENDBRANCH  13  14
ENDBRANCH   6   8
ENDBRANCH   3   4
ENDBRANCH   2   3
ENDBRANCH   1   2
BRANCH   1  73
ATOM     73  C   UNL     1       4.652   2.861  -3.376  1.00  0.00     0.002 C 
BRANCH  73  74
ATOM     74  C   UNL     1       6.176   2.954  -3.250  1.00  0.00     0.021 C 
BRANCH  74  75
ATOM     75  C   UNL     1       6.974   2.406  -4.429  1.00  0.00     0.116 C 
BRANCH  75  76
ATOM     76  N   UNL     1       6.617   3.029  -5.690  1.00  0.00    -0.351 N 
ATOM     77  C   UNL     1       7.445   3.544  -6.659  1.00  0.00     0.270 C 
ATOM     78  H   UNL     1       5.652   3.091  -5.877  1.00  0.00     0.163 HD
ATOM     79  O   UNL     1       6.971   4.053  -7.671  1.00  0.00    -0.268 OA
BRANCH  77  80
ATOM     80  C   UNL     1       8.913   3.451  -6.478  1.00  0.00     0.134 A 
ATOM     81  C   UNL     1       9.520   2.228  -6.406  1.00  0.00     0.063 A 
ATOM     82  N   UNL     1       9.560   4.614  -6.359  1.00  0.00    -0.207 NA
ATOM     83  C   UNL     1      10.870   2.261  -6.144  1.00  0.00     0.077 A 
ATOM     84  C   UNL     1      10.874   4.574  -6.128  1.00  0.00     0.230 A 
ATOM     85  N   UNL     1      11.559   3.423  -6.016  1.00  0.00    -0.213 NA
BRANCH  83  86
ATOM     86  C   UNL     1      11.602   1.009  -5.906  1.00  0.00     0.000 A 
ATOM     87  C   UNL     1      12.356   0.828  -4.735  1.00  0.00     0.010 A 
ATOM     88  C   UNL     1      11.481  -0.082  -6.788  1.00  0.00     0.010 A 
ATOM     89  C   UNL     1      12.932  -0.410  -4.436  1.00  0.00     0.001 A 
ATOM     90  C   UNL     1      12.061  -1.317  -6.493  1.00  0.00     0.001 A 
ATOM     91  C   UNL     1      12.777  -1.483  -5.311  1.00  0.00     0.000 A 
ENDBRANCH  83  86
BRANCH  84  92
ATOM     92  N   UNL     1      11.597   5.763  -6.080  1.00  0.00    -0.300 N 
ATOM     93  H   UNL     1      12.578   5.715  -6.008  1.00  0.00     0.172 HD
BRANCH  92  94
ATOM     94  C   UNL     1      11.014   6.979  -6.127  1.00  0.00     0.190 A 
ATOM     95  N   UNL     1       9.856   7.282  -5.587  1.00  0.00    -0.220 NA
ATOM     96  S   UNL     1      11.770   8.296  -6.947  1.00  0.00    -0.097 S 
ATOM     97  C   UNL     1       9.421   8.517  -6.006  1.00  0.00     0.084 A 
ATOM     98  C   UNL     1      10.325   9.227  -6.793  1.00  0.00     0.056 A 
ATOM     99  C   UNL     1       8.162   9.081  -5.724  1.00  0.00     0.030 A 
ATOM    100  C   UNL     1      10.002  10.486  -7.327  1.00  0.00     0.021 A 
ATOM    101  C   UNL     1       7.824  10.326  -6.260  1.00  0.00     0.002 A 
ATOM    102  C   UNL     1       8.734  11.015  -7.056  1.00  0.00     0.002 A 
ENDBRANCH  92  94
ENDBRANCH  84  92
ENDBRANCH  77  80
ENDBRANCH  75  76
ENDBRANCH  74  75
ENDBRANCH  73  74
ENDBRANCH   1  73
TORSDOF 19
