REMARK SMILES CCN(CC)C(=O)CN(CC(=O)NCCCCCCNC(=O)c1ccc(-c2c3nc(c(-c4cccc(S(=O)(=O)[O-])c4F)c4ccc([nH]4)c(-c4cccc(S(=O)(=O)[O-])c4F)c4nc(c(-c5cccc(S(=O)(=O)[O-])c5F)c5ccc2[nH]5)C=C4)C=C3)cc1)c1ccccc1
REMARK SMILES IDX 16 1 15 2 14 3 13 4 11 5 12 6 10 8 9 9 8 10 6 11 3 12 7 13
REMARK SMILES IDX 2 14 1 15 4 16 5 17 86 18 87 19 91 20 88 21 90 22 89 23
REMARK SMILES IDX 17 24 18 25 19 26 20 27 21 28 22 30 23 31 24 32 85 33 25 34
REMARK SMILES IDX 84 35 26 36 27 37 28 38 78 39 29 40 83 41 77 42 79 43 30 44
REMARK SMILES IDX 82 45 76 46 75 47 31 49 63 50 43 51 62 52 44 53 47 54 61 55
REMARK SMILES IDX 80 56 45 57 46 58 60 60 81 61 48 62 32 63 33 64 41 65 34 66
REMARK SMILES IDX 36 67 42 68 35 69 37 70 38 71 39 72 40 73 64 74 65 75 73 76
REMARK SMILES IDX 66 77 68 78 74 79 67 80 69 81 70 82 71 83 72 84 49 85 50 86
REMARK SMILES IDX 58 87 51 88 53 89 59 90 52 91 54 92 55 93 56 94 57 95
REMARK H PARENT 13 7 20 29 79 48 47 59
REMARK Flexibility Score: inf
ROOT
ATOM      1  C   UNL     1       6.426   5.384   5.035  1.00  0.00     0.002 C 
ENDROOT
BRANCH   1   2
ATOM      2  C   UNL     1       5.479   4.223   4.699  1.00  0.00     0.021 C 
BRANCH   2   3
ATOM      3  C   UNL     1       4.202   4.219   5.535  1.00  0.00     0.116 C 
BRANCH   3   4
ATOM      4  N   UNL     1       3.362   5.350   5.217  1.00  0.00    -0.355 N 
ATOM      5  C   UNL     1       2.266   5.402   4.412  1.00  0.00     0.239 C 
ATOM      6  O   UNL     1       1.733   6.506   4.250  1.00  0.00    -0.273 OA
ATOM      7  H   UNL     1       3.619   6.201   5.640  1.00  0.00     0.163 HD
BRANCH   5   8
ATOM      8  C   UNL     1       1.651   4.135   3.814  1.00  0.00     0.217 C 
BRANCH   8   9
ATOM      9  N   UNL     1       2.464   3.327   2.873  1.00  0.00    -0.353 N 
BRANCH   9  10
ATOM     10  C   UNL     1       2.869   1.962   3.304  1.00  0.00     0.217 C 
BRANCH  10  11
ATOM     11  C   UNL     1       2.321   0.748   2.540  1.00  0.00     0.242 C 
ATOM     12  N   UNL     1       0.952   0.514   2.435  1.00  0.00    -0.342 N 
ATOM     13  O   UNL     1       3.129  -0.048   2.041  1.00  0.00    -0.273 OA
BRANCH  12  14
ATOM     14  C   UNL     1       0.523  -0.603   1.590  1.00  0.00     0.116 C 
ATOM     15  C   UNL     1       0.696  -0.291   0.107  1.00  0.00     0.027 C 
ENDBRANCH  12  14
BRANCH  12  16
ATOM     16  C   UNL     1      -0.094   1.296   3.084  1.00  0.00     0.116 C 
ATOM     17  C   UNL     1      -0.221   0.990   4.569  1.00  0.00     0.027 C 
ENDBRANCH  12  16
ENDBRANCH  10  11
ENDBRANCH   9  10
BRANCH   9  18
ATOM     18  C   UNL     1       2.811   3.820   1.619  1.00  0.00     0.038 A 
ATOM     19  C   UNL     1       3.187   5.156   1.413  1.00  0.00     0.026 A 
ATOM     20  C   UNL     1       2.809   3.016   0.468  1.00  0.00     0.026 A 
ATOM     21  C   UNL     1       3.538   5.657   0.150  1.00  0.00     0.002 A 
ATOM     22  C   UNL     1       3.142   3.505  -0.803  1.00  0.00     0.002 A 
ATOM     23  C   UNL     1       3.510   4.830  -0.963  1.00  0.00     0.000 A 
ENDBRANCH   9  18
ENDBRANCH   8   9
ENDBRANCH   5   8
ENDBRANCH   3   4
ENDBRANCH   2   3
ENDBRANCH   1   2
BRANCH   1  24
ATOM     24  C   UNL     1       6.836   5.472   6.509  1.00  0.00     0.002 C 
BRANCH  24  25
ATOM     25  C   UNL     1       7.460   4.196   7.079  1.00  0.00     0.021 C 
BRANCH  25  26
ATOM     26  C   UNL     1       8.737   3.751   6.374  1.00  0.00     0.116 C 
BRANCH  26  27
ATOM     27  N   UNL     1       9.793   4.746   6.492  1.00  0.00    -0.352 N 
ATOM     28  C   UNL     1      11.066   4.606   6.980  1.00  0.00     0.251 C 
ATOM     29  H   UNL     1       9.559   5.649   6.177  1.00  0.00     0.163 HD
ATOM     30  O   UNL     1      11.746   5.607   7.212  1.00  0.00    -0.269 OA
BRANCH  28  31
ATOM     31  C   UNL     1      11.616   3.260   7.239  1.00  0.00     0.039 A 
ATOM     32  C   UNL     1      12.334   3.038   8.416  1.00  0.00     0.014 A 
ATOM     33  C   UNL     1      11.432   2.221   6.321  1.00  0.00     0.014 A 
ATOM     34  C   UNL     1      12.820   1.760   8.698  1.00  0.00     0.010 A 
ATOM     35  C   UNL     1      11.852   0.932   6.639  1.00  0.00     0.010 A 
ATOM     36  C   UNL     1      12.555   0.689   7.828  1.00  0.00    -0.014 A 
BRANCH  36  37
ATOM     37  C   UNL     1      12.984  -0.693   8.165  1.00  0.00     0.031 A 
ATOM     38  C   UNL     1      13.965  -1.428   7.292  1.00  0.00     0.074 A 
ATOM     39  C   UNL     1      12.428  -1.315   9.225  1.00  0.00     0.049 A 
ATOM     40  N   UNL     1      14.436  -2.641   7.424  1.00  0.00    -0.248 NA
ATOM     41  C   UNL     1      14.464  -0.719   6.102  1.00  0.00     0.031 C 
ATOM     42  C   UNL     1      11.402  -0.741  10.098  1.00  0.00     0.029 A 
ATOM     43  N   UNL     1      12.631  -2.573   9.734  1.00  0.00    -0.354 N 
ATOM     44  C   UNL     1      15.259  -2.852   6.325  1.00  0.00     0.074 A 
ATOM     45  C   UNL     1      15.197  -1.655   5.516  1.00  0.00     0.031 C 
ATOM     46  C   UNL     1      11.073  -1.639  11.040  1.00  0.00     0.029 A 
ATOM     47  C   UNL     1      11.838  -2.862  10.820  1.00  0.00     0.049 A 
ATOM     48  H   UNL     1      13.281  -3.209   9.358  1.00  0.00     0.167 HD
ATOM     49  C   UNL     1      16.021  -3.933   6.029  1.00  0.00     0.034 A 
ATOM     50  C   UNL     1      11.732  -3.987  11.554  1.00  0.00     0.034 A 
ATOM     51  C   UNL     1      16.105  -5.110   6.853  1.00  0.00     0.049 A 
ATOM     52  C   UNL     1      12.616  -5.159  11.224  1.00  0.00     0.074 A 
ATOM     53  C   UNL     1      16.914  -6.220   6.687  1.00  0.00     0.029 A 
ATOM     54  N   UNL     1      15.344  -5.338   7.989  1.00  0.00    -0.354 N 
ATOM     55  N   UNL     1      13.514  -5.275  10.276  1.00  0.00    -0.248 NA
ATOM     56  C   UNL     1      12.499  -6.341  12.090  1.00  0.00     0.031 C 
ATOM     57  C   UNL     1      16.618  -7.133   7.704  1.00  0.00     0.029 A 
ATOM     58  C   UNL     1      15.652  -6.577   8.526  1.00  0.00     0.049 A 
ATOM     59  H   UNL     1      14.681  -4.711   8.360  1.00  0.00     0.167 HD
ATOM     60  C   UNL     1      14.092  -6.528  10.450  1.00  0.00     0.074 A 
ATOM     61  C   UNL     1      13.460  -7.120  11.612  1.00  0.00     0.031 C 
ATOM     62  C   UNL     1      15.048  -7.138   9.707  1.00  0.00     0.034 A 
BRANCH  49  63
ATOM     63  C   UNL     1      16.864  -3.876   4.780  1.00  0.00     0.023 A 
ATOM     64  C   UNL     1      17.982  -3.017   4.732  1.00  0.00     0.012 A 
ATOM     65  C   UNL     1      16.593  -4.715   3.682  1.00  0.00     0.148 A 
ATOM     66  C   UNL     1      18.792  -2.965   3.599  1.00  0.00     0.002 A 
ATOM     67  C   UNL     1      17.433  -4.692   2.574  1.00  0.00     0.091 A 
ATOM     68  F   UNL     1      15.516  -5.512   3.736  1.00  0.00    -0.205 F 
ATOM     69  C   UNL     1      18.524  -3.810   2.526  1.00  0.00     0.022 A 
BRANCH  67  70
ATOM     70  S   UNL     1      17.224  -5.799   1.175  1.00  0.00     0.127 S 
ATOM     71  O   UNL     1      16.799  -4.873   0.127  1.00  0.00    -0.237 OA
ATOM     72  O   UNL     1      18.575  -6.334   1.003  1.00  0.00    -0.237 OA
ATOM     73  O   UNL     1      16.229  -6.780   1.582  1.00  0.00    -0.744 OA
ENDBRANCH  67  70
ENDBRANCH  49  63
BRANCH  50  74
ATOM     74  C   UNL     1      10.794  -4.036  12.711  1.00  0.00     0.023 A 
ATOM     75  C   UNL     1      11.310  -4.082  14.021  1.00  0.00     0.012 A 
ATOM     76  C   UNL     1       9.399  -4.012  12.523  1.00  0.00     0.148 A 
ATOM     77  C   UNL     1      10.454  -4.139  15.121  1.00  0.00     0.002 A 
ATOM     78  C   UNL     1       8.552  -4.010  13.625  1.00  0.00     0.091 A 
ATOM     79  F   UNL     1       8.928  -3.977  11.268  1.00  0.00    -0.205 F 
ATOM     80  C   UNL     1       9.076  -4.093  14.924  1.00  0.00     0.022 A 
BRANCH  78  81
ATOM     81  S   UNL     1       6.773  -3.815  13.471  1.00  0.00     0.127 S 
ATOM     82  O   UNL     1       6.292  -5.139  13.858  1.00  0.00    -0.237 OA
ATOM     83  O   UNL     1       6.501  -2.753  14.440  1.00  0.00    -0.237 OA
ATOM     84  O   UNL     1       6.535  -3.437  12.085  1.00  0.00    -0.744 OA
ENDBRANCH  78  81
ENDBRANCH  50  74
BRANCH  62  85
ATOM     85  C   UNL     1      15.497  -8.509  10.143  1.00  0.00     0.023 A 
ATOM     86  C   UNL     1      14.634  -9.614   9.995  1.00  0.00     0.012 A 
ATOM     87  C   UNL     1      16.797  -8.712  10.649  1.00  0.00     0.148 A 
ATOM     88  C   UNL     1      15.042 -10.890  10.382  1.00  0.00     0.002 A 
ATOM     89  C   UNL     1      17.215  -9.995  10.982  1.00  0.00     0.091 A 
ATOM     90  F   UNL     1      17.599  -7.648  10.799  1.00  0.00    -0.205 F 
ATOM     91  C   UNL     1      16.334 -11.082  10.864  1.00  0.00     0.022 A 
BRANCH  89  92
ATOM     92  S   UNL     1      18.891 -10.352  11.519  1.00  0.00     0.127 S 
ATOM     93  O   UNL     1      18.696 -10.633  12.941  1.00  0.00    -0.237 OA
ATOM     94  O   UNL     1      19.234 -11.521  10.709  1.00  0.00    -0.237 OA
ATOM     95  O   UNL     1      19.672  -9.160  11.219  1.00  0.00    -0.744 OA
ENDBRANCH  89  92
ENDBRANCH  62  85
ENDBRANCH  36  37
ENDBRANCH  28  31
ENDBRANCH  26  27
ENDBRANCH  25  26
ENDBRANCH  24  25
ENDBRANCH   1  24
TORSDOF 22
