REMARK SMILES CC[C@](C)([NH3+])C(=O)N1CC[NH+]([C@H](C)C(=O)NCCCCCCNC(=O)c2ccc(-c3c4nc(c(-c5cccc(S(=O)(=O)[O-])c5F)c5ccc([nH]5)c(-c5cccc(S(=O)(=O)[O-])c5F)c5nc(c(-c6cccc(S(=O)(=O)[O-])c6F)c6ccc3[nH]6)C=C5)C=C4)cc2)CC1
REMARK SMILES IDX 19 1 18 2 17 3 16 4 14 5 15 6 12 8 13 9 11 10 6 11 7 12 8 13
REMARK SMILES IDX 9 14 90 15 10 16 89 17 3 19 4 20 2 21 1 22 5 23 20 27 21 28
REMARK SMILES IDX 22 29 23 30 24 31 25 33 26 34 27 35 88 36 28 37 87 38 29 39
REMARK SMILES IDX 30 40 31 41 81 42 32 43 86 44 80 45 82 46 33 47 85 48 79 49
REMARK SMILES IDX 78 50 34 52 66 53 46 54 65 55 47 56 50 57 64 58 83 59 48 60
REMARK SMILES IDX 49 61 63 63 84 64 51 65 35 66 36 67 44 68 37 69 39 70 45 71
REMARK SMILES IDX 38 72 40 73 41 74 42 75 43 76 67 77 68 78 76 79 69 80 71 81
REMARK SMILES IDX 77 82 70 83 72 84 73 85 74 86 75 87 52 88 53 89 61 90 54 91
REMARK SMILES IDX 56 92 62 93 55 94 57 95 58 96 59 97 60 98
REMARK H PARENT 16 7 11 18 5 24 5 25 5 26 23 32 82 51 50 62
REMARK Flexibility Score: inf
ROOT
ATOM      1  C   UNL     1       7.148  -3.830  -4.214  1.00  0.00     0.002 C 
ENDROOT
BRANCH   1   2
ATOM      2  C   UNL     1       5.786  -3.168  -4.428  1.00  0.00     0.021 C 
BRANCH   2   3
ATOM      3  C   UNL     1       5.834  -1.664  -4.647  1.00  0.00     0.116 C 
BRANCH   3   4
ATOM      4  N   UNL     1       6.451  -1.273  -5.898  1.00  0.00    -0.351 N 
ATOM      5  C   UNL     1       6.228  -0.177  -6.685  1.00  0.00     0.278 C 
ATOM      6  O   UNL     1       7.030   0.018  -7.606  1.00  0.00    -0.268 OA
ATOM      7  H   UNL     1       7.139  -1.893  -6.233  1.00  0.00     0.163 HD
BRANCH   5   8
ATOM      8  C   UNL     1       5.019   0.774  -6.473  1.00  0.00     0.271 C 
ATOM      9  C   UNL     1       3.681   0.029  -6.368  1.00  0.00     0.086 C 
BRANCH   8  10
ATOM     10  N   UNL     1       5.284   1.876  -5.499  1.00  0.00    -0.322 N 
ATOM     11  C   UNL     1       4.033   3.019  -1.796  1.00  0.00     0.283 C 
ATOM     12  O   UNL     1       4.665   2.557  -0.835  1.00  0.00    -0.268 OA
ATOM     13  N   UNL     1       4.711   3.229  -2.990  1.00  0.00    -0.326 N 
ATOM     14  C   UNL     1       6.002   2.572  -3.163  1.00  0.00     0.181 C 
ATOM     15  C   UNL     1       4.271   3.843  -4.239  1.00  0.00     0.181 C 
ATOM     16  C   UNL     1       5.821   1.441  -4.194  1.00  0.00     0.284 C 
ATOM     17  C   UNL     1       4.114   2.775  -5.343  1.00  0.00     0.284 C 
ATOM     18  H   UNL     1       6.041   2.412  -5.923  1.00  0.00     0.348 HD
BRANCH  11  19
ATOM     19  C   UNL     1       2.467   3.115  -1.676  1.00  0.00     0.171 C 
ATOM     20  C   UNL     1       2.104   3.252  -0.181  1.00  0.00     0.090 C 
BRANCH  19  21
ATOM     21  C   UNL     1       1.894   1.784  -2.236  1.00  0.00     0.075 C 
ATOM     22  C   UNL     1       0.378   1.717  -2.388  1.00  0.00     0.011 C 
ENDBRANCH  19  21
BRANCH  19  23
ATOM     23  N   UNL     1       1.902   4.294  -2.370  1.00  0.00    -0.345 N 
ATOM     24  H   UNL     1       2.302   5.145  -1.974  1.00  0.00     0.345 HD
ATOM     25  H   UNL     1       0.889   4.306  -2.249  1.00  0.00     0.345 HD
ATOM     26  H   UNL     1       2.125   4.244  -3.364  1.00  0.00     0.345 HD
ENDBRANCH  19  23
ENDBRANCH  11  19
ENDBRANCH   8  10
ENDBRANCH   5   8
ENDBRANCH   3   4
ENDBRANCH   2   3
ENDBRANCH   1   2
BRANCH   1  27
ATOM     27  C   UNL     1       8.048  -3.193  -3.149  1.00  0.00     0.002 C 
BRANCH  27  28
ATOM     28  C   UNL     1       7.421  -2.990  -1.766  1.00  0.00     0.021 C 
BRANCH  28  29
ATOM     29  C   UNL     1       6.776  -4.224  -1.148  1.00  0.00     0.116 C 
BRANCH  29  30
ATOM     30  N   UNL     1       7.697  -5.341  -1.040  1.00  0.00    -0.352 N 
ATOM     31  C   UNL     1       7.957  -6.155   0.034  1.00  0.00     0.251 C 
ATOM     32  H   UNL     1       8.209  -5.545  -1.856  1.00  0.00     0.163 HD
ATOM     33  O   UNL     1       8.882  -6.959  -0.019  1.00  0.00    -0.269 OA
BRANCH  31  34
ATOM     34  C   UNL     1       7.136  -6.046   1.260  1.00  0.00     0.039 A 
ATOM     35  C   UNL     1       7.780  -6.049   2.500  1.00  0.00     0.014 A 
ATOM     36  C   UNL     1       5.744  -5.949   1.193  1.00  0.00     0.014 A 
ATOM     37  C   UNL     1       7.032  -5.902   3.669  1.00  0.00     0.010 A 
ATOM     38  C   UNL     1       5.008  -5.724   2.354  1.00  0.00     0.010 A 
ATOM     39  C   UNL     1       5.642  -5.709   3.605  1.00  0.00    -0.014 A 
BRANCH  39  40
ATOM     40  C   UNL     1       4.843  -5.481   4.837  1.00  0.00     0.031 A 
ATOM     41  C   UNL     1       3.766  -6.453   5.238  1.00  0.00     0.074 A 
ATOM     42  C   UNL     1       5.039  -4.359   5.558  1.00  0.00     0.049 A 
ATOM     43  N   UNL     1       2.947  -6.402   6.257  1.00  0.00    -0.248 NA
ATOM     44  C   UNL     1       3.563  -7.624   4.368  1.00  0.00     0.031 C 
ATOM     45  C   UNL     1       5.996  -3.300   5.229  1.00  0.00     0.029 A 
ATOM     46  N   UNL     1       4.427  -3.908   6.700  1.00  0.00    -0.354 N 
ATOM     47  C   UNL     1       2.113  -7.506   6.132  1.00  0.00     0.074 A 
ATOM     48  C   UNL     1       2.502  -8.193   4.920  1.00  0.00     0.031 C 
ATOM     49  C   UNL     1       5.912  -2.328   6.151  1.00  0.00     0.029 A 
ATOM     50  C   UNL     1       4.874  -2.676   7.116  1.00  0.00     0.049 A 
ATOM     51  H   UNL     1       3.733  -4.419   7.177  1.00  0.00     0.167 HD
ATOM     52  C   UNL     1       1.130  -7.926   6.964  1.00  0.00     0.034 A 
ATOM     53  C   UNL     1       4.485  -1.906   8.151  1.00  0.00     0.034 A 
ATOM     54  C   UNL     1       0.770  -7.260   8.187  1.00  0.00     0.049 A 
ATOM     55  C   UNL     1       3.413  -2.412   9.077  1.00  0.00     0.074 A 
ATOM     56  C   UNL     1      -0.148  -7.656   9.143  1.00  0.00     0.029 A 
ATOM     57  N   UNL     1       1.299  -6.053   8.617  1.00  0.00    -0.354 N 
ATOM     58  N   UNL     1       2.747  -3.540   9.030  1.00  0.00    -0.248 NA
ATOM     59  C   UNL     1       3.064  -1.557  10.221  1.00  0.00     0.031 C 
ATOM     60  C   UNL     1      -0.201  -6.669  10.133  1.00  0.00     0.029 A 
ATOM     61  C   UNL     1       0.716  -5.680   9.816  1.00  0.00     0.049 A 
ATOM     62  H   UNL     1       1.989  -5.537   8.140  1.00  0.00     0.167 HD
ATOM     63  C   UNL     1       1.929  -3.547  10.155  1.00  0.00     0.074 A 
ATOM     64  C   UNL     1       2.200  -2.321  10.875  1.00  0.00     0.031 C 
ATOM     65  C   UNL     1       1.027  -4.480  10.549  1.00  0.00     0.034 A 
BRANCH  52  66
ATOM     66  C   UNL     1       0.395  -9.191   6.601  1.00  0.00     0.023 A 
ATOM     67  C   UNL     1       1.056 -10.434   6.682  1.00  0.00     0.012 A 
ATOM     68  C   UNL     1      -0.967  -9.157   6.240  1.00  0.00     0.148 A 
ATOM     69  C   UNL     1       0.387 -11.618   6.375  1.00  0.00     0.002 A 
ATOM     70  C   UNL     1      -1.641 -10.346   5.983  1.00  0.00     0.091 A 
ATOM     71  F   UNL     1      -1.575  -7.966   6.149  1.00  0.00    -0.205 F 
ATOM     72  C   UNL     1      -0.962 -11.575   6.037  1.00  0.00     0.022 A 
BRANCH  70  73
ATOM     73  S   UNL     1      -3.399 -10.405   5.620  1.00  0.00     0.127 S 
ATOM     74  O   UNL     1      -3.395 -10.805   4.213  1.00  0.00    -0.237 OA
ATOM     75  O   UNL     1      -3.868 -11.437   6.545  1.00  0.00    -0.237 OA
ATOM     76  O   UNL     1      -3.911  -9.069   5.886  1.00  0.00    -0.744 OA
ENDBRANCH  70  73
ENDBRANCH  52  66
BRANCH  53  77
ATOM     77  C   UNL     1       5.148  -0.594   8.397  1.00  0.00     0.023 A 
ATOM     78  C   UNL     1       5.978  -0.434   9.523  1.00  0.00     0.012 A 
ATOM     79  C   UNL     1       4.972   0.488   7.513  1.00  0.00     0.148 A 
ATOM     80  C   UNL     1       6.593   0.791   9.785  1.00  0.00     0.002 A 
ATOM     81  C   UNL     1       5.632   1.688   7.750  1.00  0.00     0.091 A 
ATOM     82  F   UNL     1       4.170   0.317   6.453  1.00  0.00    -0.205 F 
ATOM     83  C   UNL     1       6.428   1.848   8.895  1.00  0.00     0.022 A 
BRANCH  81  84
ATOM     84  S   UNL     1       5.578   3.062   6.596  1.00  0.00     0.127 S 
ATOM     85  O   UNL     1       4.815   4.055   7.349  1.00  0.00    -0.237 OA
ATOM     86  O   UNL     1       6.999   3.370   6.431  1.00  0.00    -0.237 OA
ATOM     87  O   UNL     1       4.929   2.544   5.399  1.00  0.00    -0.744 OA
ENDBRANCH  81  84
ENDBRANCH  53  77
BRANCH  65  88
ATOM     88  C   UNL     1       0.293  -4.240  11.843  1.00  0.00     0.023 A 
ATOM     89  C   UNL     1      -0.688  -3.231  11.922  1.00  0.00     0.012 A 
ATOM     90  C   UNL     1       0.530  -5.063  12.961  1.00  0.00     0.148 A 
ATOM     91  C   UNL     1      -1.393  -3.021  13.107  1.00  0.00     0.002 A 
ATOM     92  C   UNL     1      -0.214  -4.883  14.120  1.00  0.00     0.091 A 
ATOM     93  F   UNL     1       1.480  -6.006  12.872  1.00  0.00    -0.205 F 
ATOM     94  C   UNL     1      -1.166  -3.854  14.200  1.00  0.00     0.022 A 
BRANCH  92  95
ATOM     95  S   UNL     1      -0.062  -5.971  15.542  1.00  0.00     0.127 S 
ATOM     96  O   UNL     1       0.596  -5.099  16.514  1.00  0.00    -0.237 OA
ATOM     97  O   UNL     1      -1.460  -6.279  15.846  1.00  0.00    -0.237 OA
ATOM     98  O   UNL     1       0.725  -7.112  15.094  1.00  0.00    -0.744 OA
ENDBRANCH  92  95
ENDBRANCH  65  88
ENDBRANCH  39  40
ENDBRANCH  31  34
ENDBRANCH  29  30
ENDBRANCH  28  29
ENDBRANCH  27  28
ENDBRANCH   1  27
TORSDOF 20
