REMARK SMILES C[C@@H](C(=O)NCCCCCCNC(=O)c1ccc(-c2c3nc(c(-c4cccc(S(=O)(=O)[O-])c4F)c4ccc([nH]4)c(-c4cccc(S(=O)(=O)[O-])c4F)c4nc(c(-c5cccc(S(=O)(=O)[O-])c5F)c5ccc2[nH]5)C=C4)C=C3)cc1)c1ccc(C[C@H]2CCC[C@@H]2O)cc1Br
REMARK SMILES IDX 8 1 7 2 6 3 5 4 3 5 4 6 2 8 1 9 78 10 79 11 90 12 80 13
REMARK SMILES IDX 89 14 91 15 81 16 82 17 83 18 84 19 87 20 85 21 86 22 88 23
REMARK SMILES IDX 9 25 10 26 11 27 12 28 13 29 14 31 15 32 16 33 77 34 17 35
REMARK SMILES IDX 76 36 18 37 19 38 20 39 70 40 21 41 75 42 69 43 71 44 22 45
REMARK SMILES IDX 74 46 68 47 67 48 23 50 55 51 35 52 54 53 36 54 39 55 53 56
REMARK SMILES IDX 72 57 37 58 38 59 52 61 73 62 40 63 24 64 25 65 33 66 26 67
REMARK SMILES IDX 28 68 34 69 27 70 29 71 30 72 31 73 32 74 56 75 57 76 65 77
REMARK SMILES IDX 58 78 60 79 66 80 59 81 61 82 62 83 63 84 64 85 41 86 42 87
REMARK SMILES IDX 50 88 43 89 45 90 51 91 44 92 46 93 47 94 48 95 49 96
REMARK H PARENT 5 7 88 24 12 30 71 49 39 60
REMARK Flexibility Score: inf
ROOT
ATOM      1  C   UNL     1       4.932   2.787  -0.128  1.00  0.00     0.002 C 
ENDROOT
BRANCH   1   2
ATOM      2  C   UNL     1       4.230   1.429   0.006  1.00  0.00     0.021 C 
BRANCH   2   3
ATOM      3  C   UNL     1       3.424   1.257   1.296  1.00  0.00     0.116 C 
BRANCH   3   4
ATOM      4  N   UNL     1       2.394   2.270   1.384  1.00  0.00    -0.356 N 
ATOM      5  C   UNL     1       1.057   2.207   1.126  1.00  0.00     0.227 C 
ATOM      6  O   UNL     1       0.474   3.292   1.130  1.00  0.00    -0.274 OA
ATOM      7  H   UNL     1       2.712   3.153   1.681  1.00  0.00     0.163 HD
BRANCH   5   8
ATOM      8  C   UNL     1       0.376   0.838   0.898  1.00  0.00     0.106 C 
ATOM      9  C   UNL     1       0.747   0.223  -0.454  1.00  0.00     0.023 C 
BRANCH   8  10
ATOM     10  C   UNL     1      -1.153   0.811   1.028  1.00  0.00    -0.022 A 
ATOM     11  C   UNL     1      -1.934   1.903   0.608  1.00  0.00     0.006 A 
ATOM     12  C   UNL     1      -1.844  -0.330   1.482  1.00  0.00     0.022 A 
ATOM     13  C   UNL     1      -3.324   1.904   0.730  1.00  0.00     0.004 A 
ATOM     14  C   UNL     1      -3.243  -0.338   1.577  1.00  0.00     0.019 A 
ATOM     15  Br  UNL     1      -0.968  -1.942   1.995  1.00  0.00    -0.051 Br
ATOM     16  C   UNL     1      -3.990   0.797   1.249  1.00  0.00    -0.047 A 
BRANCH  16  17
ATOM     17  C   UNL     1      -5.477   0.846   1.497  1.00  0.00     0.041 C 
BRANCH  17  18
ATOM     18  C   UNL     1      -5.893   1.476   2.838  1.00  0.00     0.022 C 
ATOM     19  C   UNL     1      -5.344   0.792   4.101  1.00  0.00     0.007 C 
ATOM     20  C   UNL     1      -5.525   2.951   3.018  1.00  0.00     0.117 C 
ATOM     21  C   UNL     1      -5.078   1.914   5.110  1.00  0.00     0.003 C 
ATOM     22  C   UNL     1      -5.711   3.160   4.513  1.00  0.00     0.032 C 
BRANCH  20  23
ATOM     23  O   UNL     1      -6.380   3.790   2.264  1.00  0.00    -0.393 OA
ATOM     24  H   UNL     1      -7.301   3.628   2.520  1.00  0.00     0.210 HD
ENDBRANCH  20  23
ENDBRANCH  17  18
ENDBRANCH  16  17
ENDBRANCH   8  10
ENDBRANCH   5   8
ENDBRANCH   3   4
ENDBRANCH   2   3
ENDBRANCH   1   2
BRANCH   1  25
ATOM     25  C   UNL     1       5.874   3.147   1.022  1.00  0.00     0.002 C 
BRANCH  25  26
ATOM     26  C   UNL     1       6.938   2.092   1.330  1.00  0.00     0.021 C 
BRANCH  26  27
ATOM     27  C   UNL     1       7.834   1.739   0.149  1.00  0.00     0.116 C 
BRANCH  27  28
ATOM     28  N   UNL     1       8.636   2.873  -0.284  1.00  0.00    -0.352 N 
ATOM     29  C   UNL     1       9.997   2.956  -0.434  1.00  0.00     0.251 C 
ATOM     30  H   UNL     1       8.133   3.692  -0.499  1.00  0.00     0.163 HD
ATOM     31  O   UNL     1      10.534   4.048  -0.609  1.00  0.00    -0.269 OA
BRANCH  29  32
ATOM     32  C   UNL     1      10.813   1.726  -0.365  1.00  0.00     0.039 A 
ATOM     33  C   UNL     1      11.978   1.727   0.405  1.00  0.00     0.014 A 
ATOM     34  C   UNL     1      10.420   0.571  -1.048  1.00  0.00     0.014 A 
ATOM     35  C   UNL     1      12.720   0.550   0.534  1.00  0.00     0.010 A 
ATOM     36  C   UNL     1      11.115  -0.618  -0.853  1.00  0.00     0.010 A 
ATOM     37  C   UNL     1      12.277  -0.640  -0.067  1.00  0.00    -0.014 A 
BRANCH  37  38
ATOM     38  C   UNL     1      13.009  -1.918   0.126  1.00  0.00     0.031 A 
ATOM     39  C   UNL     1      13.611  -2.635  -1.052  1.00  0.00     0.074 A 
ATOM     40  C   UNL     1      13.065  -2.473   1.353  1.00  0.00     0.049 A 
ATOM     41  N   UNL     1      14.247  -3.778  -1.084  1.00  0.00    -0.248 NA
ATOM     42  C   UNL     1      13.458  -1.999  -2.372  1.00  0.00     0.031 C 
ATOM     43  C   UNL     1      12.454  -1.916   2.562  1.00  0.00     0.029 A 
ATOM     44  N   UNL     1      13.642  -3.642   1.783  1.00  0.00    -0.354 N 
ATOM     45  C   UNL     1      14.538  -4.014  -2.422  1.00  0.00     0.074 A 
ATOM     46  C   UNL     1      13.978  -2.915  -3.177  1.00  0.00     0.031 C 
ATOM     47  C   UNL     1      12.695  -2.737   3.596  1.00  0.00     0.029 A 
ATOM     48  C   UNL     1      13.445  -3.896   3.121  1.00  0.00     0.049 A 
ATOM     49  H   UNL     1      14.150  -4.242   1.190  1.00  0.00     0.167 HD
ATOM     50  C   UNL     1      15.232  -5.039  -2.973  1.00  0.00     0.034 A 
ATOM     51  C   UNL     1      13.815  -4.947   3.878  1.00  0.00     0.034 A 
ATOM     52  C   UNL     1      15.815  -6.114  -2.216  1.00  0.00     0.049 A 
ATOM     53  C   UNL     1      14.607  -6.059   3.246  1.00  0.00     0.074 A 
ATOM     54  C   UNL     1      16.609  -7.152  -2.669  1.00  0.00     0.029 A 
ATOM     55  N   UNL     1      15.657  -6.298  -0.851  1.00  0.00    -0.354 N 
ATOM     56  N   UNL     1      15.008  -6.185   2.005  1.00  0.00    -0.248 NA
ATOM     57  C   UNL     1      15.030  -7.157   4.128  1.00  0.00     0.031 C 
ATOM     58  C   UNL     1      16.901  -7.985  -1.584  1.00  0.00     0.029 A 
ATOM     59  C   UNL     1      16.325  -7.442  -0.447  1.00  0.00     0.049 A 
ATOM     60  H   UNL     1      15.145  -5.704  -0.256  1.00  0.00     0.167 HD
ATOM     61  C   UNL     1      15.761  -7.353   1.963  1.00  0.00     0.074 A 
ATOM     62  C   UNL     1      15.777  -7.886   3.310  1.00  0.00     0.031 C 
ATOM     63  C   UNL     1      16.374  -7.937   0.905  1.00  0.00     0.034 A 
BRANCH  50  64
ATOM     64  C   UNL     1      15.435  -5.028  -4.466  1.00  0.00     0.023 A 
ATOM     65  C   UNL     1      16.290  -4.069  -5.049  1.00  0.00     0.012 A 
ATOM     66  C   UNL     1      14.829  -6.000  -5.286  1.00  0.00     0.148 A 
ATOM     67  C   UNL     1      16.510  -4.055  -6.425  1.00  0.00     0.002 A 
ATOM     68  C   UNL     1      15.091  -6.010  -6.651  1.00  0.00     0.091 A 
ATOM     69  F   UNL     1      14.004  -6.891  -4.718  1.00  0.00    -0.205 F 
ATOM     70  C   UNL     1      15.920  -5.031  -7.224  1.00  0.00     0.022 A 
BRANCH  68  71
ATOM     71  S   UNL     1      14.448  -7.273  -7.754  1.00  0.00     0.127 S 
ATOM     72  O   UNL     1      13.495  -6.507  -8.555  1.00  0.00    -0.237 OA
ATOM     73  O   UNL     1      15.650  -7.693  -8.473  1.00  0.00    -0.237 OA
ATOM     74  O   UNL     1      13.863  -8.295  -6.898  1.00  0.00    -0.744 OA
ENDBRANCH  68  71
ENDBRANCH  50  64
BRANCH  51  75
ATOM     75  C   UNL     1      13.484  -4.973   5.331  1.00  0.00     0.023 A 
ATOM     76  C   UNL     1      14.516  -4.848   6.281  1.00  0.00     0.012 A 
ATOM     77  C   UNL     1      12.154  -5.102   5.775  1.00  0.00     0.148 A 
ATOM     78  C   UNL     1      14.235  -4.888   7.647  1.00  0.00     0.002 A 
ATOM     79  C   UNL     1      11.874  -5.082   7.136  1.00  0.00     0.091 A 
ATOM     80  F   UNL     1      11.187  -5.229   4.856  1.00  0.00    -0.205 F 
ATOM     81  C   UNL     1      12.914  -4.995   8.074  1.00  0.00     0.022 A 
BRANCH  79  82
ATOM     82  S   UNL     1      10.195  -5.081   7.774  1.00  0.00     0.127 S 
ATOM     83  O   UNL     1      10.114  -6.396   8.404  1.00  0.00    -0.237 OA
ATOM     84  O   UNL     1      10.227  -3.952   8.704  1.00  0.00    -0.237 OA
ATOM     85  O   UNL     1       9.333  -4.881   6.617  1.00  0.00    -0.744 OA
ENDBRANCH  79  82
ENDBRANCH  51  75
BRANCH  63  86
ATOM     86  C   UNL     1      17.159  -9.199   1.158  1.00  0.00     0.023 A 
ATOM     87  C   UNL     1      16.487 -10.402   1.450  1.00  0.00     0.012 A 
ATOM     88  C   UNL     1      18.562  -9.203   1.034  1.00  0.00     0.148 A 
ATOM     89  C   UNL     1      17.203 -11.582   1.651  1.00  0.00     0.002 A 
ATOM     90  C   UNL     1      19.264 -10.392   1.181  1.00  0.00     0.091 A 
ATOM     91  F   UNL     1      19.184  -8.044   0.772  1.00  0.00    -0.205 F 
ATOM     92  C   UNL     1      18.588 -11.580   1.504  1.00  0.00     0.022 A 
BRANCH  90  93
ATOM     93  S   UNL     1      21.037 -10.506   0.913  1.00  0.00     0.127 S 
ATOM     94  O   UNL     1      21.530 -10.727   2.272  1.00  0.00    -0.237 OA
ATOM     95  O   UNL     1      21.141 -11.667   0.029  1.00  0.00    -0.237 OA
ATOM     96  O   UNL     1      21.434  -9.244   0.303  1.00  0.00    -0.744 OA
ENDBRANCH  90  93
ENDBRANCH  63  86
ENDBRANCH  37  38
ENDBRANCH  29  32
ENDBRANCH  27  28
ENDBRANCH  26  27
ENDBRANCH  25  26
ENDBRANCH   1  25
TORSDOF 20
