REMARK SMILES Cc1cc(=O)cc(C)n1C[C@H]1CCCC[C@@H]1C(=O)NCCCCCCNC(=O)c1ccc(-c2c3nc(c(-c4cccc(S(=O)(=O)[O-])c4F)c4ccc([nH]4)c(-c4cccc(S(=O)(=O)[O-])c4F)c4nc(c(-c5cccc(S(=O)(=O)[O-])c5F)c5ccc2[nH]5)C=C4)C=C3)cc1
REMARK SMILES IDX 23 1 22 2 21 3 20 4 19 5 17 6 18 7 16 9 11 10 12 11 13 12
REMARK SMILES IDX 15 13 14 14 10 15 9 16 1 17 2 18 3 19 4 20 7 21 5 22 6 23
REMARK SMILES IDX 8 24 24 25 25 26 26 27 27 28 28 30 29 31 30 32 91 33 31 34
REMARK SMILES IDX 90 35 32 36 33 37 34 38 84 39 35 40 89 41 83 42 85 43 36 44
REMARK SMILES IDX 88 45 82 46 81 47 37 49 69 50 49 51 68 52 50 53 53 54 67 55
REMARK SMILES IDX 86 56 51 57 52 58 66 60 87 61 54 62 38 63 39 64 47 65 40 66
REMARK SMILES IDX 42 67 48 68 41 69 43 70 44 71 45 72 46 73 70 74 71 75 79 76
REMARK SMILES IDX 72 77 74 78 80 79 73 80 75 81 76 82 77 83 78 84 55 85 56 86
REMARK SMILES IDX 64 87 57 88 59 89 65 90 58 91 60 92 61 93 62 94 63 95
REMARK H PARENT 19 8 26 29 85 48 53 59
REMARK Flexibility Score: inf
ROOT
ATOM      1  C   UNL     1       0.529  -2.821   4.982  1.00  0.00     0.002 C 
ENDROOT
BRANCH   1   2
ATOM      2  C   UNL     1      -0.400  -3.797   4.249  1.00  0.00     0.002 C 
BRANCH   2   3
ATOM      3  C   UNL     1      -1.745  -3.266   3.767  1.00  0.00     0.021 C 
BRANCH   3   4
ATOM      4  C   UNL     1      -1.754  -1.905   3.098  1.00  0.00     0.116 C 
BRANCH   4   5
ATOM      5  N   UNL     1      -1.589  -1.724   1.697  1.00  0.00    -0.356 N 
ATOM      6  C   UNL     1      -1.879  -0.565   1.025  1.00  0.00     0.223 C 
ATOM      7  O   UNL     1      -1.627  -0.557  -0.187  1.00  0.00    -0.275 OA
ATOM      8  H   UNL     1      -1.244  -2.483   1.173  1.00  0.00     0.163 HD
BRANCH   6   9
ATOM      9  C   UNL     1      -2.610   0.677   1.659  1.00  0.00     0.083 C 
ATOM     10  C   UNL     1      -2.204   1.279   3.054  1.00  0.00     0.021 C 
ATOM     11  C   UNL     1      -2.964   0.625   4.220  1.00  0.00     0.006 C 
ATOM     12  C   UNL     1      -4.465   0.480   4.005  1.00  0.00     0.000 C 
ATOM     13  C   UNL     1      -4.134   0.546   1.489  1.00  0.00     0.014 C 
ATOM     14  C   UNL     1      -4.850  -0.117   2.658  1.00  0.00     0.001 C 
BRANCH  10  15
ATOM     15  C   UNL     1      -2.486   2.834   3.134  1.00  0.00     0.126 C 
BRANCH  15  16
ATOM     16  N   UNL     1      -1.642   3.555   4.149  1.00  0.00    -0.349 N 
ATOM     17  C   UNL     1      -0.464   4.909   2.336  1.00  0.00     0.064 C 
ATOM     18  C   UNL     1      -0.534   4.346   3.734  1.00  0.00     0.018 A 
ATOM     19  C   UNL     1       0.447   4.708   4.580  1.00  0.00     0.073 A 
ATOM     20  C   UNL     1       0.396   4.261   5.982  1.00  0.00     0.182 A 
ATOM     21  C   UNL     1      -1.873   3.489   5.560  1.00  0.00     0.018 A 
ATOM     22  O   UNL     1       1.379   4.325   6.697  1.00  0.00    -0.290 OA
ATOM     23  C   UNL     1      -0.911   3.783   6.458  1.00  0.00     0.073 A 
ATOM     24  C   UNL     1      -3.229   3.190   6.162  1.00  0.00     0.064 C 
ENDBRANCH  15  16
ENDBRANCH  10  15
ENDBRANCH   6   9
ENDBRANCH   4   5
ENDBRANCH   3   4
ENDBRANCH   2   3
ENDBRANCH   1   2
BRANCH   1  25
ATOM     25  C   UNL     1      -0.008  -2.120   6.237  1.00  0.00     0.021 C 
BRANCH  25  26
ATOM     26  C   UNL     1      -0.561  -3.017   7.342  1.00  0.00     0.116 C 
BRANCH  26  27
ATOM     27  N   UNL     1       0.343  -4.096   7.706  1.00  0.00    -0.352 N 
ATOM     28  C   UNL     1       0.882  -4.439   8.921  1.00  0.00     0.251 C 
ATOM     29  H   UNL     1       0.611  -4.678   6.958  1.00  0.00     0.163 HD
ATOM     30  O   UNL     1       1.739  -5.317   8.975  1.00  0.00    -0.269 OA
BRANCH  28  31
ATOM     31  C   UNL     1       0.454  -3.751  10.158  1.00  0.00     0.039 A 
ATOM     32  C   UNL     1       1.430  -3.353  11.077  1.00  0.00     0.014 A 
ATOM     33  C   UNL     1      -0.897  -3.521  10.429  1.00  0.00     0.014 A 
ATOM     34  C   UNL     1       1.055  -2.671  12.236  1.00  0.00     0.010 A 
ATOM     35  C   UNL     1      -1.264  -2.780  11.551  1.00  0.00     0.010 A 
ATOM     36  C   UNL     1      -0.293  -2.351  12.469  1.00  0.00    -0.014 A 
BRANCH  36  37
ATOM     37  C   UNL     1      -0.696  -1.565  13.664  1.00  0.00     0.031 A 
ATOM     38  C   UNL     1      -1.577  -2.181  14.717  1.00  0.00     0.074 A 
ATOM     39  C   UNL     1      -0.306  -0.280  13.777  1.00  0.00     0.049 A 
ATOM     40  N   UNL     1      -2.038  -1.647  15.819  1.00  0.00    -0.248 NA
ATOM     41  C   UNL     1      -2.013  -3.571  14.499  1.00  0.00     0.031 C 
ATOM     42  C   UNL     1       0.500   0.447  12.793  1.00  0.00     0.029 A 
ATOM     43  N   UNL     1      -0.540   0.648  14.762  1.00  0.00    -0.354 N 
ATOM     44  C   UNL     1      -2.825  -2.625  16.415  1.00  0.00     0.074 A 
ATOM     45  C   UNL     1      -2.822  -3.768  15.530  1.00  0.00     0.031 C 
ATOM     46  C   UNL     1       0.714   1.697  13.236  1.00  0.00     0.029 A 
ATOM     47  C   UNL     1       0.036   1.873  14.516  1.00  0.00     0.049 A 
ATOM     48  H   UNL     1      -1.071   0.455  15.568  1.00  0.00     0.167 HD
ATOM     49  C   UNL     1      -3.459  -2.590  17.611  1.00  0.00     0.034 A 
ATOM     50  C   UNL     1       0.024   3.009  15.243  1.00  0.00     0.034 A 
ATOM     51  C   UNL     1      -3.428  -1.463  18.504  1.00  0.00     0.049 A 
ATOM     52  C   UNL     1      -0.694   3.022  16.566  1.00  0.00     0.074 A 
ATOM     53  C   UNL     1      -3.993  -1.352  19.762  1.00  0.00     0.029 A 
ATOM     54  N   UNL     1      -2.803  -0.255  18.237  1.00  0.00    -0.354 N 
ATOM     55  N   UNL     1      -1.321   2.044  17.173  1.00  0.00    -0.248 NA
ATOM     56  C   UNL     1      -0.682   4.286  17.319  1.00  0.00     0.031 C 
ATOM     57  C   UNL     1      -3.733  -0.067  20.244  1.00  0.00     0.029 A 
ATOM     58  C   UNL     1      -2.977   0.612  19.302  1.00  0.00     0.049 A 
ATOM     59  H   UNL     1      -2.308  -0.045  17.412  1.00  0.00     0.167 HD
ATOM     60  C   UNL     1      -1.749   2.562  18.391  1.00  0.00     0.074 A 
ATOM     61  C   UNL     1      -1.291   3.935  18.445  1.00  0.00     0.031 C 
ATOM     62  C   UNL     1      -2.470   1.959  19.367  1.00  0.00     0.034 A 
BRANCH  49  63
ATOM     63  C   UNL     1      -4.183  -3.831  18.066  1.00  0.00     0.023 A 
ATOM     64  C   UNL     1      -3.433  -4.962  18.453  1.00  0.00     0.012 A 
ATOM     65  C   UNL     1      -5.584  -3.851  18.207  1.00  0.00     0.148 A 
ATOM     66  C   UNL     1      -4.067  -6.100  18.948  1.00  0.00     0.002 A 
ATOM     67  C   UNL     1      -6.205  -4.972  18.747  1.00  0.00     0.091 A 
ATOM     68  F   UNL     1      -6.281  -2.773  17.819  1.00  0.00    -0.205 F 
ATOM     69  C   UNL     1      -5.449  -6.100  19.107  1.00  0.00     0.022 A 
BRANCH  67  70
ATOM     70  S   UNL     1      -7.969  -5.045  19.076  1.00  0.00     0.127 S 
ATOM     71  O   UNL     1      -8.402  -6.078  18.136  1.00  0.00    -0.237 OA
ATOM     72  O   UNL     1      -8.002  -5.448  20.482  1.00  0.00    -0.237 OA
ATOM     73  O   UNL     1      -8.486  -3.710  18.809  1.00  0.00    -0.744 OA
ENDBRANCH  67  70
ENDBRANCH  49  63
BRANCH  50  74
ATOM     74  C   UNL     1       0.784   4.202  14.772  1.00  0.00     0.023 A 
ATOM     75  C   UNL     1       1.937   4.605  15.475  1.00  0.00     0.012 A 
ATOM     76  C   UNL     1       0.398   4.917  13.621  1.00  0.00     0.148 A 
ATOM     77  C   UNL     1       2.678   5.710  15.055  1.00  0.00     0.002 A 
ATOM     78  C   UNL     1       1.169   5.986  13.179  1.00  0.00     0.091 A 
ATOM     79  F   UNL     1      -0.709   4.526  12.974  1.00  0.00    -0.205 F 
ATOM     80  C   UNL     1       2.301   6.393  13.902  1.00  0.00     0.022 A 
BRANCH  78  81
ATOM     81  S   UNL     1       0.830   6.851  11.641  1.00  0.00     0.127 S 
ATOM     82  O   UNL     1       0.412   8.165  12.126  1.00  0.00    -0.237 OA
ATOM     83  O   UNL     1       2.139   6.824  10.989  1.00  0.00    -0.237 OA
ATOM     84  O   UNL     1      -0.203   6.072  10.971  1.00  0.00    -0.744 OA
ENDBRANCH  78  81
ENDBRANCH  50  74
BRANCH  62  85
ATOM     85  C   UNL     1      -2.807   2.757  20.601  1.00  0.00     0.023 A 
ATOM     86  C   UNL     1      -3.777   3.775  20.529  1.00  0.00     0.012 A 
ATOM     87  C   UNL     1      -2.262   2.407  21.854  1.00  0.00     0.148 A 
ATOM     88  C   UNL     1      -4.189   4.444  21.680  1.00  0.00     0.002 A 
ATOM     89  C   UNL     1      -2.717   3.040  23.003  1.00  0.00     0.091 A 
ATOM     90  F   UNL     1      -1.330   1.444  21.898  1.00  0.00    -0.205 F 
ATOM     91  C   UNL     1      -3.673   4.066  22.917  1.00  0.00     0.022 A 
BRANCH  89  92
ATOM     92  S   UNL     1      -2.198   2.548  24.652  1.00  0.00     0.127 S 
ATOM     93  O   UNL     1      -1.450   3.726  25.092  1.00  0.00    -0.237 OA
ATOM     94  O   UNL     1      -3.478   2.350  25.331  1.00  0.00    -0.237 OA
ATOM     95  O   UNL     1      -1.404   1.339  24.482  1.00  0.00    -0.744 OA
ENDBRANCH  89  92
ENDBRANCH  62  85
ENDBRANCH  36  37
ENDBRANCH  28  31
ENDBRANCH  26  27
ENDBRANCH  25  26
ENDBRANCH   1  25
TORSDOF 18
