REMARK SMILES Cc1cc(C(=O)NCCCCCCNC(=O)c2ccc(-c3c4nc(c(-c5cccc(S(=O)(=O)[O-])c5F)c5ccc([nH]5)c(-c5cccc(S(=O)(=O)[O-])c5F)c5nc(c(-c6cccc(S(=O)(=O)[O-])c6F)c6ccc3[nH]6)C=C5)C=C4)cc2)ccc1NS(=O)(=O)c1ccc2c(c1)CCC2
REMARK SMILES IDX 10 1 9 2 8 3 7 4 5 5 6 6 4 8 1 9 2 10 3 11 82 12 81 13 80 14
REMARK SMILES IDX 83 15 84 17 85 18 86 19 87 20 88 21 92 22 89 23 91 24 90 25
REMARK SMILES IDX 93 26 95 27 94 28 11 29 12 30 13 31 14 32 15 33 16 35 17 36
REMARK SMILES IDX 18 37 79 38 19 39 78 40 20 41 21 42 22 43 72 44 23 45 77 46
REMARK SMILES IDX 71 47 73 48 24 49 76 50 70 51 69 52 25 54 57 55 37 56 56 57
REMARK SMILES IDX 38 58 41 59 55 60 74 61 39 62 40 63 54 65 75 66 42 67 26 68
REMARK SMILES IDX 27 69 35 70 28 71 30 72 36 73 29 74 31 75 32 76 33 77 34 78
REMARK SMILES IDX 58 79 59 80 67 81 60 82 62 83 68 84 61 85 63 86 64 87 65 88
REMARK SMILES IDX 66 89 43 90 44 91 52 92 45 93 47 94 53 95 46 96 48 97 49 98
REMARK SMILES IDX 50 99 51 100
REMARK H PARENT 7 7 83 16 14 34 73 53 41 64
REMARK Flexibility Score: inf
ROOT
ATOM      1  C   UNL     1      -5.859  -2.797  -1.006  1.00  0.00     0.002 C 
ENDROOT
BRANCH   1   2
ATOM      2  C   UNL     1      -4.861  -1.659  -1.242  1.00  0.00     0.021 C 
BRANCH   2   3
ATOM      3  C   UNL     1      -3.791  -1.429  -0.174  1.00  0.00     0.116 C 
BRANCH   3   4
ATOM      4  N   UNL     1      -2.912  -2.561   0.059  1.00  0.00    -0.352 N 
ATOM      5  C   UNL     1      -1.588  -2.580   0.439  1.00  0.00     0.251 C 
ATOM      6  O   UNL     1      -1.003  -3.655   0.554  1.00  0.00    -0.269 OA
ATOM      7  H   UNL     1      -3.323  -3.445  -0.073  1.00  0.00     0.163 HD
BRANCH   5   8
ATOM      8  C   UNL     1      -0.825  -1.317   0.624  1.00  0.00     0.040 A 
ATOM      9  C   UNL     1       2.557  -0.002  -0.472  1.00  0.00     0.046 C 
ATOM     10  C   UNL     1       1.128  -0.010  -0.001  1.00  0.00    -0.026 A 
ATOM     11  C   UNL     1       0.459  -1.242   0.078  1.00  0.00     0.019 A 
ATOM     12  C   UNL     1       0.447   1.153   0.390  1.00  0.00     0.052 A 
ATOM     13  C   UNL     1      -0.682   1.026   1.202  1.00  0.00     0.028 A 
ATOM     14  C   UNL     1      -1.330  -0.211   1.306  1.00  0.00     0.016 A 
BRANCH  12  15
ATOM     15  N   UNL     1       0.780   2.365  -0.284  1.00  0.00    -0.279 N 
ATOM     16  H   UNL     1       1.497   2.290  -0.954  1.00  0.00     0.180 HD
BRANCH  15  17
ATOM     17  S   UNL     1       0.133   3.890  -0.102  1.00  0.00     0.261 S 
ATOM     18  O   UNL     1       0.250   4.243   1.313  1.00  0.00    -0.201 OA
ATOM     19  O   UNL     1       0.755   4.688  -1.115  1.00  0.00    -0.201 OA
BRANCH  17  20
ATOM     20  C   UNL     1      -1.616   3.858  -0.466  1.00  0.00     0.088 A 
ATOM     21  C   UNL     1      -2.316   2.675  -0.750  1.00  0.00     0.022 A 
ATOM     22  C   UNL     1      -2.311   5.052  -0.228  1.00  0.00     0.026 A 
ATOM     23  C   UNL     1      -3.696   2.610  -0.527  1.00  0.00     0.005 A 
ATOM     24  C   UNL     1      -3.683   4.984  -0.074  1.00  0.00    -0.043 A 
ATOM     25  C   UNL     1      -4.350   3.757  -0.118  1.00  0.00    -0.045 A 
ATOM     26  C   UNL     1      -4.651   6.092   0.195  1.00  0.00     0.036 C 
ATOM     27  C   UNL     1      -5.770   3.910   0.337  1.00  0.00     0.036 C 
ATOM     28  C   UNL     1      -5.733   5.321   0.956  1.00  0.00     0.010 C 
ENDBRANCH  17  20
ENDBRANCH  15  17
ENDBRANCH  12  15
ENDBRANCH   5   8
ENDBRANCH   3   4
ENDBRANCH   2   3
ENDBRANCH   1   2
BRANCH   1  29
ATOM     29  C   UNL     1      -6.578  -2.845   0.349  1.00  0.00     0.002 C 
BRANCH  29  30
ATOM     30  C   UNL     1      -7.173  -1.536   0.865  1.00  0.00     0.021 C 
BRANCH  30  31
ATOM     31  C   UNL     1      -8.234  -0.911  -0.026  1.00  0.00     0.116 C 
BRANCH  31  32
ATOM     32  N   UNL     1      -9.591  -1.308   0.293  1.00  0.00    -0.352 N 
ATOM     33  C   UNL     1     -10.789  -0.840  -0.220  1.00  0.00     0.251 C 
ATOM     34  H   UNL     1      -9.673  -2.014   0.974  1.00  0.00     0.163 HD
ATOM     35  O   UNL     1     -11.826  -1.134   0.368  1.00  0.00    -0.269 OA
BRANCH  33  36
ATOM     36  C   UNL     1     -10.823  -0.137  -1.531  1.00  0.00     0.039 A 
ATOM     37  C   UNL     1     -11.855  -0.472  -2.419  1.00  0.00     0.014 A 
ATOM     38  C   UNL     1      -9.752   0.624  -1.986  1.00  0.00     0.014 A 
ATOM     39  C   UNL     1     -11.664  -0.313  -3.791  1.00  0.00     0.010 A 
ATOM     40  C   UNL     1      -9.514   0.698  -3.338  1.00  0.00     0.010 A 
ATOM     41  C   UNL     1     -10.429   0.145  -4.232  1.00  0.00    -0.014 A 
BRANCH  41  42
ATOM     42  C   UNL     1      -9.956   0.113  -5.603  1.00  0.00     0.031 A 
ATOM     43  C   UNL     1     -10.189   1.287  -6.465  1.00  0.00     0.074 A 
ATOM     44  C   UNL     1      -9.106  -0.878  -5.963  1.00  0.00     0.049 A 
ATOM     45  N   UNL     1      -9.896   1.332  -7.715  1.00  0.00    -0.248 NA
ATOM     46  C   UNL     1     -10.776   2.522  -5.962  1.00  0.00     0.031 C 
ATOM     47  C   UNL     1      -8.213  -0.905  -7.117  1.00  0.00     0.029 A 
ATOM     48  N   UNL     1      -8.975  -2.169  -5.436  1.00  0.00    -0.354 N 
ATOM     49  C   UNL     1     -10.015   2.640  -8.133  1.00  0.00     0.074 A 
ATOM     50  C   UNL     1     -10.632   3.324  -7.021  1.00  0.00     0.031 C 
ATOM     51  C   UNL     1      -7.903  -2.184  -7.389  1.00  0.00     0.029 A 
ATOM     52  C   UNL     1      -8.766  -2.999  -6.555  1.00  0.00     0.049 A 
ATOM     53  H   UNL     1      -9.018  -2.438  -4.490  1.00  0.00     0.167 HD
ATOM     54  C   UNL     1      -9.463   2.985  -9.331  1.00  0.00     0.034 A 
ATOM     55  C   UNL     1      -9.715  -3.871  -7.030  1.00  0.00     0.034 A 
ATOM     56  C   UNL     1      -9.009   1.780 -10.052  1.00  0.00     0.049 A 
ATOM     57  C   UNL     1     -10.150  -3.584  -8.473  1.00  0.00     0.074 A 
ATOM     58  C   UNL     1      -7.800   1.122 -10.206  1.00  0.00     0.029 A 
ATOM     59  N   UNL     1      -9.977   0.897 -10.496  1.00  0.00    -0.354 N 
ATOM     60  N   UNL     1      -9.688  -2.608  -9.210  1.00  0.00    -0.248 NA
ATOM     61  C   UNL     1     -11.215  -4.323  -9.159  1.00  0.00     0.031 C 
ATOM     62  C   UNL     1      -8.077  -0.204 -10.672  1.00  0.00     0.029 A 
ATOM     63  C   UNL     1      -9.446  -0.335 -10.836  1.00  0.00     0.049 A 
ATOM     64  H   UNL     1     -10.934   1.119 -10.563  1.00  0.00     0.167 HD
ATOM     65  C   UNL     1     -10.465  -2.466 -10.330  1.00  0.00     0.074 A 
ATOM     66  C   UNL     1     -11.383  -3.592 -10.274  1.00  0.00     0.031 C 
ATOM     67  C   UNL     1     -10.367  -1.409 -11.195  1.00  0.00     0.034 A 
BRANCH  54  68
ATOM     68  C   UNL     1      -9.142   4.395  -9.800  1.00  0.00     0.023 A 
ATOM     69  C   UNL     1      -8.225   4.519 -10.870  1.00  0.00     0.012 A 
ATOM     70  C   UNL     1      -9.605   5.613  -9.248  1.00  0.00     0.148 A 
ATOM     71  C   UNL     1      -7.740   5.757 -11.311  1.00  0.00     0.002 A 
ATOM     72  C   UNL     1      -9.085   6.848  -9.650  1.00  0.00     0.091 A 
ATOM     73  F   UNL     1     -10.604   5.612  -8.368  1.00  0.00    -0.205 F 
ATOM     74  C   UNL     1      -8.149   6.922 -10.682  1.00  0.00     0.022 A 
BRANCH  72  75
ATOM     75  S   UNL     1      -9.525   8.398  -8.838  1.00  0.00     0.127 S 
ATOM     76  O   UNL     1      -8.214   8.916  -8.442  1.00  0.00    -0.237 OA
ATOM     77  O   UNL     1     -10.173   9.145  -9.914  1.00  0.00    -0.237 OA
ATOM     78  O   UNL     1     -10.388   8.046  -7.716  1.00  0.00    -0.744 OA
ENDBRANCH  72  75
ENDBRANCH  54  68
BRANCH  55  79
ATOM     79  C   UNL     1     -10.620  -4.395  -5.955  1.00  0.00     0.023 A 
ATOM     80  C   UNL     1     -10.002  -5.034  -4.851  1.00  0.00     0.012 A 
ATOM     81  C   UNL     1     -11.940  -3.937  -5.812  1.00  0.00     0.148 A 
ATOM     82  C   UNL     1     -10.596  -5.008  -3.589  1.00  0.00     0.002 A 
ATOM     83  C   UNL     1     -12.544  -3.955  -4.558  1.00  0.00     0.091 A 
ATOM     84  F   UNL     1     -12.575  -3.434  -6.878  1.00  0.00    -0.205 F 
ATOM     85  C   UNL     1     -11.849  -4.425  -3.434  1.00  0.00     0.022 A 
BRANCH  83  86
ATOM     86  S   UNL     1     -14.193  -3.278  -4.330  1.00  0.00     0.127 S 
ATOM     87  O   UNL     1     -15.027  -4.439  -4.626  1.00  0.00    -0.237 OA
ATOM     88  O   UNL     1     -14.184  -2.871  -2.926  1.00  0.00    -0.237 OA
ATOM     89  O   UNL     1     -14.263  -2.169  -5.270  1.00  0.00    -0.744 OA
ENDBRANCH  83  86
ENDBRANCH  55  79
BRANCH  67  90
ATOM     90  C   UNL     1     -11.174  -1.327 -12.476  1.00  0.00     0.023 A 
ATOM     91  C   UNL     1     -11.353  -2.479 -13.269  1.00  0.00     0.012 A 
ATOM     92  C   UNL     1     -11.643  -0.102 -13.010  1.00  0.00     0.148 A 
ATOM     93  C   UNL     1     -12.021  -2.432 -14.497  1.00  0.00     0.002 A 
ATOM     94  C   UNL     1     -12.206  -0.042 -14.281  1.00  0.00     0.091 A 
ATOM     95  F   UNL     1     -11.598   1.011 -12.269  1.00  0.00    -0.205 F 
ATOM     96  C   UNL     1     -12.428  -1.210 -15.014  1.00  0.00     0.022 A 
BRANCH  94  97
ATOM     97  S   UNL     1     -12.544   1.522 -15.104  1.00  0.00     0.127 S 
ATOM     98  O   UNL     1     -11.951   1.300 -16.425  1.00  0.00    -0.237 OA
ATOM     99  O   UNL     1     -14.005   1.559 -15.091  1.00  0.00    -0.237 OA
ATOM    100  O   UNL     1     -11.871   2.541 -14.312  1.00  0.00    -0.744 OA
ENDBRANCH  94  97
ENDBRANCH  67  90
ENDBRANCH  41  42
ENDBRANCH  33  36
ENDBRANCH  31  32
ENDBRANCH  30  31
ENDBRANCH  29  30
ENDBRANCH   1  29
TORSDOF 19
