REMARK SMILES Cc1cc(C)cc(C(=O)N2CC[C@H](C(=O)NCCCCCCNC(=O)c3ccc(-c4c5nc(c(-c6cccc(S(=O)(=O)[O-])c6F)c6ccc([nH]6)c(-c6cccc(S(=O)(=O)[O-])c6F)c6nc(c(-c7cccc(S(=O)(=O)[O-])c7F)c7ccc4[nH]7)C=C6)C=C5)cc3)[C@@H]2C)c1
REMARK SMILES IDX 20 1 19 2 18 3 17 4 16 5 14 6 15 7 13 9 10 10 11 11 89 12
REMARK SMILES IDX 12 13 90 14 8 15 9 16 7 17 1 18 2 19 3 20 91 21 4 22 5 23
REMARK SMILES IDX 6 24 21 25 22 26 23 27 24 28 25 30 26 31 27 32 88 33 28 34
REMARK SMILES IDX 87 35 29 36 30 37 31 38 81 39 32 40 86 41 80 42 82 43 33 44
REMARK SMILES IDX 85 45 79 46 78 47 34 49 66 50 46 51 65 52 47 53 50 54 64 55
REMARK SMILES IDX 83 56 48 57 49 58 63 60 84 61 51 62 35 63 36 64 44 65 37 66
REMARK SMILES IDX 39 67 45 68 38 69 40 70 41 71 42 72 43 73 67 74 68 75 76 76
REMARK SMILES IDX 69 77 71 78 77 79 70 80 72 81 73 82 74 83 75 84 52 85 53 86
REMARK SMILES IDX 61 87 54 88 56 89 62 90 55 91 57 92 58 93 59 94 60 95
REMARK H PARENT 16 8 23 29 82 48 50 59
REMARK Flexibility Score: inf
ROOT
ATOM      1  C   UNL     1       7.375  -6.652   4.412  1.00  0.00     0.002 C 
ENDROOT
BRANCH   1   2
ATOM      2  C   UNL     1       5.992  -6.059   4.697  1.00  0.00     0.002 C 
BRANCH   2   3
ATOM      3  C   UNL     1       5.624  -4.825   3.864  1.00  0.00     0.021 C 
BRANCH   3   4
ATOM      4  C   UNL     1       5.688  -5.031   2.352  1.00  0.00     0.116 C 
BRANCH   4   5
ATOM      5  N   UNL     1       4.793  -6.090   1.922  1.00  0.00    -0.356 N 
ATOM      6  C   UNL     1       3.769  -6.075   1.027  1.00  0.00     0.225 C 
ATOM      7  O   UNL     1       3.154  -7.125   0.835  1.00  0.00    -0.275 OA
ATOM      8  H   UNL     1       4.953  -6.963   2.349  1.00  0.00     0.163 HD
BRANCH   6   9
ATOM      9  C   UNL     1       3.418  -4.787   0.304  1.00  0.00     0.102 C 
ATOM     10  N   UNL     1       1.213  -3.991  -0.126  1.00  0.00    -0.335 N 
ATOM     11  C   UNL     1       1.448  -5.085  -1.040  1.00  0.00     0.121 C 
ATOM     12  C   UNL     1       2.249  -3.976   0.921  1.00  0.00     0.094 C 
ATOM     13  C   UNL     1       2.959  -5.106  -1.130  1.00  0.00     0.037 C 
ATOM     14  C   UNL     1       1.684  -4.518   2.236  1.00  0.00     0.032 C 
BRANCH  10  15
ATOM     15  C   UNL     1       0.068  -3.231  -0.269  1.00  0.00     0.254 C 
ATOM     16  O   UNL     1      -0.959  -3.712  -0.752  1.00  0.00    -0.269 OA
BRANCH  15  17
ATOM     17  C   UNL     1       0.091  -1.764   0.002  1.00  0.00     0.040 A 
ATOM     18  C   UNL     1       2.500   1.193  -0.034  1.00  0.00     0.044 C 
ATOM     19  C   UNL     1       1.234   0.390   0.026  1.00  0.00    -0.050 A 
ATOM     20  C   UNL     1      -0.003   1.037   0.126  1.00  0.00     0.006 A 
ATOM     21  C   UNL     1       1.267  -1.008  -0.076  1.00  0.00     0.017 A 
ATOM     22  C   UNL     1      -1.196   0.305   0.144  1.00  0.00    -0.050 A 
ATOM     23  C   UNL     1      -2.513   1.023   0.131  1.00  0.00     0.044 C 
ATOM     24  C   UNL     1      -1.138  -1.095   0.107  1.00  0.00     0.017 A 
ENDBRANCH  15  17
ENDBRANCH  10  15
ENDBRANCH   6   9
ENDBRANCH   4   5
ENDBRANCH   3   4
ENDBRANCH   2   3
ENDBRANCH   1   2
BRANCH   1  25
ATOM     25  C   UNL     1       8.543  -5.676   4.562  1.00  0.00     0.021 C 
BRANCH  25  26
ATOM     26  C   UNL     1       8.652  -5.014   5.931  1.00  0.00     0.116 C 
BRANCH  26  27
ATOM     27  N   UNL     1       8.888  -5.977   6.995  1.00  0.00    -0.352 N 
ATOM     28  C   UNL     1       9.869  -5.983   7.956  1.00  0.00     0.251 C 
ATOM     29  H   UNL     1       8.256  -6.731   7.032  1.00  0.00     0.163 HD
ATOM     30  O   UNL     1      10.026  -6.973   8.668  1.00  0.00    -0.269 OA
BRANCH  28  31
ATOM     31  C   UNL     1      10.749  -4.806   8.116  1.00  0.00     0.039 A 
ATOM     32  C   UNL     1      12.125  -5.000   8.254  1.00  0.00     0.014 A 
ATOM     33  C   UNL     1      10.218  -3.513   8.118  1.00  0.00     0.014 A 
ATOM     34  C   UNL     1      12.975  -3.895   8.333  1.00  0.00     0.010 A 
ATOM     35  C   UNL     1      11.072  -2.415   8.114  1.00  0.00     0.010 A 
ATOM     36  C   UNL     1      12.459  -2.592   8.228  1.00  0.00    -0.014 A 
BRANCH  36  37
ATOM     37  C   UNL     1      13.352  -1.406   8.220  1.00  0.00     0.031 A 
ATOM     38  C   UNL     1      13.249  -0.366   9.303  1.00  0.00     0.074 A 
ATOM     39  C   UNL     1      14.199  -1.219   7.189  1.00  0.00     0.049 A 
ATOM     40  N   UNL     1      13.917   0.749   9.442  1.00  0.00    -0.248 NA
ATOM     41  C   UNL     1      12.242  -0.596  10.351  1.00  0.00     0.031 C 
ATOM     42  C   UNL     1      14.345  -2.117   6.042  1.00  0.00     0.029 A 
ATOM     43  N   UNL     1      15.083  -0.201   6.928  1.00  0.00    -0.354 N 
ATOM     44  C   UNL     1      13.387   1.372  10.565  1.00  0.00     0.074 A 
ATOM     45  C   UNL     1      12.316   0.528  11.047  1.00  0.00     0.031 C 
ATOM     46  C   UNL     1      15.278  -1.623   5.213  1.00  0.00     0.029 A 
ATOM     47  C   UNL     1      15.769  -0.357   5.747  1.00  0.00     0.049 A 
ATOM     48  H   UNL     1      15.213   0.567   7.530  1.00  0.00     0.167 HD
ATOM     49  C   UNL     1      13.772   2.528  11.159  1.00  0.00     0.034 A 
ATOM     50  C   UNL     1      16.690   0.432   5.159  1.00  0.00     0.034 A 
ATOM     51  C   UNL     1      14.856   3.350  10.692  1.00  0.00     0.049 A 
ATOM     52  C   UNL     1      17.110   1.704   5.841  1.00  0.00     0.074 A 
ATOM     53  C   UNL     1      15.387   4.487  11.273  1.00  0.00     0.029 A 
ATOM     54  N   UNL     1      15.562   3.136   9.517  1.00  0.00    -0.354 N 
ATOM     55  N   UNL     1      16.710   2.196   6.989  1.00  0.00    -0.248 NA
ATOM     56  C   UNL     1      18.132   2.514   5.163  1.00  0.00     0.031 C 
ATOM     57  C   UNL     1      16.384   4.986  10.428  1.00  0.00     0.029 A 
ATOM     58  C   UNL     1      16.506   4.134   9.341  1.00  0.00     0.049 A 
ATOM     59  H   UNL     1      15.413   2.385   8.899  1.00  0.00     0.167 HD
ATOM     60  C   UNL     1      17.458   3.351   7.190  1.00  0.00     0.074 A 
ATOM     61  C   UNL     1      18.345   3.476   6.051  1.00  0.00     0.031 C 
ATOM     62  C   UNL     1      17.410   4.230   8.222  1.00  0.00     0.034 A 
BRANCH  49  63
ATOM     63  C   UNL     1      13.022   2.954  12.398  1.00  0.00     0.023 A 
ATOM     64  C   UNL     1      13.139   2.200  13.585  1.00  0.00     0.012 A 
ATOM     65  C   UNL     1      12.214   4.107  12.392  1.00  0.00     0.148 A 
ATOM     66  C   UNL     1      12.419   2.553  14.726  1.00  0.00     0.002 A 
ATOM     67  C   UNL     1      11.541   4.483  13.550  1.00  0.00     0.091 A 
ATOM     68  F   UNL     1      12.096   4.803  11.252  1.00  0.00    -0.205 F 
ATOM     69  C   UNL     1      11.628   3.698  14.711  1.00  0.00     0.022 A 
BRANCH  67  70
ATOM     70  S   UNL     1      10.566   5.987  13.652  1.00  0.00     0.127 S 
ATOM     71  O   UNL     1       9.203   5.457  13.630  1.00  0.00    -0.237 OA
ATOM     72  O   UNL     1      10.984   6.540  14.941  1.00  0.00    -0.237 OA
ATOM     73  O   UNL     1      10.947   6.789  12.498  1.00  0.00    -0.744 OA
ENDBRANCH  67  70
ENDBRANCH  49  63
BRANCH  50  74
ATOM     74  C   UNL     1      17.336  -0.008   3.890  1.00  0.00     0.023 A 
ATOM     75  C   UNL     1      18.683  -0.419   3.914  1.00  0.00     0.012 A 
ATOM     76  C   UNL     1      16.619  -0.070   2.680  1.00  0.00     0.148 A 
ATOM     77  C   UNL     1      19.313  -0.861   2.750  1.00  0.00     0.002 A 
ATOM     78  C   UNL     1      17.236  -0.561   1.536  1.00  0.00     0.091 A 
ATOM     79  F   UNL     1      15.339   0.329   2.680  1.00  0.00    -0.205 F 
ATOM     80  C   UNL     1      18.587  -0.942   1.565  1.00  0.00     0.022 A 
BRANCH  78  81
ATOM     81  S   UNL     1      16.353  -0.821  -0.006  1.00  0.00     0.127 S 
ATOM     82  O   UNL     1      17.032   0.112  -0.902  1.00  0.00    -0.237 OA
ATOM     83  O   UNL     1      16.621  -2.235  -0.269  1.00  0.00    -0.237 OA
ATOM     84  O   UNL     1      14.957  -0.514   0.278  1.00  0.00    -0.744 OA
ENDBRANCH  78  81
ENDBRANCH  50  74
BRANCH  62  85
ATOM     85  C   UNL     1      18.368   5.394   8.195  1.00  0.00     0.023 A 
ATOM     86  C   UNL     1      18.181   6.442   7.271  1.00  0.00     0.012 A 
ATOM     87  C   UNL     1      19.413   5.482   9.136  1.00  0.00     0.148 A 
ATOM     88  C   UNL     1      19.041   7.541   7.263  1.00  0.00     0.002 A 
ATOM     89  C   UNL     1      20.232   6.605   9.157  1.00  0.00     0.091 A 
ATOM     90  F   UNL     1      19.586   4.467   9.995  1.00  0.00    -0.205 F 
ATOM     91  C   UNL     1      20.056   7.628   8.212  1.00  0.00     0.022 A 
BRANCH  89  92
ATOM     92  S   UNL     1      21.500   6.851  10.405  1.00  0.00     0.127 S 
ATOM     93  O   UNL     1      22.724   6.701   9.620  1.00  0.00    -0.237 OA
ATOM     94  O   UNL     1      21.228   8.217  10.855  1.00  0.00    -0.237 OA
ATOM     95  O   UNL     1      21.277   5.826  11.415  1.00  0.00    -0.744 OA
ENDBRANCH  89  92
ENDBRANCH  62  85
ENDBRANCH  36  37
ENDBRANCH  28  31
ENDBRANCH  26  27
ENDBRANCH  25  26
ENDBRANCH   1  25
TORSDOF 18
