REMARK SMILES Cc1c(CC(=O)N2CCC(C(=O)NCCCCCCNC(=O)c3ccc(-c4c5nc(c(-c6cccc(S(=O)(=O)[O-])c6F)c6ccc([nH]6)c(-c6cccc(S(=O)(=O)[O-])c6F)c6nc(c(-c7cccc(S(=O)(=O)[O-])c7F)c7ccc4[nH]7)C=C6)C=C5)cc3)(c3ccccc3)CC2)c(=O)oc2c(C)c(O)ccc12
REMARK SMILES IDX 16 1 15 2 14 3 13 4 11 5 12 6 10 8 5 9 6 10 7 11 8 12 93 13
REMARK SMILES IDX 9 14 92 15 4 16 3 17 1 18 2 19 104 20 94 21 97 22 103 23
REMARK SMILES IDX 95 24 96 25 98 26 102 27 99 28 100 29 101 30 86 32 87 33
REMARK SMILES IDX 91 34 88 35 90 36 89 37 17 38 18 39 19 40 20 41 21 42 22 44
REMARK SMILES IDX 23 45 24 46 85 47 25 48 84 49 26 50 27 51 28 52 78 53 29 54
REMARK SMILES IDX 83 55 77 56 79 57 30 58 82 59 76 60 75 61 31 63 63 64 43 65
REMARK SMILES IDX 62 66 44 67 47 68 61 69 80 70 45 71 46 72 60 74 81 75 48 76
REMARK SMILES IDX 32 77 33 78 41 79 34 80 36 81 42 82 35 83 37 84 38 85 39 86
REMARK SMILES IDX 40 87 64 88 65 89 73 90 66 91 68 92 74 93 67 94 69 95 70 96
REMARK SMILES IDX 71 97 72 98 49 99 50 100 58 101 51 102 53 103 59 104 52 105
REMARK SMILES IDX 54 106 55 107 56 108 57 109
REMARK H PARENT 13 7 101 31 20 43 79 62 47 73
REMARK Flexibility Score: inf
ROOT
ATOM      1  C   UNL     1       4.959   3.940  -3.396  1.00  0.00     0.002 C 
ENDROOT
BRANCH   1   2
ATOM      2  C   UNL     1       4.916   2.721  -2.465  1.00  0.00     0.021 C 
BRANCH   2   3
ATOM      3  C   UNL     1       4.111   1.535  -2.998  1.00  0.00     0.116 C 
BRANCH   3   4
ATOM      4  N   UNL     1       4.702   0.993  -4.214  1.00  0.00    -0.355 N 
ATOM      5  C   UNL     1       5.159  -0.244  -4.572  1.00  0.00     0.230 C 
ATOM      6  O   UNL     1       5.427  -0.330  -5.774  1.00  0.00    -0.274 OA
ATOM      7  H   UNL     1       4.792   1.661  -4.931  1.00  0.00     0.163 HD
BRANCH   5   8
ATOM      8  C   UNL     1       5.223  -1.459  -3.567  1.00  0.00     0.077 C 
ATOM      9  C   UNL     1       3.541  -1.514   0.435  1.00  0.00     0.227 C 
ATOM     10  O   UNL     1       4.186  -0.850   1.258  1.00  0.00    -0.275 OA
ATOM     11  N   UNL     1       4.061  -1.728  -0.842  1.00  0.00    -0.342 N 
ATOM     12  C   UNL     1       5.513  -1.625  -0.985  1.00  0.00     0.121 C 
ATOM     13  C   UNL     1       3.356  -2.346  -1.949  1.00  0.00     0.121 C 
ATOM     14  C   UNL     1       5.997  -1.024  -2.299  1.00  0.00     0.043 C 
ATOM     15  C   UNL     1       3.728  -1.792  -3.316  1.00  0.00     0.043 C 
BRANCH   9  16
ATOM     16  C   UNL     1       2.255  -2.208   0.937  1.00  0.00     0.143 C 
BRANCH  16  17
ATOM     17  C   UNL     1       1.031  -2.260   0.060  1.00  0.00     0.051 A 
ATOM     18  C   UNL     1       0.598   0.201   0.229  1.00  0.00     0.046 C 
ATOM     19  C   UNL     1       0.299  -1.182  -0.300  1.00  0.00    -0.029 A 
ATOM     20  C   UNL     1      -0.783  -1.357  -1.294  1.00  0.00     0.021 A 
ATOM     21  C   UNL     1       0.689  -3.631  -0.412  1.00  0.00     0.340 A 
ATOM     22  C   UNL     1      -1.095  -2.644  -1.745  1.00  0.00     0.145 A 
ATOM     23  C   UNL     1      -1.494  -0.297  -1.869  1.00  0.00     0.016 A 
ATOM     24  O   UNL     1       1.378  -4.608  -0.136  1.00  0.00    -0.246 OA
ATOM     25  O   UNL     1      -0.410  -3.763  -1.235  1.00  0.00    -0.422 OA
ATOM     26  C   UNL     1      -2.063  -2.907  -2.734  1.00  0.00     0.034 A 
ATOM     27  C   UNL     1      -2.441  -0.521  -2.878  1.00  0.00     0.047 A 
ATOM     28  C   UNL     1      -2.365  -4.321  -3.140  1.00  0.00     0.052 C 
ATOM     29  C   UNL     1      -2.715  -1.817  -3.306  1.00  0.00     0.122 A 
BRANCH  29  30
ATOM     30  O   UNL     1      -3.627  -2.025  -4.301  1.00  0.00    -0.508 OA
ATOM     31  H   UNL     1      -3.814  -2.896  -4.591  1.00  0.00     0.293 HD
ENDBRANCH  29  30
ENDBRANCH  16  17
ENDBRANCH   9  16
BRANCH   8  32
ATOM     32  C   UNL     1       5.940  -2.745  -4.114  1.00  0.00    -0.032 A 
ATOM     33  C   UNL     1       6.744  -2.762  -5.265  1.00  0.00     0.005 A 
ATOM     34  C   UNL     1       5.842  -3.971  -3.420  1.00  0.00     0.005 A 
ATOM     35  C   UNL     1       7.340  -3.941  -5.738  1.00  0.00     0.000 A 
ATOM     36  C   UNL     1       6.446  -5.147  -3.877  1.00  0.00     0.000 A 
ATOM     37  C   UNL     1       7.185  -5.136  -5.048  1.00  0.00     0.000 A 
ENDBRANCH   8  32
ENDBRANCH   5   8
ENDBRANCH   3   4
ENDBRANCH   2   3
ENDBRANCH   1   2
BRANCH   1  38
ATOM     38  C   UNL     1       3.598   4.534  -3.771  1.00  0.00     0.002 C 
BRANCH  38  39
ATOM     39  C   UNL     1       2.689   4.882  -2.590  1.00  0.00     0.021 C 
BRANCH  39  40
ATOM     40  C   UNL     1       3.300   5.840  -1.573  1.00  0.00     0.116 C 
BRANCH  40  41
ATOM     41  N   UNL     1       3.529   7.162  -2.136  1.00  0.00    -0.352 N 
ATOM     42  C   UNL     1       3.062   8.372  -1.687  1.00  0.00     0.251 C 
ATOM     43  H   UNL     1       4.090   7.192  -2.944  1.00  0.00     0.163 HD
ATOM     44  O   UNL     1       3.189   9.384  -2.370  1.00  0.00    -0.269 OA
BRANCH  42  45
ATOM     45  C   UNL     1       2.386   8.438  -0.376  1.00  0.00     0.039 A 
ATOM     46  C   UNL     1       1.116   9.014  -0.294  1.00  0.00     0.014 A 
ATOM     47  C   UNL     1       3.005   7.911   0.763  1.00  0.00     0.014 A 
ATOM     48  C   UNL     1       0.442   9.019   0.929  1.00  0.00     0.010 A 
ATOM     49  C   UNL     1       2.312   7.876   1.969  1.00  0.00     0.010 A 
ATOM     50  C   UNL     1       1.029   8.436   2.063  1.00  0.00    -0.014 A 
BRANCH  50  51
ATOM     51  C   UNL     1       0.327   8.429   3.368  1.00  0.00     0.031 A 
ATOM     52  C   UNL     1       0.829   9.294   4.488  1.00  0.00     0.074 A 
ATOM     53  C   UNL     1      -0.725   7.610   3.560  1.00  0.00     0.049 A 
ATOM     54  N   UNL     1       0.373   9.404   5.707  1.00  0.00    -0.248 NA
ATOM     55  C   UNL     1       2.005  10.136   4.206  1.00  0.00     0.031 C 
ATOM     56  C   UNL     1      -1.275   6.690   2.562  1.00  0.00     0.029 A 
ATOM     57  N   UNL     1      -1.510   7.409   4.667  1.00  0.00    -0.354 N 
ATOM     58  C   UNL     1       1.212  10.310   6.343  1.00  0.00     0.074 A 
ATOM     59  C   UNL     1       2.224  10.700   5.386  1.00  0.00     0.031 C 
ATOM     60  C   UNL     1      -2.314   6.030   3.100  1.00  0.00     0.029 A 
ATOM     61  C   UNL     1      -2.493   6.465   4.483  1.00  0.00     0.049 A 
ATOM     62  H   UNL     1      -1.382   7.894   5.514  1.00  0.00     0.167 HD
ATOM     63  C   UNL     1       1.127  10.801   7.600  1.00  0.00     0.034 A 
ATOM     64  C   UNL     1      -3.437   6.009   5.331  1.00  0.00     0.034 A 
ATOM     65  C   UNL     1       0.095  10.452   8.535  1.00  0.00     0.049 A 
ATOM     66  C   UNL     1      -3.518   6.582   6.720  1.00  0.00     0.074 A 
ATOM     67  C   UNL     1      -0.107  10.945   9.811  1.00  0.00     0.029 A 
ATOM     68  N   UNL     1      -0.909   9.530   8.294  1.00  0.00    -0.354 N 
ATOM     69  N   UNL     1      -2.784   7.522   7.264  1.00  0.00    -0.248 NA
ATOM     70  C   UNL     1      -4.571   6.055   7.601  1.00  0.00     0.031 C 
ATOM     71  C   UNL     1      -1.238  10.321  10.344  1.00  0.00     0.029 A 
ATOM     72  C   UNL     1      -1.738   9.441   9.397  1.00  0.00     0.049 A 
ATOM     73  H   UNL     1      -1.017   9.014   7.463  1.00  0.00     0.167 HD
ATOM     74  C   UNL     1      -3.302   7.719   8.539  1.00  0.00     0.074 A 
ATOM     75  C   UNL     1      -4.418   6.808   8.684  1.00  0.00     0.031 C 
ATOM     76  C   UNL     1      -2.879   8.569   9.505  1.00  0.00     0.034 A 
BRANCH  63  77
ATOM     77  C   UNL     1       2.130  11.838   8.015  1.00  0.00     0.023 A 
ATOM     78  C   UNL     1       1.949  13.168   7.586  1.00  0.00     0.012 A 
ATOM     79  C   UNL     1       3.188  11.524   8.888  1.00  0.00     0.148 A 
ATOM     80  C   UNL     1       2.815  14.172   8.011  1.00  0.00     0.002 A 
ATOM     81  C   UNL     1       4.032  12.537   9.330  1.00  0.00     0.091 A 
ATOM     82  F   UNL     1       3.345  10.249   9.269  1.00  0.00    -0.205 F 
ATOM     83  C   UNL     1       3.849  13.859   8.889  1.00  0.00     0.022 A 
BRANCH  81  84
ATOM     84  S   UNL     1       5.366  12.254  10.498  1.00  0.00     0.127 S 
ATOM     85  O   UNL     1       6.540  12.583   9.689  1.00  0.00    -0.237 OA
ATOM     86  O   UNL     1       5.060  13.221  11.551  1.00  0.00    -0.237 OA
ATOM     87  O   UNL     1       5.265  10.858  10.898  1.00  0.00    -0.744 OA
ENDBRANCH  81  84
ENDBRANCH  63  77
BRANCH  64  88
ATOM     88  C   UNL     1      -4.438   5.018   4.851  1.00  0.00     0.023 A 
ATOM     89  C   UNL     1      -5.746   5.455   4.569  1.00  0.00     0.012 A 
ATOM     90  C   UNL     1      -4.091   3.674   4.616  1.00  0.00     0.148 A 
ATOM     91  C   UNL     1      -6.700   4.565   4.073  1.00  0.00     0.002 A 
ATOM     92  C   UNL     1      -5.034   2.803   4.083  1.00  0.00     0.091 A 
ATOM     93  F   UNL     1      -2.840   3.284   4.896  1.00  0.00    -0.205 F 
ATOM     94  C   UNL     1      -6.342   3.243   3.822  1.00  0.00     0.022 A 
BRANCH  92  95
ATOM     95  S   UNL     1      -4.640   1.113   3.615  1.00  0.00     0.127 S 
ATOM     96  O   UNL     1      -5.471   0.346   4.539  1.00  0.00    -0.237 OA
ATOM     97  O   UNL     1      -5.076   1.082   2.219  1.00  0.00    -0.237 OA
ATOM     98  O   UNL     1      -3.202   0.976   3.799  1.00  0.00    -0.744 OA
ENDBRANCH  92  95
ENDBRANCH  64  88
BRANCH  76  99
ATOM     99  C   UNL     1      -3.620   8.585  10.812  1.00  0.00     0.023 A 
ATOM    100  C   UNL     1      -3.341   7.593  11.771  1.00  0.00     0.012 A 
ATOM    101  C   UNL     1      -4.474   9.655  11.142  1.00  0.00     0.148 A 
ATOM    102  C   UNL     1      -3.904   7.665  13.044  1.00  0.00     0.002 A 
ATOM    103  C   UNL     1      -5.006   9.738  12.422  1.00  0.00     0.091 A 
ATOM    104  F   UNL     1      -4.728  10.580  10.205  1.00  0.00    -0.205 F 
ATOM    105  C   UNL     1      -4.725   8.742  13.373  1.00  0.00     0.022 A 
BRANCH 103 106
ATOM    106  S   UNL     1      -6.010  11.124  12.968  1.00  0.00     0.127 S 
ATOM    107  O   UNL     1      -7.312  10.490  13.162  1.00  0.00    -0.237 OA
ATOM    108  O   UNL     1      -5.335  11.527  14.202  1.00  0.00    -0.237 OA
ATOM    109  O   UNL     1      -5.954  12.110  11.896  1.00  0.00    -0.744 OA
ENDBRANCH 103 106
ENDBRANCH  76  99
ENDBRANCH  50  51
ENDBRANCH  42  45
ENDBRANCH  40  41
ENDBRANCH  39  40
ENDBRANCH  38  39
ENDBRANCH   1  38
TORSDOF 20
