REMARK SMILES CC1(C)O[C@](C)([C@H](O)C2CCCCC2)CC[C@H]1C(=O)NCCCCCCNC(=O)c1ccc(-c2c3nc(c(-c4cccc(S(=O)(=O)[O-])c4F)c4ccc([nH]4)c(-c4cccc(S(=O)(=O)[O-])c4F)c4nc(c(-c5cccc(S(=O)(=O)[O-])c5F)c5ccc2[nH]5)C=C4)C=C3)cc1
REMARK SMILES IDX 24 1 23 2 22 3 21 4 20 5 18 6 19 7 17 9 1 10 2 11 3 12 4 13
REMARK SMILES IDX 5 14 16 15 6 16 15 17 7 18 9 19 10 20 14 21 11 22 13 23
REMARK SMILES IDX 12 24 8 25 25 27 26 28 27 29 28 30 29 32 30 33 31 34 92 35
REMARK SMILES IDX 32 36 91 37 33 38 34 39 35 40 85 41 36 42 90 43 84 44 86 45
REMARK SMILES IDX 37 46 89 47 83 48 82 49 38 51 70 52 50 53 69 54 51 55 54 56
REMARK SMILES IDX 68 57 87 58 52 59 53 60 67 62 88 63 55 64 39 65 40 66 48 67
REMARK SMILES IDX 41 68 43 69 49 70 42 71 44 72 45 73 46 74 47 75 71 76 72 77
REMARK SMILES IDX 80 78 73 79 75 80 81 81 74 82 76 83 77 84 78 85 79 86 56 87
REMARK SMILES IDX 57 88 65 89 58 90 60 91 66 92 59 93 61 94 62 95 63 96 64 97
REMARK H PARENT 20 8 8 26 27 31 86 50 54 61
REMARK Flexibility Score: inf
ROOT
ATOM      1  C   UNL     1      -5.677   7.698   2.523  1.00  0.00     0.002 C 
ENDROOT
BRANCH   1   2
ATOM      2  C   UNL     1      -4.937   8.656   1.586  1.00  0.00     0.002 C 
BRANCH   2   3
ATOM      3  C   UNL     1      -3.724   8.055   0.880  1.00  0.00     0.021 C 
BRANCH   3   4
ATOM      4  C   UNL     1      -4.056   7.006  -0.186  1.00  0.00     0.116 C 
BRANCH   4   5
ATOM      5  N   UNL     1      -4.215   7.618  -1.494  1.00  0.00    -0.356 N 
ATOM      6  C   UNL     1      -3.466   7.584  -2.627  1.00  0.00     0.226 C 
ATOM      7  O   UNL     1      -3.837   8.328  -3.543  1.00  0.00    -0.275 OA
ATOM      8  H   UNL     1      -5.029   8.166  -1.576  1.00  0.00     0.163 HD
BRANCH   6   9
ATOM      9  C   UNL     1      -2.239   6.687  -2.837  1.00  0.00     0.110 C 
ATOM     10  C   UNL     1      -0.947   7.877  -0.862  1.00  0.00     0.043 C 
ATOM     11  C   UNL     1      -0.897   7.191  -2.225  1.00  0.00     0.075 C 
ATOM     12  C   UNL     1      -0.315   8.260  -3.186  1.00  0.00     0.043 C 
ATOM     13  O   UNL     1       0.131   6.189  -2.153  1.00  0.00    -0.366 OA
ATOM     14  C   UNL     1      -0.195   4.834  -1.809  1.00  0.00     0.092 C 
ATOM     15  C   UNL     1      -2.554   5.195  -2.704  1.00  0.00     0.019 C 
ATOM     16  C   UNL     1      -0.684   4.678  -0.361  1.00  0.00     0.045 C 
ATOM     17  C   UNL     1      -1.290   4.343  -2.780  1.00  0.00     0.039 C 
BRANCH  14  18
ATOM     18  C   UNL     1       1.126   4.006  -2.057  1.00  0.00     0.149 C 
BRANCH  18  19
ATOM     19  C   UNL     1       2.417   4.411  -1.260  1.00  0.00     0.021 C 
ATOM     20  C   UNL     1       2.404   4.373   0.279  1.00  0.00     0.006 C 
ATOM     21  C   UNL     1       3.651   3.596  -1.716  1.00  0.00     0.006 C 
ATOM     22  C   UNL     1       2.355   2.970   0.866  1.00  0.00     0.000 C 
ATOM     23  C   UNL     1       3.723   2.181  -1.135  1.00  0.00     0.000 C 
ATOM     24  C   UNL     1       3.529   2.132   0.379  1.00  0.00     0.000 C 
ENDBRANCH  18  19
BRANCH  18  25
ATOM     25  O   UNL     1       0.870   2.602  -2.030  1.00  0.00    -0.390 OA
ATOM     26  H   UNL     1       0.614   2.337  -1.132  1.00  0.00     0.211 HD
ENDBRANCH  18  25
ENDBRANCH  14  18
ENDBRANCH   6   9
ENDBRANCH   4   5
ENDBRANCH   3   4
ENDBRANCH   2   3
ENDBRANCH   1   2
BRANCH   1  27
ATOM     27  C   UNL     1      -4.813   7.011   3.586  1.00  0.00     0.021 C 
BRANCH  27  28
ATOM     28  C   UNL     1      -3.971   7.950   4.447  1.00  0.00     0.116 C 
BRANCH  28  29
ATOM     29  N   UNL     1      -4.795   8.898   5.181  1.00  0.00    -0.352 N 
ATOM     30  C   UNL     1      -4.953   9.043   6.537  1.00  0.00     0.251 C 
ATOM     31  H   UNL     1      -5.313   9.524   4.626  1.00  0.00     0.163 HD
ATOM     32  O   UNL     1      -5.863   9.737   6.979  1.00  0.00    -0.269 OA
BRANCH  30  33
ATOM     33  C   UNL     1      -4.025   8.358   7.461  1.00  0.00     0.039 A 
ATOM     34  C   UNL     1      -4.541   7.671   8.562  1.00  0.00     0.014 A 
ATOM     35  C   UNL     1      -2.644   8.414   7.248  1.00  0.00     0.014 A 
ATOM     36  C   UNL     1      -3.674   6.998   9.426  1.00  0.00     0.010 A 
ATOM     37  C   UNL     1      -1.789   7.688   8.071  1.00  0.00     0.010 A 
ATOM     38  C   UNL     1      -2.292   6.983   9.175  1.00  0.00    -0.014 A 
BRANCH  38  39
ATOM     39  C   UNL     1      -1.349   6.250  10.057  1.00  0.00     0.031 A 
ATOM     40  C   UNL     1      -0.297   7.006  10.822  1.00  0.00     0.074 A 
ATOM     41  C   UNL     1      -1.374   4.904  10.090  1.00  0.00     0.049 A 
ATOM     42  N   UNL     1       0.676   6.545  11.564  1.00  0.00    -0.248 NA
ATOM     43  C   UNL     1      -0.323   8.475  10.715  1.00  0.00     0.031 C 
ATOM     44  C   UNL     1      -2.299   4.055   9.336  1.00  0.00     0.029 A 
ATOM     45  N   UNL     1      -0.576   4.010  10.760  1.00  0.00    -0.354 N 
ATOM     46  C   UNL     1       1.400   7.657  11.976  1.00  0.00     0.074 A 
ATOM     47  C   UNL     1       0.774   8.815  11.377  1.00  0.00     0.031 C 
ATOM     48  C   UNL     1      -2.013   2.766   9.581  1.00  0.00     0.029 A 
ATOM     49  C   UNL     1      -0.868   2.695  10.484  1.00  0.00     0.049 A 
ATOM     50  H   UNL     1       0.139   4.285  11.380  1.00  0.00     0.167 HD
ATOM     51  C   UNL     1       2.473   7.714  12.800  1.00  0.00     0.034 A 
ATOM     52  C   UNL     1      -0.274   1.559  10.902  1.00  0.00     0.034 A 
ATOM     53  C   UNL     1       3.060   6.565  13.434  1.00  0.00     0.049 A 
ATOM     54  C   UNL     1       0.886   1.651  11.857  1.00  0.00     0.074 A 
ATOM     55  C   UNL     1       4.090   6.524  14.356  1.00  0.00     0.029 A 
ATOM     56  N   UNL     1       2.670   5.254  13.210  1.00  0.00    -0.354 N 
ATOM     57  N   UNL     1       1.461   2.718  12.356  1.00  0.00    -0.248 NA
ATOM     58  C   UNL     1       1.456   0.383  12.337  1.00  0.00     0.031 C 
ATOM     59  C   UNL     1       4.336   5.185  14.676  1.00  0.00     0.029 A 
ATOM     60  C   UNL     1       3.442   4.394  13.972  1.00  0.00     0.049 A 
ATOM     61  H   UNL     1       1.950   4.975  12.599  1.00  0.00     0.167 HD
ATOM     62  C   UNL     1       2.431   2.253  13.237  1.00  0.00     0.074 A 
ATOM     63  C   UNL     1       2.355   0.807  13.215  1.00  0.00     0.031 C 
ATOM     64  C   UNL     1       3.312   2.960  13.987  1.00  0.00     0.034 A 
BRANCH  51  65
ATOM     65  C   UNL     1       3.049   9.072  13.109  1.00  0.00     0.023 A 
ATOM     66  C   UNL     1       2.328   9.962  13.931  1.00  0.00     0.012 A 
ATOM     67  C   UNL     1       4.322   9.446  12.636  1.00  0.00     0.148 A 
ATOM     68  C   UNL     1       2.847  11.217  14.247  1.00  0.00     0.002 A 
ATOM     69  C   UNL     1       4.852  10.681  12.993  1.00  0.00     0.091 A 
ATOM     70  F   UNL     1       4.984   8.596  11.838  1.00  0.00    -0.205 F 
ATOM     71  C   UNL     1       4.112  11.571  13.787  1.00  0.00     0.022 A 
BRANCH  69  72
ATOM     72  S   UNL     1       6.506  11.198  12.518  1.00  0.00     0.127 S 
ATOM     73  O   UNL     1       6.217  12.227  11.520  1.00  0.00    -0.237 OA
ATOM     74  O   UNL     1       7.045  11.707  13.780  1.00  0.00    -0.237 OA
ATOM     75  O   UNL     1       7.170  10.005  12.012  1.00  0.00    -0.744 OA
ENDBRANCH  69  72
ENDBRANCH  51  65
BRANCH  52  76
ATOM     76  C   UNL     1      -0.813   0.237  10.475  1.00  0.00     0.023 A 
ATOM     77  C   UNL     1      -1.473  -0.576  11.417  1.00  0.00     0.012 A 
ATOM     78  C   UNL     1      -0.707  -0.204   9.142  1.00  0.00     0.148 A 
ATOM     79  C   UNL     1      -1.990  -1.818  11.047  1.00  0.00     0.002 A 
ATOM     80  C   UNL     1      -1.273  -1.418   8.768  1.00  0.00     0.091 A 
ATOM     81  F   UNL     1      -0.066   0.579   8.262  1.00  0.00    -0.205 F 
ATOM     82  C   UNL     1      -1.899  -2.234   9.722  1.00  0.00     0.022 A 
BRANCH  80  83
ATOM     83  S   UNL     1      -1.321  -1.970   7.059  1.00  0.00     0.127 S 
ATOM     84  O   UNL     1      -0.356  -3.066   7.070  1.00  0.00    -0.237 OA
ATOM     85  O   UNL     1      -2.718  -2.379   6.912  1.00  0.00    -0.237 OA
ATOM     86  O   UNL     1      -0.952  -0.808   6.260  1.00  0.00    -0.744 OA
ENDBRANCH  80  83
ENDBRANCH  52  76
BRANCH  64  87
ATOM     87  C   UNL     1       4.242   2.191  14.888  1.00  0.00     0.023 A 
ATOM     88  C   UNL     1       5.324   1.477  14.336  1.00  0.00     0.012 A 
ATOM     89  C   UNL     1       4.095   2.254  16.288  1.00  0.00     0.148 A 
ATOM     90  C   UNL     1       6.230   0.814  15.164  1.00  0.00     0.002 A 
ATOM     91  C   UNL     1       5.029   1.632  17.107  1.00  0.00     0.091 A 
ATOM     92  F   UNL     1       3.048   2.923  16.791  1.00  0.00    -0.205 F 
ATOM     93  C   UNL     1       6.090   0.903  16.547  1.00  0.00     0.022 A 
BRANCH  91  94
ATOM     94  S   UNL     1       4.985   1.775  18.897  1.00  0.00     0.127 S 
ATOM     95  O   UNL     1       4.554   0.435  19.293  1.00  0.00    -0.237 OA
ATOM     96  O   UNL     1       6.378   2.087  19.218  1.00  0.00    -0.237 OA
ATOM     97  O   UNL     1       4.043   2.847  19.191  1.00  0.00    -0.744 OA
ENDBRANCH  91  94
ENDBRANCH  64  87
ENDBRANCH  38  39
ENDBRANCH  30  33
ENDBRANCH  28  29
ENDBRANCH  27  28
ENDBRANCH   1  27
TORSDOF 19
