REMARK SMILES C[C@H](NC(=O)c1c(C(=O)NCCCCCCNC(=O)c2ccc(-c3c4nc(c(-c5cccc(S(=O)(=O)[O-])c5F)c5ccc([nH]5)c(-c5cccc(S(=O)(=O)[O-])c5F)c5nc(c(-c6cccc(S(=O)(=O)[O-])c6F)c6ccc3[nH]6)C=C5)C=C4)cc2)cnn1C)[C@]12C[C@H]3C[C@H](C[C@H](C3)C1)C2
REMARK SMILES IDX 13 1 12 2 11 3 10 4 8 5 9 6 7 8 6 9 85 10 83 11 84 12 86 13
REMARK SMILES IDX 4 14 3 15 5 17 2 18 1 19 87 20 88 21 95 22 96 23 89 24 93 25
REMARK SMILES IDX 91 26 90 27 94 28 92 29 14 30 15 31 16 32 17 33 18 34 19 36
REMARK SMILES IDX 20 37 21 38 82 39 22 40 81 41 23 42 24 43 25 44 75 45 26 46
REMARK SMILES IDX 80 47 74 48 76 49 27 50 79 51 73 52 72 53 28 55 60 56 40 57
REMARK SMILES IDX 59 58 41 59 44 60 58 61 77 62 42 63 43 64 57 66 78 67 45 68
REMARK SMILES IDX 29 69 30 70 38 71 31 72 33 73 39 74 32 75 34 76 35 77 36 78
REMARK SMILES IDX 37 79 61 80 62 81 70 82 63 83 65 84 71 85 64 86 66 87 67 88
REMARK SMILES IDX 68 89 69 90 46 91 47 92 55 93 48 94 50 95 56 96 49 97 51 98
REMARK SMILES IDX 52 99 53 100 54 101
REMARK H PARENT 10 7 3 16 17 35 76 54 44 65
REMARK Flexibility Score: inf
ROOT
ATOM      1  C   UNL     1       1.405  -1.442  -4.964  1.00  0.00     0.002 C 
ENDROOT
BRANCH   1   2
ATOM      2  C   UNL     1       1.044  -0.410  -3.896  1.00  0.00     0.021 C 
BRANCH   2   3
ATOM      3  C   UNL     1       2.030  -0.213  -2.749  1.00  0.00     0.116 C 
BRANCH   3   4
ATOM      4  N   UNL     1       3.332   0.259  -3.141  1.00  0.00    -0.352 N 
ATOM      5  C   UNL     1       4.285   0.975  -2.463  1.00  0.00     0.255 C 
ATOM      6  O   UNL     1       5.301   1.243  -3.112  1.00  0.00    -0.269 OA
ATOM      7  H   UNL     1       3.584   0.024  -4.063  1.00  0.00     0.163 HD
BRANCH   5   8
ATOM      8  C   UNL     1       4.154   1.474  -1.095  1.00  0.00     0.090 A 
ATOM      9  C   UNL     1       3.392   1.125   0.021  1.00  0.00     0.138 A 
ATOM     10  N   UNL     1       3.846   1.916   1.051  1.00  0.00    -0.262 N 
ATOM     11  C   UNL     1       4.957   2.546  -0.609  1.00  0.00     0.149 A 
ATOM     12  N   UNL     1       4.735   2.847   0.669  1.00  0.00    -0.180 NA
ATOM     13  C   UNL     1       3.503   1.831   2.453  1.00  0.00     0.174 C 
BRANCH   9  14
ATOM     14  C   UNL     1       2.434   0.085   0.219  1.00  0.00     0.270 C 
ATOM     15  N   UNL     1       1.112   0.406   0.392  1.00  0.00    -0.348 N 
ATOM     16  H   UNL     1       0.523  -0.383   0.407  1.00  0.00     0.164 HD
ATOM     17  O   UNL     1       2.742  -1.103   0.203  1.00  0.00    -0.267 OA
BRANCH  15  18
ATOM     18  C   UNL     1       0.374   1.679   0.562  1.00  0.00     0.085 C 
ATOM     19  C   UNL     1       0.724   2.729  -0.506  1.00  0.00     0.031 C 
BRANCH  18  20
ATOM     20  C   UNL     1      -1.183   1.411   0.638  1.00  0.00    -0.009 C 
ATOM     21  C   UNL     1      -1.525   0.459   1.826  1.00  0.00     0.012 C 
ATOM     22  C   UNL     1      -1.721   0.767  -0.672  1.00  0.00     0.012 C 
ATOM     23  C   UNL     1      -1.978   2.731   0.879  1.00  0.00     0.012 C 
ATOM     24  C   UNL     1      -3.038   0.189   1.910  1.00  0.00    -0.010 C 
ATOM     25  C   UNL     1      -3.234   0.503  -0.580  1.00  0.00    -0.010 C 
ATOM     26  C   UNL     1      -3.492   2.469   0.970  1.00  0.00    -0.010 C 
ATOM     27  C   UNL     1      -3.777   1.514   2.134  1.00  0.00     0.007 C 
ATOM     28  C   UNL     1      -3.513  -0.447   0.594  1.00  0.00     0.007 C 
ATOM     29  C   UNL     1      -3.970   1.831  -0.345  1.00  0.00     0.007 C 
ENDBRANCH  18  20
ENDBRANCH  15  18
ENDBRANCH   9  14
ENDBRANCH   5   8
ENDBRANCH   3   4
ENDBRANCH   2   3
ENDBRANCH   1   2
BRANCH   1  30
ATOM     30  C   UNL     1       1.884  -2.820  -4.502  1.00  0.00     0.002 C 
BRANCH  30  31
ATOM     31  C   UNL     1       1.040  -3.572  -3.470  1.00  0.00     0.021 C 
BRANCH  31  32
ATOM     32  C   UNL     1      -0.463  -3.668  -3.716  1.00  0.00     0.116 C 
BRANCH  32  33
ATOM     33  N   UNL     1      -0.816  -4.274  -4.985  1.00  0.00    -0.352 N 
ATOM     34  C   UNL     1      -1.811  -5.175  -5.282  1.00  0.00     0.251 C 
ATOM     35  H   UNL     1      -0.259  -3.998  -5.749  1.00  0.00     0.163 HD
ATOM     36  O   UNL     1      -1.906  -5.603  -6.431  1.00  0.00    -0.269 OA
BRANCH  34  37
ATOM     37  C   UNL     1      -2.741  -5.672  -4.236  1.00  0.00     0.039 A 
ATOM     38  C   UNL     1      -3.035  -7.041  -4.216  1.00  0.00     0.014 A 
ATOM     39  C   UNL     1      -3.344  -4.823  -3.303  1.00  0.00     0.014 A 
ATOM     40  C   UNL     1      -3.870  -7.567  -3.226  1.00  0.00     0.010 A 
ATOM     41  C   UNL     1      -4.146  -5.355  -2.288  1.00  0.00     0.010 A 
ATOM     42  C   UNL     1      -4.409  -6.731  -2.235  1.00  0.00    -0.014 A 
BRANCH  42  43
ATOM     43  C   UNL     1      -5.218  -7.295  -1.126  1.00  0.00     0.031 A 
ATOM     44  C   UNL     1      -6.699  -7.058  -1.056  1.00  0.00     0.074 A 
ATOM     45  C   UNL     1      -4.607  -7.995  -0.150  1.00  0.00     0.049 A 
ATOM     46  N   UNL     1      -7.551  -7.450  -0.144  1.00  0.00    -0.248 NA
ATOM     47  C   UNL     1      -7.300  -6.273  -2.145  1.00  0.00     0.031 C 
ATOM     48  C   UNL     1      -3.170  -8.259  -0.074  1.00  0.00     0.029 A 
ATOM     49  N   UNL     1      -5.118  -8.602   0.971  1.00  0.00    -0.354 N 
ATOM     50  C   UNL     1      -8.783  -6.941  -0.532  1.00  0.00     0.074 A 
ATOM     51  C   UNL     1      -8.568  -6.205  -1.760  1.00  0.00     0.031 C 
ATOM     52  C   UNL     1      -2.916  -8.987   1.026  1.00  0.00     0.029 A 
ATOM     53  C   UNL     1      -4.167  -9.230   1.739  1.00  0.00     0.049 A 
ATOM     54  H   UNL     1      -6.075  -8.589   1.202  1.00  0.00     0.167 HD
ATOM     55  C   UNL     1      -9.989  -7.094   0.064  1.00  0.00     0.034 A 
ATOM     56  C   UNL     1      -4.287  -9.932   2.882  1.00  0.00     0.034 A 
ATOM     57  C   UNL     1     -10.224  -7.866   1.253  1.00  0.00     0.049 A 
ATOM     58  C   UNL     1      -5.644 -10.127   3.496  1.00  0.00     0.074 A 
ATOM     59  C   UNL     1     -11.422  -8.092   1.910  1.00  0.00     0.029 A 
ATOM     60  N   UNL     1      -9.247  -8.549   1.957  1.00  0.00    -0.354 N 
ATOM     61  N   UNL     1      -6.810  -9.717   3.059  1.00  0.00    -0.248 NA
ATOM     62  C   UNL     1      -5.707 -10.898   4.747  1.00  0.00     0.031 C 
ATOM     63  C   UNL     1     -11.172  -8.937   2.998  1.00  0.00     0.029 A 
ATOM     64  C   UNL     1      -9.815  -9.211   3.032  1.00  0.00     0.049 A 
ATOM     65  H   UNL     1      -8.290  -8.562   1.728  1.00  0.00     0.167 HD
ATOM     66  C   UNL     1      -7.745 -10.193   3.970  1.00  0.00     0.074 A 
ATOM     67  C   UNL     1      -7.014 -10.939   4.974  1.00  0.00     0.031 C 
ATOM     68  C   UNL     1      -9.086 -10.004   3.986  1.00  0.00     0.034 A 
BRANCH  55  69
ATOM     69  C   UNL     1     -11.172  -6.469  -0.614  1.00  0.00     0.023 A 
ATOM     70  C   UNL     1     -11.860  -7.215  -1.590  1.00  0.00     0.012 A 
ATOM     71  C   UNL     1     -11.627  -5.182  -0.272  1.00  0.00     0.148 A 
ATOM     72  C   UNL     1     -12.985  -6.683  -2.219  1.00  0.00     0.002 A 
ATOM     73  C   UNL     1     -12.757  -4.661  -0.896  1.00  0.00     0.091 A 
ATOM     74  F   UNL     1     -10.939  -4.472   0.635  1.00  0.00    -0.205 F 
ATOM     75  C   UNL     1     -13.438  -5.410  -1.869  1.00  0.00     0.022 A 
BRANCH  73  76
ATOM     76  S   UNL     1     -13.365  -3.028  -0.445  1.00  0.00     0.127 S 
ATOM     77  O   UNL     1     -12.413  -2.145  -1.114  1.00  0.00    -0.237 OA
ATOM     78  O   UNL     1     -14.714  -3.000  -1.014  1.00  0.00    -0.237 OA
ATOM     79  O   UNL     1     -13.335  -3.027   1.013  1.00  0.00    -0.744 OA
ENDBRANCH  73  76
ENDBRANCH  55  69
BRANCH  56  80
ATOM     80  C   UNL     1      -3.087 -10.582   3.470  1.00  0.00     0.023 A 
ATOM     81  C   UNL     1      -2.907 -11.967   3.297  1.00  0.00     0.012 A 
ATOM     82  C   UNL     1      -2.102  -9.841   4.145  1.00  0.00     0.148 A 
ATOM     83  C   UNL     1      -1.769 -12.603   3.796  1.00  0.00     0.002 A 
ATOM     84  C   UNL     1      -0.954 -10.476   4.611  1.00  0.00     0.091 A 
ATOM     85  F   UNL     1      -2.283  -8.522   4.309  1.00  0.00    -0.205 F 
ATOM     86  C   UNL     1      -0.787 -11.857   4.446  1.00  0.00     0.022 A 
BRANCH  84  87
ATOM     87  S   UNL     1       0.352  -9.497   5.358  1.00  0.00     0.127 S 
ATOM     88  O   UNL     1      -0.257  -9.051   6.606  1.00  0.00    -0.237 OA
ATOM     89  O   UNL     1       1.442 -10.460   5.523  1.00  0.00    -0.237 OA
ATOM     90  O   UNL     1       0.610  -8.472   4.352  1.00  0.00    -0.744 OA
ENDBRANCH  84  87
ENDBRANCH  56  80
BRANCH  68  91
ATOM     91  C   UNL     1      -9.858 -10.610   5.121  1.00  0.00     0.023 A 
ATOM     92  C   UNL     1      -9.971  -9.890   6.325  1.00  0.00     0.012 A 
ATOM     93  C   UNL     1     -10.524 -11.842   4.983  1.00  0.00     0.148 A 
ATOM     94  C   UNL     1     -10.734 -10.393   7.379  1.00  0.00     0.002 A 
ATOM     95  C   UNL     1     -11.297 -12.330   6.033  1.00  0.00     0.091 A 
ATOM     96  F   UNL     1     -10.392 -12.527   3.837  1.00  0.00    -0.205 F 
ATOM     97  C   UNL     1     -11.404 -11.608   7.232  1.00  0.00     0.022 A 
BRANCH  95  98
ATOM     98  S   UNL     1     -12.199 -13.875   5.840  1.00  0.00     0.127 S 
ATOM     99  O   UNL     1     -11.135 -14.873   5.904  1.00  0.00    -0.237 OA
ATOM    100  O   UNL     1     -13.104 -13.886   6.991  1.00  0.00    -0.237 OA
ATOM    101  O   UNL     1     -12.874 -13.728   4.556  1.00  0.00    -0.744 OA
ENDBRANCH  95  98
ENDBRANCH  68  91
ENDBRANCH  42  43
ENDBRANCH  34  37
ENDBRANCH  32  33
ENDBRANCH  31  32
ENDBRANCH  30  31
ENDBRANCH   1  30
TORSDOF 19
