REMARK SMILES O=C(CCc1cccnc1)Nc1ccsc1C(=O)NCCCCCCNC(=O)c1ccc(-c2c3nc(c(-c4cccc(S(=O)(=O)[O-])c4F)c4ccc([nH]4)c(-c4cccc(S(=O)(=O)[O-])c4F)c4nc(c(-c5cccc(S(=O)(=O)[O-])c5F)c5ccc2[nH]5)C=C4)C=C3)cc1
REMARK SMILES IDX 22 1 21 2 20 3 19 4 17 5 18 6 16 8 12 9 13 10 14 11 15 12
REMARK SMILES IDX 11 13 1 14 2 15 3 17 4 18 5 19 6 20 10 21 7 22 9 23 8 24
REMARK SMILES IDX 23 25 24 26 25 27 26 28 27 29 28 31 29 32 30 33 91 34 31 35
REMARK SMILES IDX 90 36 32 37 33 38 34 39 84 40 35 41 89 42 83 43 85 44 36 45
REMARK SMILES IDX 88 46 82 47 81 48 37 50 69 51 49 52 68 53 50 54 53 55 67 56
REMARK SMILES IDX 86 57 51 58 52 59 66 61 87 62 54 63 38 64 39 65 47 66 40 67
REMARK SMILES IDX 42 68 48 69 41 70 43 71 44 72 45 73 46 74 70 75 71 76 79 77
REMARK SMILES IDX 72 78 74 79 80 80 73 81 75 82 76 83 77 84 78 85 55 86 56 87
REMARK SMILES IDX 64 88 57 89 59 90 65 91 58 92 60 93 61 94 62 95 63 96
REMARK H PARENT 19 7 11 16 26 30 85 49 53 60
REMARK Flexibility Score: inf
ROOT
ATOM      1  C   UNL     1       4.635  -2.941   3.318  1.00  0.00     0.002 C 
ENDROOT
BRANCH   1   2
ATOM      2  C   UNL     1       3.286  -2.644   2.634  1.00  0.00     0.021 C 
BRANCH   2   3
ATOM      3  C   UNL     1       2.986  -2.670   1.122  1.00  0.00     0.116 C 
BRANCH   3   4
ATOM      4  N   UNL     1       3.688  -3.591   0.255  1.00  0.00    -0.351 N 
ATOM      5  C   UNL     1       3.462  -3.852  -1.096  1.00  0.00     0.263 C 
ATOM      6  O   UNL     1       4.171  -4.725  -1.603  1.00  0.00    -0.268 OA
ATOM      7  H   UNL     1       4.420  -4.098   0.673  1.00  0.00     0.163 HD
BRANCH   5   8
ATOM      8  C   UNL     1       2.399  -3.172  -1.841  1.00  0.00     0.115 A 
ATOM      9  C   UNL     1       2.023  -1.839  -1.956  1.00  0.00     0.065 A 
ATOM     10  C   UNL     1       0.804  -1.681  -2.688  1.00  0.00     0.038 A 
ATOM     11  C   UNL     1       0.373  -2.858  -3.251  1.00  0.00     0.068 A 
ATOM     12  S   UNL     1       1.374  -4.168  -2.815  1.00  0.00    -0.137 S 
BRANCH   9  13
ATOM     13  N   UNL     1       2.776  -0.780  -1.470  1.00  0.00    -0.325 N 
ATOM     14  O   UNL     1       1.029   0.552  -0.764  1.00  0.00    -0.275 OA
ATOM     15  C   UNL     1       2.233   0.370  -0.934  1.00  0.00     0.224 C 
ATOM     16  H   UNL     1       3.757  -0.854  -1.509  1.00  0.00     0.169 HD
BRANCH  15  17
ATOM     17  C   UNL     1       3.245   1.430  -0.519  1.00  0.00     0.105 C 
BRANCH  17  18
ATOM     18  C   UNL     1       4.397   0.926   0.349  1.00  0.00     0.047 C 
BRANCH  18  19
ATOM     19  C   UNL     1       5.553   0.292  -0.390  1.00  0.00    -0.029 A 
ATOM     20  C   UNL     1       6.364   1.022  -1.252  1.00  0.00     0.007 A 
ATOM     21  C   UNL     1       5.885  -1.050  -0.226  1.00  0.00     0.114 A 
ATOM     22  C   UNL     1       7.420   0.389  -1.910  1.00  0.00     0.020 A 
ATOM     23  N   UNL     1       6.882  -1.700  -0.858  1.00  0.00    -0.264 NA
ATOM     24  C   UNL     1       7.634  -0.961  -1.690  1.00  0.00     0.111 A 
ENDBRANCH  18  19
ENDBRANCH  17  18
ENDBRANCH  15  17
ENDBRANCH   9  13
ENDBRANCH   5   8
ENDBRANCH   3   4
ENDBRANCH   2   3
ENDBRANCH   1   2
BRANCH   1  25
ATOM     25  C   UNL     1       5.962  -2.192   3.109  1.00  0.00     0.002 C 
BRANCH  25  26
ATOM     26  C   UNL     1       6.061  -0.665   3.179  1.00  0.00     0.021 C 
BRANCH  26  27
ATOM     27  C   UNL     1       5.565   0.076   4.416  1.00  0.00     0.116 C 
BRANCH  27  28
ATOM     28  N   UNL     1       6.504   0.021   5.522  1.00  0.00    -0.352 N 
ATOM     29  C   UNL     1       6.973   1.034   6.331  1.00  0.00     0.251 C 
ATOM     30  H   UNL     1       6.859  -0.874   5.724  1.00  0.00     0.163 HD
ATOM     31  O   UNL     1       7.916   0.797   7.086  1.00  0.00    -0.269 OA
BRANCH  29  32
ATOM     32  C   UNL     1       6.375   2.399   6.322  1.00  0.00     0.039 A 
ATOM     33  C   UNL     1       7.213   3.504   6.532  1.00  0.00     0.014 A 
ATOM     34  C   UNL     1       4.997   2.604   6.209  1.00  0.00     0.014 A 
ATOM     35  C   UNL     1       6.679   4.799   6.608  1.00  0.00     0.010 A 
ATOM     36  C   UNL     1       4.472   3.901   6.229  1.00  0.00     0.010 A 
ATOM     37  C   UNL     1       5.301   5.011   6.453  1.00  0.00    -0.014 A 
BRANCH  37  38
ATOM     38  C   UNL     1       4.707   6.374   6.553  1.00  0.00     0.031 A 
ATOM     39  C   UNL     1       3.760   6.712   7.678  1.00  0.00     0.074 A 
ATOM     40  C   UNL     1       4.949   7.288   5.593  1.00  0.00     0.049 A 
ATOM     41  N   UNL     1       3.106   7.823   7.904  1.00  0.00    -0.248 NA
ATOM     42  C   UNL     1       3.493   5.651   8.662  1.00  0.00     0.031 C 
ATOM     43  C   UNL     1       5.784   7.068   4.412  1.00  0.00     0.029 A 
ATOM     44  N   UNL     1       4.492   8.575   5.441  1.00  0.00    -0.354 N 
ATOM     45  C   UNL     1       2.321   7.583   9.027  1.00  0.00     0.074 A 
ATOM     46  C   UNL     1       2.559   6.211   9.419  1.00  0.00     0.031 C 
ATOM     47  C   UNL     1       5.773   8.175   3.653  1.00  0.00     0.029 A 
ATOM     48  C   UNL     1       4.917   9.179   4.281  1.00  0.00     0.049 A 
ATOM     49  H   UNL     1       3.914   9.023   6.101  1.00  0.00     0.167 HD
ATOM     50  C   UNL     1       1.499   8.432   9.691  1.00  0.00     0.034 A 
ATOM     51  C   UNL     1       4.649  10.401   3.776  1.00  0.00     0.034 A 
ATOM     52  C   UNL     1       1.304   9.812   9.333  1.00  0.00     0.049 A 
ATOM     53  C   UNL     1       3.784  11.349   4.563  1.00  0.00     0.074 A 
ATOM     54  C   UNL     1       0.575  10.781  10.000  1.00  0.00     0.029 A 
ATOM     55  N   UNL     1       1.835  10.419   8.206  1.00  0.00    -0.354 N 
ATOM     56  N   UNL     1       3.187  11.156   5.714  1.00  0.00    -0.248 NA
ATOM     57  C   UNL     1       3.590  12.695   4.005  1.00  0.00     0.031 C 
ATOM     58  C   UNL     1       0.651  11.970   9.266  1.00  0.00     0.029 A 
ATOM     59  C   UNL     1       1.445  11.746   8.152  1.00  0.00     0.049 A 
ATOM     60  H   UNL     1       2.407   9.972   7.540  1.00  0.00     0.167 HD
ATOM     61  C   UNL     1       2.574  12.363   6.034  1.00  0.00     0.074 A 
ATOM     62  C   UNL     1       2.890  13.287   4.964  1.00  0.00     0.031 C 
ATOM     63  C   UNL     1       1.807  12.672   7.109  1.00  0.00     0.034 A 
BRANCH  50  64
ATOM     64  C   UNL     1       0.787   7.905  10.913  1.00  0.00     0.023 A 
ATOM     65  C   UNL     1       1.524   7.642  12.086  1.00  0.00     0.012 A 
ATOM     66  C   UNL     1      -0.608   7.713  10.919  1.00  0.00     0.148 A 
ATOM     67  C   UNL     1       0.893   7.156  13.231  1.00  0.00     0.002 A 
ATOM     68  C   UNL     1      -1.238   7.269  12.078  1.00  0.00     0.091 A 
ATOM     69  F   UNL     1      -1.293   7.948   9.791  1.00  0.00    -0.205 F 
ATOM     70  C   UNL     1      -0.488   6.979  13.229  1.00  0.00     0.022 A 
BRANCH  68  71
ATOM     71  S   UNL     1      -3.021   7.084  12.199  1.00  0.00     0.127 S 
ATOM     72  O   UNL     1      -3.171   5.631  12.139  1.00  0.00    -0.237 OA
ATOM     73  O   UNL     1      -3.307   7.673  13.508  1.00  0.00    -0.237 OA
ATOM     74  O   UNL     1      -3.575   7.822  11.072  1.00  0.00    -0.744 OA
ENDBRANCH  68  71
ENDBRANCH  50  64
BRANCH  51  75
ATOM     75  C   UNL     1       5.278  10.819   2.490  1.00  0.00     0.023 A 
ATOM     76  C   UNL     1       6.308  11.779   2.505  1.00  0.00     0.012 A 
ATOM     77  C   UNL     1       4.906  10.230   1.265  1.00  0.00     0.148 A 
ATOM     78  C   UNL     1       6.941  12.162   1.323  1.00  0.00     0.002 A 
ATOM     79  C   UNL     1       5.580  10.575   0.099  1.00  0.00     0.091 A 
ATOM     80  F   UNL     1       3.914   9.328   1.269  1.00  0.00    -0.205 F 
ATOM     81  C   UNL     1       6.587  11.552   0.123  1.00  0.00     0.022 A 
BRANCH  79  82
ATOM     82  S   UNL     1       5.289   9.731  -1.461  1.00  0.00     0.127 S 
ATOM     83  O   UNL     1       4.611  10.769  -2.240  1.00  0.00    -0.237 OA
ATOM     84  O   UNL     1       6.655   9.430  -1.901  1.00  0.00    -0.237 OA
ATOM     85  O   UNL     1       4.496   8.562  -1.137  1.00  0.00    -0.744 OA
ENDBRANCH  79  82
ENDBRANCH  51  75
BRANCH  63  86
ATOM     86  C   UNL     1       1.268  14.076   7.205  1.00  0.00     0.023 A 
ATOM     87  C   UNL     1       0.214  14.479   6.361  1.00  0.00     0.012 A 
ATOM     88  C   UNL     1       1.748  14.966   8.186  1.00  0.00     0.148 A 
ATOM     89  C   UNL     1      -0.334  15.756   6.473  1.00  0.00     0.002 A 
ATOM     90  C   UNL     1       1.166  16.221   8.322  1.00  0.00     0.091 A 
ATOM     91  F   UNL     1       2.765  14.572   8.966  1.00  0.00    -0.205 F 
ATOM     92  C   UNL     1       0.132  16.622   7.459  1.00  0.00     0.022 A 
BRANCH  90  93
ATOM     93  S   UNL     1       1.639  17.364   9.625  1.00  0.00     0.127 S 
ATOM     94  O   UNL     1       2.414  18.358   8.883  1.00  0.00    -0.237 OA
ATOM     95  O   UNL     1       0.342  17.840  10.109  1.00  0.00    -0.237 OA
ATOM     96  O   UNL     1       2.391  16.577  10.593  1.00  0.00    -0.744 OA
ENDBRANCH  90  93
ENDBRANCH  63  86
ENDBRANCH  37  38
ENDBRANCH  29  32
ENDBRANCH  27  28
ENDBRANCH  26  27
ENDBRANCH  25  26
ENDBRANCH   1  25
TORSDOF 20
