REMARK SMILES Cc1ccc(Nc2c(C)cccc2Cl)c(CC(=O)NCCCCCCNC(=O)c2ccc(-c3c4nc(c(-c5cccc(S(=O)(=O)[O-])c5F)c5ccc([nH]5)c(-c5cccc(S(=O)(=O)[O-])c5F)c5nc(c(-c6cccc(S(=O)(=O)[O-])c6F)c6ccc3[nH]6)C=C5)C=C4)cc2)c1
REMARK SMILES IDX 22 1 21 2 20 3 19 4 17 5 18 6 16 8 15 9 1 10 2 11 3 12 92 13
REMARK SMILES IDX 4 14 5 15 6 16 7 18 8 19 13 20 9 21 10 22 12 23 14 24 11 25
REMARK SMILES IDX 23 26 24 27 25 28 26 29 27 30 28 32 29 33 30 34 91 35 31 36
REMARK SMILES IDX 90 37 32 38 33 39 34 40 84 41 35 42 89 43 83 44 85 45 36 46
REMARK SMILES IDX 88 47 82 48 81 49 37 51 69 52 49 53 68 54 50 55 53 56 67 57
REMARK SMILES IDX 86 58 51 59 52 60 66 62 87 63 54 64 38 65 39 66 47 67 40 68
REMARK SMILES IDX 42 69 48 70 41 71 43 72 44 73 45 74 46 75 70 76 71 77 79 78
REMARK SMILES IDX 72 79 74 80 80 81 73 82 75 83 76 84 77 85 78 86 55 87 56 88
REMARK SMILES IDX 64 89 57 90 59 91 65 92 58 93 60 94 61 95 62 96 63 97
REMARK H PARENT 19 7 6 17 26 31 85 50 53 61
REMARK Flexibility Score: inf
ROOT
ATOM      1  C   UNL     1      -1.283   1.590  -4.837  1.00  0.00     0.002 C 
ENDROOT
BRANCH   1   2
ATOM      2  C   UNL     1      -0.618   1.563  -3.454  1.00  0.00     0.021 C 
BRANCH   2   3
ATOM      3  C   UNL     1      -0.849   2.815  -2.605  1.00  0.00     0.116 C 
BRANCH   3   4
ATOM      4  N   UNL     1      -2.222   2.926  -2.159  1.00  0.00    -0.356 N 
ATOM      5  C   UNL     1      -2.732   2.725  -0.913  1.00  0.00     0.224 C 
ATOM      6  O   UNL     1      -3.955   2.780  -0.761  1.00  0.00    -0.275 OA
ATOM      7  H   UNL     1      -2.875   3.180  -2.850  1.00  0.00     0.163 HD
BRANCH   5   8
ATOM      8  C   UNL     1      -1.816   2.441   0.265  1.00  0.00     0.137 C 
BRANCH   8   9
ATOM      9  C   UNL     1      -1.094   1.113   0.185  1.00  0.00    -0.015 A 
ATOM     10  C   UNL     1       2.565  -0.020   0.149  1.00  0.00     0.044 C 
ATOM     11  C   UNL     1       1.066  -0.046   0.117  1.00  0.00    -0.051 A 
ATOM     12  C   UNL     1       0.393  -1.249  -0.078  1.00  0.00     0.005 A 
ATOM     13  C   UNL     1       0.316   1.122   0.273  1.00  0.00     0.009 A 
ATOM     14  C   UNL     1      -1.004  -1.278  -0.117  1.00  0.00     0.026 A 
ATOM     15  C   UNL     1      -1.774  -0.110   0.010  1.00  0.00     0.042 A 
BRANCH  15  16
ATOM     16  N   UNL     1      -3.186  -0.168   0.028  1.00  0.00    -0.354 N 
ATOM     17  H   UNL     1      -3.649   0.701   0.017  1.00  0.00     0.167 HD
BRANCH  16  18
ATOM     18  C   UNL     1      -4.025  -1.309   0.062  1.00  0.00     0.060 A 
ATOM     19  C   UNL     1      -3.973  -2.240   1.121  1.00  0.00    -0.026 A 
ATOM     20  C   UNL     1      -4.876  -1.578  -1.033  1.00  0.00     0.064 A 
ATOM     21  C   UNL     1      -3.142  -2.019   2.358  1.00  0.00     0.046 C 
ATOM     22  C   UNL     1      -4.718  -3.429   1.033  1.00  0.00     0.005 A 
ATOM     23  C   UNL     1      -5.624  -2.755  -1.097  1.00  0.00     0.023 A 
ATOM     24  Cl  UNL     1      -5.007  -0.463  -2.353  1.00  0.00    -0.082 Cl
ATOM     25  C   UNL     1      -5.534  -3.687  -0.068  1.00  0.00     0.002 A 
ENDBRANCH  16  18
ENDBRANCH  15  16
ENDBRANCH   8   9
ENDBRANCH   5   8
ENDBRANCH   3   4
ENDBRANCH   2   3
ENDBRANCH   1   2
BRANCH   1  26
ATOM     26  C   UNL     1      -1.026   2.841  -5.690  1.00  0.00     0.002 C 
BRANCH  26  27
ATOM     27  C   UNL     1       0.425   3.321  -5.753  1.00  0.00     0.021 C 
BRANCH  27  28
ATOM     28  C   UNL     1       1.366   2.373  -6.477  1.00  0.00     0.116 C 
BRANCH  28  29
ATOM     29  N   UNL     1       1.534   2.708  -7.878  1.00  0.00    -0.352 N 
ATOM     30  C   UNL     1       2.374   2.171  -8.830  1.00  0.00     0.251 C 
ATOM     31  H   UNL     1       0.955   3.436  -8.201  1.00  0.00     0.163 HD
ATOM     32  O   UNL     1       2.505   2.782  -9.891  1.00  0.00    -0.269 OA
BRANCH  30  33
ATOM     33  C   UNL     1       2.966   0.818  -8.652  1.00  0.00     0.039 A 
ATOM     34  C   UNL     1       3.005  -0.016  -9.780  1.00  0.00     0.014 A 
ATOM     35  C   UNL     1       3.234   0.283  -7.396  1.00  0.00     0.014 A 
ATOM     36  C   UNL     1       3.015  -1.399  -9.621  1.00  0.00     0.010 A 
ATOM     37  C   UNL     1       3.166  -1.081  -7.225  1.00  0.00     0.010 A 
ATOM     38  C   UNL     1       2.960  -1.911  -8.332  1.00  0.00    -0.014 A 
BRANCH  38  39
ATOM     39  C   UNL     1       2.554  -3.262  -7.987  1.00  0.00     0.031 A 
ATOM     40  C   UNL     1       3.550  -4.256  -7.556  1.00  0.00     0.074 A 
ATOM     41  C   UNL     1       1.233  -3.471  -7.768  1.00  0.00     0.049 A 
ATOM     42  N   UNL     1       3.246  -5.471  -7.256  1.00  0.00    -0.248 NA
ATOM     43  C   UNL     1       4.979  -3.974  -7.446  1.00  0.00     0.031 C 
ATOM     44  C   UNL     1       0.617  -4.511  -6.951  1.00  0.00     0.029 A 
ATOM     45  N   UNL     1       0.149  -2.889  -8.435  1.00  0.00    -0.354 N 
ATOM     46  C   UNL     1       4.327  -6.008  -6.606  1.00  0.00     0.074 A 
ATOM     47  C   UNL     1       5.417  -5.105  -6.880  1.00  0.00     0.031 C 
ATOM     48  C   UNL     1      -0.644  -4.697  -7.370  1.00  0.00     0.029 A 
ATOM     49  C   UNL     1      -0.795  -3.924  -8.588  1.00  0.00     0.049 A 
ATOM     50  H   UNL     1       0.063  -1.955  -8.733  1.00  0.00     0.167 HD
ATOM     51  C   UNL     1       4.120  -7.078  -5.793  1.00  0.00     0.034 A 
ATOM     52  C   UNL     1      -1.137  -4.439  -9.809  1.00  0.00     0.034 A 
ATOM     53  C   UNL     1       2.803  -7.686  -6.039  1.00  0.00     0.049 A 
ATOM     54  C   UNL     1      -0.828  -5.928  -9.956  1.00  0.00     0.074 A 
ATOM     55  C   UNL     1       1.604  -7.779  -5.356  1.00  0.00     0.029 A 
ATOM     56  N   UNL     1       2.544  -8.145  -7.320  1.00  0.00    -0.354 N 
ATOM     57  N   UNL     1      -0.373  -6.700  -9.006  1.00  0.00    -0.248 NA
ATOM     58  C   UNL     1      -0.927  -6.636 -11.234  1.00  0.00     0.031 C 
ATOM     59  C   UNL     1       0.604  -8.222  -6.284  1.00  0.00     0.029 A 
ATOM     60  C   UNL     1       1.209  -8.441  -7.511  1.00  0.00     0.049 A 
ATOM     61  H   UNL     1       3.233  -8.248  -8.015  1.00  0.00     0.167 HD
ATOM     62  C   UNL     1       0.050  -7.890  -9.546  1.00  0.00     0.074 A 
ATOM     63  C   UNL     1      -0.368  -7.821 -10.936  1.00  0.00     0.031 C 
ATOM     64  C   UNL     1       0.780  -8.818  -8.853  1.00  0.00     0.034 A 
BRANCH  51  65
ATOM     65  C   UNL     1       5.053  -7.542  -4.695  1.00  0.00     0.023 A 
ATOM     66  C   UNL     1       4.737  -8.760  -4.053  1.00  0.00     0.012 A 
ATOM     67  C   UNL     1       6.154  -6.824  -4.165  1.00  0.00     0.148 A 
ATOM     68  C   UNL     1       5.462  -9.238  -2.955  1.00  0.00     0.002 A 
ATOM     69  C   UNL     1       6.922  -7.337  -3.115  1.00  0.00     0.091 A 
ATOM     70  F   UNL     1       6.417  -5.584  -4.590  1.00  0.00    -0.205 F 
ATOM     71  C   UNL     1       6.568  -8.537  -2.497  1.00  0.00     0.022 A 
BRANCH  69  72
ATOM     72  S   UNL     1       8.399  -6.499  -2.511  1.00  0.00     0.127 S 
ATOM     73  O   UNL     1       7.931  -5.921  -1.252  1.00  0.00    -0.237 OA
ATOM     74  O   UNL     1       9.350  -7.601  -2.357  1.00  0.00    -0.237 OA
ATOM     75  O   UNL     1       8.765  -5.536  -3.543  1.00  0.00    -0.744 OA
ENDBRANCH  69  72
ENDBRANCH  51  65
BRANCH  52  76
ATOM     76  C   UNL     1      -1.061  -3.430 -10.910  1.00  0.00     0.023 A 
ATOM     77  C   UNL     1      -1.921  -2.308 -10.815  1.00  0.00     0.012 A 
ATOM     78  C   UNL     1       0.045  -3.360 -11.775  1.00  0.00     0.148 A 
ATOM     79  C   UNL     1      -1.607  -1.107 -11.453  1.00  0.00     0.002 A 
ATOM     80  C   UNL     1       0.343  -2.162 -12.421  1.00  0.00     0.091 A 
ATOM     81  F   UNL     1       0.837  -4.433 -11.895  1.00  0.00    -0.205 F 
ATOM     82  C   UNL     1      -0.456  -1.024 -12.227  1.00  0.00     0.022 A 
BRANCH  80  83
ATOM     83  S   UNL     1       1.827  -1.978 -13.419  1.00  0.00     0.127 S 
ATOM     84  O   UNL     1       1.301  -2.196 -14.763  1.00  0.00    -0.237 OA
ATOM     85  O   UNL     1       2.233  -0.604 -13.129  1.00  0.00    -0.237 OA
ATOM     86  O   UNL     1       2.745  -2.988 -12.913  1.00  0.00    -0.744 OA
ENDBRANCH  80  83
ENDBRANCH  52  76
BRANCH  64  87
ATOM     87  C   UNL     1       1.180 -10.164  -9.434  1.00  0.00     0.023 A 
ATOM     88  C   UNL     1       0.275 -10.885 -10.241  1.00  0.00     0.012 A 
ATOM     89  C   UNL     1       2.390 -10.821  -9.090  1.00  0.00     0.148 A 
ATOM     90  C   UNL     1       0.578 -12.159 -10.734  1.00  0.00     0.002 A 
ATOM     91  C   UNL     1       2.646 -12.126  -9.503  1.00  0.00     0.091 A 
ATOM     92  F   UNL     1       3.327 -10.169  -8.393  1.00  0.00    -0.205 F 
ATOM     93  C   UNL     1       1.755 -12.787 -10.351  1.00  0.00     0.022 A 
BRANCH  91  94
ATOM     94  S   UNL     1       4.048 -13.076  -8.893  1.00  0.00     0.127 S 
ATOM     95  O   UNL     1       3.394 -14.297  -8.415  1.00  0.00    -0.237 OA
ATOM     96  O   UNL     1       4.846 -13.247 -10.105  1.00  0.00    -0.237 OA
ATOM     97  O   UNL     1       4.656 -12.271  -7.843  1.00  0.00    -0.744 OA
ENDBRANCH  91  94
ENDBRANCH  64  87
ENDBRANCH  38  39
ENDBRANCH  30  33
ENDBRANCH  28  29
ENDBRANCH  27  28
ENDBRANCH  26  27
ENDBRANCH   1  26
TORSDOF 19
