REMARK SMILES O=C(NCCCCCCNC(=O)[C@@H](Cc1c[nH]c2ccccc12)NC(=O)c1ccc(F)cc1F)c1ccc(-c2c3nc(c(-c4cccc(S(=O)(=O)[O-])c4F)c4ccc([nH]4)c(-c4cccc(S(=O)(=O)[O-])c4F)c4nc(c(-c5cccc(S(=O)(=O)[O-])c5F)c5ccc2[nH]5)C=C4)C=C3)cc1
REMARK SMILES IDX 6 1 5 2 4 3 3 4 1 5 2 6 35 8 36 9 97 10 37 11 96 12 38 13
REMARK SMILES IDX 39 14 40 15 90 16 41 17 95 18 89 19 91 20 42 21 94 22 88 23
REMARK SMILES IDX 87 24 43 26 75 27 55 28 74 29 56 30 59 31 73 32 92 33 57 34
REMARK SMILES IDX 58 35 72 37 93 38 60 39 44 40 45 41 53 42 46 43 48 44 54 45
REMARK SMILES IDX 47 46 49 47 50 48 51 49 52 50 76 51 77 52 85 53 78 54 80 55
REMARK SMILES IDX 86 56 79 57 81 58 82 59 83 60 84 61 61 62 62 63 70 64 63 65
REMARK SMILES IDX 65 66 71 67 64 68 66 69 67 70 68 71 69 72 7 73 8 74 9 75
REMARK SMILES IDX 10 76 11 77 12 79 13 80 14 81 15 82 16 83 23 84 17 85 18 86
REMARK SMILES IDX 22 87 19 89 21 90 20 91 24 92 25 93 26 95 27 96 28 97 33 98
REMARK SMILES IDX 29 99 32 100 34 101 30 102 31 103
REMARK H PARENT 3 7 91 25 59 36 10 78 17 88 24 94
REMARK Flexibility Score: inf
ROOT
ATOM      1  C   UNL     1       3.583   1.762  -3.599  1.00  0.00     0.002 C 
ENDROOT
BRANCH   1   2
ATOM      2  C   UNL     1       4.189   0.662  -2.725  1.00  0.00     0.021 C 
BRANCH   2   3
ATOM      3  C   UNL     1       4.086   0.896  -1.221  1.00  0.00     0.116 C 
BRANCH   3   4
ATOM      4  N   UNL     1       2.722   0.788  -0.735  1.00  0.00    -0.352 N 
ATOM      5  O   UNL     1       0.928  -0.194   0.204  1.00  0.00    -0.269 OA
ATOM      6  C   UNL     1       2.144  -0.172   0.064  1.00  0.00     0.251 C 
ATOM      7  H   UNL     1       2.118   1.511  -1.021  1.00  0.00     0.163 HD
BRANCH   6   8
ATOM      8  C   UNL     1       2.991  -1.188   0.735  1.00  0.00     0.039 A 
ATOM      9  C   UNL     1       4.178  -0.822   1.373  1.00  0.00     0.014 A 
ATOM     10  C   UNL     1       2.573  -2.522   0.756  1.00  0.00     0.014 A 
ATOM     11  C   UNL     1       5.014  -1.803   1.898  1.00  0.00     0.010 A 
ATOM     12  C   UNL     1       3.372  -3.496   1.367  1.00  0.00     0.010 A 
ATOM     13  C   UNL     1       4.614  -3.150   1.920  1.00  0.00    -0.014 A 
BRANCH  13  14
ATOM     14  C   UNL     1       5.473  -4.146   2.615  1.00  0.00     0.031 A 
ATOM     15  C   UNL     1       6.111  -5.295   1.883  1.00  0.00     0.074 A 
ATOM     16  C   UNL     1       5.691  -3.986   3.937  1.00  0.00     0.049 A 
ATOM     17  N   UNL     1       6.938  -6.200   2.343  1.00  0.00    -0.248 NA
ATOM     18  C   UNL     1       5.780  -5.459   0.459  1.00  0.00     0.031 C 
ATOM     19  C   UNL     1       5.073  -2.950   4.770  1.00  0.00     0.029 A 
ATOM     20  N   UNL     1       6.487  -4.681   4.811  1.00  0.00    -0.354 N 
ATOM     21  C   UNL     1       7.205  -7.055   1.280  1.00  0.00     0.074 A 
ATOM     22  C   UNL     1       6.441  -6.568   0.151  1.00  0.00     0.031 C 
ATOM     23  C   UNL     1       5.537  -3.055   6.022  1.00  0.00     0.029 A 
ATOM     24  C   UNL     1       6.445  -4.193   6.097  1.00  0.00     0.049 A 
ATOM     25  H   UNL     1       7.035  -5.453   4.545  1.00  0.00     0.167 HD
ATOM     26  C   UNL     1       8.027  -8.133   1.243  1.00  0.00     0.034 A 
ATOM     27  C   UNL     1       7.059  -4.618   7.218  1.00  0.00     0.034 A 
ATOM     28  C   UNL     1       8.805  -8.599   2.363  1.00  0.00     0.049 A 
ATOM     29  C   UNL     1       7.995  -5.788   7.133  1.00  0.00     0.074 A 
ATOM     30  C   UNL     1       9.700  -9.655   2.409  1.00  0.00     0.029 A 
ATOM     31  N   UNL     1       8.781  -8.045   3.633  1.00  0.00    -0.354 N 
ATOM     32  N   UNL     1       8.334  -6.497   6.084  1.00  0.00    -0.248 NA
ATOM     33  C   UNL     1       8.658  -6.197   8.379  1.00  0.00     0.031 C 
ATOM     34  C   UNL     1      10.208  -9.745   3.710  1.00  0.00     0.029 A 
ATOM     35  C   UNL     1       9.643  -8.735   4.470  1.00  0.00     0.049 A 
ATOM     36  H   UNL     1       8.231  -7.274   3.902  1.00  0.00     0.167 HD
ATOM     37  C   UNL     1       9.258  -7.428   6.540  1.00  0.00     0.074 A 
ATOM     38  C   UNL     1       9.459  -7.161   7.950  1.00  0.00     0.031 C 
ATOM     39  C   UNL     1       9.864  -8.433   5.860  1.00  0.00     0.034 A 
BRANCH  26  40
ATOM     40  C   UNL     1       8.182  -8.860  -0.069  1.00  0.00     0.023 A 
ATOM     41  C   UNL     1       8.954  -8.274  -1.093  1.00  0.00     0.012 A 
ATOM     42  C   UNL     1       7.656 -10.154  -0.256  1.00  0.00     0.148 A 
ATOM     43  C   UNL     1       9.183  -8.954  -2.289  1.00  0.00     0.002 A 
ATOM     44  C   UNL     1       7.920 -10.841  -1.436  1.00  0.00     0.091 A 
ATOM     45  F   UNL     1       6.913 -10.689   0.724  1.00  0.00    -0.205 F 
ATOM     46  C   UNL     1       8.676 -10.240  -2.456  1.00  0.00     0.022 A 
BRANCH  44  47
ATOM     47  S   UNL     1       7.377 -12.530  -1.723  1.00  0.00     0.127 S 
ATOM     48  O   UNL     1       6.371 -12.342  -2.768  1.00  0.00    -0.237 OA
ATOM     49  O   UNL     1       8.610 -13.177  -2.174  1.00  0.00    -0.237 OA
ATOM     50  O   UNL     1       6.868 -13.012  -0.447  1.00  0.00    -0.744 OA
ENDBRANCH  44  47
ENDBRANCH  26  40
BRANCH  27  51
ATOM     51  C   UNL     1       6.832  -3.899   8.503  1.00  0.00     0.023 A 
ATOM     52  C   UNL     1       7.879  -3.161   9.085  1.00  0.00     0.012 A 
ATOM     53  C   UNL     1       5.570  -3.911   9.129  1.00  0.00     0.148 A 
ATOM     54  C   UNL     1       7.682  -2.472  10.283  1.00  0.00     0.002 A 
ATOM     55  C   UNL     1       5.363  -3.170  10.285  1.00  0.00     0.091 A 
ATOM     56  F   UNL     1       4.589  -4.637   8.573  1.00  0.00    -0.205 F 
ATOM     57  C   UNL     1       6.422  -2.464  10.875  1.00  0.00     0.022 A 
BRANCH  55  58
ATOM     58  S   UNL     1       3.728  -2.989  11.007  1.00  0.00     0.127 S 
ATOM     59  O   UNL     1       3.769  -3.963  12.092  1.00  0.00    -0.237 OA
ATOM     60  O   UNL     1       3.731  -1.589  11.434  1.00  0.00    -0.237 OA
ATOM     61  O   UNL     1       2.800  -3.273   9.920  1.00  0.00    -0.744 OA
ENDBRANCH  55  58
ENDBRANCH  27  51
BRANCH  39  62
ATOM     62  C   UNL     1      10.807  -9.312   6.637  1.00  0.00     0.023 A 
ATOM     63  C   UNL     1      10.288 -10.232   7.571  1.00  0.00     0.012 A 
ATOM     64  C   UNL     1      12.197  -9.254   6.423  1.00  0.00     0.148 A 
ATOM     65  C   UNL     1      11.141 -11.050   8.310  1.00  0.00     0.002 A 
ATOM     66  C   UNL     1      13.038 -10.105   7.131  1.00  0.00     0.091 A 
ATOM     67  F   UNL     1      12.675  -8.357   5.548  1.00  0.00    -0.205 F 
ATOM     68  C   UNL     1      12.513 -10.994   8.083  1.00  0.00     0.022 A 
BRANCH  66  69
ATOM     69  S   UNL     1      14.810 -10.156   6.839  1.00  0.00     0.127 S 
ATOM     70  O   UNL     1      15.322  -9.400   7.980  1.00  0.00    -0.237 OA
ATOM     71  O   UNL     1      15.094 -11.591   6.882  1.00  0.00    -0.237 OA
ATOM     72  O   UNL     1      15.013  -9.543   5.533  1.00  0.00    -0.744 OA
ENDBRANCH  66  69
ENDBRANCH  39  62
ENDBRANCH  13  14
ENDBRANCH   6   8
ENDBRANCH   3   4
ENDBRANCH   2   3
ENDBRANCH   1   2
BRANCH   1  73
ATOM     73  C   UNL     1       4.074   3.185  -3.315  1.00  0.00     0.002 C 
BRANCH  73  74
ATOM     74  C   UNL     1       5.591   3.345  -3.215  1.00  0.00     0.021 C 
BRANCH  74  75
ATOM     75  C   UNL     1       6.364   3.208  -4.525  1.00  0.00     0.116 C 
BRANCH  75  76
ATOM     76  N   UNL     1       6.454   4.498  -5.178  1.00  0.00    -0.354 N 
ATOM     77  C   UNL     1       7.457   5.414  -5.206  1.00  0.00     0.242 C 
ATOM     78  H   UNL     1       5.652   4.755  -5.688  1.00  0.00     0.163 HD
ATOM     79  O   UNL     1       7.125   6.583  -5.444  1.00  0.00    -0.273 OA
BRANCH  77  80
ATOM     80  C   UNL     1       8.940   5.102  -4.890  1.00  0.00     0.176 C 
BRANCH  80  81
ATOM     81  C   UNL     1       9.356   5.315  -3.423  1.00  0.00     0.072 C 
BRANCH  81  82
ATOM     82  C   UNL     1       8.998   4.252  -2.427  1.00  0.00    -0.020 A 
ATOM     83  C   UNL     1       9.508   2.968  -2.355  1.00  0.00     0.087 A 
ATOM     84  C   UNL     1       8.112   4.399  -1.307  1.00  0.00     0.003 A 
ATOM     85  N   UNL     1       8.926   2.325  -1.294  1.00  0.00    -0.361 N 
ATOM     86  C   UNL     1       8.049   3.167  -0.654  1.00  0.00     0.046 A 
ATOM     87  C   UNL     1       7.325   5.460  -0.811  1.00  0.00     0.010 A 
ATOM     88  H   UNL     1       9.110   1.395  -1.028  1.00  0.00     0.166 HD
ATOM     89  C   UNL     1       7.206   2.930   0.439  1.00  0.00     0.026 A 
ATOM     90  C   UNL     1       6.471   5.239   0.276  1.00  0.00     0.001 A 
ATOM     91  C   UNL     1       6.406   3.987   0.883  1.00  0.00     0.002 A 
ENDBRANCH  81  82
ENDBRANCH  80  81
BRANCH  80  92
ATOM     92  N   UNL     1       9.480   3.877  -5.490  1.00  0.00    -0.340 N 
ATOM     93  C   UNL     1      10.301   3.710  -6.577  1.00  0.00     0.254 C 
ATOM     94  H   UNL     1       9.212   3.043  -5.042  1.00  0.00     0.164 HD
ATOM     95  O   UNL     1      10.525   2.578  -6.997  1.00  0.00    -0.269 OA
BRANCH  93  96
ATOM     96  C   UNL     1      10.956   4.863  -7.228  1.00  0.00     0.075 A 
ATOM     97  C   UNL     1      11.712   5.782  -6.486  1.00  0.00     0.020 A 
ATOM     98  C   UNL     1      10.887   4.993  -8.617  1.00  0.00     0.138 A 
ATOM     99  C   UNL     1      12.330   6.856  -7.132  1.00  0.00     0.040 A 
ATOM    100  C   UNL     1      11.521   6.049  -9.267  1.00  0.00     0.079 A 
ATOM    101  F   UNL     1      10.193   4.118  -9.360  1.00  0.00    -0.206 F 
ATOM    102  C   UNL     1      12.227   6.978  -8.515  1.00  0.00     0.126 A 
ATOM    103  F   UNL     1      12.827   8.006  -9.130  1.00  0.00    -0.207 F 
ENDBRANCH  93  96
ENDBRANCH  80  92
ENDBRANCH  77  80
ENDBRANCH  75  76
ENDBRANCH  74  75
ENDBRANCH  73  74
ENDBRANCH   1  73
TORSDOF 20
