REMARK SMILES O=C(NCCCCCCNC(=O)[C@H]1CC=CC[C@@H]1C(=O)NC1CCCCC1)c1ccc(-c2c3nc(c(-c4cccc(S(=O)(=O)[O-])c4F)c4ccc([nH]4)c(-c4cccc(S(=O)(=O)[O-])c4F)c4nc(c(-c5cccc(S(=O)(=O)[O-])c5F)c5ccc2[nH]5)C=C4)C=C3)cc1
REMARK SMILES IDX 6 1 5 2 4 3 3 4 1 5 2 6 28 8 29 9 90 10 30 11 89 12 31 13
REMARK SMILES IDX 32 14 33 15 83 16 34 17 88 18 82 19 84 20 35 21 87 22 81 23
REMARK SMILES IDX 80 24 36 26 68 27 48 28 67 29 49 30 52 31 66 32 85 33 50 34
REMARK SMILES IDX 51 35 65 37 86 38 53 39 37 40 38 41 46 42 39 43 41 44 47 45
REMARK SMILES IDX 40 46 42 47 43 48 44 49 45 50 69 51 70 52 78 53 71 54 73 55
REMARK SMILES IDX 79 56 72 57 74 58 75 59 76 60 77 61 54 62 55 63 63 64 56 65
REMARK SMILES IDX 58 66 64 67 57 68 59 69 60 70 61 71 62 72 7 73 8 74 9 75
REMARK SMILES IDX 10 76 11 77 12 79 13 80 14 81 18 82 15 83 17 84 16 85 19 86
REMARK SMILES IDX 20 87 21 88 22 90 23 91 27 92 24 93 26 94 25 95
REMARK H PARENT 3 7 84 25 52 36 10 78 21 89
REMARK Flexibility Score: inf
ROOT
ATOM      1  C   UNL     1       4.109   2.560  -3.098  1.00  0.00     0.002 C 
ENDROOT
BRANCH   1   2
ATOM      2  C   UNL     1       4.499   1.144  -2.676  1.00  0.00     0.021 C 
BRANCH   2   3
ATOM      3  C   UNL     1       4.288   0.833  -1.202  1.00  0.00     0.116 C 
BRANCH   3   4
ATOM      4  N   UNL     1       2.886   0.819  -0.820  1.00  0.00    -0.352 N 
ATOM      5  O   UNL     1       1.009  -0.048   0.087  1.00  0.00    -0.269 OA
ATOM      6  C   UNL     1       2.230  -0.097  -0.029  1.00  0.00     0.251 C 
ATOM      7  H   UNL     1       2.337   1.557  -1.170  1.00  0.00     0.163 HD
BRANCH   6   8
ATOM      8  C   UNL     1       3.010  -1.158   0.648  1.00  0.00     0.039 A 
ATOM      9  C   UNL     1       4.196  -0.843   1.316  1.00  0.00     0.014 A 
ATOM     10  C   UNL     1       2.566  -2.482   0.594  1.00  0.00     0.014 A 
ATOM     11  C   UNL     1       5.005  -1.863   1.802  1.00  0.00     0.010 A 
ATOM     12  C   UNL     1       3.340  -3.499   1.163  1.00  0.00     0.010 A 
ATOM     13  C   UNL     1       4.580  -3.201   1.747  1.00  0.00    -0.014 A 
BRANCH  13  14
ATOM     14  C   UNL     1       5.418  -4.242   2.397  1.00  0.00     0.031 A 
ATOM     15  C   UNL     1       6.070  -5.345   1.610  1.00  0.00     0.074 A 
ATOM     16  C   UNL     1       5.611  -4.157   3.729  1.00  0.00     0.049 A 
ATOM     17  N   UNL     1       6.893  -6.272   2.030  1.00  0.00    -0.248 NA
ATOM     18  C   UNL     1       5.760  -5.428   0.174  1.00  0.00     0.031 C 
ATOM     19  C   UNL     1       4.977  -3.166   4.605  1.00  0.00     0.029 A 
ATOM     20  N   UNL     1       6.396  -4.893   4.577  1.00  0.00    -0.354 N 
ATOM     21  C   UNL     1       7.177  -7.065   0.924  1.00  0.00     0.074 A 
ATOM     22  C   UNL     1       6.429  -6.516  -0.187  1.00  0.00     0.031 C 
ATOM     23  C   UNL     1       5.430  -3.330   5.855  1.00  0.00     0.029 A 
ATOM     24  C   UNL     1       6.348  -4.462   5.882  1.00  0.00     0.049 A 
ATOM     25  H   UNL     1       6.941  -5.657   4.280  1.00  0.00     0.167 HD
ATOM     26  C   UNL     1       8.001  -8.138   0.841  1.00  0.00     0.034 A 
ATOM     27  C   UNL     1       6.970  -4.925   6.982  1.00  0.00     0.034 A 
ATOM     28  C   UNL     1       8.768  -8.658   1.944  1.00  0.00     0.049 A 
ATOM     29  C   UNL     1       7.919  -6.079   6.845  1.00  0.00     0.074 A 
ATOM     30  C   UNL     1       9.662  -9.716   1.948  1.00  0.00     0.029 A 
ATOM     31  N   UNL     1       8.737  -8.161   3.238  1.00  0.00    -0.354 N 
ATOM     32  N   UNL     1       8.267  -6.733   5.763  1.00  0.00    -0.248 NA
ATOM     33  C   UNL     1       8.582  -6.540   8.071  1.00  0.00     0.031 C 
ATOM     34  C   UNL     1      10.167  -9.860   3.245  1.00  0.00     0.029 A 
ATOM     35  C   UNL     1       9.595  -8.887   4.048  1.00  0.00     0.049 A 
ATOM     36  H   UNL     1       8.186  -7.402   3.537  1.00  0.00     0.167 HD
ATOM     37  C   UNL     1       9.195  -7.680   6.176  1.00  0.00     0.074 A 
ATOM     38  C   UNL     1       9.389  -7.481   7.599  1.00  0.00     0.031 C 
ATOM     39  C   UNL     1       9.806  -8.649   5.452  1.00  0.00     0.034 A 
BRANCH  26  40
ATOM     40  C   UNL     1       8.171  -8.797  -0.503  1.00  0.00     0.023 A 
ATOM     41  C   UNL     1       8.976  -8.172  -1.477  1.00  0.00     0.012 A 
ATOM     42  C   UNL     1       7.622 -10.067  -0.772  1.00  0.00     0.148 A 
ATOM     43  C   UNL     1       9.220  -8.791  -2.703  1.00  0.00     0.002 A 
ATOM     44  C   UNL     1       7.898 -10.693  -1.984  1.00  0.00     0.091 A 
ATOM     45  F   UNL     1       6.845 -10.638   0.159  1.00  0.00    -0.205 F 
ATOM     46  C   UNL     1       8.691 -10.054  -2.951  1.00  0.00     0.022 A 
BRANCH  44  47
ATOM     47  S   UNL     1       7.322 -12.350  -2.376  1.00  0.00     0.127 S 
ATOM     48  O   UNL     1       6.317 -12.077  -3.403  1.00  0.00    -0.237 OA
ATOM     49  O   UNL     1       8.540 -12.992  -2.872  1.00  0.00    -0.237 OA
ATOM     50  O   UNL     1       6.808 -12.902  -1.130  1.00  0.00    -0.744 OA
ENDBRANCH  44  47
ENDBRANCH  26  40
BRANCH  27  51
ATOM     51  C   UNL     1       6.747  -4.252   8.292  1.00  0.00     0.023 A 
ATOM     52  C   UNL     1       7.790  -3.515   8.883  1.00  0.00     0.012 A 
ATOM     53  C   UNL     1       5.490  -4.290   8.926  1.00  0.00     0.148 A 
ATOM     54  C   UNL     1       7.592  -2.847  10.092  1.00  0.00     0.002 A 
ATOM     55  C   UNL     1       5.281  -3.570  10.095  1.00  0.00     0.091 A 
ATOM     56  F   UNL     1       4.512  -5.015   8.364  1.00  0.00    -0.205 F 
ATOM     57  C   UNL     1       6.334  -2.861  10.690  1.00  0.00     0.022 A 
BRANCH  55  58
ATOM     58  S   UNL     1       3.642  -3.418  10.815  1.00  0.00     0.127 S 
ATOM     59  O   UNL     1       3.648  -4.487  11.809  1.00  0.00    -0.237 OA
ATOM     60  O   UNL     1       3.664  -2.063  11.368  1.00  0.00    -0.237 OA
ATOM     61  O   UNL     1       2.726  -3.583   9.693  1.00  0.00    -0.744 OA
ENDBRANCH  55  58
ENDBRANCH  27  51
BRANCH  39  62
ATOM     62  C   UNL     1      10.735  -9.571   6.194  1.00  0.00     0.023 A 
ATOM     63  C   UNL     1      10.194 -10.553   7.047  1.00  0.00     0.012 A 
ATOM     64  C   UNL     1      12.130  -9.493   6.023  1.00  0.00     0.148 A 
ATOM     65  C   UNL     1      11.029 -11.421   7.749  1.00  0.00     0.002 A 
ATOM     66  C   UNL     1      12.955 -10.389   6.694  1.00  0.00     0.091 A 
ATOM     67  F   UNL     1      12.628  -8.536   5.226  1.00  0.00    -0.205 F 
ATOM     68  C   UNL     1      12.408 -11.346   7.565  1.00  0.00     0.022 A 
BRANCH  66  69
ATOM     69  S   UNL     1      14.734 -10.408   6.449  1.00  0.00     0.127 S 
ATOM     70  O   UNL     1      15.205  -9.663   7.616  1.00  0.00    -0.237 OA
ATOM     71  O   UNL     1      15.043 -11.838   6.474  1.00  0.00    -0.237 OA
ATOM     72  O   UNL     1      14.958  -9.770   5.158  1.00  0.00    -0.744 OA
ENDBRANCH  66  69
ENDBRANCH  39  62
ENDBRANCH  13  14
ENDBRANCH   6   8
ENDBRANCH   3   4
ENDBRANCH   2   3
ENDBRANCH   1   2
BRANCH   1  73
ATOM     73  C   UNL     1       4.782   3.691  -2.314  1.00  0.00     0.002 C 
BRANCH  73  74
ATOM     74  C   UNL     1       6.316   3.646  -2.256  1.00  0.00     0.021 C 
BRANCH  74  75
ATOM     75  C   UNL     1       7.017   3.541  -3.610  1.00  0.00     0.116 C 
BRANCH  75  76
ATOM     76  N   UNL     1       6.636   4.629  -4.490  1.00  0.00    -0.356 N 
ATOM     77  C   UNL     1       7.405   5.480  -5.222  1.00  0.00     0.224 C 
ATOM     78  H   UNL     1       5.666   4.775  -4.571  1.00  0.00     0.163 HD
ATOM     79  O   UNL     1       6.827   6.389  -5.820  1.00  0.00    -0.275 OA
BRANCH  77  80
ATOM     80  C   UNL     1       8.919   5.292  -5.264  1.00  0.00     0.095 C 
ATOM     81  C   UNL     1       9.294   4.017  -6.040  1.00  0.00     0.041 C 
ATOM     82  C   UNL     1       9.589   6.562  -5.839  1.00  0.00     0.095 C 
ATOM     83  C   UNL     1       9.315   4.193  -7.527  1.00  0.00    -0.030 C 
ATOM     84  C   UNL     1       9.463   6.683  -7.370  1.00  0.00     0.041 C 
ATOM     85  C   UNL     1       9.370   5.390  -8.119  1.00  0.00    -0.030 C 
BRANCH  82  86
ATOM     86  C   UNL     1      11.041   6.668  -5.378  1.00  0.00     0.224 C 
ATOM     87  O   UNL     1      11.688   5.698  -4.983  1.00  0.00    -0.275 OA
ATOM     88  N   UNL     1      11.662   7.885  -5.384  1.00  0.00    -0.353 N 
ATOM     89  H   UNL     1      12.610   7.874  -5.117  1.00  0.00     0.163 HD
BRANCH  88  90
ATOM     90  C   UNL     1      11.127   9.196  -5.727  1.00  0.00     0.082 C 
ATOM     91  C   UNL     1      10.398   9.836  -4.541  1.00  0.00     0.025 C 
ATOM     92  C   UNL     1      12.255  10.117  -6.211  1.00  0.00     0.025 C 
ATOM     93  C   UNL     1       9.828  11.198  -4.934  1.00  0.00     0.002 C 
ATOM     94  C   UNL     1      11.723  11.498  -6.587  1.00  0.00     0.002 C 
ATOM     95  C   UNL     1      10.919  12.131  -5.453  1.00  0.00     0.000 C 
ENDBRANCH  88  90
ENDBRANCH  82  86
ENDBRANCH  77  80
ENDBRANCH  75  76
ENDBRANCH  74  75
ENDBRANCH  73  74
ENDBRANCH   1  73
TORSDOF 18
