REMARK SMILES CC(C)C[C@H](CNC(=O)c1cc(F)ccc1Br)C(=O)NCCCCCCNC(=O)c1ccc(-c2c3nc(c(-c4cccc(S(=O)(=O)[O-])c4F)c4ccc([nH]4)c(-c4cccc(S(=O)(=O)[O-])c4F)c4nc(c(-c5cccc(S(=O)(=O)[O-])c5F)c5ccc2[nH]5)C=C4)C=C3)cc1
REMARK SMILES IDX 23 1 22 2 21 3 20 4 18 5 19 6 5 8 4 9 2 10 1 11 3 12 6 13
REMARK SMILES IDX 7 14 8 15 9 17 10 18 11 19 16 20 12 21 15 22 17 23 13 24
REMARK SMILES IDX 14 25 24 26 25 27 26 28 27 29 28 30 29 32 30 33 31 34 92 35
REMARK SMILES IDX 32 36 91 37 33 38 34 39 35 40 85 41 36 42 90 43 84 44 86 45
REMARK SMILES IDX 37 46 89 47 83 48 82 49 38 51 70 52 50 53 69 54 51 55 54 56
REMARK SMILES IDX 68 57 87 58 52 59 53 60 67 62 88 63 55 64 39 65 40 66 48 67
REMARK SMILES IDX 41 68 43 69 49 70 42 71 44 72 45 73 46 74 47 75 71 76 72 77
REMARK SMILES IDX 80 78 73 79 75 80 81 81 74 82 76 83 77 84 78 85 79 86 56 87
REMARK SMILES IDX 57 88 65 89 58 90 60 91 66 92 59 93 61 94 62 95 63 96 64 97
REMARK H PARENT 20 7 7 16 27 31 86 50 54 61
REMARK Flexibility Score: inf
ROOT
ATOM      1  C   UNL     1      -5.155   3.785   1.728  1.00  0.00     0.002 C 
ENDROOT
BRANCH   1   2
ATOM      2  C   UNL     1      -3.650   3.554   1.568  1.00  0.00     0.021 C 
BRANCH   2   3
ATOM      3  C   UNL     1      -3.104   2.420   2.435  1.00  0.00     0.116 C 
BRANCH   3   4
ATOM      4  N   UNL     1      -3.575   1.129   1.959  1.00  0.00    -0.356 N 
ATOM      5  C   UNL     1      -2.896   0.060   1.463  1.00  0.00     0.224 C 
ATOM      6  O   UNL     1      -3.552  -0.893   1.034  1.00  0.00    -0.275 OA
ATOM      7  H   UNL     1      -4.552   1.009   2.003  1.00  0.00     0.163 HD
BRANCH   5   8
ATOM      8  C   UNL     1      -1.373   0.020   1.450  1.00  0.00     0.098 C 
BRANCH   8   9
ATOM      9  C   UNL     1      -0.797   0.010   2.882  1.00  0.00     0.018 C 
BRANCH   9  10
ATOM     10  C   UNL     1      -1.171  -1.251   3.696  1.00  0.00    -0.017 C 
ATOM     11  C   UNL     1      -0.508  -2.510   3.132  1.00  0.00     0.007 C 
ATOM     12  C   UNL     1      -0.757  -1.062   5.157  1.00  0.00     0.007 C 
ENDBRANCH   9  10
ENDBRANCH   8   9
BRANCH   8  13
ATOM     13  C   UNL     1      -0.839   1.093   0.490  1.00  0.00     0.129 C 
BRANCH  13  14
ATOM     14  N   UNL     1       0.534   1.500   0.745  1.00  0.00    -0.351 N 
ATOM     15  C   UNL     1       1.654   1.317  -0.019  1.00  0.00     0.252 C 
ATOM     16  H   UNL     1       0.678   1.978   1.594  1.00  0.00     0.163 HD
ATOM     17  O   UNL     1       2.755   1.683   0.383  1.00  0.00    -0.269 OA
BRANCH  15  18
ATOM     18  C   UNL     1       1.524   0.709  -1.352  1.00  0.00     0.056 A 
ATOM     19  C   UNL     1       0.763   1.392  -2.311  1.00  0.00     0.054 A 
ATOM     20  C   UNL     1       2.144  -0.503  -1.675  1.00  0.00     0.030 A 
ATOM     21  C   UNL     1       0.582   0.826  -3.563  1.00  0.00     0.124 A 
ATOM     22  C   UNL     1       1.971  -1.046  -2.953  1.00  0.00     0.019 A 
ATOM     23  Br  UNL     1       3.178  -1.498  -0.432  1.00  0.00    -0.050 Br
ATOM     24  F   UNL     1      -0.192   1.448  -4.461  1.00  0.00    -0.207 F 
ATOM     25  C   UNL     1       1.178  -0.385  -3.893  1.00  0.00     0.040 A 
ENDBRANCH  15  18
ENDBRANCH  13  14
ENDBRANCH   8  13
ENDBRANCH   5   8
ENDBRANCH   3   4
ENDBRANCH   2   3
ENDBRANCH   1   2
BRANCH   1  26
ATOM     26  C   UNL     1      -5.612   4.050   3.165  1.00  0.00     0.002 C 
BRANCH  26  27
ATOM     27  C   UNL     1      -4.869   5.183   3.878  1.00  0.00     0.021 C 
BRANCH  27  28
ATOM     28  C   UNL     1      -4.941   6.529   3.165  1.00  0.00     0.116 C 
BRANCH  28  29
ATOM     29  N   UNL     1      -6.309   7.007   3.050  1.00  0.00    -0.352 N 
ATOM     30  C   UNL     1      -6.835   8.216   3.431  1.00  0.00     0.251 C 
ATOM     31  H   UNL     1      -6.947   6.376   2.644  1.00  0.00     0.163 HD
ATOM     32  O   UNL     1      -8.051   8.376   3.458  1.00  0.00    -0.269 OA
BRANCH  30  33
ATOM     33  C   UNL     1      -5.927   9.316   3.817  1.00  0.00     0.039 A 
ATOM     34  C   UNL     1      -6.223  10.071   4.954  1.00  0.00     0.014 A 
ATOM     35  C   UNL     1      -4.789   9.602   3.058  1.00  0.00     0.014 A 
ATOM     36  C   UNL     1      -5.353  11.088   5.352  1.00  0.00     0.010 A 
ATOM     37  C   UNL     1      -3.883  10.560   3.501  1.00  0.00     0.010 A 
ATOM     38  C   UNL     1      -4.163  11.325   4.643  1.00  0.00    -0.014 A 
BRANCH  38  39
ATOM     39  C   UNL     1      -3.209  12.382   5.069  1.00  0.00     0.031 A 
ATOM     40  C   UNL     1      -2.909  13.539   4.153  1.00  0.00     0.074 A 
ATOM     41  C   UNL     1      -2.564  12.266   6.247  1.00  0.00     0.049 A 
ATOM     42  N   UNL     1      -2.058  14.518   4.314  1.00  0.00    -0.248 NA
ATOM     43  C   UNL     1      -3.643  13.590   2.876  1.00  0.00     0.031 C 
ATOM     44  C   UNL     1      -2.716  11.156   7.192  1.00  0.00     0.029 A 
ATOM     45  N   UNL     1      -1.629  13.078   6.840  1.00  0.00    -0.354 N 
ATOM     46  C   UNL     1      -2.134  15.283   3.156  1.00  0.00     0.074 A 
ATOM     47  C   UNL     1      -3.082  14.632   2.280  1.00  0.00     0.031 C 
ATOM     48  C   UNL     1      -1.902  11.357   8.242  1.00  0.00     0.029 A 
ATOM     49  C   UNL     1      -1.147  12.587   8.032  1.00  0.00     0.049 A 
ATOM     50  H   UNL     1      -1.332  13.931   6.449  1.00  0.00     0.167 HD
ATOM     51  C   UNL     1      -1.500  16.443   2.860  1.00  0.00     0.034 A 
ATOM     52  C   UNL     1      -0.192  13.067   8.853  1.00  0.00     0.034 A 
ATOM     53  C   UNL     1      -0.586  17.108   3.747  1.00  0.00     0.049 A 
ATOM     54  C   UNL     1       0.481  14.368   8.507  1.00  0.00     0.074 A 
ATOM     55  C   UNL     1       0.064  18.316   3.564  1.00  0.00     0.029 A 
ATOM     56  N   UNL     1      -0.190  16.624   4.984  1.00  0.00    -0.354 N 
ATOM     57  N   UNL     1       0.295  15.144   7.467  1.00  0.00    -0.248 NA
ATOM     58  C   UNL     1       1.469  14.882   9.468  1.00  0.00     0.031 C 
ATOM     59  C   UNL     1       0.871  18.552   4.681  1.00  0.00     0.029 A 
ATOM     60  C   UNL     1       0.693  17.510   5.576  1.00  0.00     0.049 A 
ATOM     61  H   UNL     1      -0.493  15.776   5.382  1.00  0.00     0.167 HD
ATOM     62  C   UNL     1       1.104  16.256   7.672  1.00  0.00     0.074 A 
ATOM     63  C   UNL     1       1.766  16.063   8.944  1.00  0.00     0.031 C 
ATOM     64  C   UNL     1       1.292  17.335   6.873  1.00  0.00     0.034 A 
BRANCH  51  65
ATOM     65  C   UNL     1      -1.820  17.105   1.545  1.00  0.00     0.023 A 
ATOM     66  C   UNL     1      -3.081  17.709   1.362  1.00  0.00     0.012 A 
ATOM     67  C   UNL     1      -0.852  17.205   0.527  1.00  0.00     0.148 A 
ATOM     68  C   UNL     1      -3.385  18.377   0.177  1.00  0.00     0.002 A 
ATOM     69  C   UNL     1      -1.145  17.914  -0.632  1.00  0.00     0.091 A 
ATOM     70  F   UNL     1       0.336  16.612   0.714  1.00  0.00    -0.205 F 
ATOM     71  C   UNL     1      -2.413  18.489  -0.814  1.00  0.00     0.022 A 
BRANCH  69  72
ATOM     72  S   UNL     1       0.060  18.189  -1.936  1.00  0.00     0.127 S 
ATOM     73  O   UNL     1      -0.532  17.443  -3.046  1.00  0.00    -0.237 OA
ATOM     74  O   UNL     1       0.018  19.643  -2.088  1.00  0.00    -0.237 OA
ATOM     75  O   UNL     1       1.322  17.661  -1.439  1.00  0.00    -0.744 OA
ENDBRANCH  69  72
ENDBRANCH  51  65
BRANCH  52  76
ATOM     76  C   UNL     1       0.164  12.338  10.105  1.00  0.00     0.023 A 
ATOM     77  C   UNL     1      -0.128  12.914  11.357  1.00  0.00     0.012 A 
ATOM     78  C   UNL     1       0.806  11.085  10.061  1.00  0.00     0.148 A 
ATOM     79  C   UNL     1       0.261  12.284  12.539  1.00  0.00     0.002 A 
ATOM     80  C   UNL     1       1.136  10.434  11.243  1.00  0.00     0.091 A 
ATOM     81  F   UNL     1       1.085  10.555   8.861  1.00  0.00    -0.205 F 
ATOM     82  C   UNL     1       0.886  11.041  12.483  1.00  0.00     0.022 A 
BRANCH  80  83
ATOM     83  S   UNL     1       1.820   8.773  11.263  1.00  0.00     0.127 S 
ATOM     84  O   UNL     1       3.209   9.027  11.636  1.00  0.00    -0.237 OA
ATOM     85  O   UNL     1       1.012   8.124  12.296  1.00  0.00    -0.237 OA
ATOM     86  O   UNL     1       1.607   8.248   9.921  1.00  0.00    -0.744 OA
ENDBRANCH  80  83
ENDBRANCH  52  76
BRANCH  64  87
ATOM     87  C   UNL     1       2.198  18.429   7.374  1.00  0.00     0.023 A 
ATOM     88  C   UNL     1       3.590  18.224   7.438  1.00  0.00     0.012 A 
ATOM     89  C   UNL     1       1.668  19.690   7.714  1.00  0.00     0.148 A 
ATOM     90  C   UNL     1       4.437  19.244   7.870  1.00  0.00     0.002 A 
ATOM     91  C   UNL     1       2.522  20.718   8.090  1.00  0.00     0.091 A 
ATOM     92  F   UNL     1       0.339  19.859   7.662  1.00  0.00    -0.205 F 
ATOM     93  C   UNL     1       3.905  20.493   8.183  1.00  0.00     0.022 A 
BRANCH  91  94
ATOM     94  S   UNL     1       1.938  22.386   8.414  1.00  0.00     0.127 S 
ATOM     95  O   UNL     1       2.114  22.486   9.862  1.00  0.00    -0.237 OA
ATOM     96  O   UNL     1       2.869  23.196   7.628  1.00  0.00    -0.237 OA
ATOM     97  O   UNL     1       0.558  22.427   7.949  1.00  0.00    -0.744 OA
ENDBRANCH  91  94
ENDBRANCH  64  87
ENDBRANCH  38  39
ENDBRANCH  30  33
ENDBRANCH  28  29
ENDBRANCH  27  28
ENDBRANCH  26  27
ENDBRANCH   1  26
TORSDOF 21
