REMARK SMILES CCc1nc(C(=O)N2CC[NH+]([C@H](C)C(=O)NCCCCCCNC(=O)c3ccc(-c4c5nc(c(-c6cccc(S(=O)(=O)[O-])c6F)c6ccc([nH]6)c(-c6cccc(S(=O)(=O)[O-])c6F)c6nc(c(-c7cccc(S(=O)(=O)[O-])c7F)c7ccc4[nH]7)C=C6)C=C5)cc3)CC2)n[nH]1
REMARK SMILES IDX 19 1 18 2 17 3 16 4 14 5 15 6 12 8 13 9 11 10 6 11 7 12 8 13
REMARK SMILES IDX 9 14 90 15 10 16 89 17 5 19 3 20 4 21 92 22 91 23 2 25 1 26
REMARK SMILES IDX 20 27 21 28 22 29 23 30 24 31 25 33 26 34 27 35 88 36 28 37
REMARK SMILES IDX 87 38 29 39 30 40 31 41 81 42 32 43 86 44 80 45 82 46 33 47
REMARK SMILES IDX 85 48 79 49 78 50 34 52 66 53 46 54 65 55 47 56 50 57 64 58
REMARK SMILES IDX 83 59 48 60 49 61 63 63 84 64 51 65 35 66 36 67 44 68 37 69
REMARK SMILES IDX 39 70 45 71 38 72 40 73 41 74 42 75 43 76 67 77 68 78 76 79
REMARK SMILES IDX 69 80 71 81 77 82 70 83 72 84 73 85 74 86 75 87 52 88 53 89
REMARK SMILES IDX 61 90 54 91 56 92 62 93 55 94 57 95 58 96 59 97 60 98
REMARK H PARENT 16 7 11 18 92 24 23 32 82 51 50 62
REMARK Flexibility Score: inf
ROOT
ATOM      1  C   UNL     1      -0.202  -0.141  11.208  1.00  0.00     0.002 C 
ENDROOT
BRANCH   1   2
ATOM      2  C   UNL     1       0.228  -0.309   9.748  1.00  0.00     0.021 C 
BRANCH   2   3
ATOM      3  C   UNL     1       1.645   0.149   9.424  1.00  0.00     0.116 C 
BRANCH   3   4
ATOM      4  N   UNL     1       2.675  -0.686  10.008  1.00  0.00    -0.351 N 
ATOM      5  C   UNL     1       3.925  -0.997   9.551  1.00  0.00     0.278 C 
ATOM      6  O   UNL     1       4.684  -1.551  10.357  1.00  0.00    -0.268 OA
ATOM      7  H   UNL     1       2.436  -1.095  10.871  1.00  0.00     0.163 HD
BRANCH   5   8
ATOM      8  C   UNL     1       4.385  -0.721   8.095  1.00  0.00     0.271 C 
ATOM      9  C   UNL     1       3.413  -1.277   7.046  1.00  0.00     0.086 C 
BRANCH   8  10
ATOM     10  N   UNL     1       4.973   0.633   7.873  1.00  0.00    -0.322 N 
ATOM     11  C   UNL     1       4.008   4.138   6.181  1.00  0.00     0.293 C 
ATOM     12  O   UNL     1       3.484   5.039   6.835  1.00  0.00    -0.265 OA
ATOM     13  N   UNL     1       4.968   3.312   6.780  1.00  0.00    -0.325 N 
ATOM     14  C   UNL     1       4.894   3.132   8.220  1.00  0.00     0.181 C 
ATOM     15  C   UNL     1       5.782   2.304   6.120  1.00  0.00     0.181 C 
ATOM     16  C   UNL     1       4.240   1.759   8.488  1.00  0.00     0.284 C 
ATOM     17  C   UNL     1       5.244   0.891   6.432  1.00  0.00     0.284 C 
ATOM     18  H   UNL     1       5.859   0.599   8.378  1.00  0.00     0.348 HD
BRANCH  11  19
ATOM     19  C   UNL     1       3.537   3.807   4.812  1.00  0.00     0.239 A 
ATOM     20  C   UNL     1       2.700   2.626   3.244  1.00  0.00     0.124 A 
ATOM     21  N   UNL     1       3.438   2.506   4.326  1.00  0.00    -0.208 NA
ATOM     22  N   UNL     1       2.417   3.947   3.048  1.00  0.00    -0.263 N 
ATOM     23  N   UNL     1       2.968   4.709   3.994  1.00  0.00    -0.148 NA
ATOM     24  H   UNL     1       1.875   4.293   2.303  1.00  0.00     0.192 HD
BRANCH  20  25
ATOM     25  C   UNL     1       2.148   1.534   2.403  1.00  0.00     0.073 C 
ATOM     26  C   UNL     1       2.610   1.616   0.959  1.00  0.00     0.012 C 
ENDBRANCH  20  25
ENDBRANCH  11  19
ENDBRANCH   8  10
ENDBRANCH   5   8
ENDBRANCH   3   4
ENDBRANCH   2   3
ENDBRANCH   1   2
BRANCH   1  27
ATOM     27  C   UNL     1      -0.006   1.248  11.824  1.00  0.00     0.002 C 
BRANCH  27  28
ATOM     28  C   UNL     1      -0.570   2.436  11.039  1.00  0.00     0.021 C 
BRANCH  28  29
ATOM     29  C   UNL     1      -2.039   2.342  10.639  1.00  0.00     0.116 C 
BRANCH  29  30
ATOM     30  N   UNL     1      -2.931   2.181  11.776  1.00  0.00    -0.352 N 
ATOM     31  C   UNL     1      -4.050   2.902  12.117  1.00  0.00     0.251 C 
ATOM     32  H   UNL     1      -2.699   1.449  12.391  1.00  0.00     0.163 HD
ATOM     33  O   UNL     1      -4.616   2.687  13.186  1.00  0.00    -0.269 OA
BRANCH  31  34
ATOM     34  C   UNL     1      -4.555   3.959  11.214  1.00  0.00     0.039 A 
ATOM     35  C   UNL     1      -4.839   5.220  11.748  1.00  0.00     0.014 A 
ATOM     36  C   UNL     1      -4.733   3.718   9.849  1.00  0.00     0.014 A 
ATOM     37  C   UNL     1      -5.219   6.263  10.899  1.00  0.00     0.010 A 
ATOM     38  C   UNL     1      -5.058   4.773   8.998  1.00  0.00     0.010 A 
ATOM     39  C   UNL     1      -5.289   6.059   9.512  1.00  0.00    -0.014 A 
BRANCH  39  40
ATOM     40  C   UNL     1      -5.536   7.183   8.573  1.00  0.00     0.031 A 
ATOM     41  C   UNL     1      -6.773   7.210   7.720  1.00  0.00     0.074 A 
ATOM     42  C   UNL     1      -4.582   8.122   8.407  1.00  0.00     0.049 A 
ATOM     43  N   UNL     1      -7.102   8.050   6.773  1.00  0.00    -0.248 NA
ATOM     44  C   UNL     1      -7.759   6.141   7.945  1.00  0.00     0.031 C 
ATOM     45  C   UNL     1      -3.306   8.166   9.123  1.00  0.00     0.029 A 
ATOM     46  N   UNL     1      -4.521   9.197   7.554  1.00  0.00    -0.354 N 
ATOM     47  C   UNL     1      -8.311   7.595   6.263  1.00  0.00     0.074 A 
ATOM     48  C   UNL     1      -8.650   6.392   6.994  1.00  0.00     0.031 C 
ATOM     49  C   UNL     1      -2.585   9.206   8.675  1.00  0.00     0.029 A 
ATOM     50  C   UNL     1      -3.330   9.883   7.619  1.00  0.00     0.049 A 
ATOM     51  H   UNL     1      -5.259   9.452   6.954  1.00  0.00     0.167 HD
ATOM     52  C   UNL     1      -9.082   8.142   5.293  1.00  0.00     0.034 A 
ATOM     53  C   UNL     1      -2.879  10.928   6.896  1.00  0.00     0.034 A 
ATOM     54  C   UNL     1      -8.765   9.362   4.601  1.00  0.00     0.049 A 
ATOM     55  C   UNL     1      -3.759  11.518   5.830  1.00  0.00     0.074 A 
ATOM     56  C   UNL     1      -9.535  10.053   3.681  1.00  0.00     0.029 A 
ATOM     57  N   UNL     1      -7.580  10.069   4.740  1.00  0.00    -0.354 N 
ATOM     58  N   UNL     1      -4.974  11.174   5.480  1.00  0.00    -0.248 NA
ATOM     59  C   UNL     1      -3.215  12.657   5.075  1.00  0.00     0.031 C 
ATOM     60  C   UNL     1      -8.806  11.166   3.248  1.00  0.00     0.029 A 
ATOM     61  C   UNL     1      -7.588  11.175   3.907  1.00  0.00     0.049 A 
ATOM     62  H   UNL     1      -6.842   9.820   5.342  1.00  0.00     0.167 HD
ATOM     63  C   UNL     1      -5.349  12.065   4.482  1.00  0.00     0.074 A 
ATOM     64  C   UNL     1      -4.243  12.982   4.302  1.00  0.00     0.031 C 
ATOM     65  C   UNL     1      -6.500  12.108   3.767  1.00  0.00     0.034 A 
BRANCH  52  66
ATOM     66  C   UNL     1     -10.380   7.457   4.959  1.00  0.00     0.023 A 
ATOM     67  C   UNL     1     -11.463   7.554   5.855  1.00  0.00     0.012 A 
ATOM     68  C   UNL     1     -10.552   6.780   3.735  1.00  0.00     0.148 A 
ATOM     69  C   UNL     1     -12.690   6.967   5.552  1.00  0.00     0.002 A 
ATOM     70  C   UNL     1     -11.790   6.229   3.423  1.00  0.00     0.091 A 
ATOM     71  F   UNL     1      -9.503   6.678   2.906  1.00  0.00    -0.205 F 
ATOM     72  C   UNL     1     -12.857   6.314   4.333  1.00  0.00     0.022 A 
BRANCH  70  73
ATOM     73  S   UNL     1     -12.123   5.428   1.850  1.00  0.00     0.127 S 
ATOM     74  O   UNL     1     -12.174   4.020   2.241  1.00  0.00    -0.237 OA
ATOM     75  O   UNL     1     -13.415   6.004   1.476  1.00  0.00    -0.237 OA
ATOM     76  O   UNL     1     -11.020   5.796   0.973  1.00  0.00    -0.744 OA
ENDBRANCH  70  73
ENDBRANCH  52  66
BRANCH  53  77
ATOM     77  C   UNL     1      -1.541  11.513   7.189  1.00  0.00     0.023 A 
ATOM     78  C   UNL     1      -1.462  12.779   7.801  1.00  0.00     0.012 A 
ATOM     79  C   UNL     1      -0.354  10.817   6.893  1.00  0.00     0.148 A 
ATOM     80  C   UNL     1      -0.223  13.352   8.093  1.00  0.00     0.002 A 
ATOM     81  C   UNL     1       0.875  11.372   7.234  1.00  0.00     0.091 A 
ATOM     82  F   UNL     1      -0.452   9.624   6.290  1.00  0.00    -0.205 F 
ATOM     83  C   UNL     1       0.943  12.644   7.821  1.00  0.00     0.022 A 
BRANCH  81  84
ATOM     84  S   UNL     1       2.418  10.477   7.037  1.00  0.00     0.127 S 
ATOM     85  O   UNL     1       3.014  11.162   5.892  1.00  0.00    -0.237 OA
ATOM     86  O   UNL     1       3.079  10.728   8.319  1.00  0.00    -0.237 OA
ATOM     87  O   UNL     1       2.025   9.093   6.823  1.00  0.00    -0.744 OA
ENDBRANCH  81  84
ENDBRANCH  53  77
BRANCH  65  88
ATOM     88  C   UNL     1      -6.633  13.185   2.724  1.00  0.00     0.023 A 
ATOM     89  C   UNL     1      -5.918  13.069   1.515  1.00  0.00     0.012 A 
ATOM     90  C   UNL     1      -7.518  14.265   2.904  1.00  0.00     0.148 A 
ATOM     91  C   UNL     1      -6.065  14.025   0.510  1.00  0.00     0.002 A 
ATOM     92  C   UNL     1      -7.693  15.191   1.881  1.00  0.00     0.091 A 
ATOM     93  F   UNL     1      -8.174  14.367   4.069  1.00  0.00    -0.205 F 
ATOM     94  C   UNL     1      -6.960  15.077   0.689  1.00  0.00     0.022 A 
BRANCH  92  95
ATOM     95  S   UNL     1      -8.888  16.528   1.983  1.00  0.00     0.127 S 
ATOM     96  O   UNL     1      -8.018  17.694   2.130  1.00  0.00    -0.237 OA
ATOM     97  O   UNL     1      -9.569  16.434   0.692  1.00  0.00    -0.237 OA
ATOM     98  O   UNL     1      -9.730  16.228   3.133  1.00  0.00    -0.744 OA
ENDBRANCH  92  95
ENDBRANCH  65  88
ENDBRANCH  39  40
ENDBRANCH  31  34
ENDBRANCH  29  30
ENDBRANCH  28  29
ENDBRANCH  27  28
ENDBRANCH   1  27
TORSDOF 19
