REMARK SMILES CC1(C(=O)N[C@H](C(=O)NCCCCCCNC(=O)c2ccc(-c3c4nc(c(-c5cccc(S(=O)(=O)[O-])c5F)c5ccc([nH]5)c(-c5cccc(S(=O)(=O)[O-])c5F)c5nc(c(-c6cccc(S(=O)(=O)[O-])c6F)c6ccc3[nH]6)C=C5)C=C4)cc2)C2CC2)CCCC1
REMARK SMILES IDX 13 1 12 2 11 3 10 4 9 5 7 6 8 7 6 9 5 10 3 11 4 12 2 14 1 15
REMARK SMILES IDX 85 16 88 17 86 18 87 19 82 20 83 21 84 22 14 23 15 24 16 25
REMARK SMILES IDX 17 26 18 28 19 29 20 30 81 31 21 32 80 33 22 34 23 35 24 36
REMARK SMILES IDX 74 37 25 38 79 39 73 40 75 41 26 42 78 43 72 44 71 45 27 47
REMARK SMILES IDX 59 48 39 49 58 50 40 51 43 52 57 53 76 54 41 55 42 56 56 58
REMARK SMILES IDX 77 59 44 60 28 61 29 62 37 63 30 64 32 65 38 66 31 67 33 68
REMARK SMILES IDX 34 69 35 70 36 71 60 72 61 73 69 74 62 75 64 76 70 77 63 78
REMARK SMILES IDX 65 79 66 80 67 81 68 82 45 83 46 84 54 85 47 86 49 87 55 88
REMARK SMILES IDX 48 89 50 90 51 91 52 92 53 93
REMARK H PARENT 9 8 5 13 16 27 75 46 43 57
REMARK Flexibility Score: inf
ROOT
ATOM      1  C   UNL     1       7.009  -0.322   4.610  1.00  0.00     0.002 C 
ENDROOT
BRANCH   1   2
ATOM      2  C   UNL     1       6.666   0.273   3.240  1.00  0.00     0.002 C 
BRANCH   2   3
ATOM      3  C   UNL     1       6.400  -0.761   2.137  1.00  0.00     0.021 C 
BRANCH   3   4
ATOM      4  C   UNL     1       5.350  -1.800   2.519  1.00  0.00     0.116 C 
BRANCH   4   5
ATOM      5  N   UNL     1       4.058  -1.177   2.720  1.00  0.00    -0.354 N 
ATOM      6  C   UNL     1       2.907  -1.287   2.004  1.00  0.00     0.242 C 
ATOM      7  O   UNL     1       1.899  -0.743   2.469  1.00  0.00    -0.273 OA
ATOM      8  H   UNL     1       4.005  -0.578   3.500  1.00  0.00     0.163 HD
BRANCH   6   9
ATOM      9  C   UNL     1       2.804  -2.225   0.769  1.00  0.00     0.174 C 
BRANCH   9  10
ATOM     10  N   UNL     1       3.909  -2.092  -0.176  1.00  0.00    -0.344 N 
ATOM     11  C   UNL     1       4.168  -1.205  -1.169  1.00  0.00     0.226 C 
ATOM     12  O   UNL     1       5.250  -1.343  -1.749  1.00  0.00    -0.274 OA
ATOM     13  H   UNL     1       4.603  -2.784  -0.073  1.00  0.00     0.164 HD
BRANCH  11  14
ATOM     14  C   UNL     1       3.167  -0.127  -1.604  1.00  0.00     0.046 C 
ATOM     15  C   UNL     1       1.966  -0.781  -2.305  1.00  0.00     0.022 C 
ATOM     16  C   UNL     1       3.849   0.868  -2.573  1.00  0.00     0.016 C 
ATOM     17  C   UNL     1       2.757   0.822  -0.472  1.00  0.00     0.016 C 
ATOM     18  C   UNL     1       2.979   2.116  -2.536  1.00  0.00     0.001 C 
ATOM     19  C   UNL     1       2.396   2.155  -1.130  1.00  0.00     0.001 C 
ENDBRANCH  11  14
ENDBRANCH   9  10
BRANCH   9  20
ATOM     20  C   UNL     1       2.652  -3.662   1.246  1.00  0.00     0.021 C 
ATOM     21  C   UNL     1       1.820  -4.629   0.435  1.00  0.00     0.006 C 
ATOM     22  C   UNL     1       3.292  -4.871   0.591  1.00  0.00     0.006 C 
ENDBRANCH   9  20
ENDBRANCH   6   9
ENDBRANCH   4   5
ENDBRANCH   3   4
ENDBRANCH   2   3
ENDBRANCH   1   2
BRANCH   1  23
ATOM     23  C   UNL     1       8.181  -1.305   4.606  1.00  0.00     0.021 C 
BRANCH  23  24
ATOM     24  C   UNL     1       9.492  -0.709   4.108  1.00  0.00     0.116 C 
BRANCH  24  25
ATOM     25  N   UNL     1       9.949   0.376   4.963  1.00  0.00    -0.352 N 
ATOM     26  C   UNL     1      11.158   0.528   5.591  1.00  0.00     0.251 C 
ATOM     27  H   UNL     1       9.300   1.102   5.110  1.00  0.00     0.163 HD
ATOM     28  O   UNL     1      11.300   1.393   6.453  1.00  0.00    -0.269 OA
BRANCH  26  29
ATOM     29  C   UNL     1      12.281  -0.363   5.237  1.00  0.00     0.039 A 
ATOM     30  C   UNL     1      13.056  -0.916   6.258  1.00  0.00     0.014 A 
ATOM     31  C   UNL     1      12.562  -0.655   3.899  1.00  0.00     0.014 A 
ATOM     32  C   UNL     1      14.084  -1.804   5.937  1.00  0.00     0.010 A 
ATOM     33  C   UNL     1      13.531  -1.603   3.588  1.00  0.00     0.010 A 
ATOM     34  C   UNL     1      14.310  -2.179   4.602  1.00  0.00    -0.014 A 
BRANCH  34  35
ATOM     35  C   UNL     1      15.349  -3.179   4.251  1.00  0.00     0.031 A 
ATOM     36  C   UNL     1      16.505  -2.799   3.367  1.00  0.00     0.074 A 
ATOM     37  C   UNL     1      15.202  -4.456   4.655  1.00  0.00     0.049 A 
ATOM     38  N   UNL     1      17.483  -3.546   2.925  1.00  0.00    -0.248 NA
ATOM     39  C   UNL     1      16.554  -1.406   2.894  1.00  0.00     0.031 C 
ATOM     40  C   UNL     1      14.077  -4.969   5.440  1.00  0.00     0.029 A 
ATOM     41  N   UNL     1      15.987  -5.561   4.437  1.00  0.00    -0.354 N 
ATOM     42  C   UNL     1      18.237  -2.729   2.090  1.00  0.00     0.074 A 
ATOM     43  C   UNL     1      17.584  -1.439   2.063  1.00  0.00     0.031 C 
ATOM     44  C   UNL     1      14.244  -6.285   5.638  1.00  0.00     0.029 A 
ATOM     45  C   UNL     1      15.467  -6.718   4.968  1.00  0.00     0.049 A 
ATOM     46  H   UNL     1      16.840  -5.528   3.947  1.00  0.00     0.167 HD
ATOM     47  C   UNL     1      19.381  -3.019   1.425  1.00  0.00     0.034 A 
ATOM     48  C   UNL     1      15.914  -7.987   4.911  1.00  0.00     0.034 A 
ATOM     49  C   UNL     1      20.042  -4.295   1.482  1.00  0.00     0.049 A 
ATOM     50  C   UNL     1      17.210  -8.277   4.207  1.00  0.00     0.074 A 
ATOM     51  C   UNL     1      21.260  -4.657   0.935  1.00  0.00     0.029 A 
ATOM     52  N   UNL     1      19.530  -5.425   2.102  1.00  0.00    -0.354 N 
ATOM     53  N   UNL     1      18.003  -7.451   3.570  1.00  0.00    -0.248 NA
ATOM     54  C   UNL     1      17.692  -9.665   4.245  1.00  0.00     0.031 C 
ATOM     55  C   UNL     1      21.464  -6.018   1.187  1.00  0.00     0.029 A 
ATOM     56  C   UNL     1      20.395  -6.493   1.932  1.00  0.00     0.049 A 
ATOM     57  H   UNL     1      18.677  -5.463   2.592  1.00  0.00     0.167 HD
ATOM     58  C   UNL     1      19.093  -8.209   3.157  1.00  0.00     0.074 A 
ATOM     59  C   UNL     1      18.865  -9.558   3.635  1.00  0.00     0.031 C 
ATOM     60  C   UNL     1      20.178  -7.824   2.441  1.00  0.00     0.034 A 
BRANCH  47  61
ATOM     61  C   UNL     1      20.004  -1.923   0.598  1.00  0.00     0.023 A 
ATOM     62  C   UNL     1      20.572  -0.798   1.231  1.00  0.00     0.012 A 
ATOM     63  C   UNL     1      20.059  -2.024  -0.806  1.00  0.00     0.148 A 
ATOM     64  C   UNL     1      21.140   0.230   0.480  1.00  0.00     0.002 A 
ATOM     65  C   UNL     1      20.673  -1.020  -1.545  1.00  0.00     0.091 A 
ATOM     66  F   UNL     1      19.496  -3.089  -1.395  1.00  0.00    -0.205 F 
ATOM     67  C   UNL     1      21.199   0.115  -0.906  1.00  0.00     0.022 A 
BRANCH  65  68
ATOM     68  S   UNL     1      20.877  -1.118  -3.327  1.00  0.00     0.127 S 
ATOM     69  O   UNL     1      19.914  -0.120  -3.789  1.00  0.00    -0.237 OA
ATOM     70  O   UNL     1      22.279  -0.736  -3.498  1.00  0.00    -0.237 OA
ATOM     71  O   UNL     1      20.575  -2.495  -3.689  1.00  0.00    -0.744 OA
ENDBRANCH  65  68
ENDBRANCH  47  61
BRANCH  48  72
ATOM     72  C   UNL     1      15.143  -9.066   5.589  1.00  0.00     0.023 A 
ATOM     73  C   UNL     1      15.651  -9.655   6.763  1.00  0.00     0.012 A 
ATOM     74  C   UNL     1      13.881  -9.467   5.108  1.00  0.00     0.148 A 
ATOM     75  C   UNL     1      14.926 -10.640   7.434  1.00  0.00     0.002 A 
ATOM     76  C   UNL     1      13.139 -10.407   5.813  1.00  0.00     0.091 A 
ATOM     77  F   UNL     1      13.420  -8.896   3.986  1.00  0.00    -0.205 F 
ATOM     78  C   UNL     1      13.666 -11.008   6.966  1.00  0.00     0.022 A 
BRANCH  76  79
ATOM     79  S   UNL     1      11.453 -10.838   5.366  1.00  0.00     0.127 S 
ATOM     80  O   UNL     1      11.595 -12.240   4.980  1.00  0.00    -0.237 OA
ATOM     81  O   UNL     1      10.744 -10.613   6.626  1.00  0.00    -0.237 OA
ATOM     82  O   UNL     1      11.080  -9.926   4.294  1.00  0.00    -0.744 OA
ENDBRANCH  76  79
ENDBRANCH  48  72
BRANCH  60  83
ATOM     83  C   UNL     1      21.231  -8.863   2.151  1.00  0.00     0.023 A 
ATOM     84  C   UNL     1      20.970  -9.895   1.228  1.00  0.00     0.012 A 
ATOM     85  C   UNL     1      22.507  -8.770   2.741  1.00  0.00     0.148 A 
ATOM     86  C   UNL     1      21.952 -10.838   0.923  1.00  0.00     0.002 A 
ATOM     87  C   UNL     1      23.497  -9.680   2.392  1.00  0.00     0.091 A 
ATOM     88  F   UNL     1      22.731  -7.791   3.630  1.00  0.00    -0.205 F 
ATOM     89  C   UNL     1      23.217 -10.723   1.495  1.00  0.00     0.022 A 
BRANCH  87  90
ATOM     90  S   UNL     1      25.183  -9.552   2.999  1.00  0.00     0.127 S 
ATOM     91  O   UNL     1      25.261 -10.697   3.905  1.00  0.00    -0.237 OA
ATOM     92  O   UNL     1      25.965  -9.691   1.771  1.00  0.00    -0.237 OA
ATOM     93  O   UNL     1      25.283  -8.246   3.636  1.00  0.00    -0.744 OA
ENDBRANCH  87  90
ENDBRANCH  60  83
ENDBRANCH  34  35
ENDBRANCH  26  29
ENDBRANCH  24  25
ENDBRANCH  23  24
ENDBRANCH   1  23
TORSDOF 19
