REMARK SMILES Cc1cnn(C2(C(=O)NCCCCCCNC(=O)c3ccc(-c4c5nc(c(-c6cccc(S(=O)(=O)[O-])c6F)c6ccc([nH]6)c(-c6cccc(S(=O)(=O)[O-])c6F)c6nc(c(-c7cccc(S(=O)(=O)[O-])c7F)c7ccc4[nH]7)C=C6)C=C5)cc3)CCN(C(=O)c3cc4ccccc4[nH]3)CC2)c1
REMARK SMILES IDX 13 1 12 2 11 3 10 4 9 5 7 6 8 7 6 9 82 10 97 11 83 12 96 13
REMARK SMILES IDX 84 14 85 15 86 16 5 17 1 18 2 19 3 20 98 21 4 22 87 23 88 24
REMARK SMILES IDX 95 25 89 26 94 27 90 29 93 30 91 31 92 32 14 33 15 34 16 35
REMARK SMILES IDX 17 36 18 38 19 39 20 40 81 41 21 42 80 43 22 44 23 45 24 46
REMARK SMILES IDX 74 47 25 48 79 49 73 50 75 51 26 52 78 53 72 54 71 55 27 57
REMARK SMILES IDX 59 58 39 59 58 60 40 61 43 62 57 63 76 64 41 65 42 66 56 68
REMARK SMILES IDX 77 69 44 70 28 71 29 72 37 73 30 74 32 75 38 76 31 77 33 78
REMARK SMILES IDX 34 79 35 80 36 81 60 82 61 83 69 84 62 85 64 86 70 87 63 88
REMARK SMILES IDX 65 89 66 90 67 91 68 92 45 93 46 94 54 95 47 96 49 97 55 98
REMARK SMILES IDX 48 99 50 100 51 101 52 102 53 103
REMARK H PARENT 9 8 95 28 16 37 75 56 43 67
REMARK Flexibility Score: inf
ROOT
ATOM      1  C   UNL     1      -2.825  -0.393 -10.134  1.00  0.00     0.002 C 
ENDROOT
BRANCH   1   2
ATOM      2  C   UNL     1      -1.343  -0.201  -9.785  1.00  0.00     0.002 C 
BRANCH   2   3
ATOM      3  C   UNL     1      -1.034   0.810  -8.674  1.00  0.00     0.021 C 
BRANCH   3   4
ATOM      4  C   UNL     1      -1.789   0.575  -7.365  1.00  0.00     0.116 C 
BRANCH   4   5
ATOM      5  N   UNL     1      -1.386  -0.671  -6.729  1.00  0.00    -0.354 N 
ATOM      6  C   UNL     1      -0.853  -0.970  -5.498  1.00  0.00     0.248 C 
ATOM      7  O   UNL     1      -0.585  -2.168  -5.372  1.00  0.00    -0.272 OA
ATOM      8  H   UNL     1      -1.524  -1.462  -7.298  1.00  0.00     0.163 HD
BRANCH   6   9
ATOM      9  C   UNL     1      -0.666   0.130  -4.393  1.00  0.00     0.144 C 
ATOM     10  C   UNL     1       0.334   1.182  -4.955  1.00  0.00     0.062 C 
ATOM     11  C   UNL     1      -2.087   0.663  -4.067  1.00  0.00     0.062 C 
ATOM     12  C   UNL     1       0.086   2.629  -4.538  1.00  0.00     0.123 C 
ATOM     13  C   UNL     1      -2.118   2.089  -3.543  1.00  0.00     0.123 C 
ATOM     14  N   UNL     1      -1.324   2.964  -4.390  1.00  0.00    -0.337 N 
ATOM     15  C   UNL     1      -1.834   4.067  -5.072  1.00  0.00     0.270 C 
ATOM     16  O   UNL     1      -1.299   4.494  -6.096  1.00  0.00    -0.267 OA
BRANCH   9  17
ATOM     17  N   UNL     1      -0.111  -0.393  -3.099  1.00  0.00    -0.257 N 
ATOM     18  C   UNL     1       1.154  -0.158   0.335  1.00  0.00     0.048 C 
ATOM     19  C   UNL     1       0.650  -0.500  -1.010  1.00  0.00    -0.013 A 
ATOM     20  C   UNL     1       0.428  -1.769  -1.570  1.00  0.00     0.138 A 
ATOM     21  C   UNL     1       0.287   0.364  -2.017  1.00  0.00     0.113 A 
ATOM     22  N   UNL     1      -0.113  -1.704  -2.784  1.00  0.00    -0.180 NA
ENDBRANCH   9  17
BRANCH  15  23
ATOM     23  C   UNL     1      -3.061   4.653  -4.585  1.00  0.00     0.105 A 
ATOM     24  C   UNL     1      -3.499   4.931  -3.300  1.00  0.00     0.042 A 
ATOM     25  N   UNL     1      -4.027   5.136  -5.437  1.00  0.00    -0.351 N 
ATOM     26  C   UNL     1      -4.827   5.429  -3.382  1.00  0.00     0.000 A 
ATOM     27  C   UNL     1      -5.150   5.505  -4.735  1.00  0.00     0.046 A 
ATOM     28  H   UNL     1      -3.928   5.207  -6.413  1.00  0.00     0.167 HD
ATOM     29  C   UNL     1      -5.789   5.819  -2.430  1.00  0.00     0.010 A 
ATOM     30  C   UNL     1      -6.405   5.923  -5.191  1.00  0.00     0.026 A 
ATOM     31  C   UNL     1      -7.050   6.239  -2.869  1.00  0.00     0.001 A 
ATOM     32  C   UNL     1      -7.354   6.280  -4.228  1.00  0.00     0.002 A 
ENDBRANCH  15  23
ENDBRANCH   6   9
ENDBRANCH   4   5
ENDBRANCH   3   4
ENDBRANCH   2   3
ENDBRANCH   1   2
BRANCH   1  33
ATOM     33  C   UNL     1      -3.630   0.877 -10.438  1.00  0.00     0.021 C 
BRANCH  33  34
ATOM     34  C   UNL     1      -3.152   1.648 -11.660  1.00  0.00     0.116 C 
BRANCH  34  35
ATOM     35  N   UNL     1      -3.344   0.901 -12.902  1.00  0.00    -0.352 N 
ATOM     36  C   UNL     1      -2.900   1.222 -14.174  1.00  0.00     0.251 C 
ATOM     37  H   UNL     1      -3.854   0.062 -12.825  1.00  0.00     0.163 HD
ATOM     38  O   UNL     1      -3.404   0.723 -15.160  1.00  0.00    -0.269 OA
BRANCH  36  39
ATOM     39  C   UNL     1      -1.800   2.198 -14.300  1.00  0.00     0.039 A 
ATOM     40  C   UNL     1      -1.859   3.235 -15.235  1.00  0.00     0.014 A 
ATOM     41  C   UNL     1      -0.728   2.088 -13.421  1.00  0.00     0.014 A 
ATOM     42  C   UNL     1      -0.869   4.215 -15.218  1.00  0.00     0.010 A 
ATOM     43  C   UNL     1       0.156   3.131 -13.306  1.00  0.00     0.010 A 
ATOM     44  C   UNL     1       0.129   4.171 -14.234  1.00  0.00    -0.014 A 
BRANCH  44  45
ATOM     45  C   UNL     1       1.093   5.264 -14.092  1.00  0.00     0.031 A 
ATOM     46  C   UNL     1       0.506   6.624 -13.912  1.00  0.00     0.074 A 
ATOM     47  C   UNL     1       2.407   5.036 -13.871  1.00  0.00     0.049 A 
ATOM     48  N   UNL     1       0.645   7.661 -14.674  1.00  0.00    -0.248 NA
ATOM     49  C   UNL     1      -0.440   6.826 -12.804  1.00  0.00     0.031 C 
ATOM     50  C   UNL     1       3.069   3.735 -13.691  1.00  0.00     0.029 A 
ATOM     51  N   UNL     1       3.399   5.921 -13.575  1.00  0.00    -0.354 N 
ATOM     52  C   UNL     1      -0.001   8.707 -14.010  1.00  0.00     0.074 A 
ATOM     53  C   UNL     1      -0.808   8.094 -12.992  1.00  0.00     0.031 C 
ATOM     54  C   UNL     1       4.234   3.913 -13.036  1.00  0.00     0.029 A 
ATOM     55  C   UNL     1       4.491   5.335 -12.941  1.00  0.00     0.049 A 
ATOM     56  H   UNL     1       3.349   6.881 -13.788  1.00  0.00     0.167 HD
ATOM     57  C   UNL     1       0.390  10.003 -14.178  1.00  0.00     0.034 A 
ATOM     58  C   UNL     1       5.520   5.971 -12.338  1.00  0.00     0.034 A 
ATOM     59  C   UNL     1       1.249  10.143 -15.328  1.00  0.00     0.049 A 
ATOM     60  C   UNL     1       5.575   7.335 -12.900  1.00  0.00     0.074 A 
ATOM     61  C   UNL     1       1.145   9.941 -16.687  1.00  0.00     0.029 A 
ATOM     62  N   UNL     1       2.589  10.243 -15.050  1.00  0.00    -0.354 N 
ATOM     63  N   UNL     1       5.848   7.592 -14.149  1.00  0.00    -0.248 NA
ATOM     64  C   UNL     1       4.985   8.431 -12.149  1.00  0.00     0.031 C 
ATOM     65  C   UNL     1       2.447   9.533 -17.106  1.00  0.00     0.029 A 
ATOM     66  C   UNL     1       3.287   9.540 -15.990  1.00  0.00     0.049 A 
ATOM     67  H   UNL     1       2.983  10.739 -14.297  1.00  0.00     0.167 HD
ATOM     68  C   UNL     1       5.059   8.691 -14.452  1.00  0.00     0.074 A 
ATOM     69  C   UNL     1       4.700   9.260 -13.157  1.00  0.00     0.031 C 
ATOM     70  C   UNL     1       4.528   8.848 -15.701  1.00  0.00     0.034 A 
BRANCH  57  71
ATOM     71  C   UNL     1       0.389  11.080 -13.098  1.00  0.00     0.023 A 
ATOM     72  C   UNL     1       0.826  12.372 -13.486  1.00  0.00     0.012 A 
ATOM     73  C   UNL     1       0.302  10.839 -11.708  1.00  0.00     0.148 A 
ATOM     74  C   UNL     1       1.251  13.326 -12.554  1.00  0.00     0.002 A 
ATOM     75  C   UNL     1       0.657  11.817 -10.782  1.00  0.00     0.091 A 
ATOM     76  F   UNL     1      -0.001   9.624 -11.249  1.00  0.00    -0.205 F 
ATOM     77  C   UNL     1       1.170  13.047 -11.198  1.00  0.00     0.022 A 
BRANCH  75  78
ATOM     78  S   UNL     1       0.527  11.521  -9.013  1.00  0.00     0.127 S 
ATOM     79  O   UNL     1       1.919  11.258  -8.662  1.00  0.00    -0.237 OA
ATOM     80  O   UNL     1      -0.004  12.797  -8.532  1.00  0.00    -0.237 OA
ATOM     81  O   UNL     1      -0.399  10.404  -8.878  1.00  0.00    -0.744 OA
ENDBRANCH  75  78
ENDBRANCH  57  71
BRANCH  58  82
ATOM     82  C   UNL     1       6.338   5.551 -11.180  1.00  0.00     0.023 A 
ATOM     83  C   UNL     1       7.627   6.089 -11.009  1.00  0.00     0.012 A 
ATOM     84  C   UNL     1       5.761   4.834 -10.107  1.00  0.00     0.148 A 
ATOM     85  C   UNL     1       8.305   5.955  -9.792  1.00  0.00     0.002 A 
ATOM     86  C   UNL     1       6.441   4.699  -8.900  1.00  0.00     0.091 A 
ATOM     87  F   UNL     1       4.513   4.363 -10.242  1.00  0.00    -0.205 F 
ATOM     88  C   UNL     1       7.710   5.271  -8.736  1.00  0.00     0.022 A 
BRANCH  86  89
ATOM     89  S   UNL     1       5.734   3.843  -7.484  1.00  0.00     0.127 S 
ATOM     90  O   UNL     1       6.830   2.959  -7.085  1.00  0.00    -0.237 OA
ATOM     91  O   UNL     1       5.473   4.944  -6.561  1.00  0.00    -0.237 OA
ATOM     92  O   UNL     1       4.556   3.145  -7.984  1.00  0.00    -0.744 OA
ENDBRANCH  86  89
ENDBRANCH  58  82
BRANCH  70  93
ATOM     93  C   UNL     1       5.104   8.025 -16.824  1.00  0.00     0.023 A 
ATOM     94  C   UNL     1       4.987   6.620 -16.867  1.00  0.00     0.012 A 
ATOM     95  C   UNL     1       5.623   8.698 -17.944  1.00  0.00     0.148 A 
ATOM     96  C   UNL     1       5.398   5.901 -17.992  1.00  0.00     0.002 A 
ATOM     97  C   UNL     1       5.987   7.984 -19.079  1.00  0.00     0.091 A 
ATOM     98  F   UNL     1       5.720  10.035 -17.889  1.00  0.00    -0.205 F 
ATOM     99  C   UNL     1       5.885   6.584 -19.104  1.00  0.00     0.022 A 
BRANCH  97 100
ATOM    100  S   UNL     1       6.495   8.812 -20.587  1.00  0.00     0.127 S 
ATOM    101  O   UNL     1       7.935   8.562 -20.603  1.00  0.00    -0.237 OA
ATOM    102  O   UNL     1       5.738   8.092 -21.612  1.00  0.00    -0.237 OA
ATOM    103  O   UNL     1       6.103  10.208 -20.431  1.00  0.00    -0.744 OA
ENDBRANCH  97 100
ENDBRANCH  70  93
ENDBRANCH  44  45
ENDBRANCH  36  39
ENDBRANCH  34  35
ENDBRANCH  33  34
ENDBRANCH   1  33
TORSDOF 18
