REMARK SMILES CS(=O)(=O)c1ccc(/C=C(/C(=O)NCCCCCCNC(=O)c2ccc(-c3c4nc(c(-c5cccc(S(=O)(=O)[O-])c5F)c5ccc([nH]5)c(-c5cccc(S(=O)(=O)[O-])c5F)c5nc(c(-c6cccc(S(=O)(=O)[O-])c6F)c6ccc3[nH]6)C=C5)C=C4)cc2)c2ccc(-c3ccc(S(C)(=O)=O)cc3)cc2)cc1
REMARK SMILES IDX 16 1 15 2 14 3 13 4 11 5 12 6 10 8 9 9 8 10 5 11 6 12 103 13
REMARK SMILES IDX 7 14 102 15 2 16 1 17 3 18 4 19 86 20 87 21 101 22 88 23
REMARK SMILES IDX 100 24 89 25 90 26 91 27 99 28 92 29 98 30 93 31 94 32 95 33
REMARK SMILES IDX 96 34 97 35 17 36 18 37 19 38 20 39 21 40 22 42 23 43 24 44
REMARK SMILES IDX 85 45 25 46 84 47 26 48 27 49 28 50 78 51 29 52 83 53 77 54
REMARK SMILES IDX 79 55 30 56 82 57 76 58 75 59 31 61 63 62 43 63 62 64 44 65
REMARK SMILES IDX 47 66 61 67 80 68 45 69 46 70 60 72 81 73 48 74 32 75 33 76
REMARK SMILES IDX 41 77 34 78 36 79 42 80 35 81 37 82 38 83 39 84 40 85 64 86
REMARK SMILES IDX 65 87 73 88 66 89 68 90 74 91 67 92 69 93 70 94 71 95 72 96
REMARK SMILES IDX 49 97 50 98 58 99 51 100 53 101 59 102 52 103 54 104 55 105
REMARK SMILES IDX 56 106 57 107
REMARK H PARENT 13 7 20 41 79 60 47 71
REMARK Flexibility Score: inf
ROOT
ATOM      1  C   UNL     1       5.189  -2.114  -9.832  1.00  0.00     0.002 C 
ENDROOT
BRANCH   1   2
ATOM      2  C   UNL     1       4.605  -1.951  -8.418  1.00  0.00     0.021 C 
BRANCH   2   3
ATOM      3  C   UNL     1       3.118  -2.304  -8.341  1.00  0.00     0.116 C 
BRANCH   3   4
ATOM      4  N   UNL     1       2.971  -3.739  -8.458  1.00  0.00    -0.352 N 
ATOM      5  C   UNL     1       2.754  -4.736  -7.567  1.00  0.00     0.251 C 
ATOM      6  O   UNL     1       2.848  -5.883  -8.016  1.00  0.00    -0.269 OA
ATOM      7  H   UNL     1       3.045  -4.059  -9.386  1.00  0.00     0.163 HD
BRANCH   5   8
ATOM      8  C   UNL     1       2.307  -4.500  -6.140  1.00  0.00     0.047 C 
ATOM      9  C   UNL     1       2.734  -3.454  -5.394  1.00  0.00     0.022 C 
BRANCH   9  10
ATOM     10  C   UNL     1       2.260  -2.999  -4.064  1.00  0.00    -0.025 A 
ATOM     11  C   UNL     1       1.123  -2.018  -1.685  1.00  0.00     0.067 A 
ATOM     12  C   UNL     1       1.442  -3.372  -1.804  1.00  0.00     0.021 A 
ATOM     13  C   UNL     1       1.417  -1.134  -2.721  1.00  0.00     0.021 A 
ATOM     14  C   UNL     1       2.035  -3.850  -2.977  1.00  0.00     0.009 A 
ATOM     15  C   UNL     1       1.984  -1.629  -3.903  1.00  0.00     0.009 A 
BRANCH  11  16
ATOM     16  S   UNL     1       0.329  -1.462  -0.194  1.00  0.00     0.175 S 
ATOM     17  C   UNL     1       0.983   0.147   0.152  1.00  0.00     0.163 C 
ATOM     18  O   UNL     1       0.778  -2.338   0.874  1.00  0.00    -0.224 OA
ATOM     19  O   UNL     1      -1.082  -1.330  -0.500  1.00  0.00    -0.224 OA
ENDBRANCH  11  16
ENDBRANCH   9  10
BRANCH   8  20
ATOM     20  C   UNL     1       1.497  -5.585  -5.534  1.00  0.00    -0.013 A 
ATOM     21  C   UNL     1       2.106  -6.834  -5.346  1.00  0.00     0.009 A 
ATOM     22  C   UNL     1       0.192  -5.397  -5.074  1.00  0.00     0.009 A 
ATOM     23  C   UNL     1       1.440  -7.864  -4.687  1.00  0.00     0.009 A 
ATOM     24  C   UNL     1      -0.460  -6.424  -4.378  1.00  0.00     0.009 A 
ATOM     25  C   UNL     1       0.154  -7.672  -4.164  1.00  0.00    -0.018 A 
BRANCH  25  26
ATOM     26  C   UNL     1      -0.516  -8.755  -3.419  1.00  0.00    -0.018 A 
ATOM     27  C   UNL     1       0.195  -9.547  -2.495  1.00  0.00     0.010 A 
ATOM     28  C   UNL     1      -1.877  -9.039  -3.619  1.00  0.00     0.010 A 
ATOM     29  C   UNL     1      -0.421 -10.601  -1.817  1.00  0.00     0.021 A 
ATOM     30  C   UNL     1      -2.505 -10.089  -2.945  1.00  0.00     0.021 A 
ATOM     31  C   UNL     1      -1.766 -10.875  -2.062  1.00  0.00     0.067 A 
BRANCH  31  32
ATOM     32  S   UNL     1      -2.532 -12.244  -1.234  1.00  0.00     0.175 S 
ATOM     33  C   UNL     1      -1.725 -13.658  -1.940  1.00  0.00     0.163 C 
ATOM     34  O   UNL     1      -2.170 -12.164   0.165  1.00  0.00    -0.224 OA
ATOM     35  O   UNL     1      -3.925 -12.292  -1.645  1.00  0.00    -0.224 OA
ENDBRANCH  31  32
ENDBRANCH  25  26
ENDBRANCH   8  20
ENDBRANCH   5   8
ENDBRANCH   3   4
ENDBRANCH   2   3
ENDBRANCH   1   2
BRANCH   1  36
ATOM     36  C   UNL     1       4.508  -1.255 -10.905  1.00  0.00     0.002 C 
BRANCH  36  37
ATOM     37  C   UNL     1       4.434   0.236 -10.568  1.00  0.00     0.021 C 
BRANCH  37  38
ATOM     38  C   UNL     1       5.796   0.890 -10.366  1.00  0.00     0.116 C 
BRANCH  38  39
ATOM     39  N   UNL     1       6.584   0.867 -11.588  1.00  0.00    -0.352 N 
ATOM     40  C   UNL     1       7.132   1.917 -12.279  1.00  0.00     0.251 C 
ATOM     41  H   UNL     1       6.746  -0.025 -11.973  1.00  0.00     0.163 HD
ATOM     42  O   UNL     1       7.552   1.752 -13.421  1.00  0.00    -0.269 OA
BRANCH  40  43
ATOM     43  C   UNL     1       7.204   3.248 -11.642  1.00  0.00     0.039 A 
ATOM     44  C   UNL     1       6.848   4.376 -12.382  1.00  0.00     0.014 A 
ATOM     45  C   UNL     1       7.623   3.377 -10.314  1.00  0.00     0.014 A 
ATOM     46  C   UNL     1       6.867   5.632 -11.774  1.00  0.00     0.010 A 
ATOM     47  C   UNL     1       7.564   4.617  -9.688  1.00  0.00     0.010 A 
ATOM     48  C   UNL     1       7.197   5.760 -10.414  1.00  0.00    -0.014 A 
BRANCH  48  49
ATOM     49  C   UNL     1       7.158   7.080  -9.735  1.00  0.00     0.031 A 
ATOM     50  C   UNL     1       8.412   7.669  -9.148  1.00  0.00     0.074 A 
ATOM     51  C   UNL     1       5.978   7.711  -9.581  1.00  0.00     0.049 A 
ATOM     52  N   UNL     1       8.563   8.785  -8.483  1.00  0.00    -0.248 NA
ATOM     53  C   UNL     1       9.653   6.892  -9.303  1.00  0.00     0.031 C 
ATOM     54  C   UNL     1       4.681   7.205 -10.038  1.00  0.00     0.029 A 
ATOM     55  N   UNL     1       5.672   8.904  -8.975  1.00  0.00    -0.354 N 
ATOM     56  C   UNL     1       9.902   8.829  -8.114  1.00  0.00     0.074 A 
ATOM     57  C   UNL     1      10.513   7.609  -8.595  1.00  0.00     0.031 C 
ATOM     58  C   UNL     1       3.723   8.084  -9.704  1.00  0.00     0.029 A 
ATOM     59  C   UNL     1       4.328   9.196  -8.979  1.00  0.00     0.049 A 
ATOM     60  H   UNL     1       6.351   9.495  -8.575  1.00  0.00     0.167 HD
ATOM     61  C   UNL     1      10.570   9.807  -7.458  1.00  0.00     0.034 A 
ATOM     62  C   UNL     1       3.656  10.236  -8.448  1.00  0.00     0.034 A 
ATOM     63  C   UNL     1       9.966  11.032  -7.010  1.00  0.00     0.049 A 
ATOM     64  C   UNL     1       4.426  11.321  -7.746  1.00  0.00     0.074 A 
ATOM     65  C   UNL     1      10.573  12.122  -6.412  1.00  0.00     0.029 A 
ATOM     66  N   UNL     1       8.614  11.326  -7.096  1.00  0.00    -0.354 N 
ATOM     67  N   UNL     1       5.717  11.417  -7.542  1.00  0.00    -0.248 NA
ATOM     68  C   UNL     1       3.651  12.459  -7.232  1.00  0.00     0.031 C 
ATOM     69  C   UNL     1       9.582  13.059  -6.102  1.00  0.00     0.029 A 
ATOM     70  C   UNL     1       8.364  12.572  -6.546  1.00  0.00     0.049 A 
ATOM     71  H   UNL     1       7.931  10.735  -7.489  1.00  0.00     0.167 HD
ATOM     72  C   UNL     1       5.914  12.640  -6.912  1.00  0.00     0.074 A 
ATOM     73  C   UNL     1       4.610  13.258  -6.786  1.00  0.00     0.031 C 
ATOM     74  C   UNL     1       7.068  13.196  -6.468  1.00  0.00     0.034 A 
BRANCH  61  75
ATOM     75  C   UNL     1      12.045   9.610  -7.217  1.00  0.00     0.023 A 
ATOM     76  C   UNL     1      12.944   9.654  -8.303  1.00  0.00     0.012 A 
ATOM     77  C   UNL     1      12.548   9.441  -5.912  1.00  0.00     0.148 A 
ATOM     78  C   UNL     1      14.314   9.494  -8.099  1.00  0.00     0.002 A 
ATOM     79  C   UNL     1      13.919   9.332  -5.712  1.00  0.00     0.091 A 
ATOM     80  F   UNL     1      11.677   9.381  -4.895  1.00  0.00    -0.205 F 
ATOM     81  C   UNL     1      14.802   9.345  -6.804  1.00  0.00     0.022 A 
BRANCH  79  82
ATOM     82  S   UNL     1      14.653   9.218  -4.077  1.00  0.00     0.127 S 
ATOM     83  O   UNL     1      15.156   7.845  -4.075  1.00  0.00    -0.237 OA
ATOM     84  O   UNL     1      15.691  10.247  -4.135  1.00  0.00    -0.237 OA
ATOM     85  O   UNL     1      13.579   9.488  -3.132  1.00  0.00    -0.744 OA
ENDBRANCH  79  82
ENDBRANCH  61  75
BRANCH  62  86
ATOM     86  C   UNL     1       2.177  10.325  -8.603  1.00  0.00     0.023 A 
ATOM     87  C   UNL     1       1.622  11.321  -9.429  1.00  0.00     0.012 A 
ATOM     88  C   UNL     1       1.320   9.415  -7.954  1.00  0.00     0.148 A 
ATOM     89  C   UNL     1       0.239  11.434  -9.576  1.00  0.00     0.002 A 
ATOM     90  C   UNL     1      -0.053   9.496  -8.151  1.00  0.00     0.091 A 
ATOM     91  F   UNL     1       1.869   8.480  -7.165  1.00  0.00    -0.205 F 
ATOM     92  C   UNL     1      -0.597  10.516  -8.946  1.00  0.00     0.022 A 
BRANCH  90  93
ATOM     93  S   UNL     1      -1.193   8.278  -7.485  1.00  0.00     0.127 S 
ATOM     94  O   UNL     1      -1.916   9.060  -6.486  1.00  0.00    -0.237 OA
ATOM     95  O   UNL     1      -1.971   7.917  -8.671  1.00  0.00    -0.237 OA
ATOM     96  O   UNL     1      -0.361   7.201  -6.963  1.00  0.00    -0.744 OA
ENDBRANCH  90  93
ENDBRANCH  62  86
BRANCH  74  97
ATOM     97  C   UNL     1       6.989  14.564  -5.841  1.00  0.00     0.023 A 
ATOM     98  C   UNL     1       6.402  14.727  -4.570  1.00  0.00     0.012 A 
ATOM     99  C   UNL     1       7.563  15.678  -6.486  1.00  0.00     0.148 A 
ATOM    100  C   UNL     1       6.355  15.984  -3.968  1.00  0.00     0.002 A 
ATOM    101  C   UNL     1       7.561  16.916  -5.856  1.00  0.00     0.091 A 
ATOM    102  F   UNL     1       8.102  15.506  -7.701  1.00  0.00    -0.205 F 
ATOM    103  C   UNL     1       6.944  17.075  -4.604  1.00  0.00     0.022 A 
BRANCH 101 104
ATOM    104  S   UNL     1       8.383  18.354  -6.551  1.00  0.00     0.127 S 
ATOM    105  O   UNL     1       7.246  19.196  -6.920  1.00  0.00    -0.237 OA
ATOM    106  O   UNL     1       9.162  18.843  -5.414  1.00  0.00    -0.237 OA
ATOM    107  O   UNL     1       9.181  17.861  -7.666  1.00  0.00    -0.744 OA
ENDBRANCH 101 104
ENDBRANCH  74  97
ENDBRANCH  48  49
ENDBRANCH  40  43
ENDBRANCH  38  39
ENDBRANCH  37  38
ENDBRANCH  36  37
ENDBRANCH   1  36
TORSDOF 21
