REMARK SMILES Cc1nc2n(n1)[C@@H](c1ccc([N+](=O)[O-])o1)CC(C(=O)NCCCCCCNC(=O)c1ccc(-c3c4nc(c(-c5cccc(S(=O)(=O)[O-])c5F)c5ccc([nH]5)c(-c5cccc(S(=O)(=O)[O-])c5F)c5nc(c(-c6cccc(S(=O)(=O)[O-])c6F)c6ccc3[nH]6)C=C5)C=C4)cc1)=N2
REMARK SMILES IDX 24 1 23 2 22 3 21 4 20 5 18 6 19 7 17 9 1 10 2 11 3 12 6 13
REMARK SMILES IDX 4 14 5 15 93 16 7 17 16 18 8 19 9 20 15 21 10 22 11 23 12 24
REMARK SMILES IDX 13 25 14 26 25 27 26 28 27 29 28 30 29 32 30 33 31 34 92 35
REMARK SMILES IDX 32 36 91 37 33 38 34 39 35 40 85 41 36 42 90 43 84 44 86 45
REMARK SMILES IDX 37 46 89 47 83 48 82 49 38 51 70 52 50 53 69 54 51 55 54 56
REMARK SMILES IDX 68 57 87 58 52 59 53 60 67 62 88 63 55 64 39 65 40 66 48 67
REMARK SMILES IDX 41 68 43 69 49 70 42 71 44 72 45 73 46 74 47 75 71 76 72 77
REMARK SMILES IDX 80 78 73 79 75 80 81 81 74 82 76 83 77 84 78 85 79 86 56 87
REMARK SMILES IDX 57 88 65 89 58 90 60 91 66 92 59 93 61 94 62 95 63 96 64 97
REMARK H PARENT 20 8 27 31 86 50 54 61
REMARK Flexibility Score: inf
ROOT
ATOM      1  C   UNL     1      -2.512   1.787 -11.726  1.00  0.00     0.002 C 
ENDROOT
BRANCH   1   2
ATOM      2  C   UNL     1      -1.300   1.059 -11.127  1.00  0.00     0.002 C 
BRANCH   2   3
ATOM      3  C   UNL     1      -0.931   1.465  -9.692  1.00  0.00     0.021 C 
BRANCH   3   4
ATOM      4  C   UNL     1      -2.031   1.186  -8.663  1.00  0.00     0.116 C 
BRANCH   4   5
ATOM      5  N   UNL     1      -1.953  -0.171  -8.141  1.00  0.00    -0.351 N 
ATOM      6  C   UNL     1      -1.516  -0.760  -6.980  1.00  0.00     0.265 C 
ATOM      7  O   UNL     1      -1.623  -1.984  -6.907  1.00  0.00    -0.268 OA
ATOM      8  H   UNL     1      -2.301  -0.833  -8.781  1.00  0.00     0.163 HD
BRANCH   6   9
ATOM      9  C   UNL     1      -0.926  -0.009  -5.766  1.00  0.00     0.112 C 
ATOM     10  C   UNL     1       0.949   0.277  -0.277  1.00  0.00     0.092 C 
ATOM     11  C   UNL     1       0.546   0.413  -1.690  1.00  0.00     0.149 A 
ATOM     12  N   UNL     1       0.097  -0.647  -2.433  1.00  0.00    -0.195 NA
ATOM     13  N   UNL     1       0.595   1.578  -2.345  1.00  0.00    -0.154 NA
ATOM     14  C   UNL     1      -0.139  -0.134  -3.622  1.00  0.00     0.249 A 
ATOM     15  N   UNL     1       0.196   1.192  -3.573  1.00  0.00    -0.219 N 
ATOM     16  N   UNL     1      -0.621  -0.736  -4.731  1.00  0.00    -0.211 NA
ATOM     17  C   UNL     1       0.024   2.113  -4.672  1.00  0.00     0.184 C 
ATOM     18  C   UNL     1      -0.797   1.488  -5.805  1.00  0.00     0.098 C 
BRANCH  17  19
ATOM     19  C   UNL     1       1.330   2.649  -5.182  1.00  0.00     0.136 A 
ATOM     20  C   UNL     1       2.655   2.600  -4.781  1.00  0.00     0.056 A 
ATOM     21  O   UNL     1       1.232   3.397  -6.327  1.00  0.00    -0.404 OA
ATOM     22  C   UNL     1       3.408   3.325  -5.747  1.00  0.00     0.134 A 
ATOM     23  C   UNL     1       2.492   3.767  -6.670  1.00  0.00     0.433 A 
BRANCH  23  24
ATOM     24  N   UNL     1       2.627   4.435  -7.927  1.00  0.00     0.102 N 
ATOM     25  O   UNL     1       3.783   4.663  -8.298  1.00  0.00    -0.256 OA
ATOM     26  O   UNL     1       1.588   4.627  -8.575  1.00  0.00    -0.256 OA
ENDBRANCH  23  24
ENDBRANCH  17  19
ENDBRANCH   6   9
ENDBRANCH   4   5
ENDBRANCH   3   4
ENDBRANCH   2   3
ENDBRANCH   1   2
BRANCH   1  27
ATOM     27  C   UNL     1      -2.391   3.319 -11.845  1.00  0.00     0.021 C 
BRANCH  27  28
ATOM     28  C   UNL     1      -1.459   3.826 -12.961  1.00  0.00     0.116 C 
BRANCH  28  29
ATOM     29  N   UNL     1      -1.970   3.416 -14.260  1.00  0.00    -0.352 N 
ATOM     30  C   UNL     1      -2.243   4.112 -15.404  1.00  0.00     0.251 C 
ATOM     31  H   UNL     1      -2.154   2.452 -14.328  1.00  0.00     0.163 HD
ATOM     32  O   UNL     1      -3.036   3.603 -16.199  1.00  0.00    -0.269 OA
BRANCH  30  33
ATOM     33  C   UNL     1      -1.629   5.419 -15.742  1.00  0.00     0.039 A 
ATOM     34  C   UNL     1      -2.377   6.286 -16.555  1.00  0.00     0.014 A 
ATOM     35  C   UNL     1      -0.307   5.745 -15.437  1.00  0.00     0.014 A 
ATOM     36  C   UNL     1      -1.831   7.482 -17.026  1.00  0.00     0.010 A 
ATOM     37  C   UNL     1       0.241   6.947 -15.912  1.00  0.00     0.010 A 
ATOM     38  C   UNL     1      -0.522   7.838 -16.690  1.00  0.00    -0.014 A 
BRANCH  38  39
ATOM     39  C   UNL     1      -0.070   9.207 -17.047  1.00  0.00     0.031 A 
ATOM     40  C   UNL     1       0.624   9.928 -15.940  1.00  0.00     0.074 A 
ATOM     41  C   UNL     1       0.323   9.572 -18.290  1.00  0.00     0.049 A 
ATOM     42  N   UNL     1       1.877   9.697 -15.699  1.00  0.00    -0.248 NA
ATOM     43  C   UNL     1      -0.035  10.707 -14.899  1.00  0.00     0.031 C 
ATOM     44  C   UNL     1       0.951   8.655 -19.250  1.00  0.00     0.029 A 
ATOM     45  N   UNL     1       0.508  10.825 -18.844  1.00  0.00    -0.354 N 
ATOM     46  C   UNL     1       2.178  10.214 -14.454  1.00  0.00     0.074 A 
ATOM     47  C   UNL     1       0.961  10.855 -14.004  1.00  0.00     0.031 C 
ATOM     48  C   UNL     1       1.601   9.386 -20.180  1.00  0.00     0.029 A 
ATOM     49  C   UNL     1       1.307  10.802 -19.982  1.00  0.00     0.049 A 
ATOM     50  H   UNL     1       0.116  11.647 -18.472  1.00  0.00     0.167 HD
ATOM     51  C   UNL     1       3.418  10.068 -13.910  1.00  0.00     0.034 A 
ATOM     52  C   UNL     1       2.037  11.841 -20.470  1.00  0.00     0.034 A 
ATOM     53  C   UNL     1       4.444   9.436 -14.731  1.00  0.00     0.049 A 
ATOM     54  C   UNL     1       3.287  11.768 -19.636  1.00  0.00     0.074 A 
ATOM     55  C   UNL     1       5.634   8.758 -14.542  1.00  0.00     0.029 A 
ATOM     56  N   UNL     1       4.309   9.506 -16.092  1.00  0.00    -0.354 N 
ATOM     57  N   UNL     1       4.284  10.941 -19.823  1.00  0.00    -0.248 NA
ATOM     58  C   UNL     1       3.299  12.458 -18.336  1.00  0.00     0.031 C 
ATOM     59  C   UNL     1       6.286   8.668 -15.819  1.00  0.00     0.029 A 
ATOM     60  C   UNL     1       5.500   9.337 -16.740  1.00  0.00     0.049 A 
ATOM     61  H   UNL     1       3.452   9.661 -16.551  1.00  0.00     0.167 HD
ATOM     62  C   UNL     1       4.848  10.790 -18.561  1.00  0.00     0.074 A 
ATOM     63  C   UNL     1       4.310  11.847 -17.730  1.00  0.00     0.031 C 
ATOM     64  C   UNL     1       5.518   9.679 -18.139  1.00  0.00     0.034 A 
BRANCH  51  65
ATOM     65  C   UNL     1       3.861  10.731 -12.647  1.00  0.00     0.023 A 
ATOM     66  C   UNL     1       4.792  11.782 -12.811  1.00  0.00     0.012 A 
ATOM     67  C   UNL     1       3.585  10.261 -11.351  1.00  0.00     0.148 A 
ATOM     68  C   UNL     1       5.468  12.330 -11.725  1.00  0.00     0.002 A 
ATOM     69  C   UNL     1       4.266  10.817 -10.263  1.00  0.00     0.091 A 
ATOM     70  F   UNL     1       2.714   9.254 -11.204  1.00  0.00    -0.205 F 
ATOM     71  C   UNL     1       5.211  11.842 -10.452  1.00  0.00     0.022 A 
BRANCH  69  72
ATOM     72  S   UNL     1       4.035  10.264  -8.565  1.00  0.00     0.127 S 
ATOM     73  O   UNL     1       5.319   9.619  -8.276  1.00  0.00    -0.237 OA
ATOM     74  O   UNL     1       3.826  11.532  -7.858  1.00  0.00    -0.237 OA
ATOM     75  O   UNL     1       2.881   9.387  -8.579  1.00  0.00    -0.744 OA
ENDBRANCH  69  72
ENDBRANCH  51  65
BRANCH  52  76
ATOM     76  C   UNL     1       1.296  13.104 -20.796  1.00  0.00     0.023 A 
ATOM     77  C   UNL     1       0.165  12.970 -21.642  1.00  0.00     0.012 A 
ATOM     78  C   UNL     1       1.630  14.403 -20.376  1.00  0.00     0.148 A 
ATOM     79  C   UNL     1      -0.654  14.056 -21.963  1.00  0.00     0.002 A 
ATOM     80  C   UNL     1       0.771  15.472 -20.635  1.00  0.00     0.091 A 
ATOM     81  F   UNL     1       2.790  14.607 -19.743  1.00  0.00    -0.205 F 
ATOM     82  C   UNL     1      -0.371  15.304 -21.428  1.00  0.00     0.022 A 
BRANCH  80  83
ATOM     83  S   UNL     1       1.005  17.098 -19.900  1.00  0.00     0.127 S 
ATOM     84  O   UNL     1       0.990  17.969 -21.074  1.00  0.00    -0.237 OA
ATOM     85  O   UNL     1      -0.176  17.198 -19.044  1.00  0.00    -0.237 OA
ATOM     86  O   UNL     1       2.275  17.034 -19.192  1.00  0.00    -0.744 OA
ENDBRANCH  80  83
ENDBRANCH  52  76
BRANCH  64  87
ATOM     87  C   UNL     1       6.131   8.793 -19.162  1.00  0.00     0.023 A 
ATOM     88  C   UNL     1       7.053   9.363 -20.062  1.00  0.00     0.012 A 
ATOM     89  C   UNL     1       5.894   7.407 -19.202  1.00  0.00     0.148 A 
ATOM     90  C   UNL     1       7.733   8.576 -20.986  1.00  0.00     0.002 A 
ATOM     91  C   UNL     1       6.590   6.622 -20.114  1.00  0.00     0.091 A 
ATOM     92  F   UNL     1       5.000   6.879 -18.354  1.00  0.00    -0.205 F 
ATOM     93  C   UNL     1       7.508   7.204 -21.006  1.00  0.00     0.022 A 
BRANCH  91  94
ATOM     94  S   UNL     1       6.410   4.838 -20.205  1.00  0.00     0.127 S 
ATOM     95  O   UNL     1       6.082   4.635 -21.616  1.00  0.00    -0.237 OA
ATOM     96  O   UNL     1       7.747   4.382 -19.821  1.00  0.00    -0.237 OA
ATOM     97  O   UNL     1       5.346   4.484 -19.276  1.00  0.00    -0.744 OA
ENDBRANCH  91  94
ENDBRANCH  64  87
ENDBRANCH  38  39
ENDBRANCH  30  33
ENDBRANCH  28  29
ENDBRANCH  27  28
ENDBRANCH   1  27
TORSDOF 18
