REMARK SMILES COc1cc([C@@H]2CC[NH2+][C@@H]2C(=O)NCCCCCCNC(=O)c2ccc(-c3c4nc(c(-c5cccc(S(=O)(=O)[O-])c5F)c5ccc([nH]5)c(-c5cccc(S(=O)(=O)[O-])c5F)c5nc(c(-c6cccc(S(=O)(=O)[O-])c6F)c6ccc3[nH]6)C=C5)C=C4)cc2)cc(OC)c1OC
REMARK SMILES IDX 17 1 16 2 15 3 14 4 13 5 11 6 12 7 10 9 6 10 7 11 8 12 9 13
REMARK SMILES IDX 5 16 3 17 4 18 90 19 87 20 86 21 2 22 1 23 91 24 92 25 88 26
REMARK SMILES IDX 89 27 18 28 19 29 20 30 21 31 22 33 23 34 24 35 85 36 25 37
REMARK SMILES IDX 84 38 26 39 27 40 28 41 78 42 29 43 83 44 77 45 79 46 30 47
REMARK SMILES IDX 82 48 76 49 75 50 31 52 63 53 43 54 62 55 44 56 47 57 61 58
REMARK SMILES IDX 80 59 45 60 46 61 60 63 81 64 48 65 32 66 33 67 41 68 34 69
REMARK SMILES IDX 36 70 42 71 35 72 37 73 38 74 39 75 40 76 64 77 65 78 73 79
REMARK SMILES IDX 66 80 68 81 74 82 67 83 69 84 70 85 71 86 72 87 49 88 50 89
REMARK SMILES IDX 58 90 51 91 53 92 59 93 52 94 54 95 55 96 56 97 57 98
REMARK H PARENT 13 8 9 14 9 15 20 32 79 51 47 62
REMARK Flexibility Score: inf
ROOT
ATOM      1  C   UNL     1       4.690   5.601   1.992  1.00  0.00     0.002 C 
ENDROOT
BRANCH   1   2
ATOM      2  C   UNL     1       3.995   6.898   2.436  1.00  0.00     0.002 C 
BRANCH   2   3
ATOM      3  C   UNL     1       2.984   7.480   1.442  1.00  0.00     0.021 C 
BRANCH   3   4
ATOM      4  C   UNL     1       1.885   6.507   1.041  1.00  0.00     0.116 C 
BRANCH   4   5
ATOM      5  N   UNL     1       0.676   6.601   1.810  1.00  0.00    -0.351 N 
ATOM      6  C   UNL     1      -0.605   6.444   1.368  1.00  0.00     0.278 C 
ATOM      7  O   UNL     1      -1.475   6.286   2.237  1.00  0.00    -0.268 OA
ATOM      8  H   UNL     1       0.784   6.801   2.768  1.00  0.00     0.163 HD
BRANCH   6   9
ATOM      9  C   UNL     1      -1.020   6.572  -0.123  1.00  0.00     0.280 C 
ATOM     10  C   UNL     1      -0.548   5.635  -1.263  1.00  0.00     0.093 C 
ATOM     11  C   UNL     1       0.028   6.583  -2.327  1.00  0.00     0.076 C 
ATOM     12  C   UNL     1       0.134   7.953  -1.681  1.00  0.00     0.262 C 
ATOM     13  N   UNL     1      -0.819   7.981  -0.577  1.00  0.00    -0.335 N 
ATOM     14  H   UNL     1      -1.706   8.376  -0.891  1.00  0.00     0.346 HD
ATOM     15  H   UNL     1      -0.468   8.559   0.187  1.00  0.00     0.346 HD
BRANCH  10  16
ATOM     16  C   UNL     1       0.200   4.353  -0.934  1.00  0.00    -0.031 A 
ATOM     17  C   UNL     1       0.104   2.044  -0.090  1.00  0.00     0.164 A 
ATOM     18  C   UNL     1      -0.523   3.244  -0.479  1.00  0.00     0.055 A 
ATOM     19  C   UNL     1       1.511   1.941  -0.085  1.00  0.00     0.203 A 
ATOM     20  C   UNL     1       2.258   3.033  -0.562  1.00  0.00     0.164 A 
ATOM     21  C   UNL     1       1.585   4.184  -1.045  1.00  0.00     0.055 A 
BRANCH  17  22
ATOM     22  O   UNL     1      -0.803   1.106   0.342  1.00  0.00    -0.493 OA
ATOM     23  C   UNL     1      -0.466  -0.255   0.126  1.00  0.00     0.278 C 
ENDBRANCH  17  22
BRANCH  19  24
ATOM     24  O   UNL     1       2.087   0.890   0.586  1.00  0.00    -0.490 OA
ATOM     25  C   UNL     1       2.655  -0.117  -0.256  1.00  0.00     0.278 C 
ENDBRANCH  19  24
BRANCH  20  26
ATOM     26  O   UNL     1       3.617   3.227  -0.575  1.00  0.00    -0.493 OA
ATOM     27  C   UNL     1       4.478   2.286   0.040  1.00  0.00     0.278 C 
ENDBRANCH  20  26
ENDBRANCH  10  16
ENDBRANCH   6   9
ENDBRANCH   4   5
ENDBRANCH   3   4
ENDBRANCH   2   3
ENDBRANCH   1   2
BRANCH   1  28
ATOM     28  C   UNL     1       5.442   5.696   0.663  1.00  0.00     0.021 C 
BRANCH  28  29
ATOM     29  C   UNL     1       6.703   6.542   0.717  1.00  0.00     0.116 C 
BRANCH  29  30
ATOM     30  N   UNL     1       7.697   5.964   1.617  1.00  0.00    -0.352 N 
ATOM     31  C   UNL     1       8.729   5.079   1.415  1.00  0.00     0.251 C 
ATOM     32  H   UNL     1       7.611   6.268   2.550  1.00  0.00     0.163 HD
ATOM     33  O   UNL     1       9.224   4.530   2.399  1.00  0.00    -0.269 OA
BRANCH  31  34
ATOM     34  C   UNL     1       9.257   4.762   0.064  1.00  0.00     0.039 A 
ATOM     35  C   UNL     1       9.865   3.518  -0.155  1.00  0.00     0.014 A 
ATOM     36  C   UNL     1       9.246   5.693  -0.971  1.00  0.00     0.014 A 
ATOM     37  C   UNL     1      10.406   3.203  -1.409  1.00  0.00     0.010 A 
ATOM     38  C   UNL     1       9.664   5.334  -2.249  1.00  0.00     0.010 A 
ATOM     39  C   UNL     1      10.279   4.097  -2.482  1.00  0.00    -0.014 A 
BRANCH  39  40
ATOM     40  C   UNL     1      10.804   3.799  -3.844  1.00  0.00     0.031 A 
ATOM     41  C   UNL     1      11.785   4.744  -4.497  1.00  0.00     0.074 A 
ATOM     42  C   UNL     1      10.314   2.753  -4.542  1.00  0.00     0.049 A 
ATOM     43  N   UNL     1      12.237   4.750  -5.725  1.00  0.00    -0.248 NA
ATOM     44  C   UNL     1      12.293   5.857  -3.675  1.00  0.00     0.031 C 
ATOM     45  C   UNL     1       9.312   1.803  -4.055  1.00  0.00     0.029 A 
ATOM     46  N   UNL     1      10.568   2.335  -5.825  1.00  0.00    -0.354 N 
ATOM     47  C   UNL     1      13.018   5.895  -5.840  1.00  0.00     0.074 A 
ATOM     48  C   UNL     1      12.960   6.576  -4.566  1.00  0.00     0.031 C 
ATOM     49  C   UNL     1       9.043   0.910  -5.022  1.00  0.00     0.029 A 
ATOM     50  C   UNL     1       9.815   1.250  -6.212  1.00  0.00     0.049 A 
ATOM     51  H   UNL     1      11.226   2.771  -6.414  1.00  0.00     0.167 HD
ATOM     52  C   UNL     1      13.740   6.330  -6.899  1.00  0.00     0.034 A 
ATOM     53  C   UNL     1       9.741   0.610  -7.396  1.00  0.00     0.034 A 
ATOM     54  C   UNL     1      13.863   5.608  -8.135  1.00  0.00     0.049 A 
ATOM     55  C   UNL     1      10.599   1.084  -8.538  1.00  0.00     0.074 A 
ATOM     56  C   UNL     1      14.668   5.897  -9.223  1.00  0.00     0.029 A 
ATOM     57  N   UNL     1      13.161   4.456  -8.451  1.00  0.00    -0.354 N 
ATOM     58  N   UNL     1      11.451   2.079  -8.573  1.00  0.00    -0.248 NA
ATOM     59  C   UNL     1      10.509   0.328  -9.796  1.00  0.00     0.031 C 
ATOM     60  C   UNL     1      14.428   4.938 -10.210  1.00  0.00     0.029 A 
ATOM     61  C   UNL     1      13.501   4.030  -9.722  1.00  0.00     0.049 A 
ATOM     62  H   UNL     1      12.515   4.008  -7.858  1.00  0.00     0.167 HD
ATOM     63  C   UNL     1      12.031   2.041  -9.836  1.00  0.00     0.074 A 
ATOM     64  C   UNL     1      11.444   0.914 -10.531  1.00  0.00     0.031 C 
ATOM     65  C   UNL     1      12.957   2.870 -10.377  1.00  0.00     0.034 A 
BRANCH  52  66
ATOM     66  C   UNL     1      14.498   7.626  -6.761  1.00  0.00     0.023 A 
ATOM     67  C   UNL     1      15.632   7.693  -5.926  1.00  0.00     0.012 A 
ATOM     68  C   UNL     1      14.133   8.757  -7.519  1.00  0.00     0.148 A 
ATOM     69  C   UNL     1      16.369   8.872  -5.821  1.00  0.00     0.002 A 
ATOM     70  C   UNL     1      14.901   9.913  -7.447  1.00  0.00     0.091 A 
ATOM     71  F   UNL     1      13.041   8.681  -8.294  1.00  0.00    -0.205 F 
ATOM     72  C   UNL     1      16.011   9.976  -6.589  1.00  0.00     0.022 A 
BRANCH  70  73
ATOM     73  S   UNL     1      14.575  11.360  -8.461  1.00  0.00     0.127 S 
ATOM     74  O   UNL     1      14.129  12.327  -7.459  1.00  0.00    -0.237 OA
ATOM     75  O   UNL     1      15.894  11.637  -9.030  1.00  0.00    -0.237 OA
ATOM     76  O   UNL     1      13.566  10.956  -9.429  1.00  0.00    -0.744 OA
ENDBRANCH  70  73
ENDBRANCH  52  66
BRANCH  53  77
ATOM     77  C   UNL     1       8.867  -0.590  -7.550  1.00  0.00     0.023 A 
ATOM     78  C   UNL     1       9.463  -1.855  -7.724  1.00  0.00     0.012 A 
ATOM     79  C   UNL     1       7.463  -0.494  -7.516  1.00  0.00     0.148 A 
ATOM     80  C   UNL     1       8.679  -2.995  -7.904  1.00  0.00     0.002 A 
ATOM     81  C   UNL     1       6.687  -1.642  -7.637  1.00  0.00     0.091 A 
ATOM     82  F   UNL     1       6.912   0.718  -7.359  1.00  0.00    -0.205 F 
ATOM     83  C   UNL     1       7.292  -2.890  -7.852  1.00  0.00     0.022 A 
BRANCH  81  84
ATOM     84  S   UNL     1       4.901  -1.620  -7.447  1.00  0.00     0.127 S 
ATOM     85  O   UNL     1       4.451  -1.874  -8.815  1.00  0.00    -0.237 OA
ATOM     86  O   UNL     1       4.683  -2.728  -6.513  1.00  0.00    -0.237 OA
ATOM     87  O   UNL     1       4.578  -0.311  -6.906  1.00  0.00    -0.744 OA
ENDBRANCH  81  84
ENDBRANCH  53  77
BRANCH  65  88
ATOM     88  C   UNL     1      13.445   2.568 -11.769  1.00  0.00     0.023 A 
ATOM     89  C   UNL     1      12.608   2.801 -12.877  1.00  0.00     0.012 A 
ATOM     90  C   UNL     1      14.770   2.137 -11.980  1.00  0.00     0.148 A 
ATOM     91  C   UNL     1      13.072   2.581 -14.173  1.00  0.00     0.002 A 
ATOM     92  C   UNL     1      15.243   1.972 -13.275  1.00  0.00     0.091 A 
ATOM     93  F   UNL     1      15.545   1.906 -10.910  1.00  0.00    -0.205 F 
ATOM     94  C   UNL     1      14.392   2.181 -14.372  1.00  0.00     0.022 A 
BRANCH  92  95
ATOM     95  S   UNL     1      16.954   1.560 -13.631  1.00  0.00     0.127 S 
ATOM     96  O   UNL     1      16.834   0.189 -14.125  1.00  0.00    -0.237 OA
ATOM     97  O   UNL     1      17.304   2.548 -14.653  1.00  0.00    -0.237 OA
ATOM     98  O   UNL     1      17.675   1.709 -12.374  1.00  0.00    -0.744 OA
ENDBRANCH  92  95
ENDBRANCH  65  88
ENDBRANCH  39  40
ENDBRANCH  31  34
ENDBRANCH  29  30
ENDBRANCH  28  29
ENDBRANCH   1  28
TORSDOF 20
