REMARK SMILES N#Cc1nccnc1N(CC(=O)NCCCCCCNC(=O)c1ccc(-c2c3nc(c(-c4cccc(S(=O)(=O)[O-])c4F)c4ccc([nH]4)c(-c4cccc(S(=O)(=O)[O-])c4F)c4nc(c(-c5cccc(S(=O)(=O)[O-])c5F)c5ccc2[nH]5)C=C4)C=C3)cc1)CC(F)(F)F
REMARK SMILES IDX 16 1 15 2 14 3 13 4 11 5 12 6 10 8 9 9 8 10 3 11 4 12 5 13
REMARK SMILES IDX 7 14 6 15 2 16 1 17 86 18 87 19 88 20 89 21 90 22 17 23
REMARK SMILES IDX 18 24 19 25 20 26 21 27 22 29 23 30 24 31 85 32 25 33 84 34
REMARK SMILES IDX 26 35 27 36 28 37 78 38 29 39 83 40 77 41 79 42 30 43 82 44
REMARK SMILES IDX 76 45 75 46 31 48 63 49 43 50 62 51 44 52 47 53 61 54 80 55
REMARK SMILES IDX 45 56 46 57 60 59 81 60 48 61 32 62 33 63 41 64 34 65 36 66
REMARK SMILES IDX 42 67 35 68 37 69 38 70 39 71 40 72 64 73 65 74 73 75 66 76
REMARK SMILES IDX 68 77 74 78 67 79 69 80 70 81 71 82 72 83 49 84 50 85 58 86
REMARK SMILES IDX 51 87 53 88 59 89 52 90 54 91 55 92 56 93 57 94
REMARK H PARENT 13 7 20 28 79 47 47 58
REMARK Flexibility Score: inf
ROOT
ATOM      1  C   UNL     1       2.999  -3.300   4.330  1.00  0.00     0.002 C 
ENDROOT
BRANCH   1   2
ATOM      2  C   UNL     1       3.608  -2.522   3.160  1.00  0.00     0.021 C 
BRANCH   2   3
ATOM      3  C   UNL     1       4.700  -3.293   2.424  1.00  0.00     0.116 C 
BRANCH   3   4
ATOM      4  N   UNL     1       4.144  -4.415   1.693  1.00  0.00    -0.355 N 
ATOM      5  C   UNL     1       3.938  -4.532   0.349  1.00  0.00     0.239 C 
ATOM      6  O   UNL     1       3.340  -5.523  -0.077  1.00  0.00    -0.273 OA
ATOM      7  H   UNL     1       3.882  -5.193   2.236  1.00  0.00     0.163 HD
BRANCH   5   8
ATOM      8  C   UNL     1       4.457  -3.450  -0.603  1.00  0.00     0.218 C 
BRANCH   8   9
ATOM      9  N   UNL     1       3.653  -2.198  -0.567  1.00  0.00    -0.336 N 
BRANCH   9  10
ATOM     10  C   UNL     1       4.333  -1.000  -0.401  1.00  0.00     0.166 A 
ATOM     11  C   UNL     1       3.834   0.317  -0.481  1.00  0.00     0.183 A 
ATOM     12  N   UNL     1       4.589   1.441  -0.257  1.00  0.00    -0.240 NA
ATOM     13  C   UNL     1       5.881   1.245   0.054  1.00  0.00     0.133 A 
ATOM     14  N   UNL     1       5.660  -1.123  -0.112  1.00  0.00    -0.235 NA
ATOM     15  C   UNL     1       6.410  -0.018   0.118  1.00  0.00     0.133 A 
BRANCH  11  16
ATOM     16  C   UNL     1       2.492   0.650  -0.861  1.00  0.00     0.123 C 
ATOM     17  N   UNL     1       1.405   0.882  -1.196  1.00  0.00    -0.191 NA
ENDBRANCH  11  16
ENDBRANCH   9  10
BRANCH   9  18
ATOM     18  C   UNL     1       2.210  -2.359  -0.908  1.00  0.00     0.234 C 
BRANCH  18  19
ATOM     19  C   UNL     1       1.200  -2.247   0.251  1.00  0.00     0.405 C 
ATOM     20  F   UNL     1       1.417  -1.155   1.015  1.00  0.00    -0.169 F 
ATOM     21  F   UNL     1      -0.064  -2.168  -0.226  1.00  0.00    -0.169 F 
ATOM     22  F   UNL     1       1.248  -3.328   1.060  1.00  0.00    -0.169 F 
ENDBRANCH  18  19
ENDBRANCH   9  18
ENDBRANCH   8   9
ENDBRANCH   5   8
ENDBRANCH   3   4
ENDBRANCH   2   3
ENDBRANCH   1   2
BRANCH   1  23
ATOM     23  C   UNL     1       3.994  -3.616   5.452  1.00  0.00     0.002 C 
BRANCH  23  24
ATOM     24  C   UNL     1       4.713  -2.390   6.012  1.00  0.00     0.021 C 
BRANCH  24  25
ATOM     25  C   UNL     1       3.773  -1.324   6.556  1.00  0.00     0.116 C 
BRANCH  25  26
ATOM     26  N   UNL     1       3.038  -1.792   7.724  1.00  0.00    -0.352 N 
ATOM     27  C   UNL     1       3.018  -1.264   8.994  1.00  0.00     0.251 C 
ATOM     28  H   UNL     1       2.482  -2.592   7.586  1.00  0.00     0.163 HD
ATOM     29  O   UNL     1       2.526  -1.893   9.923  1.00  0.00    -0.269 OA
BRANCH  27  30
ATOM     30  C   UNL     1       3.637   0.059   9.216  1.00  0.00     0.039 A 
ATOM     31  C   UNL     1       3.381   1.099   8.321  1.00  0.00     0.014 A 
ATOM     32  C   UNL     1       4.543   0.232  10.263  1.00  0.00     0.014 A 
ATOM     33  C   UNL     1       4.182   2.231   8.345  1.00  0.00     0.010 A 
ATOM     34  C   UNL     1       5.269   1.422  10.351  1.00  0.00     0.010 A 
ATOM     35  C   UNL     1       5.140   2.406   9.358  1.00  0.00    -0.014 A 
BRANCH  35  36
ATOM     36  C   UNL     1       5.993   3.623   9.350  1.00  0.00     0.031 A 
ATOM     37  C   UNL     1       7.492   3.521   9.235  1.00  0.00     0.074 A 
ATOM     38  C   UNL     1       5.404   4.835   9.406  1.00  0.00     0.049 A 
ATOM     39  N   UNL     1       8.377   4.484   9.209  1.00  0.00    -0.248 NA
ATOM     40  C   UNL     1       8.079   2.173   9.133  1.00  0.00     0.031 C 
ATOM     41  C   UNL     1       3.962   5.066   9.521  1.00  0.00     0.029 A 
ATOM     42  N   UNL     1       5.939   6.097   9.367  1.00  0.00    -0.354 N 
ATOM     43  C   UNL     1       9.618   3.864   9.133  1.00  0.00     0.074 A 
ATOM     44  C   UNL     1       9.379   2.438   9.119  1.00  0.00     0.031 C 
ATOM     45  C   UNL     1       3.724   6.385   9.506  1.00  0.00     0.029 A 
ATOM     46  C   UNL     1       4.997   7.094   9.451  1.00  0.00     0.049 A 
ATOM     47  H   UNL     1       6.905   6.271   9.285  1.00  0.00     0.167 HD
ATOM     48  C   UNL     1      10.845   4.432   9.064  1.00  0.00     0.034 A 
ATOM     49  C   UNL     1       5.133   8.432   9.506  1.00  0.00     0.034 A 
ATOM     50  C   UNL     1      11.080   5.849   9.038  1.00  0.00     0.049 A 
ATOM     51  C   UNL     1       6.505   9.033   9.452  1.00  0.00     0.074 A 
ATOM     52  C   UNL     1      12.290   6.512   8.923  1.00  0.00     0.029 A 
ATOM     53  N   UNL     1      10.098   6.821   9.134  1.00  0.00    -0.354 N 
ATOM     54  N   UNL     1       7.658   8.428   9.316  1.00  0.00    -0.248 NA
ATOM     55  C   UNL     1       6.597  10.497   9.544  1.00  0.00     0.031 C 
ATOM     56  C   UNL     1      12.043   7.884   8.980  1.00  0.00     0.029 A 
ATOM     57  C   UNL     1      10.675   8.077   9.093  1.00  0.00     0.049 A 
ATOM     58  H   UNL     1       9.133   6.644   9.219  1.00  0.00     0.167 HD
ATOM     59  C   UNL     1       8.613   9.435   9.283  1.00  0.00     0.074 A 
ATOM     60  C   UNL     1       7.902  10.692   9.402  1.00  0.00     0.031 C 
ATOM     61  C   UNL     1       9.957   9.322   9.171  1.00  0.00     0.034 A 
BRANCH  48  62
ATOM     62  C   UNL     1      12.048   3.533   8.973  1.00  0.00     0.023 A 
ATOM     63  C   UNL     1      12.370   2.928   7.743  1.00  0.00     0.012 A 
ATOM     64  C   UNL     1      12.928   3.400  10.066  1.00  0.00     0.148 A 
ATOM     65  C   UNL     1      13.551   2.200   7.601  1.00  0.00     0.002 A 
ATOM     66  C   UNL     1      14.116   2.696   9.909  1.00  0.00     0.091 A 
ATOM     67  F   UNL     1      12.596   3.983  11.226  1.00  0.00    -0.205 F 
ATOM     68  C   UNL     1      14.428   2.095   8.678  1.00  0.00     0.022 A 
BRANCH  66  69
ATOM     69  S   UNL     1      15.334   2.535  11.219  1.00  0.00     0.127 S 
ATOM     70  O   UNL     1      15.331   1.090  11.444  1.00  0.00    -0.237 OA
ATOM     71  O   UNL     1      16.543   3.050  10.577  1.00  0.00    -0.237 OA
ATOM     72  O   UNL     1      14.840   3.333  12.332  1.00  0.00    -0.744 OA
ENDBRANCH  66  69
ENDBRANCH  48  62
BRANCH  49  73
ATOM     73  C   UNL     1       3.914   9.279   9.594  1.00  0.00     0.023 A 
ATOM     74  C   UNL     1       3.482   9.987   8.458  1.00  0.00     0.012 A 
ATOM     75  C   UNL     1       3.141   9.313  10.771  1.00  0.00     0.148 A 
ATOM     76  C   UNL     1       2.294  10.718   8.493  1.00  0.00     0.002 A 
ATOM     77  C   UNL     1       1.943  10.014  10.787  1.00  0.00     0.091 A 
ATOM     78  F   UNL     1       3.576   8.621  11.833  1.00  0.00    -0.205 F 
ATOM     79  C   UNL     1       1.521  10.723   9.652  1.00  0.00     0.022 A 
BRANCH  77  80
ATOM     80  S   UNL     1       0.839  10.013  12.204  1.00  0.00     0.127 S 
ATOM     81  O   UNL     1       0.824  11.428  12.568  1.00  0.00    -0.237 OA
ATOM     82  O   UNL     1      -0.403   9.514  11.612  1.00  0.00    -0.237 OA
ATOM     83  O   UNL     1       1.448   9.124  13.183  1.00  0.00    -0.744 OA
ENDBRANCH  77  80
ENDBRANCH  49  73
BRANCH  61  84
ATOM     84  C   UNL     1      10.777  10.581   9.138  1.00  0.00     0.023 A 
ATOM     85  C   UNL     1      11.046  11.268  10.336  1.00  0.00     0.012 A 
ATOM     86  C   UNL     1      11.395  10.994   7.941  1.00  0.00     0.148 A 
ATOM     87  C   UNL     1      11.920  12.354  10.343  1.00  0.00     0.002 A 
ATOM     88  C   UNL     1      12.290  12.056   7.962  1.00  0.00     0.091 A 
ATOM     89  F   UNL     1      11.118  10.319   6.816  1.00  0.00    -0.205 F 
ATOM     90  C   UNL     1      12.552  12.738   9.162  1.00  0.00     0.022 A 
BRANCH  88  91
ATOM     91  S   UNL     1      13.196  12.586   6.505  1.00  0.00     0.127 S 
ATOM     92  O   UNL     1      12.675  13.938   6.308  1.00  0.00    -0.237 OA
ATOM     93  O   UNL     1      14.583  12.526   6.967  1.00  0.00    -0.237 OA
ATOM     94  O   UNL     1      12.862  11.638   5.450  1.00  0.00    -0.744 OA
ENDBRANCH  88  91
ENDBRANCH  61  84
ENDBRANCH  35  36
ENDBRANCH  27  30
ENDBRANCH  25  26
ENDBRANCH  24  25
ENDBRANCH  23  24
ENDBRANCH   1  23
TORSDOF 21
