REMARK SMILES O=C(NCCCCCCNC(=O)[C@H](CO)NC(=O)[C@H](Cc1c[nH]c2ccccc12)NC(=O)[C@H](Cc1ccc(O)cc1)NC(=O)c1ccc(F)cc1)c1ccc(-c2c3nc(c(-c4cccc(S(=O)(=O)[O-])c4F)c4ccc([nH]4)c(-c4cccc(S(=O)(=O)[O-])c4F)c4nc(c(-c5cccc(S(=O)(=O)[O-])c5F)c5ccc2[nH]5)C=C4)C=C3)cc1
REMARK SMILES IDX 8 1 7 2 6 3 5 4 4 5 3 6 1 7 2 8 52 10 53 11 114 12 54 13
REMARK SMILES IDX 113 14 55 15 56 16 57 17 107 18 58 19 112 20 106 21 108 22
REMARK SMILES IDX 59 23 111 24 105 25 104 26 60 28 92 29 72 30 91 31 73 32
REMARK SMILES IDX 76 33 90 34 109 35 74 36 75 37 89 39 110 40 77 41 61 42
REMARK SMILES IDX 62 43 70 44 63 45 65 46 71 47 64 48 66 49 67 50 68 51 69 52
REMARK SMILES IDX 93 53 94 54 102 55 95 56 97 57 103 58 96 59 98 60 99 61
REMARK SMILES IDX 100 62 101 63 78 64 79 65 87 66 80 67 82 68 88 69 81 70
REMARK SMILES IDX 83 71 84 72 85 73 86 74 9 75 10 76 11 77 12 79 13 80 16 81
REMARK SMILES IDX 17 82 18 84 19 85 30 86 31 87 32 89 33 90 42 91 43 92 44 94
REMARK SMILES IDX 45 95 46 96 51 97 47 98 50 99 48 100 49 101 34 102 35 103
REMARK SMILES IDX 36 104 41 105 37 106 40 107 38 108 39 109 20 111 21 112
REMARK SMILES IDX 22 113 29 114 23 115 24 116 28 117 25 119 27 120 26 121
REMARK SMILES IDX 14 122 15 123
REMARK H PARENT 3 9 108 27 76 38 10 78 16 83 30 88 42 93 39 110 23 118 15 124
REMARK Flexibility Score: inf
ROOT
ATOM      1  C   UNL     1      11.483  -3.016  -5.749  1.00  0.00     0.021 C 
ENDROOT
BRANCH   1   2
ATOM      2  C   UNL     1      11.668  -4.125  -4.713  1.00  0.00     0.002 C 
BRANCH   2   3
ATOM      3  C   UNL     1      12.377  -3.725  -3.416  1.00  0.00     0.002 C 
BRANCH   3   4
ATOM      4  C   UNL     1      11.829  -2.491  -2.698  1.00  0.00     0.021 C 
BRANCH   4   5
ATOM      5  C   UNL     1      10.343  -2.526  -2.364  1.00  0.00     0.116 C 
BRANCH   5   6
ATOM      6  N   UNL     1       9.992  -3.581  -1.431  1.00  0.00    -0.352 N 
ATOM      7  O   UNL     1       9.145  -4.495   0.445  1.00  0.00    -0.269 OA
ATOM      8  C   UNL     1       9.223  -3.515  -0.293  1.00  0.00     0.251 C 
ATOM      9  H   UNL     1      10.357  -4.471  -1.643  1.00  0.00     0.163 HD
BRANCH   8  10
ATOM     10  C   UNL     1       8.521  -2.258   0.058  1.00  0.00     0.039 A 
ATOM     11  C   UNL     1       7.853  -1.514  -0.916  1.00  0.00     0.014 A 
ATOM     12  C   UNL     1       8.525  -1.819   1.387  1.00  0.00     0.014 A 
ATOM     13  C   UNL     1       7.323  -0.269  -0.594  1.00  0.00     0.010 A 
ATOM     14  C   UNL     1       7.912  -0.608   1.726  1.00  0.00     0.010 A 
ATOM     15  C   UNL     1       7.334   0.195   0.733  1.00  0.00    -0.014 A 
BRANCH  15  16
ATOM     16  C   UNL     1       6.649   1.476   1.049  1.00  0.00     0.031 A 
ATOM     17  C   UNL     1       7.400   2.674   1.556  1.00  0.00     0.074 A 
ATOM     18  C   UNL     1       5.322   1.556   0.831  1.00  0.00     0.049 A 
ATOM     19  N   UNL     1       6.959   3.891   1.747  1.00  0.00    -0.248 NA
ATOM     20  C   UNL     1       8.818   2.492   1.901  1.00  0.00     0.031 C 
ATOM     21  C   UNL     1       4.479   0.438   0.402  1.00  0.00     0.029 A 
ATOM     22  N   UNL     1       4.453   2.614   0.913  1.00  0.00    -0.354 N 
ATOM     23  C   UNL     1       8.027   4.609   2.269  1.00  0.00     0.074 A 
ATOM     24  C   UNL     1       9.140   3.691   2.371  1.00  0.00     0.031 C 
ATOM     25  C   UNL     1       3.232   0.880   0.196  1.00  0.00     0.029 A 
ATOM     26  C   UNL     1       3.171   2.301   0.525  1.00  0.00     0.049 A 
ATOM     27  H   UNL     1       4.721   3.511   1.219  1.00  0.00     0.167 HD
ATOM     28  C   UNL     1       8.077   5.918   2.613  1.00  0.00     0.034 A 
ATOM     29  C   UNL     1       2.067   3.067   0.431  1.00  0.00     0.034 A 
ATOM     30  C   UNL     1       6.977   6.835   2.466  1.00  0.00     0.049 A 
ATOM     31  C   UNL     1       2.164   4.528   0.760  1.00  0.00     0.074 A 
ATOM     32  C   UNL     1       6.959   8.198   2.710  1.00  0.00     0.029 A 
ATOM     33  N   UNL     1       5.702   6.488   2.044  1.00  0.00    -0.354 N 
ATOM     34  N   UNL     1       3.221   5.218   1.115  1.00  0.00    -0.248 NA
ATOM     35  C   UNL     1       0.932   5.321   0.658  1.00  0.00     0.031 C 
ATOM     36  C   UNL     1       5.669   8.671   2.451  1.00  0.00     0.029 A 
ATOM     37  C   UNL     1       4.886   7.606   2.031  1.00  0.00     0.049 A 
ATOM     38  H   UNL     1       5.419   5.580   1.791  1.00  0.00     0.167 HD
ATOM     39  C   UNL     1       2.786   6.528   1.270  1.00  0.00     0.074 A 
ATOM     40  C   UNL     1       1.374   6.540   0.943  1.00  0.00     0.031 C 
ATOM     41  C   UNL     1       3.492   7.614   1.666  1.00  0.00     0.034 A 
BRANCH  28  42
ATOM     42  C   UNL     1       9.379   6.467   3.135  1.00  0.00     0.023 A 
ATOM     43  C   UNL     1      10.435   6.713   2.235  1.00  0.00     0.012 A 
ATOM     44  C   UNL     1       9.525   6.831   4.488  1.00  0.00     0.148 A 
ATOM     45  C   UNL     1      11.623   7.295   2.675  1.00  0.00     0.002 A 
ATOM     46  C   UNL     1      10.699   7.445   4.913  1.00  0.00     0.091 A 
ATOM     47  F   UNL     1       8.520   6.568   5.335  1.00  0.00    -0.205 F 
ATOM     48  C   UNL     1      11.751   7.672   4.010  1.00  0.00     0.022 A 
BRANCH  46  49
ATOM     49  S   UNL     1      10.920   8.034   6.596  1.00  0.00     0.127 S 
ATOM     50  O   UNL     1      11.766   6.987   7.166  1.00  0.00    -0.237 OA
ATOM     51  O   UNL     1      11.594   9.318   6.394  1.00  0.00    -0.237 OA
ATOM     52  O   UNL     1       9.580   8.140   7.156  1.00  0.00    -0.744 OA
ENDBRANCH  46  49
ENDBRANCH  28  42
BRANCH  29  53
ATOM     53  C   UNL     1       0.811   2.453  -0.084  1.00  0.00     0.023 A 
ATOM     54  C   UNL     1       0.373   2.768  -1.383  1.00  0.00     0.012 A 
ATOM     55  C   UNL     1       0.135   1.458   0.650  1.00  0.00     0.148 A 
ATOM     56  C   UNL     1      -0.713   2.097  -1.947  1.00  0.00     0.002 A 
ATOM     57  C   UNL     1      -0.903   0.749   0.058  1.00  0.00     0.091 A 
ATOM     58  F   UNL     1       0.560   1.186   1.892  1.00  0.00    -0.205 F 
ATOM     59  C   UNL     1      -1.337   1.075  -1.236  1.00  0.00     0.022 A 
BRANCH  57  60
ATOM     60  S   UNL     1      -1.641  -0.697   0.830  1.00  0.00     0.127 S 
ATOM     61  O   UNL     1      -2.976  -0.210   1.163  1.00  0.00    -0.237 OA
ATOM     62  O   UNL     1      -1.594  -1.676  -0.258  1.00  0.00    -0.237 OA
ATOM     63  O   UNL     1      -0.782  -1.019   1.962  1.00  0.00    -0.744 OA
ENDBRANCH  57  60
ENDBRANCH  29  53
BRANCH  41  64
ATOM     64  C   UNL     1       2.761   8.924   1.784  1.00  0.00     0.023 A 
ATOM     65  C   UNL     1       1.926   9.149   2.896  1.00  0.00     0.012 A 
ATOM     66  C   UNL     1       2.999   9.970   0.871  1.00  0.00     0.148 A 
ATOM     67  C   UNL     1       1.330  10.394   3.093  1.00  0.00     0.002 A 
ATOM     68  C   UNL     1       2.435  11.220   1.096  1.00  0.00     0.091 A 
ATOM     69  F   UNL     1       3.785   9.726  -0.188  1.00  0.00    -0.205 F 
ATOM     70  C   UNL     1       1.595  11.432   2.202  1.00  0.00     0.022 A 
BRANCH  68  71
ATOM     71  S   UNL     1       2.793  12.642   0.057  1.00  0.00     0.127 S 
ATOM     72  O   UNL     1       1.522  12.829  -0.639  1.00  0.00    -0.237 OA
ATOM     73  O   UNL     1       3.107  13.676   1.044  1.00  0.00    -0.237 OA
ATOM     74  O   UNL     1       3.915  12.250  -0.786  1.00  0.00    -0.744 OA
ENDBRANCH  68  71
ENDBRANCH  41  64
ENDBRANCH  15  16
ENDBRANCH   8  10
ENDBRANCH   5   6
ENDBRANCH   4   5
ENDBRANCH   3   4
ENDBRANCH   2   3
ENDBRANCH   1   2
BRANCH   1  75
ATOM     75  C   UNL     1      12.757  -2.300  -6.175  1.00  0.00     0.116 C 
BRANCH  75  76
ATOM     76  N   UNL     1      13.661  -3.124  -6.964  1.00  0.00    -0.354 N 
ATOM     77  C   UNL     1      14.444  -2.744  -8.031  1.00  0.00     0.244 C 
ATOM     78  H   UNL     1      13.719  -4.071  -6.703  1.00  0.00     0.163 HD
ATOM     79  O   UNL     1      15.292  -3.519  -8.470  1.00  0.00    -0.273 OA
BRANCH  77  80
ATOM     80  C   UNL     1      14.204  -1.352  -8.636  1.00  0.00     0.197 C 
BRANCH  80  81
ATOM     81  N   UNL     1      15.409  -0.746  -9.201  1.00  0.00    -0.340 N 
ATOM     82  C   UNL     1      15.974   0.477  -8.987  1.00  0.00     0.243 C 
ATOM     83  H   UNL     1      15.894  -1.316  -9.841  1.00  0.00     0.164 HD
ATOM     84  O   UNL     1      17.030   0.725  -9.577  1.00  0.00    -0.273 OA
BRANCH  82  85
ATOM     85  C   UNL     1      15.441   1.471  -7.920  1.00  0.00     0.175 C 
BRANCH  85  86
ATOM     86  N   UNL     1      13.999   1.714  -8.006  1.00  0.00    -0.342 N 
ATOM     87  C   UNL     1      13.271   2.822  -8.262  1.00  0.00     0.243 C 
ATOM     88  H   UNL     1      13.453   0.911  -7.846  1.00  0.00     0.164 HD
ATOM     89  O   UNL     1      12.062   2.623  -8.438  1.00  0.00    -0.273 OA
BRANCH  87  90
ATOM     90  C   UNL     1      13.873   4.230  -8.373  1.00  0.00     0.176 C 
BRANCH  90  91
ATOM     91  N   UNL     1      13.497   4.647  -9.737  1.00  0.00    -0.340 N 
ATOM     92  C   UNL     1      14.237   5.067 -10.809  1.00  0.00     0.251 C 
ATOM     93  H   UNL     1      12.528   4.619  -9.909  1.00  0.00     0.164 HD
ATOM     94  O   UNL     1      13.702   5.297 -11.889  1.00  0.00    -0.269 OA
BRANCH  92  95
ATOM     95  C   UNL     1      15.683   5.323 -10.669  1.00  0.00     0.040 A 
ATOM     96  C   UNL     1      16.578   4.316 -10.300  1.00  0.00     0.017 A 
ATOM     97  C   UNL     1      16.146   6.623 -10.914  1.00  0.00     0.017 A 
ATOM     98  C   UNL     1      17.918   4.632 -10.070  1.00  0.00     0.040 A 
ATOM     99  C   UNL     1      17.487   6.935 -10.692  1.00  0.00     0.040 A 
ATOM    100  C   UNL     1      18.356   5.940 -10.253  1.00  0.00     0.123 A 
ATOM    101  F   UNL     1      19.636   6.247 -10.009  1.00  0.00    -0.207 F 
ENDBRANCH  92  95
ENDBRANCH  90  91
BRANCH  90 102
ATOM    102  C   UNL     1      13.189   5.063  -7.260  1.00  0.00     0.070 C 
BRANCH 102 103
ATOM    103  C   UNL     1      13.482   6.541  -7.131  1.00  0.00    -0.045 A 
ATOM    104  C   UNL     1      14.546   7.182  -7.767  1.00  0.00     0.007 A 
ATOM    105  C   UNL     1      12.642   7.313  -6.309  1.00  0.00     0.007 A 
ATOM    106  C   UNL     1      14.709   8.568  -7.683  1.00  0.00     0.046 A 
ATOM    107  C   UNL     1      12.819   8.693  -6.192  1.00  0.00     0.046 A 
ATOM    108  C   UNL     1      13.834   9.314  -6.905  1.00  0.00     0.115 A 
BRANCH 108 109
ATOM    109  O   UNL     1      13.943  10.669  -6.814  1.00  0.00    -0.508 OA
ATOM    110  H   UNL     1      14.618  11.117  -7.284  1.00  0.00     0.293 HD
ENDBRANCH 108 109
ENDBRANCH 102 103
ENDBRANCH  90 102
ENDBRANCH  87  90
ENDBRANCH  85  86
BRANCH  85 111
ATOM    111  C   UNL     1      15.879   0.967  -6.534  1.00  0.00     0.072 C 
BRANCH 111 112
ATOM    112  C   UNL     1      15.723   2.004  -5.468  1.00  0.00    -0.020 A 
ATOM    113  C   UNL     1      16.576   3.066  -5.236  1.00  0.00     0.087 A 
ATOM    114  C   UNL     1      14.680   2.086  -4.490  1.00  0.00     0.003 A 
ATOM    115  N   UNL     1      16.095   3.780  -4.171  1.00  0.00    -0.361 N 
ATOM    116  C   UNL     1      14.944   3.199  -3.694  1.00  0.00     0.046 A 
ATOM    117  C   UNL     1      13.534   1.315  -4.204  1.00  0.00     0.010 A 
ATOM    118  H   UNL     1      16.513   4.590  -3.801  1.00  0.00     0.166 HD
ATOM    119  C   UNL     1      14.126   3.577  -2.623  1.00  0.00     0.026 A 
ATOM    120  C   UNL     1      12.705   1.678  -3.136  1.00  0.00     0.001 A 
ATOM    121  C   UNL     1      13.001   2.793  -2.358  1.00  0.00     0.002 A 
ENDBRANCH 111 112
ENDBRANCH  85 111
ENDBRANCH  82  85
ENDBRANCH  80  81
BRANCH  80 122
ATOM    122  C   UNL     1      13.058  -1.404  -9.657  1.00  0.00     0.191 C 
BRANCH 122 123
ATOM    123  O   UNL     1      13.512  -1.832 -10.941  1.00  0.00    -0.394 OA
ATOM    124  H   UNL     1      14.171  -1.205 -11.276  1.00  0.00     0.210 HD
ENDBRANCH 122 123
ENDBRANCH  80 122
ENDBRANCH  77  80
ENDBRANCH  75  76
ENDBRANCH   1  75
TORSDOF 29
