REMARK SMILES O=C(NCCCCCCNC(=O)[C@@H]1CC=CC[C@@H]1C(=O)Nc1sc2c(c1C(=O)N1CCCCC1)CCCC2)c1ccc(-c2c3nc(c(-c4cccc(S(=O)(=O)[O-])c4F)c4ccc([nH]4)c(-c4cccc(S(=O)(=O)[O-])c4F)c4nc(c(-c5cccc(S(=O)(=O)[O-])c5F)c5ccc2[nH]5)C=C4)C=C3)cc1
REMARK SMILES IDX 6 1 5 2 4 3 3 4 1 5 2 6 39 8 40 9 101 10 41 11 100 12 42 13
REMARK SMILES IDX 43 14 44 15 94 16 45 17 99 18 93 19 95 20 46 21 98 22 92 23
REMARK SMILES IDX 91 24 47 26 79 27 59 28 78 29 60 30 63 31 77 32 96 33 61 34
REMARK SMILES IDX 62 35 76 37 97 38 64 39 48 40 49 41 57 42 50 43 52 44 58 45
REMARK SMILES IDX 51 46 53 47 54 48 55 49 56 50 80 51 81 52 89 53 82 54 84 55
REMARK SMILES IDX 90 56 83 57 85 58 86 59 87 60 88 61 65 62 66 63 74 64 67 65
REMARK SMILES IDX 69 66 75 67 68 68 70 69 71 70 72 71 73 72 7 73 8 74 9 75
REMARK SMILES IDX 10 76 11 77 12 79 13 80 14 81 18 82 15 83 17 84 16 85 19 86
REMARK SMILES IDX 20 87 21 88 22 90 23 91 26 92 24 93 25 94 38 95 35 96 37 97
REMARK SMILES IDX 36 98 27 99 28 100 29 101 30 102 34 103 31 104 33 105 32 106
REMARK H PARENT 3 7 95 25 63 36 10 78 21 89
REMARK Flexibility Score: inf
ROOT
ATOM      1  C   UNL     1      13.069  -3.097  -0.840  1.00  0.00     0.002 C 
ENDROOT
BRANCH   1   2
ATOM      2  C   UNL     1      13.785  -3.672   0.373  1.00  0.00     0.021 C 
BRANCH   2   3
ATOM      3  C   UNL     1      15.253  -3.993   0.154  1.00  0.00     0.116 C 
BRANCH   3   4
ATOM      4  N   UNL     1      16.085  -2.811  -0.001  1.00  0.00    -0.352 N 
ATOM      5  O   UNL     1      17.807  -1.433   0.500  1.00  0.00    -0.269 OA
ATOM      6  C   UNL     1      17.267  -2.518   0.647  1.00  0.00     0.251 C 
ATOM      7  H   UNL     1      15.766  -2.139  -0.646  1.00  0.00     0.163 HD
BRANCH   6   8
ATOM      8  C   UNL     1      17.832  -3.535   1.564  1.00  0.00     0.039 A 
ATOM      9  C   UNL     1      17.948  -4.863   1.146  1.00  0.00     0.014 A 
ATOM     10  C   UNL     1      18.138  -3.178   2.878  1.00  0.00     0.014 A 
ATOM     11  C   UNL     1      18.174  -5.857   2.089  1.00  0.00     0.010 A 
ATOM     12  C   UNL     1      18.477  -4.174   3.800  1.00  0.00     0.010 A 
ATOM     13  C   UNL     1      18.445  -5.527   3.429  1.00  0.00    -0.014 A 
BRANCH  13  14
ATOM     14  C   UNL     1      18.724  -6.618   4.402  1.00  0.00     0.031 A 
ATOM     15  C   UNL     1      17.858  -6.835   5.616  1.00  0.00     0.074 A 
ATOM     16  C   UNL     1      19.770  -7.436   4.168  1.00  0.00     0.049 A 
ATOM     17  N   UNL     1      17.950  -7.763   6.535  1.00  0.00    -0.248 NA
ATOM     18  C   UNL     1      16.754  -5.888   5.839  1.00  0.00     0.031 C 
ATOM     19  C   UNL     1      20.707  -7.304   3.049  1.00  0.00     0.029 A 
ATOM     20  N   UNL     1      20.221  -8.539   4.847  1.00  0.00    -0.354 N 
ATOM     21  C   UNL     1      16.958  -7.484   7.468  1.00  0.00     0.074 A 
ATOM     22  C   UNL     1      16.273  -6.296   7.006  1.00  0.00     0.031 C 
ATOM     23  C   UNL     1      21.592  -8.309   3.092  1.00  0.00     0.029 A 
ATOM     24  C   UNL     1      21.329  -9.118   4.276  1.00  0.00     0.049 A 
ATOM     25  H   UNL     1      19.792  -8.882   5.664  1.00  0.00     0.167 HD
ATOM     26  C   UNL     1      16.639  -8.161   8.599  1.00  0.00     0.034 A 
ATOM     27  C   UNL     1      22.067 -10.175   4.664  1.00  0.00     0.034 A 
ATOM     28  C   UNL     1      17.296  -9.368   9.031  1.00  0.00     0.049 A 
ATOM     29  C   UNL     1      21.666 -10.924   5.902  1.00  0.00     0.074 A 
ATOM     30  C   UNL     1      16.998 -10.167  10.122  1.00  0.00     0.029 A 
ATOM     31  N   UNL     1      18.386  -9.948   8.401  1.00  0.00    -0.354 N 
ATOM     32  N   UNL     1      20.649 -10.713   6.700  1.00  0.00    -0.248 NA
ATOM     33  C   UNL     1      22.499 -12.074   6.275  1.00  0.00     0.031 C 
ATOM     34  C   UNL     1      17.927 -11.212  10.169  1.00  0.00     0.029 A 
ATOM     35  C   UNL     1      18.781 -11.087   9.085  1.00  0.00     0.049 A 
ATOM     36  H   UNL     1      18.818  -9.602   7.587  1.00  0.00     0.167 HD
ATOM     37  C   UNL     1      20.695 -11.727   7.648  1.00  0.00     0.074 A 
ATOM     38  C   UNL     1      21.830 -12.563   7.310  1.00  0.00     0.031 C 
ATOM     39  C   UNL     1      19.879 -11.940   8.710  1.00  0.00     0.034 A 
BRANCH  26  40
ATOM     40  C   UNL     1      15.511  -7.630   9.450  1.00  0.00     0.023 A 
ATOM     41  C   UNL     1      14.179  -7.742   9.002  1.00  0.00     0.012 A 
ATOM     42  C   UNL     1      15.764  -7.087  10.726  1.00  0.00     0.148 A 
ATOM     43  C   UNL     1      13.121  -7.291   9.793  1.00  0.00     0.002 A 
ATOM     44  C   UNL     1      14.703  -6.681  11.528  1.00  0.00     0.091 A 
ATOM     45  F   UNL     1      17.037  -6.971  11.131  1.00  0.00    -0.205 F 
ATOM     46  C   UNL     1      13.382  -6.771  11.058  1.00  0.00     0.022 A 
BRANCH  44  47
ATOM     47  S   UNL     1      14.930  -6.076  13.205  1.00  0.00     0.127 S 
ATOM     48  O   UNL     1      14.635  -4.652  13.047  1.00  0.00    -0.237 OA
ATOM     49  O   UNL     1      13.917  -6.829  13.945  1.00  0.00    -0.237 OA
ATOM     50  O   UNL     1      16.305  -6.394  13.563  1.00  0.00    -0.744 OA
ENDBRANCH  44  47
ENDBRANCH  26  40
BRANCH  27  51
ATOM     51  C   UNL     1      23.227 -10.612   3.839  1.00  0.00     0.023 A 
ATOM     52  C   UNL     1      23.160 -11.833   3.141  1.00  0.00     0.012 A 
ATOM     53  C   UNL     1      24.376  -9.808   3.711  1.00  0.00     0.148 A 
ATOM     54  C   UNL     1      24.230 -12.261   2.356  1.00  0.00     0.002 A 
ATOM     55  C   UNL     1      25.413 -10.211   2.879  1.00  0.00     0.091 A 
ATOM     56  F   UNL     1      24.423  -8.654   4.392  1.00  0.00    -0.205 F 
ATOM     57  C   UNL     1      25.350 -11.445   2.215  1.00  0.00     0.022 A 
BRANCH  55  58
ATOM     58  S   UNL     1      26.828  -9.161   2.531  1.00  0.00     0.127 S 
ATOM     59  O   UNL     1      27.896  -9.855   3.244  1.00  0.00    -0.237 OA
ATOM     60  O   UNL     1      26.908  -9.238   1.071  1.00  0.00    -0.237 OA
ATOM     61  O   UNL     1      26.475  -7.844   3.042  1.00  0.00    -0.744 OA
ENDBRANCH  55  58
ENDBRANCH  27  51
BRANCH  39  62
ATOM     62  C   UNL     1      20.149 -13.156   9.557  1.00  0.00     0.023 A 
ATOM     63  C   UNL     1      21.282 -13.198  10.394  1.00  0.00     0.012 A 
ATOM     64  C   UNL     1      19.248 -14.239   9.559  1.00  0.00     0.148 A 
ATOM     65  C   UNL     1      21.537 -14.317  11.185  1.00  0.00     0.002 A 
ATOM     66  C   UNL     1      19.480 -15.328  10.390  1.00  0.00     0.091 A 
ATOM     67  F   UNL     1      18.187 -14.191   8.740  1.00  0.00    -0.205 F 
ATOM     68  C   UNL     1      20.632 -15.376  11.192  1.00  0.00     0.022 A 
BRANCH  66  69
ATOM     69  S   UNL     1      18.315 -16.687  10.536  1.00  0.00     0.127 S 
ATOM     70  O   UNL     1      18.991 -17.741   9.781  1.00  0.00    -0.237 OA
ATOM     71  O   UNL     1      18.270 -16.905  11.982  1.00  0.00    -0.237 OA
ATOM     72  O   UNL     1      17.066 -16.204   9.961  1.00  0.00    -0.744 OA
ENDBRANCH  66  69
ENDBRANCH  39  62
ENDBRANCH  13  14
ENDBRANCH   6   8
ENDBRANCH   3   4
ENDBRANCH   2   3
ENDBRANCH   1   2
BRANCH   1  73
ATOM     73  C   UNL     1      13.177  -3.920  -2.121  1.00  0.00     0.002 C 
BRANCH  73  74
ATOM     74  C   UNL     1      12.982  -5.435  -2.018  1.00  0.00     0.021 C 
BRANCH  74  75
ATOM     75  C   UNL     1      11.683  -5.975  -1.422  1.00  0.00     0.116 C 
BRANCH  75  76
ATOM     76  N   UNL     1      10.524  -5.127  -1.592  1.00  0.00    -0.356 N 
ATOM     77  C   UNL     1       9.264  -5.437  -1.974  1.00  0.00     0.224 C 
ATOM     78  H   UNL     1      10.676  -4.173  -1.399  1.00  0.00     0.163 HD
ATOM     79  O   UNL     1       8.361  -4.689  -1.582  1.00  0.00    -0.275 OA
BRANCH  77  80
ATOM     80  C   UNL     1       8.926  -6.672  -2.790  1.00  0.00     0.095 C 
ATOM     81  C   UNL     1       8.907  -7.858  -1.805  1.00  0.00     0.041 C 
ATOM     82  C   UNL     1       9.546  -6.846  -4.209  1.00  0.00     0.095 C 
ATOM     83  C   UNL     1       9.258  -9.191  -2.357  1.00  0.00    -0.030 C 
ATOM     84  C   UNL     1       9.510  -8.332  -4.690  1.00  0.00     0.041 C 
ATOM     85  C   UNL     1       9.536  -9.402  -3.644  1.00  0.00    -0.030 C 
BRANCH  82  86
ATOM     86  C   UNL     1      10.911  -6.238  -4.593  1.00  0.00     0.229 C 
ATOM     87  O   UNL     1      11.899  -6.992  -4.627  1.00  0.00    -0.274 OA
ATOM     88  N   UNL     1      11.163  -4.957  -5.007  1.00  0.00    -0.317 N 
ATOM     89  H   UNL     1      12.058  -4.872  -5.407  1.00  0.00     0.170 HD
BRANCH  88  90
ATOM     90  C   UNL     1      10.481  -3.748  -5.008  1.00  0.00     0.108 A 
ATOM     91  S   UNL     1       8.879  -3.671  -4.495  1.00  0.00    -0.122 S 
ATOM     92  C   UNL     1      10.956  -2.484  -5.425  1.00  0.00     0.078 A 
ATOM     93  C   UNL     1       8.956  -2.006  -4.284  1.00  0.00     0.011 A 
ATOM     94  C   UNL     1      10.019  -1.446  -4.970  1.00  0.00    -0.019 A 
ATOM     95  C   UNL     1       7.920  -1.278  -3.488  1.00  0.00     0.047 C 
ATOM     96  C   UNL     1      10.049   0.045  -5.151  1.00  0.00     0.037 C 
ATOM     97  C   UNL     1       7.779   0.159  -3.987  1.00  0.00     0.006 C 
ATOM     98  C   UNL     1       9.149   0.811  -4.166  1.00  0.00     0.005 C 
BRANCH  92  99
ATOM     99  C   UNL     1      12.209  -2.376  -6.227  1.00  0.00     0.257 C 
ATOM    100  O   UNL     1      12.835  -3.389  -6.547  1.00  0.00    -0.269 OA
ATOM    101  N   UNL     1      12.573  -1.140  -6.766  1.00  0.00    -0.339 N 
ATOM    102  C   UNL     1      12.810  -1.057  -8.204  1.00  0.00     0.120 C 
ATOM    103  C   UNL     1      13.167  -0.083  -5.952  1.00  0.00     0.120 C 
ATOM    104  C   UNL     1      14.266  -0.762  -8.564  1.00  0.00     0.022 C 
ATOM    105  C   UNL     1      14.628   0.203  -6.298  1.00  0.00     0.022 C 
ATOM    106  C   UNL     1      14.785   0.448  -7.795  1.00  0.00     0.004 C 
ENDBRANCH  92  99
ENDBRANCH  88  90
ENDBRANCH  82  86
ENDBRANCH  77  80
ENDBRANCH  75  76
ENDBRANCH  74  75
ENDBRANCH  73  74
ENDBRANCH   1  73
TORSDOF 19
