REMARK SMILES C[C@H](c1ccccc1Cl)N(C)c1cccc(F)c1C(=O)NCCCCCCNC(=O)c1ccc(-c2c3nc(c(-c4cccc(S(=O)(=O)[O-])c4F)c4ccc([nH]4)c(-c4cccc(S(=O)(=O)[O-])c4F)c4nc(c(-c5cccc(S(=O)(=O)[O-])c5F)c5ccc2[nH]5)C=C4)C=C3)cc1
REMARK SMILES IDX 24 1 23 2 22 3 21 4 19 5 20 6 18 8 12 9 13 10 14 11 16 12
REMARK SMILES IDX 15 13 17 14 10 15 11 16 2 17 1 18 3 19 4 20 8 21 5 22 7 23
REMARK SMILES IDX 9 24 6 25 25 26 26 27 27 28 28 29 29 30 30 32 31 33 32 34
REMARK SMILES IDX 93 35 33 36 92 37 34 38 35 39 36 40 86 41 37 42 91 43 85 44
REMARK SMILES IDX 87 45 38 46 90 47 84 48 83 49 39 51 71 52 51 53 70 54 52 55
REMARK SMILES IDX 55 56 69 57 88 58 53 59 54 60 68 62 89 63 56 64 40 65 41 66
REMARK SMILES IDX 49 67 42 68 44 69 50 70 43 71 45 72 46 73 47 74 48 75 72 76
REMARK SMILES IDX 73 77 81 78 74 79 76 80 82 81 75 82 77 83 78 84 79 85 80 86
REMARK SMILES IDX 57 87 58 88 66 89 59 90 61 91 67 92 60 93 62 94 63 95 64 96
REMARK SMILES IDX 65 97
REMARK H PARENT 21 7 28 31 87 50 55 61
REMARK Flexibility Score: inf
ROOT
ATOM      1  C   UNL     1      -7.061   1.286   4.939  1.00  0.00     0.002 C 
ENDROOT
BRANCH   1   2
ATOM      2  C   UNL     1      -6.642   1.599   3.503  1.00  0.00     0.021 C 
BRANCH   2   3
ATOM      3  C   UNL     1      -5.271   2.238   3.301  1.00  0.00     0.116 C 
BRANCH   3   4
ATOM      4  N   UNL     1      -4.141   1.452   3.776  1.00  0.00    -0.352 N 
ATOM      5  C   UNL     1      -2.871   1.292   3.240  1.00  0.00     0.256 C 
ATOM      6  O   UNL     1      -2.037   0.707   3.929  1.00  0.00    -0.269 OA
ATOM      7  H   UNL     1      -4.304   0.954   4.610  1.00  0.00     0.163 HD
BRANCH   5   8
ATOM      8  C   UNL     1      -2.569   1.725   1.844  1.00  0.00     0.098 A 
ATOM      9  C   UNL     1      -1.924   0.878   0.914  1.00  0.00     0.053 A 
ATOM     10  C   UNL     1      -2.045   1.204  -0.453  1.00  0.00     0.027 A 
ATOM     11  C   UNL     1      -2.596   2.413  -0.877  1.00  0.00     0.005 A 
ATOM     12  C   UNL     1      -2.975   2.994   1.418  1.00  0.00     0.138 A 
ATOM     13  C   UNL     1      -3.003   3.339   0.071  1.00  0.00     0.040 A 
ATOM     14  F   UNL     1      -3.371   3.920   2.305  1.00  0.00    -0.206 F 
BRANCH   9  15
ATOM     15  N   UNL     1      -1.096  -0.191   1.245  1.00  0.00    -0.367 N 
ATOM     16  C   UNL     1      -1.713  -1.460   1.582  1.00  0.00     0.144 C 
BRANCH  15  17
ATOM     17  C   UNL     1       0.372  -0.001   1.388  1.00  0.00     0.110 C 
ATOM     18  C   UNL     1       0.760   0.955   2.517  1.00  0.00     0.036 C 
BRANCH  17  19
ATOM     19  C   UNL     1       1.055   0.222   0.035  1.00  0.00    -0.007 A 
ATOM     20  C   UNL     1       1.537  -0.930  -0.632  1.00  0.00     0.007 A 
ATOM     21  C   UNL     1       1.189   1.452  -0.636  1.00  0.00     0.046 A 
ATOM     22  C   UNL     1       2.065  -0.869  -1.924  1.00  0.00     0.000 A 
ATOM     23  C   UNL     1       1.665   1.497  -1.957  1.00  0.00     0.021 A 
ATOM     24  Cl  UNL     1       0.810   2.986   0.060  1.00  0.00    -0.084 Cl
ATOM     25  C   UNL     1       2.094   0.341  -2.602  1.00  0.00     0.002 A 
ENDBRANCH  17  19
ENDBRANCH  15  17
ENDBRANCH   9  15
ENDBRANCH   5   8
ENDBRANCH   3   4
ENDBRANCH   2   3
ENDBRANCH   1   2
BRANCH   1  26
ATOM     26  C   UNL     1      -6.957   2.429   5.951  1.00  0.00     0.002 C 
BRANCH  26  27
ATOM     27  C   UNL     1      -7.658   3.739   5.584  1.00  0.00     0.021 C 
BRANCH  27  28
ATOM     28  C   UNL     1      -9.139   3.633   5.226  1.00  0.00     0.116 C 
BRANCH  28  29
ATOM     29  N   UNL     1      -9.946   3.088   6.308  1.00  0.00    -0.352 N 
ATOM     30  C   UNL     1     -11.050   3.615   6.932  1.00  0.00     0.251 C 
ATOM     31  H   UNL     1      -9.657   2.208   6.642  1.00  0.00     0.163 HD
ATOM     32  O   UNL     1     -11.507   3.063   7.933  1.00  0.00    -0.269 OA
BRANCH  30  33
ATOM     33  C   UNL     1     -11.678   4.855   6.425  1.00  0.00     0.039 A 
ATOM     34  C   UNL     1     -12.007   5.864   7.336  1.00  0.00     0.014 A 
ATOM     35  C   UNL     1     -11.939   5.030   5.063  1.00  0.00     0.014 A 
ATOM     36  C   UNL     1     -12.517   7.079   6.871  1.00  0.00     0.010 A 
ATOM     37  C   UNL     1     -12.386   6.266   4.596  1.00  0.00     0.010 A 
ATOM     38  C   UNL     1     -12.664   7.308   5.492  1.00  0.00    -0.014 A 
BRANCH  38  39
ATOM     39  C   UNL     1     -13.027   8.652   4.971  1.00  0.00     0.031 A 
ATOM     40  C   UNL     1     -14.298   8.865   4.197  1.00  0.00     0.074 A 
ATOM     41  C   UNL     1     -12.154   9.669   5.121  1.00  0.00     0.049 A 
ATOM     42  N   UNL     1     -14.734   9.953   3.616  1.00  0.00    -0.248 NA
ATOM     43  C   UNL     1     -15.188   7.703   4.038  1.00  0.00     0.031 C 
ATOM     44  C   UNL     1     -10.858   9.574   5.796  1.00  0.00     0.029 A 
ATOM     45  N   UNL     1     -12.210  10.974   4.696  1.00  0.00    -0.354 N 
ATOM     46  C   UNL     1     -15.932   9.606   3.004  1.00  0.00     0.074 A 
ATOM     47  C   UNL     1     -16.142   8.197   3.261  1.00  0.00     0.031 C 
ATOM     48  C   UNL     1     -10.247  10.767   5.749  1.00  0.00     0.029 A 
ATOM     49  C   UNL     1     -11.084  11.702   5.005  1.00  0.00     0.049 A 
ATOM     50  H   UNL     1     -12.982  11.352   4.216  1.00  0.00     0.167 HD
ATOM     51  C   UNL     1     -16.789  10.394   2.312  1.00  0.00     0.034 A 
ATOM     52  C   UNL     1     -10.752  12.976   4.715  1.00  0.00     0.034 A 
ATOM     53  C   UNL     1     -16.584  11.800   2.078  1.00  0.00     0.049 A 
ATOM     54  C   UNL     1     -11.727  13.834   3.958  1.00  0.00     0.074 A 
ATOM     55  C   UNL     1     -17.426  12.694   1.438  1.00  0.00     0.029 A 
ATOM     56  N   UNL     1     -15.462  12.517   2.464  1.00  0.00    -0.354 N 
ATOM     57  N   UNL     1     -12.908  13.517   3.488  1.00  0.00    -0.248 NA
ATOM     58  C   UNL     1     -11.343  15.233   3.724  1.00  0.00     0.031 C 
ATOM     59  C   UNL     1     -16.798  13.942   1.407  1.00  0.00     0.029 A 
ATOM     60  C   UNL     1     -15.587  13.839   2.071  1.00  0.00     0.049 A 
ATOM     61  H   UNL     1     -14.690  12.142   2.946  1.00  0.00     0.167 HD
ATOM     62  C   UNL     1     -13.428  14.684   2.943  1.00  0.00     0.074 A 
ATOM     63  C   UNL     1     -12.435  15.719   3.149  1.00  0.00     0.031 C 
ATOM     64  C   UNL     1     -14.619  14.877   2.325  1.00  0.00     0.034 A 
BRANCH  51  65
ATOM     65  C   UNL     1     -18.061   9.775   1.790  1.00  0.00     0.023 A 
ATOM     66  C   UNL     1     -19.082   9.418   2.694  1.00  0.00     0.012 A 
ATOM     67  C   UNL     1     -18.290   9.648   0.405  1.00  0.00     0.148 A 
ATOM     68  C   UNL     1     -20.301   8.923   2.231  1.00  0.00     0.002 A 
ATOM     69  C   UNL     1     -19.526   9.201  -0.050  1.00  0.00     0.091 A 
ATOM     70  F   UNL     1     -17.302   9.975  -0.439  1.00  0.00    -0.205 F 
ATOM     71  C   UNL     1     -20.527   8.828   0.861  1.00  0.00     0.022 A 
BRANCH  69  72
ATOM     72  S   UNL     1     -19.951   9.130  -1.795  1.00  0.00     0.127 S 
ATOM     73  O   UNL     1     -20.058   7.688  -2.013  1.00  0.00    -0.237 OA
ATOM     74  O   UNL     1     -21.225   9.848  -1.829  1.00  0.00    -0.237 OA
ATOM     75  O   UNL     1     -18.861   9.786  -2.503  1.00  0.00    -0.744 OA
ENDBRANCH  69  72
ENDBRANCH  51  65
BRANCH  52  76
ATOM     76  C   UNL     1      -9.460  13.528   5.213  1.00  0.00     0.023 A 
ATOM     77  C   UNL     1      -9.469  14.477   6.253  1.00  0.00     0.012 A 
ATOM     78  C   UNL     1      -8.227  13.066   4.714  1.00  0.00     0.148 A 
ATOM     79  C   UNL     1      -8.273  14.971   6.775  1.00  0.00     0.002 A 
ATOM     80  C   UNL     1      -7.040  13.517   5.279  1.00  0.00     0.091 A 
ATOM     81  F   UNL     1      -8.242  12.168   3.719  1.00  0.00    -0.205 F 
ATOM     82  C   UNL     1      -7.060  14.481   6.298  1.00  0.00     0.022 A 
BRANCH  80  83
ATOM     83  S   UNL     1      -5.438  12.837   4.832  1.00  0.00     0.127 S 
ATOM     84  O   UNL     1      -4.788  13.989   4.211  1.00  0.00    -0.237 OA
ATOM     85  O   UNL     1      -4.902  12.456   6.139  1.00  0.00    -0.237 OA
ATOM     86  O   UNL     1      -5.717  11.717   3.944  1.00  0.00    -0.744 OA
ENDBRANCH  80  83
ENDBRANCH  52  76
BRANCH  64  87
ATOM     87  C   UNL     1     -14.962  16.271   1.864  1.00  0.00     0.023 A 
ATOM     88  C   UNL     1     -14.297  16.837   0.759  1.00  0.00     0.012 A 
ATOM     89  C   UNL     1     -16.018  16.979   2.472  1.00  0.00     0.148 A 
ATOM     90  C   UNL     1     -14.659  18.097   0.284  1.00  0.00     0.002 A 
ATOM     91  C   UNL     1     -16.410  18.209   1.959  1.00  0.00     0.091 A 
ATOM     92  F   UNL     1     -16.626  16.433   3.535  1.00  0.00    -0.205 F 
ATOM     93  C   UNL     1     -15.723  18.776   0.874  1.00  0.00     0.022 A 
BRANCH  91  94
ATOM     94  S   UNL     1     -17.839  19.102   2.583  1.00  0.00     0.127 S 
ATOM     95  O   UNL     1     -17.209  20.227   3.273  1.00  0.00    -0.237 OA
ATOM     96  O   UNL     1     -18.543  19.459   1.352  1.00  0.00    -0.237 OA
ATOM     97  O   UNL     1     -18.556  18.167   3.440  1.00  0.00    -0.744 OA
ENDBRANCH  91  94
ENDBRANCH  64  87
ENDBRANCH  38  39
ENDBRANCH  30  33
ENDBRANCH  28  29
ENDBRANCH  27  28
ENDBRANCH  26  27
ENDBRANCH   1  26
TORSDOF 19
