REMARK SMILES C[C@@H]([NH+]1CCC(CCC(=O)NCCCCCCNC(=O)c2ccc(-c3c4nc(c(-c5cccc(S(=O)(=O)[O-])c5F)c5ccc([nH]5)c(-c5cccc(S(=O)(=O)[O-])c5F)c5nc(c(-c6cccc(S(=O)(=O)[O-])c6F)c6ccc3[nH]6)C=C5)C=C4)cc2)CC1)C1(C)CC1
REMARK SMILES IDX 14 1 13 2 12 3 11 4 9 5 10 6 8 8 7 9 6 10 3 11 4 12 85 13
REMARK SMILES IDX 5 15 84 16 2 17 1 18 86 19 87 20 88 21 89 22 15 23 16 24
REMARK SMILES IDX 17 25 18 26 19 27 20 29 21 30 22 31 83 32 23 33 82 34 24 35
REMARK SMILES IDX 25 36 26 37 76 38 27 39 81 40 75 41 77 42 28 43 80 44 74 45
REMARK SMILES IDX 73 46 29 48 61 49 41 50 60 51 42 52 45 53 59 54 78 55 43 56
REMARK SMILES IDX 44 57 58 59 79 60 46 61 30 62 31 63 39 64 32 65 34 66 40 67
REMARK SMILES IDX 33 68 35 69 36 70 37 71 38 72 62 73 63 74 71 75 64 76 66 77
REMARK SMILES IDX 72 78 65 79 67 80 68 81 69 82 70 83 47 84 48 85 56 86 49 87
REMARK SMILES IDX 51 88 57 89 50 90 52 91 53 92 54 93 55 94
REMARK H PARENT 11 7 3 14 18 28 77 47 45 58
REMARK Flexibility Score: inf
ROOT
ATOM      1  C   UNL     1      -4.060   3.901  -1.957  1.00  0.00     0.002 C 
ENDROOT
BRANCH   1   2
ATOM      2  C   UNL     1      -2.611   3.780  -2.451  1.00  0.00     0.021 C 
BRANCH   2   3
ATOM      3  C   UNL     1      -2.377   3.418  -3.921  1.00  0.00     0.116 C 
BRANCH   3   4
ATOM      4  N   UNL     1      -2.341   4.606  -4.757  1.00  0.00    -0.356 N 
ATOM      5  C   UNL     1      -1.293   5.275  -5.317  1.00  0.00     0.220 C 
ATOM      6  O   UNL     1      -1.537   6.339  -5.894  1.00  0.00    -0.275 OA
ATOM      7  H   UNL     1      -3.224   4.994  -4.953  1.00  0.00     0.163 HD
BRANCH   5   8
ATOM      8  C   UNL     1       0.124   4.720  -5.296  1.00  0.00     0.100 C 
BRANCH   8   9
ATOM      9  C   UNL     1       0.995   5.152  -4.102  1.00  0.00     0.014 C 
BRANCH   9  10
ATOM     10  C   UNL     1       0.991   4.159  -2.934  1.00  0.00     0.000 C 
ATOM     11  N   UNL     1       1.774   2.240  -0.867  1.00  0.00    -0.332 N 
ATOM     12  C   UNL     1       1.252   1.812  -2.162  1.00  0.00     0.262 C 
ATOM     13  C   UNL     1       1.540   3.652  -0.528  1.00  0.00     0.262 C 
ATOM     14  H   UNL     1       2.783   2.189  -1.013  1.00  0.00     0.348 HD
ATOM     15  C   UNL     1       1.571   2.789  -3.290  1.00  0.00     0.065 C 
ATOM     16  C   UNL     1       1.755   4.639  -1.693  1.00  0.00     0.065 C 
BRANCH  11  17
ATOM     17  C   UNL     1       1.514   1.300   0.257  1.00  0.00     0.186 C 
ATOM     18  C   UNL     1       2.098  -0.098  -0.016  1.00  0.00     0.076 C 
BRANCH  17  19
ATOM     19  C   UNL     1       0.072   1.150   0.769  1.00  0.00     0.019 C 
ATOM     20  C   UNL     1      -0.031   0.836   2.244  1.00  0.00     0.018 C 
ATOM     21  C   UNL     1      -1.007   2.056   0.194  1.00  0.00     0.013 C 
ATOM     22  C   UNL     1      -0.979   0.545  -0.067  1.00  0.00     0.013 C 
ENDBRANCH  17  19
ENDBRANCH  11  17
ENDBRANCH   9  10
ENDBRANCH   8   9
ENDBRANCH   5   8
ENDBRANCH   3   4
ENDBRANCH   2   3
ENDBRANCH   1   2
BRANCH   1  23
ATOM     23  C   UNL     1      -4.929   2.631  -1.940  1.00  0.00     0.002 C 
BRANCH  23  24
ATOM     24  C   UNL     1      -4.477   1.450  -1.064  1.00  0.00     0.021 C 
BRANCH  24  25
ATOM     25  C   UNL     1      -4.421   1.669   0.459  1.00  0.00     0.116 C 
BRANCH  25  26
ATOM     26  N   UNL     1      -5.692   1.556   1.139  1.00  0.00    -0.352 N 
ATOM     27  C   UNL     1      -6.010   0.905   2.312  1.00  0.00     0.251 C 
ATOM     28  H   UNL     1      -6.444   2.012   0.697  1.00  0.00     0.163 HD
ATOM     29  O   UNL     1      -7.181   0.923   2.690  1.00  0.00    -0.269 OA
BRANCH  27  30
ATOM     30  C   UNL     1      -5.009   0.148   3.120  1.00  0.00     0.039 A 
ATOM     31  C   UNL     1      -5.372  -1.126   3.572  1.00  0.00     0.014 A 
ATOM     32  C   UNL     1      -3.783   0.676   3.533  1.00  0.00     0.014 A 
ATOM     33  C   UNL     1      -4.508  -1.874   4.388  1.00  0.00     0.010 A 
ATOM     34  C   UNL     1      -2.902  -0.097   4.324  1.00  0.00     0.010 A 
ATOM     35  C   UNL     1      -3.242  -1.388   4.759  1.00  0.00    -0.014 A 
BRANCH  35  36
ATOM     36  C   UNL     1      -2.308  -2.263   5.551  1.00  0.00     0.031 A 
ATOM     37  C   UNL     1      -1.788  -1.877   6.918  1.00  0.00     0.074 A 
ATOM     38  C   UNL     1      -1.912  -3.450   5.040  1.00  0.00     0.049 A 
ATOM     39  N   UNL     1      -1.104  -2.601   7.774  1.00  0.00    -0.248 NA
ATOM     40  C   UNL     1      -2.042  -0.505   7.378  1.00  0.00     0.031 C 
ATOM     41  C   UNL     1      -2.218  -3.932   3.692  1.00  0.00     0.029 A 
ATOM     42  N   UNL     1      -1.171  -4.472   5.591  1.00  0.00    -0.354 N 
ATOM     43  C   UNL     1      -0.838  -1.776   8.863  1.00  0.00     0.074 A 
ATOM     44  C   UNL     1      -1.393  -0.479   8.535  1.00  0.00     0.031 C 
ATOM     45  C   UNL     1      -1.709  -5.164   3.535  1.00  0.00     0.029 A 
ATOM     46  C   UNL     1      -1.018  -5.560   4.760  1.00  0.00     0.049 A 
ATOM     47  H   UNL     1      -0.786  -4.429   6.497  1.00  0.00     0.167 HD
ATOM     48  C   UNL     1      -0.224  -2.065  10.040  1.00  0.00     0.034 A 
ATOM     49  C   UNL     1      -0.409  -6.749   4.950  1.00  0.00     0.034 A 
ATOM     50  C   UNL     1       0.316  -3.355  10.393  1.00  0.00     0.049 A 
ATOM     51  C   UNL     1       0.209  -7.073   6.284  1.00  0.00     0.074 A 
ATOM     52  C   UNL     1       0.871  -3.755  11.599  1.00  0.00     0.029 A 
ATOM     53  N   UNL     1       0.391  -4.449   9.547  1.00  0.00    -0.354 N 
ATOM     54  N   UNL     1       0.270  -6.338   7.367  1.00  0.00    -0.248 NA
ATOM     55  C   UNL     1       0.803  -8.411   6.435  1.00  0.00     0.031 C 
ATOM     56  C   UNL     1       1.308  -5.079  11.470  1.00  0.00     0.029 A 
ATOM     57  C   UNL     1       0.992  -5.518  10.197  1.00  0.00     0.049 A 
ATOM     58  H   UNL     1       0.064  -4.466   8.618  1.00  0.00     0.167 HD
ATOM     59  C   UNL     1       0.886  -7.130   8.332  1.00  0.00     0.074 A 
ATOM     60  C   UNL     1       1.142  -8.415   7.717  1.00  0.00     0.031 C 
ATOM     61  C   UNL     1       1.224  -6.811   9.606  1.00  0.00     0.034 A 
BRANCH  48  62
ATOM     62  C   UNL     1      -0.158  -0.971  11.081  1.00  0.00     0.023 A 
ATOM     63  C   UNL     1      -1.343  -0.559  11.727  1.00  0.00     0.012 A 
ATOM     64  C   UNL     1       1.071  -0.404  11.475  1.00  0.00     0.148 A 
ATOM     65  C   UNL     1      -1.313   0.428  12.711  1.00  0.00     0.002 A 
ATOM     66  C   UNL     1       1.099   0.546  12.491  1.00  0.00     0.091 A 
ATOM     67  F   UNL     1       2.189  -0.799  10.848  1.00  0.00    -0.205 F 
ATOM     68  C   UNL     1      -0.093   0.973  13.099  1.00  0.00     0.022 A 
BRANCH  66  69
ATOM     69  S   UNL     1       2.626   1.250  13.124  1.00  0.00     0.127 S 
ATOM     70  O   UNL     1       2.549   2.621  12.621  1.00  0.00    -0.237 OA
ATOM     71  O   UNL     1       2.447   1.122  14.572  1.00  0.00    -0.237 OA
ATOM     72  O   UNL     1       3.701   0.441  12.571  1.00  0.00    -0.744 OA
ENDBRANCH  66  69
ENDBRANCH  48  62
BRANCH  49  73
ATOM     73  C   UNL     1      -0.407  -7.764   3.856  1.00  0.00     0.023 A 
ATOM     74  C   UNL     1      -1.162  -8.945   3.991  1.00  0.00     0.012 A 
ATOM     75  C   UNL     1       0.330  -7.552   2.675  1.00  0.00     0.148 A 
ATOM     76  C   UNL     1      -1.156  -9.913   2.985  1.00  0.00     0.002 A 
ATOM     77  C   UNL     1       0.280  -8.490   1.650  1.00  0.00     0.091 A 
ATOM     78  F   UNL     1       1.054  -6.429   2.572  1.00  0.00    -0.205 F 
ATOM     79  C   UNL     1      -0.445  -9.680   1.811  1.00  0.00     0.022 A 
BRANCH  77  80
ATOM     80  S   UNL     1       1.046  -8.205   0.051  1.00  0.00     0.127 S 
ATOM     81  O   UNL     1       2.124  -9.194   0.057  1.00  0.00    -0.237 OA
ATOM     82  O   UNL     1      -0.056  -8.501  -0.865  1.00  0.00    -0.237 OA
ATOM     83  O   UNL     1       1.466  -6.813   0.056  1.00  0.00    -0.744 OA
ENDBRANCH  77  80
ENDBRANCH  49  73
BRANCH  61  84
ATOM     84  C   UNL     1       1.896  -7.877  10.439  1.00  0.00     0.023 A 
ATOM     85  C   UNL     1       3.205  -8.297  10.124  1.00  0.00     0.012 A 
ATOM     86  C   UNL     1       1.244  -8.449  11.551  1.00  0.00     0.148 A 
ATOM     87  C   UNL     1       3.831  -9.300  10.864  1.00  0.00     0.002 A 
ATOM     88  C   UNL     1       1.894  -9.412  12.316  1.00  0.00     0.091 A 
ATOM     89  F   UNL     1      -0.007  -8.056  11.831  1.00  0.00    -0.205 F 
ATOM     90  C   UNL     1       3.180  -9.851  11.964  1.00  0.00     0.022 A 
BRANCH  88  91
ATOM     91  S   UNL     1       1.168 -10.110  13.804  1.00  0.00     0.127 S 
ATOM     92  O   UNL     1       0.778 -11.444  13.349  1.00  0.00    -0.237 OA
ATOM     93  O   UNL     1       2.294 -10.091  14.739  1.00  0.00    -0.237 OA
ATOM     94  O   UNL     1       0.071  -9.224  14.167  1.00  0.00    -0.744 OA
ENDBRANCH  88  91
ENDBRANCH  61  84
ENDBRANCH  35  36
ENDBRANCH  27  30
ENDBRANCH  25  26
ENDBRANCH  24  25
ENDBRANCH  23  24
ENDBRANCH   1  23
TORSDOF 20
