REMARK SMILES C[C@H]([NH2+]CC1(O)CCCC1)[C@H](C)C(=O)NCCCCCCNC(=O)c1ccc(-c2c3nc(c(-c4cccc(S(=O)(=O)[O-])c4F)c4ccc([nH]4)c(-c4cccc(S(=O)(=O)[O-])c4F)c4nc(c(-c5cccc(S(=O)(=O)[O-])c5F)c5ccc2[nH]5)C=C4)C=C3)cc1
REMARK SMILES IDX 17 1 16 2 15 3 13 4 14 5 11 7 12 8 2 9 1 10 3 11 4 14 5 15
REMARK SMILES IDX 7 16 10 17 8 18 9 19 6 20 18 22 19 23 20 24 21 25 22 26
REMARK SMILES IDX 23 27 24 29 25 30 26 31 87 32 27 33 86 34 28 35 29 36 30 37
REMARK SMILES IDX 80 38 31 39 85 40 79 41 81 42 32 43 84 44 78 45 77 46 33 48
REMARK SMILES IDX 65 49 45 50 64 51 46 52 49 53 63 54 82 55 47 56 48 57 62 59
REMARK SMILES IDX 83 60 50 61 34 62 35 63 43 64 36 65 38 66 44 67 37 68 39 69
REMARK SMILES IDX 40 70 41 71 42 72 66 73 67 74 75 75 68 76 70 77 76 78 69 79
REMARK SMILES IDX 71 80 72 81 73 82 74 83 51 84 52 85 60 86 53 87 55 88 61 89
REMARK SMILES IDX 54 90 56 91 57 92 58 93 59 94
REMARK H PARENT 15 6 3 12 3 13 6 21 22 28 81 47 49 58
REMARK Flexibility Score: inf
ROOT
ATOM      1  C   UNL     1       0.673   3.160  -3.957  1.00  0.00     0.021 C 
ENDROOT
BRANCH   1   2
ATOM      2  C   UNL     1      -0.526   2.857  -3.072  1.00  0.00     0.116 C 
BRANCH   2   3
ATOM      3  N   UNL     1      -1.361   1.782  -3.535  1.00  0.00    -0.356 N 
ATOM      4  C   UNL     1      -1.807   0.691  -2.854  1.00  0.00     0.228 C 
ATOM      5  O   UNL     1      -2.690   0.021  -3.403  1.00  0.00    -0.275 OA
ATOM      6  H   UNL     1      -1.650   1.843  -4.474  1.00  0.00     0.163 HD
BRANCH   4   7
ATOM      7  C   UNL     1      -1.198   0.208  -1.525  1.00  0.00     0.133 C 
ATOM      8  C   UNL     1       0.128  -0.504  -1.798  1.00  0.00     0.024 C 
BRANCH   7   9
ATOM      9  C   UNL     1      -1.281   1.100  -0.236  1.00  0.00     0.191 C 
ATOM     10  C   UNL     1      -2.234   2.300  -0.310  1.00  0.00     0.076 C 
BRANCH   9  11
ATOM     11  N   UNL     1      -0.075   1.403   0.565  1.00  0.00    -0.341 N 
ATOM     12  H   UNL     1       0.307   0.513   0.885  1.00  0.00     0.346 HD
ATOM     13  H   UNL     1      -0.409   2.033   1.295  1.00  0.00     0.346 HD
BRANCH  11  14
ATOM     14  C   UNL     1       1.017   2.139  -0.078  1.00  0.00     0.296 C 
BRANCH  14  15
ATOM     15  C   UNL     1       2.328   2.091   0.735  1.00  0.00     0.113 C 
ATOM     16  C   UNL     1       2.337   3.018   1.947  1.00  0.00     0.041 C 
ATOM     17  C   UNL     1       3.521   2.593  -0.085  1.00  0.00     0.041 C 
ATOM     18  C   UNL     1       3.820   3.227   2.256  1.00  0.00     0.003 C 
ATOM     19  C   UNL     1       4.577   2.956   0.955  1.00  0.00     0.003 C 
BRANCH  15  20
ATOM     20  O   UNL     1       2.566   0.728   1.124  1.00  0.00    -0.384 OA
ATOM     21  H   UNL     1       1.813   0.404   1.644  1.00  0.00     0.211 HD
ENDBRANCH  15  20
ENDBRANCH  14  15
ENDBRANCH  11  14
ENDBRANCH   9  11
ENDBRANCH   7   9
ENDBRANCH   4   7
ENDBRANCH   2   3
ENDBRANCH   1   2
BRANCH   1  22
ATOM     22  C   UNL     1       0.345   4.008  -5.185  1.00  0.00     0.002 C 
BRANCH  22  23
ATOM     23  C   UNL     1      -0.364   5.338  -4.893  1.00  0.00     0.002 C 
BRANCH  23  24
ATOM     24  C   UNL     1       0.343   6.264  -3.897  1.00  0.00     0.021 C 
BRANCH  24  25
ATOM     25  C   UNL     1       1.757   6.681  -4.294  1.00  0.00     0.116 C 
BRANCH  25  26
ATOM     26  N   UNL     1       1.787   7.325  -5.597  1.00  0.00    -0.352 N 
ATOM     27  C   UNL     1       2.341   8.519  -5.973  1.00  0.00     0.251 C 
ATOM     28  H   UNL     1       1.342   6.826  -6.320  1.00  0.00     0.163 HD
ATOM     29  O   UNL     1       2.077   8.986  -7.082  1.00  0.00    -0.269 OA
BRANCH  27  30
ATOM     30  C   UNL     1       3.249   9.248  -5.064  1.00  0.00     0.039 A 
ATOM     31  C   UNL     1       3.157  10.642  -4.993  1.00  0.00     0.014 A 
ATOM     32  C   UNL     1       4.227   8.574  -4.326  1.00  0.00     0.014 A 
ATOM     33  C   UNL     1       4.027  11.354  -4.165  1.00  0.00     0.010 A 
ATOM     34  C   UNL     1       5.046   9.279  -3.449  1.00  0.00     0.010 A 
ATOM     35  C   UNL     1       4.971  10.678  -3.377  1.00  0.00    -0.014 A 
BRANCH  35  36
ATOM     36  C   UNL     1       5.911  11.419  -2.499  1.00  0.00     0.031 A 
ATOM     37  C   UNL     1       7.392  11.370  -2.770  1.00  0.00     0.074 A 
ATOM     38  C   UNL     1       5.441  12.080  -1.424  1.00  0.00     0.049 A 
ATOM     39  N   UNL     1       8.372  11.913  -2.095  1.00  0.00    -0.248 NA
ATOM     40  C   UNL     1       7.833  10.586  -3.936  1.00  0.00     0.031 C 
ATOM     41  C   UNL     1       4.036  12.139  -1.015  1.00  0.00     0.029 A 
ATOM     42  N   UNL     1       6.096  12.810  -0.465  1.00  0.00    -0.354 N 
ATOM     43  C   UNL     1       9.541  11.508  -2.728  1.00  0.00     0.074 A 
ATOM     44  C   UNL     1       9.152  10.643  -3.820  1.00  0.00     0.031 C 
ATOM     45  C   UNL     1       3.934  12.869   0.107  1.00  0.00     0.029 A 
ATOM     46  C   UNL     1       5.266  13.312   0.510  1.00  0.00     0.049 A 
ATOM     47  H   UNL     1       7.069  12.961  -0.474  1.00  0.00     0.167 HD
ATOM     48  C   UNL     1      10.822  11.851  -2.450  1.00  0.00     0.034 A 
ATOM     49  C   UNL     1       5.547  14.046   1.604  1.00  0.00     0.034 A 
ATOM     50  C   UNL     1      11.200  12.754  -1.397  1.00  0.00     0.049 A 
ATOM     51  C   UNL     1       6.972  14.462   1.855  1.00  0.00     0.074 A 
ATOM     52  C   UNL     1      12.460  13.226  -1.078  1.00  0.00     0.029 A 
ATOM     53  N   UNL     1      10.318  13.325  -0.492  1.00  0.00    -0.354 N 
ATOM     54  N   UNL     1       8.048  14.188   1.157  1.00  0.00    -0.248 NA
ATOM     55  C   UNL     1       7.216  15.326   3.020  1.00  0.00     0.031 C 
ATOM     56  C   UNL     1      12.342  14.074   0.028  1.00  0.00     0.029 A 
ATOM     57  C   UNL     1      11.005  14.148   0.382  1.00  0.00     0.049 A 
ATOM     58  H   UNL     1       9.346  13.168  -0.475  1.00  0.00     0.167 HD
ATOM     59  C   UNL     1       9.086  14.882   1.769  1.00  0.00     0.074 A 
ATOM     60  C   UNL     1       8.506  15.601   2.885  1.00  0.00     0.031 C 
ATOM     61  C   UNL     1      10.402  14.910   1.446  1.00  0.00     0.034 A 
BRANCH  48  62
ATOM     62  C   UNL     1      11.905  11.296  -3.338  1.00  0.00     0.023 A 
ATOM     63  C   UNL     1      12.030  11.772  -4.660  1.00  0.00     0.012 A 
ATOM     64  C   UNL     1      12.834  10.354  -2.854  1.00  0.00     0.148 A 
ATOM     65  C   UNL     1      13.037  11.294  -5.497  1.00  0.00     0.002 A 
ATOM     66  C   UNL     1      13.863   9.915  -3.681  1.00  0.00     0.091 A 
ATOM     67  F   UNL     1      12.688   9.897  -1.603  1.00  0.00    -0.205 F 
ATOM     68  C   UNL     1      13.959  10.375  -5.005  1.00  0.00     0.022 A 
BRANCH  66  69
ATOM     69  S   UNL     1      15.147   8.792  -3.117  1.00  0.00     0.127 S 
ATOM     70  O   UNL     1      14.811   7.570  -3.848  1.00  0.00    -0.237 OA
ATOM     71  O   UNL     1      16.365   9.461  -3.577  1.00  0.00    -0.237 OA
ATOM     72  O   UNL     1      15.006   8.714  -1.671  1.00  0.00    -0.744 OA
ENDBRANCH  66  69
ENDBRANCH  48  62
BRANCH  49  73
ATOM     73  C   UNL     1       4.447  14.506   2.498  1.00  0.00     0.023 A 
ATOM     74  C   UNL     1       4.104  15.873   2.523  1.00  0.00     0.012 A 
ATOM     75  C   UNL     1       3.729  13.604   3.305  1.00  0.00     0.148 A 
ATOM     76  C   UNL     1       3.092  16.338   3.363  1.00  0.00     0.002 A 
ATOM     77  C   UNL     1       2.686  14.066   4.099  1.00  0.00     0.091 A 
ATOM     78  F   UNL     1       4.077  12.309   3.277  1.00  0.00    -0.205 F 
ATOM     79  C   UNL     1       2.377  15.434   4.144  1.00  0.00     0.022 A 
BRANCH  77  80
ATOM     80  S   UNL     1       1.630  12.953   5.035  1.00  0.00     0.127 S 
ATOM     81  O   UNL     1       2.081  13.194   6.404  1.00  0.00    -0.237 OA
ATOM     82  O   UNL     1       0.295  13.471   4.727  1.00  0.00    -0.237 OA
ATOM     83  O   UNL     1       1.893  11.625   4.503  1.00  0.00    -0.744 OA
ENDBRANCH  77  80
ENDBRANCH  49  73
BRANCH  61  84
ATOM     84  C   UNL     1      11.306  15.788   2.271  1.00  0.00     0.023 A 
ATOM     85  C   UNL     1      11.643  15.412   3.586  1.00  0.00     0.012 A 
ATOM     86  C   UNL     1      11.876  16.950   1.714  1.00  0.00     0.148 A 
ATOM     87  C   UNL     1      12.507  16.199   4.347  1.00  0.00     0.002 A 
ATOM     88  C   UNL     1      12.775  17.701   2.461  1.00  0.00     0.091 A 
ATOM     89  F   UNL     1      11.527  17.302   0.468  1.00  0.00    -0.205 F 
ATOM     90  C   UNL     1      13.082  17.335   3.781  1.00  0.00     0.022 A 
BRANCH  88  91
ATOM     91  S   UNL     1      13.636  19.121   1.776  1.00  0.00     0.127 S 
ATOM     92  O   UNL     1      12.920  20.233   2.398  1.00  0.00    -0.237 OA
ATOM     93  O   UNL     1      15.001  18.925   2.266  1.00  0.00    -0.237 OA
ATOM     94  O   UNL     1      13.495  19.013   0.330  1.00  0.00    -0.744 OA
ENDBRANCH  88  91
ENDBRANCH  61  84
ENDBRANCH  35  36
ENDBRANCH  27  30
ENDBRANCH  25  26
ENDBRANCH  24  25
ENDBRANCH  23  24
ENDBRANCH  22  23
ENDBRANCH   1  22
TORSDOF 21
