REMARK SMILES O=C(NCCCCCCNC(=O)c1nnn(-c2cccc(C(F)(F)F)c2)c1[C@@H]1COc2ccccc2O1)c1ccc(-c2c3nc(c(-c4cccc(S(=O)(=O)[O-])c4F)c4ccc([nH]4)c(-c4cccc(S(=O)(=O)[O-])c4F)c4nc(c(-c5cccc(S(=O)(=O)[O-])c5F)c5ccc2[nH]5)C=C4)C=C3)cc1
REMARK SMILES IDX 6 1 5 2 4 3 3 4 1 5 2 6 38 8 39 9 100 10 40 11 99 12 41 13
REMARK SMILES IDX 42 14 43 15 93 16 44 17 98 18 92 19 94 20 45 21 97 22 91 23
REMARK SMILES IDX 90 24 46 26 78 27 58 28 77 29 59 30 62 31 76 32 95 33 60 34
REMARK SMILES IDX 61 35 75 37 96 38 63 39 47 40 48 41 56 42 49 43 51 44 57 45
REMARK SMILES IDX 50 46 52 47 53 48 54 49 55 50 79 51 80 52 88 53 81 54 83 55
REMARK SMILES IDX 89 56 82 57 84 58 85 59 86 60 87 61 64 62 65 63 73 64 66 65
REMARK SMILES IDX 68 66 74 67 67 68 69 69 70 70 71 71 72 72 7 73 8 74 9 75
REMARK SMILES IDX 10 76 11 77 12 79 13 80 14 81 27 82 15 83 16 84 28 85 29 86
REMARK SMILES IDX 37 87 30 88 36 89 31 90 35 91 32 92 34 93 33 94 17 95 18 96
REMARK SMILES IDX 26 97 19 98 21 99 20 100 22 101 23 102 24 103 25 104
REMARK H PARENT 3 7 94 25 62 36 10 78
REMARK Flexibility Score: inf
ROOT
ATOM      1  C   UNL     1       4.001  -1.340  -3.361  1.00  0.00     0.002 C 
ENDROOT
BRANCH   1   2
ATOM      2  C   UNL     1       4.680  -1.169  -1.997  1.00  0.00     0.021 C 
BRANCH   2   3
ATOM      3  C   UNL     1       4.662   0.246  -1.419  1.00  0.00     0.116 C 
BRANCH   3   4
ATOM      4  N   UNL     1       3.348   0.829  -1.252  1.00  0.00    -0.352 N 
ATOM      5  O   UNL     1       1.361   1.403  -0.462  1.00  0.00    -0.269 OA
ATOM      6  C   UNL     1       2.344   0.671  -0.336  1.00  0.00     0.251 C 
ATOM      7  H   UNL     1       3.128   1.484  -1.952  1.00  0.00     0.163 HD
BRANCH   6   8
ATOM      8  C   UNL     1       2.349  -0.369   0.720  1.00  0.00     0.039 A 
ATOM      9  C   UNL     1       3.500  -0.931   1.278  1.00  0.00     0.014 A 
ATOM     10  C   UNL     1       1.091  -0.802   1.166  1.00  0.00     0.014 A 
ATOM     11  C   UNL     1       3.405  -2.003   2.155  1.00  0.00     0.010 A 
ATOM     12  C   UNL     1       0.989  -1.840   2.079  1.00  0.00     0.010 A 
ATOM     13  C   UNL     1       2.150  -2.475   2.527  1.00  0.00    -0.014 A 
BRANCH  13  14
ATOM     14  C   UNL     1       2.079  -3.578   3.480  1.00  0.00     0.031 A 
ATOM     15  C   UNL     1       2.538  -3.274   4.871  1.00  0.00     0.074 A 
ATOM     16  C   UNL     1       1.439  -4.721   3.160  1.00  0.00     0.049 A 
ATOM     17  N   UNL     1       3.343  -3.949   5.632  1.00  0.00    -0.248 NA
ATOM     18  C   UNL     1       2.088  -2.001   5.462  1.00  0.00     0.031 C 
ATOM     19  C   UNL     1       0.690  -4.997   1.928  1.00  0.00     0.029 A 
ATOM     20  N   UNL     1       1.154  -5.798   3.947  1.00  0.00    -0.354 N 
ATOM     21  C   UNL     1       3.337  -3.292   6.865  1.00  0.00     0.074 A 
ATOM     22  C   UNL     1       2.667  -2.035   6.661  1.00  0.00     0.031 C 
ATOM     23  C   UNL     1      -0.185  -5.996   2.164  1.00  0.00     0.029 A 
ATOM     24  C   UNL     1       0.034  -6.498   3.508  1.00  0.00     0.049 A 
ATOM     25  H   UNL     1       1.681  -6.051   4.738  1.00  0.00     0.167 HD
ATOM     26  C   UNL     1       3.691  -3.898   8.032  1.00  0.00     0.034 A 
ATOM     27  C   UNL     1      -0.741  -7.327   4.246  1.00  0.00     0.034 A 
ATOM     28  C   UNL     1       4.464  -5.087   7.827  1.00  0.00     0.049 A 
ATOM     29  C   UNL     1       0.033  -7.731   5.440  1.00  0.00     0.074 A 
ATOM     30  C   UNL     1       5.679  -5.383   7.245  1.00  0.00     0.029 A 
ATOM     31  N   UNL     1       3.833  -6.293   8.004  1.00  0.00    -0.354 N 
ATOM     32  N   UNL     1       1.111  -8.462   5.392  1.00  0.00    -0.248 NA
ATOM     33  C   UNL     1      -0.164  -6.984   6.670  1.00  0.00     0.031 C 
ATOM     34  C   UNL     1       5.499  -6.670   6.660  1.00  0.00     0.029 A 
ATOM     35  C   UNL     1       4.195  -7.080   6.945  1.00  0.00     0.049 A 
ATOM     36  H   UNL     1       3.237  -6.542   8.747  1.00  0.00     0.167 HD
ATOM     37  C   UNL     1       1.932  -7.940   6.383  1.00  0.00     0.074 A 
ATOM     38  C   UNL     1       1.051  -7.117   7.208  1.00  0.00     0.031 C 
ATOM     39  C   UNL     1       3.293  -7.988   6.273  1.00  0.00     0.034 A 
BRANCH  26  40
ATOM     40  C   UNL     1       3.063  -3.587   9.370  1.00  0.00     0.023 A 
ATOM     41  C   UNL     1       3.690  -4.088  10.532  1.00  0.00     0.012 A 
ATOM     42  C   UNL     1       1.755  -3.071   9.517  1.00  0.00     0.148 A 
ATOM     43  C   UNL     1       3.035  -4.102  11.770  1.00  0.00     0.002 A 
ATOM     44  C   UNL     1       1.141  -3.013  10.763  1.00  0.00     0.091 A 
ATOM     45  F   UNL     1       1.036  -2.757   8.433  1.00  0.00    -0.205 F 
ATOM     46  C   UNL     1       1.764  -3.554  11.889  1.00  0.00     0.022 A 
BRANCH  44  47
ATOM     47  S   UNL     1      -0.475  -2.257  10.964  1.00  0.00     0.127 S 
ATOM     48  O   UNL     1      -1.347  -3.426  10.968  1.00  0.00    -0.237 OA
ATOM     49  O   UNL     1      -0.337  -1.581  12.255  1.00  0.00    -0.237 OA
ATOM     50  O   UNL     1      -0.607  -1.348   9.832  1.00  0.00    -0.744 OA
ENDBRANCH  44  47
ENDBRANCH  26  40
BRANCH  27  51
ATOM     51  C   UNL     1      -2.205  -7.524   4.138  1.00  0.00     0.023 A 
ATOM     52  C   UNL     1      -2.792  -8.712   4.610  1.00  0.00     0.012 A 
ATOM     53  C   UNL     1      -3.057  -6.454   3.780  1.00  0.00     0.148 A 
ATOM     54  C   UNL     1      -4.184  -8.828   4.724  1.00  0.00     0.002 A 
ATOM     55  C   UNL     1      -4.438  -6.582   3.872  1.00  0.00     0.091 A 
ATOM     56  F   UNL     1      -2.511  -5.279   3.436  1.00  0.00    -0.205 F 
ATOM     57  C   UNL     1      -5.006  -7.766   4.354  1.00  0.00     0.022 A 
BRANCH  55  58
ATOM     58  S   UNL     1      -5.552  -5.252   3.399  1.00  0.00     0.127 S 
ATOM     59  O   UNL     1      -6.540  -5.960   2.583  1.00  0.00    -0.237 OA
ATOM     60  O   UNL     1      -6.044  -4.792   4.694  1.00  0.00    -0.237 OA
ATOM     61  O   UNL     1      -4.738  -4.300   2.653  1.00  0.00    -0.744 OA
ENDBRANCH  55  58
ENDBRANCH  27  51
BRANCH  39  62
ATOM     62  C   UNL     1       3.889  -8.799   5.147  1.00  0.00     0.023 A 
ATOM     63  C   UNL     1       3.667  -8.452   3.797  1.00  0.00     0.012 A 
ATOM     64  C   UNL     1       4.841  -9.788   5.444  1.00  0.00     0.148 A 
ATOM     65  C   UNL     1       4.354  -9.093   2.765  1.00  0.00     0.002 A 
ATOM     66  C   UNL     1       5.556 -10.394   4.415  1.00  0.00     0.091 A 
ATOM     67  F   UNL     1       5.059 -10.093   6.731  1.00  0.00    -0.205 F 
ATOM     68  C   UNL     1       5.309 -10.056   3.075  1.00  0.00     0.022 A 
BRANCH  66  69
ATOM     69  S   UNL     1       6.896 -11.541   4.747  1.00  0.00     0.127 S 
ATOM     70  O   UNL     1       6.306 -12.821   4.348  1.00  0.00    -0.237 OA
ATOM     71  O   UNL     1       7.951 -11.054   3.852  1.00  0.00    -0.237 OA
ATOM     72  O   UNL     1       7.205 -11.406   6.158  1.00  0.00    -0.744 OA
ENDBRANCH  66  69
ENDBRANCH  39  62
ENDBRANCH  13  14
ENDBRANCH   6   8
ENDBRANCH   3   4
ENDBRANCH   2   3
ENDBRANCH   1   2
BRANCH   1  73
ATOM     73  C   UNL     1       4.373  -0.331  -4.455  1.00  0.00     0.002 C 
BRANCH  73  74
ATOM     74  C   UNL     1       5.863  -0.127  -4.713  1.00  0.00     0.021 C 
BRANCH  74  75
ATOM     75  C   UNL     1       6.639  -1.350  -5.180  1.00  0.00     0.116 C 
BRANCH  75  76
ATOM     76  N   UNL     1       6.682  -1.555  -6.603  1.00  0.00    -0.351 N 
ATOM     77  C   UNL     1       7.665  -1.929  -7.494  1.00  0.00     0.273 C 
ATOM     78  H   UNL     1       5.814  -1.392  -7.038  1.00  0.00     0.163 HD
ATOM     79  O   UNL     1       7.282  -1.915  -8.670  1.00  0.00    -0.267 OA
BRANCH  77  80
ATOM     80  C   UNL     1       9.067  -2.308  -7.191  1.00  0.00     0.178 A 
ATOM     81  N   UNL     1       9.936  -2.309  -8.276  1.00  0.00    -0.124 NA
ATOM     82  C   UNL     1       9.827  -2.645  -6.061  1.00  0.00     0.122 A 
ATOM     83  N   UNL     1      11.158  -2.596  -7.869  1.00  0.00    -0.061 NA
ATOM     84  N   UNL     1      11.084  -2.945  -6.576  1.00  0.00    -0.213 N 
BRANCH  82  85
ATOM     85  C   UNL     1       9.569  -2.493  -4.593  1.00  0.00     0.262 C 
ATOM     86  C   UNL     1       9.881  -1.040  -4.164  1.00  0.00     0.281 C 
ATOM     87  O   UNL     1      10.201  -3.493  -3.785  1.00  0.00    -0.477 OA
ATOM     88  O   UNL     1      11.269  -0.848  -3.896  1.00  0.00    -0.485 OA
ATOM     89  C   UNL     1      11.019  -2.987  -2.807  1.00  0.00     0.162 A 
ATOM     90  C   UNL     1      11.607  -1.722  -2.898  1.00  0.00     0.161 A 
ATOM     91  C   UNL     1      11.318  -3.807  -1.726  1.00  0.00     0.050 A 
ATOM     92  C   UNL     1      12.557  -1.305  -1.975  1.00  0.00     0.050 A 
ATOM     93  C   UNL     1      12.227  -3.368  -0.760  1.00  0.00     0.004 A 
ATOM     94  C   UNL     1      12.863  -2.131  -0.897  1.00  0.00     0.004 A 
ENDBRANCH  82  85
BRANCH  84  95
ATOM     95  C   UNL     1      12.204  -3.502  -5.936  1.00  0.00     0.067 A 
ATOM     96  C   UNL     1      13.328  -2.707  -5.698  1.00  0.00     0.028 A 
ATOM     97  C   UNL     1      12.129  -4.813  -5.450  1.00  0.00     0.041 A 
ATOM     98  C   UNL     1      14.337  -3.196  -4.869  1.00  0.00     0.003 A 
ATOM     99  C   UNL     1      13.158  -5.318  -4.643  1.00  0.00     0.058 A 
ATOM    100  C   UNL     1      14.247  -4.486  -4.334  1.00  0.00     0.013 A 
BRANCH  99 101
ATOM    101  C   UNL     1      13.071  -6.707  -4.061  1.00  0.00     0.416 C 
ATOM    102  F   UNL     1      14.216  -7.421  -4.253  1.00  0.00    -0.166 F 
ATOM    103  F   UNL     1      12.853  -6.700  -2.718  1.00  0.00    -0.166 F 
ATOM    104  F   UNL     1      12.072  -7.458  -4.602  1.00  0.00    -0.166 F 
ENDBRANCH  99 101
ENDBRANCH  84  95
ENDBRANCH  77  80
ENDBRANCH  75  76
ENDBRANCH  74  75
ENDBRANCH  73  74
ENDBRANCH   1  73
TORSDOF 19
