REMARK SMILES CS(=O)(=O)c1ccc(/C=C(/C(=O)NCCCCCCNC(=O)c2ccc(-c3c4nc(c(-c5cccc(S(=O)(=O)[O-])c5F)c5ccc([nH]5)c(-c5cccc(S(=O)(=O)[O-])c5F)c5nc(c(-c6cccc(S(=O)(=O)[O-])c6F)c6ccc3[nH]6)C=C5)C=C4)cc2)c2cccc(Br)c2)cc1
REMARK SMILES IDX 17 1 16 2 15 3 14 4 13 5 11 6 12 7 10 9 9 10 8 11 5 12 6 13
REMARK SMILES IDX 94 14 7 15 93 16 2 17 1 18 3 19 4 20 86 21 87 22 92 23 88 24
REMARK SMILES IDX 90 25 89 26 91 27 18 28 19 29 20 30 21 31 22 33 23 34 24 35
REMARK SMILES IDX 85 36 25 37 84 38 26 39 27 40 28 41 78 42 29 43 83 44 77 45
REMARK SMILES IDX 79 46 30 47 82 48 76 49 75 50 31 52 63 53 43 54 62 55 44 56
REMARK SMILES IDX 47 57 61 58 80 59 45 60 46 61 60 63 81 64 48 65 32 66 33 67
REMARK SMILES IDX 41 68 34 69 36 70 42 71 35 72 37 73 38 74 39 75 40 76 64 77
REMARK SMILES IDX 65 78 73 79 66 80 68 81 74 82 67 83 69 84 70 85 71 86 72 87
REMARK SMILES IDX 49 88 50 89 58 90 51 91 53 92 59 93 52 94 54 95 55 96 56 97
REMARK SMILES IDX 57 98
REMARK H PARENT 13 8 20 32 79 51 47 62
REMARK Flexibility Score: inf
ROOT
ATOM      1  C   UNL     1       1.117   9.149  -7.628  1.00  0.00     0.002 C 
ENDROOT
BRANCH   1   2
ATOM      2  C   UNL     1       2.386   8.557  -7.003  1.00  0.00     0.002 C 
BRANCH   2   3
ATOM      3  C   UNL     1       2.151   7.315  -6.128  1.00  0.00     0.021 C 
BRANCH   3   4
ATOM      4  C   UNL     1       1.512   6.153  -6.895  1.00  0.00     0.116 C 
BRANCH   4   5
ATOM      5  N   UNL     1       2.505   5.557  -7.767  1.00  0.00    -0.352 N 
ATOM      6  C   UNL     1       3.257   4.429  -7.720  1.00  0.00     0.251 C 
ATOM      7  O   UNL     1       4.101   4.311  -8.613  1.00  0.00    -0.269 OA
ATOM      8  H   UNL     1       2.671   6.092  -8.577  1.00  0.00     0.163 HD
BRANCH   6   9
ATOM      9  C   UNL     1       3.040   3.312  -6.722  1.00  0.00     0.047 C 
ATOM     10  C   UNL     1       2.608   3.529  -5.458  1.00  0.00     0.022 C 
BRANCH  10  11
ATOM     11  C   UNL     1       2.171   2.555  -4.429  1.00  0.00    -0.025 A 
ATOM     12  C   UNL     1       1.082   0.712  -2.610  1.00  0.00     0.067 A 
ATOM     13  C   UNL     1       2.276   0.417  -3.269  1.00  0.00     0.021 A 
ATOM     14  C   UNL     1       0.439   1.930  -2.821  1.00  0.00     0.021 A 
ATOM     15  C   UNL     1       2.834   1.356  -4.142  1.00  0.00     0.009 A 
ATOM     16  C   UNL     1       0.986   2.845  -3.727  1.00  0.00     0.009 A 
BRANCH  12  17
ATOM     17  S   UNL     1       0.361  -0.495  -1.525  1.00  0.00     0.175 S 
ATOM     18  C   UNL     1       0.959  -0.001   0.070  1.00  0.00     0.163 C 
ATOM     19  O   UNL     1       0.950  -1.781  -1.844  1.00  0.00    -0.224 OA
ATOM     20  O   UNL     1      -1.078  -0.311  -1.554  1.00  0.00    -0.224 OA
ENDBRANCH  12  17
ENDBRANCH  10  11
BRANCH   9  21
ATOM     21  C   UNL     1       3.503   1.963  -7.141  1.00  0.00    -0.012 A 
ATOM     22  C   UNL     1       4.887   1.763  -7.304  1.00  0.00     0.009 A 
ATOM     23  C   UNL     1       2.638   0.869  -7.272  1.00  0.00     0.024 A 
ATOM     24  C   UNL     1       5.406   0.494  -7.551  1.00  0.00     0.002 A 
ATOM     25  C   UNL     1       3.170  -0.405  -7.487  1.00  0.00     0.018 A 
ATOM     26  C   UNL     1       4.546  -0.597  -7.624  1.00  0.00     0.016 A 
ATOM     27  Br  UNL     1       2.020  -1.906  -7.522  1.00  0.00    -0.051 Br
ENDBRANCH   9  21
ENDBRANCH   6   9
ENDBRANCH   4   5
ENDBRANCH   3   4
ENDBRANCH   2   3
ENDBRANCH   1   2
BRANCH   1  28
ATOM     28  C   UNL     1       0.004   9.467  -6.626  1.00  0.00     0.021 C 
BRANCH  28  29
ATOM     29  C   UNL     1       0.401  10.488  -5.565  1.00  0.00     0.116 C 
BRANCH  29  30
ATOM     30  N   UNL     1       0.693  11.785  -6.157  1.00  0.00    -0.352 N 
ATOM     31  C   UNL     1       0.119  13.003  -5.891  1.00  0.00     0.251 C 
ATOM     32  H   UNL     1       1.400  11.790  -6.841  1.00  0.00     0.163 HD
ATOM     33  O   UNL     1       0.306  13.950  -6.649  1.00  0.00    -0.269 OA
BRANCH  31  34
ATOM     34  C   UNL     1      -0.730  13.162  -4.693  1.00  0.00     0.039 A 
ATOM     35  C   UNL     1      -1.937  13.856  -4.803  1.00  0.00     0.014 A 
ATOM     36  C   UNL     1      -0.331  12.629  -3.464  1.00  0.00     0.014 A 
ATOM     37  C   UNL     1      -2.767  13.974  -3.687  1.00  0.00     0.010 A 
ATOM     38  C   UNL     1      -1.196  12.677  -2.376  1.00  0.00     0.010 A 
ATOM     39  C   UNL     1      -2.417  13.361  -2.472  1.00  0.00    -0.014 A 
BRANCH  39  40
ATOM     40  C   UNL     1      -3.319  13.421  -1.294  1.00  0.00     0.031 A 
ATOM     41  C   UNL     1      -2.868  14.085  -0.023  1.00  0.00     0.074 A 
ATOM     42  C   UNL     1      -4.515  12.801  -1.343  1.00  0.00     0.049 A 
ATOM     43  N   UNL     1      -3.499  14.196   1.117  1.00  0.00    -0.248 NA
ATOM     44  C   UNL     1      -1.520  14.678  -0.021  1.00  0.00     0.031 C 
ATOM     45  C   UNL     1      -5.030  12.049  -2.489  1.00  0.00     0.029 A 
ATOM     46  N   UNL     1      -5.500  12.680  -0.396  1.00  0.00    -0.354 N 
ATOM     47  C   UNL     1      -2.615  14.831   1.981  1.00  0.00     0.074 A 
ATOM     48  C   UNL     1      -1.391  15.053   1.244  1.00  0.00     0.031 C 
ATOM     49  C   UNL     1      -6.236  11.549  -2.180  1.00  0.00     0.029 A 
ATOM     50  C   UNL     1      -6.565  11.911  -0.805  1.00  0.00     0.049 A 
ATOM     51  H   UNL     1      -5.450  13.103   0.491  1.00  0.00     0.167 HD
ATOM     52  C   UNL     1      -2.811  15.216   3.264  1.00  0.00     0.034 A 
ATOM     53  C   UNL     1      -7.674  11.526  -0.144  1.00  0.00     0.034 A 
ATOM     54  C   UNL     1      -4.042  15.023   3.982  1.00  0.00     0.049 A 
ATOM     55  C   UNL     1      -7.887  12.000   1.267  1.00  0.00     0.074 A 
ATOM     56  C   UNL     1      -4.378  15.468   5.248  1.00  0.00     0.029 A 
ATOM     57  N   UNL     1      -5.133  14.310   3.507  1.00  0.00    -0.354 N 
ATOM     58  N   UNL     1      -7.107  12.746   2.012  1.00  0.00    -0.248 NA
ATOM     59  C   UNL     1      -9.147  11.612   1.915  1.00  0.00     0.031 C 
ATOM     60  C   UNL     1      -5.654  14.986   5.557  1.00  0.00     0.029 A 
ATOM     61  C   UNL     1      -6.133  14.282   4.464  1.00  0.00     0.049 A 
ATOM     62  H   UNL     1      -5.187  13.886   2.620  1.00  0.00     0.167 HD
ATOM     63  C   UNL     1      -7.795  12.944   3.204  1.00  0.00     0.074 A 
ATOM     64  C   UNL     1      -9.063  12.257   3.072  1.00  0.00     0.031 C 
ATOM     65  C   UNL     1      -7.407  13.627   4.309  1.00  0.00     0.034 A 
BRANCH  52  66
ATOM     66  C   UNL     1      -1.674  15.910   3.970  1.00  0.00     0.023 A 
ATOM     67  C   UNL     1      -1.288  17.208   3.577  1.00  0.00     0.012 A 
ATOM     68  C   UNL     1      -1.018  15.295   5.054  1.00  0.00     0.148 A 
ATOM     69  C   UNL     1      -0.240  17.865   4.222  1.00  0.00     0.002 A 
ATOM     70  C   UNL     1      -0.009  15.975   5.725  1.00  0.00     0.091 A 
ATOM     71  F   UNL     1      -1.383  14.052   5.401  1.00  0.00    -0.205 F 
ATOM     72  C   UNL     1       0.391  17.253   5.301  1.00  0.00     0.022 A 
BRANCH  70  73
ATOM     73  S   UNL     1       0.807  15.307   7.178  1.00  0.00     0.127 S 
ATOM     74  O   UNL     1       2.142  15.014   6.658  1.00  0.00    -0.237 OA
ATOM     75  O   UNL     1       0.750  16.436   8.108  1.00  0.00    -0.237 OA
ATOM     76  O   UNL     1       0.025  14.147   7.582  1.00  0.00    -0.744 OA
ENDBRANCH  70  73
ENDBRANCH  52  66
BRANCH  53  77
ATOM     77  C   UNL     1      -8.685  10.678  -0.833  1.00  0.00     0.023 A 
ATOM     78  C   UNL     1      -9.934  11.225  -1.186  1.00  0.00     0.012 A 
ATOM     79  C   UNL     1      -8.397   9.343  -1.176  1.00  0.00     0.148 A 
ATOM     80  C   UNL     1     -10.888  10.449  -1.845  1.00  0.00     0.002 A 
ATOM     81  C   UNL     1      -9.329   8.594  -1.884  1.00  0.00     0.091 A 
ATOM     82  F   UNL     1      -7.205   8.841  -0.824  1.00  0.00    -0.205 F 
ATOM     83  C   UNL     1     -10.583   9.139  -2.203  1.00  0.00     0.022 A 
BRANCH  81  84
ATOM     84  S   UNL     1      -8.969   6.949  -2.507  1.00  0.00     0.127 S 
ATOM     85  O   UNL     1      -9.879   6.124  -1.716  1.00  0.00    -0.237 OA
ATOM     86  O   UNL     1      -9.324   7.081  -3.921  1.00  0.00    -0.237 OA
ATOM     87  O   UNL     1      -7.549   6.734  -2.261  1.00  0.00    -0.744 OA
ENDBRANCH  81  84
ENDBRANCH  53  77
BRANCH  65  88
ATOM     88  C   UNL     1      -8.377  13.703   5.460  1.00  0.00     0.023 A 
ATOM     89  C   UNL     1      -8.644  12.559   6.239  1.00  0.00     0.012 A 
ATOM     90  C   UNL     1      -8.968  14.933   5.813  1.00  0.00     0.148 A 
ATOM     91  C   UNL     1      -9.512  12.631   7.328  1.00  0.00     0.002 A 
ATOM     92  C   UNL     1      -9.788  15.008   6.932  1.00  0.00     0.091 A 
ATOM     93  F   UNL     1      -8.715  16.006   5.050  1.00  0.00    -0.205 F 
ATOM     94  C   UNL     1     -10.073  13.855   7.681  1.00  0.00     0.022 A 
BRANCH  92  95
ATOM     95  S   UNL     1     -10.473  16.560   7.522  1.00  0.00     0.127 S 
ATOM     96  O   UNL     1     -11.893  16.393   7.218  1.00  0.00    -0.237 OA
ATOM     97  O   UNL     1     -10.146  16.520   8.947  1.00  0.00    -0.237 OA
ATOM     98  O   UNL     1      -9.795  17.610   6.774  1.00  0.00    -0.744 OA
ENDBRANCH  92  95
ENDBRANCH  65  88
ENDBRANCH  39  40
ENDBRANCH  31  34
ENDBRANCH  29  30
ENDBRANCH  28  29
ENDBRANCH   1  28
TORSDOF 19
