REMARK SMILES O=C(NCCCCCCNC(=O)c1ccc(-c2c3nc(c(-c4cccc(S(=O)(=O)[O-])c4F)c4ccc([nH]4)c(-c4cccc(S(=O)(=O)[O-])c4F)c4nc(c(-c5cccc(S(=O)(=O)[O-])c5F)c5ccc2[nH]5)C=C4)C=C3)cc1)C1=Cc2c(Cl)ccc(Cl)c2O[C@@H]1C(F)(F)F
REMARK SMILES IDX 7 1 6 2 5 3 4 4 3 5 1 6 2 7 76 9 77 10 87 11 78 12 86 13
REMARK SMILES IDX 79 14 85 15 80 16 81 17 83 18 82 19 84 20 88 21 89 22 90 23
REMARK SMILES IDX 91 24 8 25 9 26 10 27 11 28 12 30 13 31 14 32 75 33 15 34
REMARK SMILES IDX 74 35 16 36 17 37 18 38 68 39 19 40 73 41 67 42 69 43 20 44
REMARK SMILES IDX 72 45 66 46 65 47 21 49 53 50 33 51 52 52 34 53 37 54 51 55
REMARK SMILES IDX 70 56 35 57 36 58 50 60 71 61 38 62 22 63 23 64 31 65 24 66
REMARK SMILES IDX 26 67 32 68 25 69 27 70 28 71 29 72 30 73 54 74 55 75 63 76
REMARK SMILES IDX 56 77 58 78 64 79 57 80 59 81 60 82 61 83 62 84 39 85 40 86
REMARK SMILES IDX 48 87 41 88 43 89 49 90 42 91 44 92 45 93 46 94 47 95
REMARK H PARENT 3 8 10 29 69 48 37 59
REMARK Flexibility Score: inf
ROOT
ATOM      1  C   UNL     1       4.526  -3.288   3.394  1.00  0.00     0.002 C 
ENDROOT
BRANCH   1   2
ATOM      2  C   UNL     1       3.892  -2.034   4.010  1.00  0.00     0.002 C 
BRANCH   2   3
ATOM      3  C   UNL     1       4.250  -0.700   3.361  1.00  0.00     0.021 C 
BRANCH   3   4
ATOM      4  C   UNL     1       3.962  -0.580   1.871  1.00  0.00     0.116 C 
BRANCH   4   5
ATOM      5  N   UNL     1       2.656  -0.046   1.528  1.00  0.00    -0.352 N 
ATOM      6  O   UNL     1       1.049   0.827   0.225  1.00  0.00    -0.270 OA
ATOM      7  C   UNL     1       2.246   0.591   0.389  1.00  0.00     0.251 C 
ATOM      8  H   UNL     1       1.963  -0.160   2.217  1.00  0.00     0.163 HD
BRANCH   7   9
ATOM      9  C   UNL     1       3.187   0.928  -0.721  1.00  0.00     0.067 C 
ATOM     10  C   UNL     1       4.391   1.484  -0.498  1.00  0.00     0.027 C 
ATOM     11  C   UNL     1       3.015   0.036  -1.923  1.00  0.00     0.314 C 
ATOM     12  C   UNL     1       5.511   0.520  -0.726  1.00  0.00     0.037 A 
ATOM     13  O   UNL     1       4.029  -0.999  -1.947  1.00  0.00    -0.474 OA
ATOM     14  C   UNL     1       6.754   0.719  -0.094  1.00  0.00     0.052 A 
ATOM     15  C   UNL     1       5.230  -0.724  -1.330  1.00  0.00     0.148 A 
ATOM     16  Cl  UNL     1       7.145   2.207   0.697  1.00  0.00    -0.084 Cl
ATOM     17  C   UNL     1       7.663  -0.335   0.014  1.00  0.00     0.023 A 
ATOM     18  C   UNL     1       6.149  -1.775  -1.206  1.00  0.00     0.083 A 
ATOM     19  C   UNL     1       7.351  -1.586  -0.521  1.00  0.00     0.026 A 
ATOM     20  Cl  UNL     1       5.771  -3.359  -1.779  1.00  0.00    -0.080 Cl
BRANCH  11  21
ATOM     21  C   UNL     1       2.969   0.826  -3.241  1.00  0.00     0.429 C 
ATOM     22  F   UNL     1       2.644   0.027  -4.285  1.00  0.00    -0.167 F 
ATOM     23  F   UNL     1       2.040   1.812  -3.199  1.00  0.00    -0.167 F 
ATOM     24  F   UNL     1       4.154   1.412  -3.535  1.00  0.00    -0.167 F 
ENDBRANCH  11  21
ENDBRANCH   7   9
ENDBRANCH   4   5
ENDBRANCH   3   4
ENDBRANCH   2   3
ENDBRANCH   1   2
BRANCH   1  25
ATOM     25  C   UNL     1       6.043  -3.263   3.175  1.00  0.00     0.021 C 
BRANCH  25  26
ATOM     26  C   UNL     1       6.898  -2.943   4.399  1.00  0.00     0.116 C 
BRANCH  26  27
ATOM     27  N   UNL     1       6.662  -3.852   5.507  1.00  0.00    -0.352 N 
ATOM     28  C   UNL     1       7.553  -4.565   6.271  1.00  0.00     0.251 C 
ATOM     29  H   UNL     1       5.716  -3.976   5.748  1.00  0.00     0.163 HD
ATOM     30  O   UNL     1       7.130  -5.391   7.075  1.00  0.00    -0.269 OA
BRANCH  28  31
ATOM     31  C   UNL     1       9.014  -4.363   6.122  1.00  0.00     0.039 A 
ATOM     32  C   UNL     1       9.849  -5.484   6.139  1.00  0.00     0.014 A 
ATOM     33  C   UNL     1       9.568  -3.086   6.005  1.00  0.00     0.014 A 
ATOM     34  C   UNL     1      11.229  -5.329   5.989  1.00  0.00     0.010 A 
ATOM     35  C   UNL     1      10.936  -2.938   5.782  1.00  0.00     0.010 A 
ATOM     36  C   UNL     1      11.784  -4.056   5.781  1.00  0.00    -0.014 A 
BRANCH  36  37
ATOM     37  C   UNL     1      13.244  -3.881   5.561  1.00  0.00     0.031 A 
ATOM     38  C   UNL     1      14.073  -3.083   6.531  1.00  0.00     0.074 A 
ATOM     39  C   UNL     1      13.813  -4.379   4.445  1.00  0.00     0.049 A 
ATOM     40  N   UNL     1      15.346  -2.785   6.478  1.00  0.00    -0.248 NA
ATOM     41  C   UNL     1      13.376  -2.523   7.700  1.00  0.00     0.031 C 
ATOM     42  C   UNL     1      13.105  -5.103   3.388  1.00  0.00     0.029 A 
ATOM     43  N   UNL     1      15.111  -4.327   4.000  1.00  0.00    -0.354 N 
ATOM     44  C   UNL     1      15.596  -1.982   7.585  1.00  0.00     0.074 A 
ATOM     45  C   UNL     1      14.333  -1.805   8.269  1.00  0.00     0.031 C 
ATOM     46  C   UNL     1      13.974  -5.425   2.417  1.00  0.00     0.029 A 
ATOM     47  C   UNL     1      15.293  -4.907   2.766  1.00  0.00     0.049 A 
ATOM     48  H   UNL     1      15.841  -3.914   4.515  1.00  0.00     0.167 HD
ATOM     49  C   UNL     1      16.773  -1.464   8.014  1.00  0.00     0.034 A 
ATOM     50  C   UNL     1      16.395  -5.001   1.995  1.00  0.00     0.034 A 
ATOM     51  C   UNL     1      18.032  -1.667   7.349  1.00  0.00     0.049 A 
ATOM     52  C   UNL     1      17.697  -4.448   2.505  1.00  0.00     0.074 A 
ATOM     53  C   UNL     1      19.291  -1.251   7.744  1.00  0.00     0.029 A 
ATOM     54  N   UNL     1      18.193  -2.334   6.144  1.00  0.00    -0.354 N 
ATOM     55  N   UNL     1      17.941  -3.822   3.631  1.00  0.00    -0.248 NA
ATOM     56  C   UNL     1      18.882  -4.647   1.659  1.00  0.00     0.031 C 
ATOM     57  C   UNL     1      20.209  -1.642   6.763  1.00  0.00     0.029 A 
ATOM     58  C   UNL     1      19.527  -2.333   5.774  1.00  0.00     0.049 A 
ATOM     59  H   UNL     1      17.465  -2.748   5.627  1.00  0.00     0.167 HD
ATOM     60  C   UNL     1      19.310  -3.582   3.645  1.00  0.00     0.074 A 
ATOM     61  C   UNL     1      19.845  -4.149   2.423  1.00  0.00     0.031 C 
ATOM     62  C   UNL     1      20.055  -2.938   4.578  1.00  0.00     0.034 A 
BRANCH  49  63
ATOM     63  C   UNL     1      16.757  -0.666   9.294  1.00  0.00     0.023 A 
ATOM     64  C   UNL     1      16.522  -1.322  10.520  1.00  0.00     0.012 A 
ATOM     65  C   UNL     1      17.012   0.719   9.292  1.00  0.00     0.148 A 
ATOM     66  C   UNL     1      16.496  -0.608  11.717  1.00  0.00     0.002 A 
ATOM     67  C   UNL     1      17.033   1.416  10.495  1.00  0.00     0.091 A 
ATOM     68  F   UNL     1      17.215   1.332   8.117  1.00  0.00    -0.205 F 
ATOM     69  C   UNL     1      16.760   0.758  11.706  1.00  0.00     0.022 A 
BRANCH  67  70
ATOM     70  S   UNL     1      17.442   3.163  10.596  1.00  0.00     0.127 S 
ATOM     71  O   UNL     1      16.142   3.753  10.907  1.00  0.00    -0.237 OA
ATOM     72  O   UNL     1      18.404   3.190  11.699  1.00  0.00    -0.237 OA
ATOM     73  O   UNL     1      17.998   3.519   9.299  1.00  0.00    -0.744 OA
ENDBRANCH  67  70
ENDBRANCH  49  63
BRANCH  50  74
ATOM     74  C   UNL     1      16.315  -5.694   0.679  1.00  0.00     0.023 A 
ATOM     75  C   UNL     1      16.934  -6.948   0.512  1.00  0.00     0.012 A 
ATOM     76  C   UNL     1      15.589  -5.137  -0.393  1.00  0.00     0.148 A 
ATOM     77  C   UNL     1      16.856  -7.622  -0.708  1.00  0.00     0.002 A 
ATOM     78  C   UNL     1      15.466  -5.840  -1.585  1.00  0.00     0.091 A 
ATOM     79  F   UNL     1      15.016  -3.939  -0.215  1.00  0.00    -0.205 F 
ATOM     80  C   UNL     1      16.113  -7.075  -1.751  1.00  0.00     0.022 A 
BRANCH  78  81
ATOM     81  S   UNL     1      14.415  -5.279  -2.928  1.00  0.00     0.127 S 
ATOM     82  O   UNL     1      15.397  -4.932  -3.952  1.00  0.00    -0.237 OA
ATOM     83  O   UNL     1      13.623  -6.476  -3.211  1.00  0.00    -0.237 OA
ATOM     84  O   UNL     1      13.645  -4.165  -2.388  1.00  0.00    -0.744 OA
ENDBRANCH  78  81
ENDBRANCH  50  74
BRANCH  62  85
ATOM     85  C   UNL     1      21.540  -2.837   4.339  1.00  0.00     0.023 A 
ATOM     86  C   UNL     1      22.035  -1.974   3.341  1.00  0.00     0.012 A 
ATOM     87  C   UNL     1      22.446  -3.542   5.155  1.00  0.00     0.148 A 
ATOM     88  C   UNL     1      23.408  -1.842   3.136  1.00  0.00     0.002 A 
ATOM     89  C   UNL     1      23.813  -3.366   4.979  1.00  0.00     0.091 A 
ATOM     90  F   UNL     1      21.956  -4.372   6.087  1.00  0.00    -0.205 F 
ATOM     91  C   UNL     1      24.296  -2.527   3.962  1.00  0.00     0.022 A 
BRANCH  89  92
ATOM     92  S   UNL     1      25.030  -4.131   6.057  1.00  0.00     0.127 S 
ATOM     93  O   UNL     1      25.620  -5.136   5.174  1.00  0.00    -0.237 OA
ATOM     94  O   UNL     1      25.911  -3.006   6.375  1.00  0.00    -0.237 OA
ATOM     95  O   UNL     1      24.287  -4.657   7.193  1.00  0.00    -0.744 OA
ENDBRANCH  89  92
ENDBRANCH  62  85
ENDBRANCH  36  37
ENDBRANCH  28  31
ENDBRANCH  26  27
ENDBRANCH  25  26
ENDBRANCH   1  25
TORSDOF 17
