REMARK SMILES CS(=O)(=O)c1ccc(/C=C(/C(=O)NCCCCCCNC(=O)c2ccc(-c3c4nc(c(-c5cccc(S(=O)(=O)[O-])c5F)c5ccc([nH]5)c(-c5cccc(S(=O)(=O)[O-])c5F)c5nc(c(-c6cccc(S(=O)(=O)[O-])c6F)c6ccc3[nH]6)C=C5)C=C4)cc2)c2ccccc2)cc1
REMARK SMILES IDX 17 1 16 2 15 3 14 4 13 5 11 6 12 7 10 9 9 10 8 11 5 12 6 13
REMARK SMILES IDX 93 14 7 15 92 16 2 17 1 18 3 19 4 20 86 21 87 22 91 23 88 24
REMARK SMILES IDX 90 25 89 26 18 27 19 28 20 29 21 30 22 32 23 33 24 34 85 35
REMARK SMILES IDX 25 36 84 37 26 38 27 39 28 40 78 41 29 42 83 43 77 44 79 45
REMARK SMILES IDX 30 46 82 47 76 48 75 49 31 51 63 52 43 53 62 54 44 55 47 56
REMARK SMILES IDX 61 57 80 58 45 59 46 60 60 62 81 63 48 64 32 65 33 66 41 67
REMARK SMILES IDX 34 68 36 69 42 70 35 71 37 72 38 73 39 74 40 75 64 76 65 77
REMARK SMILES IDX 73 78 66 79 68 80 74 81 67 82 69 83 70 84 71 85 72 86 49 87
REMARK SMILES IDX 50 88 58 89 51 90 53 91 59 92 52 93 54 94 55 95 56 96 57 97
REMARK H PARENT 13 8 20 31 79 50 47 61
REMARK Flexibility Score: inf
ROOT
ATOM      1  C   UNL     1       3.838  -7.024   9.979  1.00  0.00     0.002 C 
ENDROOT
BRANCH   1   2
ATOM      2  C   UNL     1       2.417  -6.925   9.412  1.00  0.00     0.002 C 
BRANCH   2   3
ATOM      3  C   UNL     1       2.206  -5.824   8.360  1.00  0.00     0.021 C 
BRANCH   3   4
ATOM      4  C   UNL     1       3.047  -6.012   7.093  1.00  0.00     0.116 C 
BRANCH   4   5
ATOM      5  N   UNL     1       2.535  -7.133   6.326  1.00  0.00    -0.352 N 
ATOM      6  C   UNL     1       1.779  -7.253   5.205  1.00  0.00     0.251 C 
ATOM      7  O   UNL     1       1.463  -8.404   4.891  1.00  0.00    -0.269 OA
ATOM      8  H   UNL     1       2.794  -8.003   6.705  1.00  0.00     0.163 HD
BRANCH   6   9
ATOM      9  C   UNL     1       1.404  -6.091   4.311  1.00  0.00     0.047 C 
ATOM     10  C   UNL     1       1.149  -4.852   4.789  1.00  0.00     0.022 C 
BRANCH  10  11
ATOM     11  C   UNL     1       0.881  -3.603   4.042  1.00  0.00    -0.025 A 
ATOM     12  C   UNL     1       0.541  -1.185   2.654  1.00  0.00     0.067 A 
ATOM     13  C   UNL     1      -0.203  -2.308   2.288  1.00  0.00     0.021 A 
ATOM     14  C   UNL     1       1.414  -1.238   3.739  1.00  0.00     0.021 A 
ATOM     15  C   UNL     1      -0.041  -3.506   2.992  1.00  0.00     0.009 A 
ATOM     16  C   UNL     1       1.582  -2.446   4.426  1.00  0.00     0.009 A 
BRANCH  12  17
ATOM     17  S   UNL     1       0.331   0.326   1.744  1.00  0.00     0.175 S 
ATOM     18  C   UNL     1       1.208   0.026   0.232  1.00  0.00     0.163 C 
ATOM     19  O   UNL     1       1.023   1.380   2.452  1.00  0.00    -0.224 OA
ATOM     20  O   UNL     1      -1.083   0.441   1.424  1.00  0.00    -0.224 OA
ENDBRANCH  12  17
ENDBRANCH  10  11
BRANCH   9  21
ATOM     21  C   UNL     1       1.164  -6.415   2.881  1.00  0.00    -0.013 A 
ATOM     22  C   UNL     1       0.039  -7.187   2.545  1.00  0.00     0.009 A 
ATOM     23  C   UNL     1       1.984  -5.931   1.855  1.00  0.00     0.009 A 
ATOM     24  C   UNL     1      -0.274  -7.454   1.213  1.00  0.00     0.001 A 
ATOM     25  C   UNL     1       1.664  -6.192   0.519  1.00  0.00     0.001 A 
ATOM     26  C   UNL     1       0.535  -6.948   0.200  1.00  0.00     0.000 A 
ENDBRANCH   9  21
ENDBRANCH   6   9
ENDBRANCH   4   5
ENDBRANCH   3   4
ENDBRANCH   2   3
ENDBRANCH   1   2
BRANCH   1  27
ATOM     27  C   UNL     1       4.397  -5.725  10.566  1.00  0.00     0.021 C 
BRANCH  27  28
ATOM     28  C   UNL     1       3.587  -5.146  11.723  1.00  0.00     0.116 C 
BRANCH  28  29
ATOM     29  N   UNL     1       3.609  -6.014  12.890  1.00  0.00    -0.352 N 
ATOM     30  C   UNL     1       3.918  -5.708  14.193  1.00  0.00     0.251 C 
ATOM     31  H   UNL     1       3.369  -6.954  12.723  1.00  0.00     0.163 HD
ATOM     32  O   UNL     1       4.078  -6.612  15.009  1.00  0.00    -0.269 OA
BRANCH  30  33
ATOM     33  C   UNL     1       4.070  -4.297  14.611  1.00  0.00     0.039 A 
ATOM     34  C   UNL     1       5.137  -3.951  15.445  1.00  0.00     0.014 A 
ATOM     35  C   UNL     1       3.148  -3.323  14.213  1.00  0.00     0.014 A 
ATOM     36  C   UNL     1       5.303  -2.623  15.848  1.00  0.00     0.010 A 
ATOM     37  C   UNL     1       3.349  -1.990  14.567  1.00  0.00     0.010 A 
ATOM     38  C   UNL     1       4.419  -1.629  15.399  1.00  0.00    -0.014 A 
BRANCH  38  39
ATOM     39  C   UNL     1       4.596  -0.209  15.798  1.00  0.00     0.031 A 
ATOM     40  C   UNL     1       3.571   0.470  16.664  1.00  0.00     0.074 A 
ATOM     41  C   UNL     1       5.644   0.490  15.320  1.00  0.00     0.049 A 
ATOM     42  N   UNL     1       3.545   1.705  17.096  1.00  0.00    -0.248 NA
ATOM     43  C   UNL     1       2.408  -0.333  17.078  1.00  0.00     0.031 C 
ATOM     44  C   UNL     1       6.659  -0.029  14.402  1.00  0.00     0.029 A 
ATOM     45  N   UNL     1       6.015   1.796  15.521  1.00  0.00    -0.354 N 
ATOM     46  C   UNL     1       2.355   1.837  17.801  1.00  0.00     0.074 A 
ATOM     47  C   UNL     1       1.669   0.566  17.712  1.00  0.00     0.031 C 
ATOM     48  C   UNL     1       7.538   0.947  14.121  1.00  0.00     0.029 A 
ATOM     49  C   UNL     1       7.144   2.163  14.827  1.00  0.00     0.049 A 
ATOM     50  H   UNL     1       5.519   2.413  16.107  1.00  0.00     0.167 HD
ATOM     51  C   UNL     1       1.889   2.906  18.491  1.00  0.00     0.034 A 
ATOM     52  C   UNL     1       7.793   3.343  14.771  1.00  0.00     0.034 A 
ATOM     53  C   UNL     1       2.600   4.149  18.628  1.00  0.00     0.049 A 
ATOM     54  C   UNL     1       7.293   4.492  15.604  1.00  0.00     0.074 A 
ATOM     55  C   UNL     1       2.260   5.256  19.384  1.00  0.00     0.029 A 
ATOM     56  N   UNL     1       3.796   4.449  17.995  1.00  0.00    -0.354 N 
ATOM     57  N   UNL     1       6.258   4.540  16.407  1.00  0.00    -0.248 NA
ATOM     58  C   UNL     1       8.076   5.736  15.558  1.00  0.00     0.031 C 
ATOM     59  C   UNL     1       3.250   6.229  19.204  1.00  0.00     0.029 A 
ATOM     60  C   UNL     1       4.209   5.724  18.341  1.00  0.00     0.049 A 
ATOM     61  H   UNL     1       4.281   3.843  17.389  1.00  0.00     0.167 HD
ATOM     62  C   UNL     1       6.281   5.805  16.984  1.00  0.00     0.074 A 
ATOM     63  C   UNL     1       7.449   6.482  16.458  1.00  0.00     0.031 C 
ATOM     64  C   UNL     1       5.403   6.364  17.854  1.00  0.00     0.034 A 
BRANCH  51  65
ATOM     65  C   UNL     1       0.578   2.751  19.214  1.00  0.00     0.023 A 
ATOM     66  C   UNL     1       0.527   1.966  20.385  1.00  0.00     0.012 A 
ATOM     67  C   UNL     1      -0.585   3.413  18.775  1.00  0.00     0.148 A 
ATOM     68  C   UNL     1      -0.666   1.817  21.090  1.00  0.00     0.002 A 
ATOM     69  C   UNL     1      -1.763   3.289  19.505  1.00  0.00     0.091 A 
ATOM     70  F   UNL     1      -0.525   4.134  17.647  1.00  0.00    -0.205 F 
ATOM     71  C   UNL     1      -1.808   2.485  20.656  1.00  0.00     0.022 A 
BRANCH  69  72
ATOM     72  S   UNL     1      -3.267   4.169  19.065  1.00  0.00     0.127 S 
ATOM     73  O   UNL     1      -4.076   3.098  18.485  1.00  0.00    -0.237 OA
ATOM     74  O   UNL     1      -3.737   4.651  20.365  1.00  0.00    -0.237 OA
ATOM     75  O   UNL     1      -2.858   5.220  18.144  1.00  0.00    -0.744 OA
ENDBRANCH  69  72
ENDBRANCH  51  65
BRANCH  52  76
ATOM     76  C   UNL     1       9.041   3.463  13.967  1.00  0.00     0.023 A 
ATOM     77  C   UNL     1      10.278   3.564  14.633  1.00  0.00     0.012 A 
ATOM     78  C   UNL     1       9.018   3.439  12.560  1.00  0.00     0.148 A 
ATOM     79  C   UNL     1      11.468   3.666  13.911  1.00  0.00     0.002 A 
ATOM     80  C   UNL     1      10.212   3.488  11.848  1.00  0.00     0.091 A 
ATOM     81  F   UNL     1       7.830   3.358  11.943  1.00  0.00    -0.205 F 
ATOM     82  C   UNL     1      11.436   3.617  12.521  1.00  0.00     0.022 A 
BRANCH  80  83
ATOM     83  S   UNL     1      10.267   3.293  10.062  1.00  0.00     0.127 S 
ATOM     84  O   UNL     1      10.480   4.667   9.616  1.00  0.00    -0.237 OA
ATOM     85  O   UNL     1      11.415   2.402   9.885  1.00  0.00    -0.237 OA
ATOM     86  O   UNL     1       8.989   2.694   9.699  1.00  0.00    -0.744 OA
ENDBRANCH  80  83
ENDBRANCH  52  76
BRANCH  64  87
ATOM     87  C   UNL     1       5.676   7.773  18.308  1.00  0.00     0.023 A 
ATOM     88  C   UNL     1       5.446   8.844  17.422  1.00  0.00     0.012 A 
ATOM     89  C   UNL     1       6.092   8.043  19.626  1.00  0.00     0.148 A 
ATOM     90  C   UNL     1       5.655  10.160  17.831  1.00  0.00     0.002 A 
ATOM     91  C   UNL     1       6.257   9.361  20.040  1.00  0.00     0.091 A 
ATOM     92  F   UNL     1       6.329   7.011  20.450  1.00  0.00    -0.205 F 
ATOM     93  C   UNL     1       6.049  10.419  19.141  1.00  0.00     0.022 A 
BRANCH  91  94
ATOM     94  S   UNL     1       6.675   9.779  21.737  1.00  0.00     0.127 S 
ATOM     95  O   UNL     1       8.113  10.022  21.640  1.00  0.00    -0.237 OA
ATOM     96  O   UNL     1       5.869  10.977  21.976  1.00  0.00    -0.237 OA
ATOM     97  O   UNL     1       6.280   8.624  22.534  1.00  0.00    -0.744 OA
ENDBRANCH  91  94
ENDBRANCH  64  87
ENDBRANCH  38  39
ENDBRANCH  30  33
ENDBRANCH  28  29
ENDBRANCH  27  28
ENDBRANCH   1  27
TORSDOF 19
