REMARK SMILES C[C@H](c1ccc(C(=O)NCCCCCCNC(=O)c2ccc(-c3c4nc(c(-c5cccc(S(=O)(=O)[O-])c5F)c5ccc([nH]5)c(-c5cccc(S(=O)(=O)[O-])c5F)c5nc(c(-c6cccc(S(=O)(=O)[O-])c6F)c6ccc3[nH]6)C=C5)C=C4)cc2)o1)[NH+]1Cc2ccccc2C1
REMARK SMILES IDX 13 1 12 2 11 3 10 4 9 5 7 6 8 7 6 9 3 10 4 11 82 12 5 13
REMARK SMILES IDX 2 14 1 15 83 16 84 17 91 18 85 20 90 21 86 22 89 23 87 24
REMARK SMILES IDX 88 25 14 26 15 27 16 28 17 29 18 31 19 32 20 33 81 34 21 35
REMARK SMILES IDX 80 36 22 37 23 38 24 39 74 40 25 41 79 42 73 43 75 44 26 45
REMARK SMILES IDX 78 46 72 47 71 48 27 50 59 51 39 52 58 53 40 54 43 55 57 56
REMARK SMILES IDX 76 57 41 58 42 59 56 61 77 62 44 63 28 64 29 65 37 66 30 67
REMARK SMILES IDX 32 68 38 69 31 70 33 71 34 72 35 73 36 74 60 75 61 76 69 77
REMARK SMILES IDX 62 78 64 79 70 80 63 81 65 82 66 83 67 84 68 85 45 86 46 87
REMARK SMILES IDX 54 88 47 89 49 90 55 91 48 92 50 93 51 94 52 95 53 96
REMARK H PARENT 9 8 83 19 16 30 75 49 43 60
REMARK Flexibility Score: inf
ROOT
ATOM      1  C   UNL     1       3.516  -0.780   7.537  1.00  0.00     0.002 C 
ENDROOT
BRANCH   1   2
ATOM      2  C   UNL     1       4.280  -0.917   6.213  1.00  0.00     0.002 C 
BRANCH   2   3
ATOM      3  C   UNL     1       3.410  -1.317   5.015  1.00  0.00     0.021 C 
BRANCH   3   4
ATOM      4  C   UNL     1       2.272  -0.332   4.753  1.00  0.00     0.116 C 
BRANCH   4   5
ATOM      5  N   UNL     1       2.749   0.813   4.008  1.00  0.00    -0.349 N 
ATOM      6  C   UNL     1       2.578   1.145   2.685  1.00  0.00     0.287 C 
ATOM      7  O   UNL     1       3.032   2.239   2.339  1.00  0.00    -0.266 OA
ATOM      8  H   UNL     1       3.280   1.456   4.532  1.00  0.00     0.163 HD
BRANCH   6   9
ATOM      9  C   UNL     1       1.901   0.241   1.776  1.00  0.00     0.191 A 
ATOM     10  C   UNL     1       0.873  -0.228  -0.129  1.00  0.00     0.162 A 
ATOM     11  C   UNL     1       0.974  -1.416   0.565  1.00  0.00     0.053 A 
ATOM     12  O   UNL     1       1.418   0.781   0.608  1.00  0.00    -0.450 OA
ATOM     13  C   UNL     1       1.658  -1.122   1.761  1.00  0.00     0.057 A 
BRANCH  10  14
ATOM     14  C   UNL     1       0.525   0.090  -1.559  1.00  0.00     0.248 C 
ATOM     15  C   UNL     1       1.616  -0.619  -2.406  1.00  0.00     0.084 C 
BRANCH  14  16
ATOM     16  N   UNL     1      -0.920  -0.024  -1.957  1.00  0.00    -0.319 N 
ATOM     17  C   UNL     1      -1.738  -0.987  -1.158  1.00  0.00     0.300 C 
ATOM     18  C   UNL     1      -1.072  -0.570  -3.337  1.00  0.00     0.300 C 
ATOM     19  H   UNL     1      -1.241   0.935  -1.828  1.00  0.00     0.349 HD
ATOM     20  C   UNL     1      -1.526  -2.305  -1.835  1.00  0.00     0.015 A 
ATOM     21  C   UNL     1      -1.084  -2.055  -3.138  1.00  0.00     0.015 A 
ATOM     22  C   UNL     1      -1.637  -3.590  -1.342  1.00  0.00     0.010 A 
ATOM     23  C   UNL     1      -0.665  -3.080  -3.961  1.00  0.00     0.010 A 
ATOM     24  C   UNL     1      -1.215  -4.636  -2.164  1.00  0.00     0.001 A 
ATOM     25  C   UNL     1      -0.716  -4.382  -3.455  1.00  0.00     0.001 A 
ENDBRANCH  14  16
ENDBRANCH  10  14
ENDBRANCH   6   9
ENDBRANCH   4   5
ENDBRANCH   3   4
ENDBRANCH   2   3
ENDBRANCH   1   2
BRANCH   1  26
ATOM     26  C   UNL     1       2.679  -2.003   7.919  1.00  0.00     0.021 C 
BRANCH  26  27
ATOM     27  C   UNL     1       3.508  -3.260   8.148  1.00  0.00     0.116 C 
BRANCH  27  28
ATOM     28  N   UNL     1       4.395  -3.106   9.295  1.00  0.00    -0.352 N 
ATOM     29  C   UNL     1       4.465  -3.878  10.426  1.00  0.00     0.251 C 
ATOM     30  H   UNL     1       5.024  -2.350   9.252  1.00  0.00     0.163 HD
ATOM     31  O   UNL     1       5.082  -3.489  11.414  1.00  0.00    -0.269 OA
BRANCH  29  32
ATOM     32  C   UNL     1       3.780  -5.184  10.433  1.00  0.00     0.039 A 
ATOM     33  C   UNL     1       2.951  -5.525  11.504  1.00  0.00     0.014 A 
ATOM     34  C   UNL     1       3.938  -6.050   9.348  1.00  0.00     0.014 A 
ATOM     35  C   UNL     1       2.233  -6.722  11.460  1.00  0.00     0.010 A 
ATOM     36  C   UNL     1       3.163  -7.197   9.270  1.00  0.00     0.010 A 
ATOM     37  C   UNL     1       2.312  -7.551  10.330  1.00  0.00    -0.014 A 
BRANCH  37  38
ATOM     38  C   UNL     1       1.547  -8.817  10.222  1.00  0.00     0.031 A 
ATOM     39  C   UNL     1       2.293 -10.115  10.081  1.00  0.00     0.074 A 
ATOM     40  C   UNL     1       0.204  -8.788  10.121  1.00  0.00     0.049 A 
ATOM     41  N   UNL     1       1.836 -11.304   9.794  1.00  0.00    -0.248 NA
ATOM     42  C   UNL     1       3.757 -10.057  10.246  1.00  0.00     0.031 C 
ATOM     43  C   UNL     1      -0.628  -7.585  10.192  1.00  0.00     0.029 A 
ATOM     44  N   UNL     1      -0.696  -9.800   9.896  1.00  0.00    -0.354 N 
ATOM     45  C   UNL     1       2.954 -12.124   9.695  1.00  0.00     0.074 A 
ATOM     46  C   UNL     1       4.114 -11.290   9.920  1.00  0.00     0.031 C 
ATOM     47  C   UNL     1      -1.913  -7.927  10.004  1.00  0.00     0.029 A 
ATOM     48  C   UNL     1      -1.993  -9.363   9.754  1.00  0.00     0.049 A 
ATOM     49  H   UNL     1      -0.438 -10.749   9.840  1.00  0.00     0.167 HD
ATOM     50  C   UNL     1       3.010 -13.455   9.459  1.00  0.00     0.034 A 
ATOM     51  C   UNL     1      -3.114 -10.039   9.435  1.00  0.00     0.034 A 
ATOM     52  C   UNL     1       1.850 -14.283   9.278  1.00  0.00     0.049 A 
ATOM     53  C   UNL     1      -3.029 -11.524   9.196  1.00  0.00     0.074 A 
ATOM     54  C   UNL     1       1.791 -15.655   9.110  1.00  0.00     0.029 A 
ATOM     55  N   UNL     1       0.546 -13.816   9.235  1.00  0.00    -0.354 N 
ATOM     56  N   UNL     1      -1.976 -12.304   9.225  1.00  0.00    -0.248 NA
ATOM     57  C   UNL     1      -4.288 -12.227   8.912  1.00  0.00     0.031 C 
ATOM     58  C   UNL     1       0.452 -16.013   8.933  1.00  0.00     0.029 A 
ATOM     59  C   UNL     1      -0.326 -14.871   9.037  1.00  0.00     0.049 A 
ATOM     60  H   UNL     1       0.279 -12.873   9.331  1.00  0.00     0.167 HD
ATOM     61  C   UNL     1      -2.451 -13.594   9.018  1.00  0.00     0.074 A 
ATOM     62  C   UNL     1      -3.887 -13.491   8.866  1.00  0.00     0.031 C 
ATOM     63  C   UNL     1      -1.760 -14.758   8.957  1.00  0.00     0.034 A 
BRANCH  50  64
ATOM     64  C   UNL     1       4.368 -14.104   9.418  1.00  0.00     0.023 A 
ATOM     65  C   UNL     1       5.125 -14.223  10.602  1.00  0.00     0.012 A 
ATOM     66  C   UNL     1       4.875 -14.640   8.219  1.00  0.00     0.148 A 
ATOM     67  C   UNL     1       6.382 -14.826  10.585  1.00  0.00     0.002 A 
ATOM     68  C   UNL     1       6.105 -15.287   8.220  1.00  0.00     0.091 A 
ATOM     69  F   UNL     1       4.151 -14.500   7.099  1.00  0.00    -0.205 F 
ATOM     70  C   UNL     1       6.866 -15.367   9.398  1.00  0.00     0.022 A 
BRANCH  68  71
ATOM     71  S   UNL     1       6.778 -16.090   6.762  1.00  0.00     0.127 S 
ATOM     72  O   UNL     1       7.907 -15.218   6.439  1.00  0.00    -0.237 OA
ATOM     73  O   UNL     1       7.153 -17.405   7.282  1.00  0.00    -0.237 OA
ATOM     74  O   UNL     1       5.704 -16.108   5.779  1.00  0.00    -0.744 OA
ENDBRANCH  68  71
ENDBRANCH  50  64
BRANCH  51  75
ATOM     75  C   UNL     1      -4.423  -9.329   9.369  1.00  0.00     0.023 A 
ATOM     76  C   UNL     1      -5.399  -9.589  10.350  1.00  0.00     0.012 A 
ATOM     77  C   UNL     1      -4.699  -8.390   8.357  1.00  0.00     0.148 A 
ATOM     78  C   UNL     1      -6.642  -8.956  10.303  1.00  0.00     0.002 A 
ATOM     79  C   UNL     1      -5.918  -7.722   8.348  1.00  0.00     0.091 A 
ATOM     80  F   UNL     1      -3.759  -8.161   7.429  1.00  0.00    -0.205 F 
ATOM     81  C   UNL     1      -6.898  -8.017   9.308  1.00  0.00     0.022 A 
BRANCH  79  82
ATOM     82  S   UNL     1      -6.289  -6.407   7.181  1.00  0.00     0.127 S 
ATOM     83  O   UNL     1      -7.337  -7.017   6.367  1.00  0.00    -0.237 OA
ATOM     84  O   UNL     1      -6.742  -5.337   8.069  1.00  0.00    -0.237 OA
ATOM     85  O   UNL     1      -5.037  -6.127   6.490  1.00  0.00    -0.744 OA
ENDBRANCH  79  82
ENDBRANCH  51  75
BRANCH  63  86
ATOM     86  C   UNL     1      -2.537 -16.037   8.797  1.00  0.00     0.023 A 
ATOM     87  C   UNL     1      -3.118 -16.369   7.559  1.00  0.00     0.012 A 
ATOM     88  C   UNL     1      -2.588 -16.964   9.859  1.00  0.00     0.148 A 
ATOM     89  C   UNL     1      -3.757 -17.596   7.385  1.00  0.00     0.002 A 
ATOM     90  C   UNL     1      -3.177 -18.206   9.662  1.00  0.00     0.091 A 
ATOM     91  F   UNL     1      -2.042 -16.619  11.034  1.00  0.00    -0.205 F 
ATOM     92  C   UNL     1      -3.772 -18.519   8.430  1.00  0.00     0.022 A 
BRANCH  90  93
ATOM     93  S   UNL     1      -3.150 -19.495  10.912  1.00  0.00     0.127 S 
ATOM     94  O   UNL     1      -4.562 -19.583  11.279  1.00  0.00    -0.237 OA
ATOM     95  O   UNL     1      -2.641 -20.642  10.159  1.00  0.00    -0.237 OA
ATOM     96  O   UNL     1      -2.263 -19.019  11.965  1.00  0.00    -0.744 OA
ENDBRANCH  90  93
ENDBRANCH  63  86
ENDBRANCH  37  38
ENDBRANCH  29  32
ENDBRANCH  27  28
ENDBRANCH  26  27
ENDBRANCH   1  26
TORSDOF 18
