REMARK SMILES COCCCNC(=O)C[N@H+]1CC[C@H](C(=O)NCCCCCCNC(=O)c2ccc(-c3c4nc(c(-c5cccc(S(=O)(=O)[O-])c5F)c5ccc([nH]5)c(-c5cccc(S(=O)(=O)[O-])c5F)c5nc(c(-c6cccc(S(=O)(=O)[O-])c6F)c6ccc3[nH]6)C=C5)C=C4)cc2)[C@@H]1C
REMARK SMILES IDX 18 1 17 2 16 3 14 4 15 5 13 7 10 8 11 9 89 10 12 12 90 13
REMARK SMILES IDX 9 14 7 15 6 16 8 18 5 19 4 20 3 21 2 22 1 23 19 24 20 25
REMARK SMILES IDX 21 26 22 27 23 28 24 29 25 31 26 32 27 33 88 34 28 35 87 36
REMARK SMILES IDX 29 37 30 38 31 39 81 40 32 41 86 42 80 43 82 44 33 45 85 46
REMARK SMILES IDX 79 47 78 48 34 50 66 51 46 52 65 53 47 54 50 55 64 56 83 57
REMARK SMILES IDX 48 58 49 59 63 61 84 62 51 63 35 64 36 65 44 66 37 67 39 68
REMARK SMILES IDX 45 69 38 70 40 71 41 72 42 73 43 74 67 75 68 76 76 77 69 78
REMARK SMILES IDX 71 79 77 80 70 81 72 82 73 83 74 84 75 85 52 86 53 87 61 88
REMARK SMILES IDX 54 89 56 90 62 91 55 92 57 93 58 94 59 95 60 96
REMARK H PARENT 16 6 10 11 6 17 23 30 82 49 50 60
REMARK Flexibility Score: inf
ROOT
ATOM      1  C   UNL     1      -4.209   2.949  -2.275  1.00  0.00     0.021 C 
ENDROOT
BRANCH   1   2
ATOM      2  C   UNL     1      -2.906   2.337  -2.793  1.00  0.00     0.116 C 
BRANCH   2   3
ATOM      3  N   UNL     1      -2.580   2.831  -4.123  1.00  0.00    -0.356 N 
ATOM      4  C   UNL     1      -1.421   3.322  -4.642  1.00  0.00     0.229 C 
ATOM      5  O   UNL     1      -1.428   3.705  -5.812  1.00  0.00    -0.275 OA
ATOM      6  H   UNL     1      -3.330   2.805  -4.760  1.00  0.00     0.163 HD
BRANCH   4   7
ATOM      7  C   UNL     1      -0.175   3.368  -3.782  1.00  0.00     0.142 C 
ATOM      8  N   UNL     1       1.593   4.831  -3.128  1.00  0.00    -0.324 N 
ATOM      9  C   UNL     1       2.034   4.183  -4.364  1.00  0.00     0.263 C 
ATOM     10  C   UNL     1       0.126   4.700  -3.091  1.00  0.00     0.194 C 
ATOM     11  H   UNL     1       1.864   5.814  -3.156  1.00  0.00     0.348 HD
ATOM     12  C   UNL     1       1.091   3.011  -4.567  1.00  0.00     0.081 C 
ATOM     13  C   UNL     1      -0.482   5.937  -3.760  1.00  0.00     0.076 C 
BRANCH   8  14
ATOM     14  C   UNL     1       2.301   4.463  -1.885  1.00  0.00     0.363 C 
BRANCH  14  15
ATOM     15  C   UNL     1       3.088   3.150  -1.893  1.00  0.00     0.275 C 
ATOM     16  N   UNL     1       2.531   1.978  -1.478  1.00  0.00    -0.351 N 
ATOM     17  H   UNL     1       3.116   1.192  -1.566  1.00  0.00     0.163 HD
ATOM     18  O   UNL     1       4.267   3.109  -2.261  1.00  0.00    -0.269 OA
BRANCH  16  19
ATOM     19  C   UNL     1       1.219   1.697  -0.929  1.00  0.00     0.118 C 
BRANCH  19  20
ATOM     20  C   UNL     1       0.523   0.529  -1.642  1.00  0.00     0.050 C 
BRANCH  20  21
ATOM     21  C   UNL     1       1.217  -0.825  -1.521  1.00  0.00     0.161 C 
BRANCH  21  22
ATOM     22  O   UNL     1       0.745  -1.607  -0.433  1.00  0.00    -0.385 OA
ATOM     23  C   UNL     1       1.047  -1.082   0.848  1.00  0.00     0.194 C 
ENDBRANCH  21  22
ENDBRANCH  20  21
ENDBRANCH  19  20
ENDBRANCH  16  19
ENDBRANCH  14  15
ENDBRANCH   8  14
ENDBRANCH   4   7
ENDBRANCH   2   3
ENDBRANCH   1   2
BRANCH   1  24
ATOM     24  C   UNL     1      -5.433   2.724  -3.171  1.00  0.00     0.002 C 
BRANCH  24  25
ATOM     25  C   UNL     1      -5.810   1.259  -3.410  1.00  0.00     0.002 C 
BRANCH  25  26
ATOM     26  C   UNL     1      -6.187   0.474  -2.152  1.00  0.00     0.021 C 
BRANCH  26  27
ATOM     27  C   UNL     1      -7.333   1.070  -1.340  1.00  0.00     0.116 C 
BRANCH  27  28
ATOM     28  N   UNL     1      -8.575   1.147  -2.095  1.00  0.00    -0.352 N 
ATOM     29  C   UNL     1      -9.833   0.728  -1.739  1.00  0.00     0.251 C 
ATOM     30  H   UNL     1      -8.503   1.557  -2.987  1.00  0.00     0.163 HD
ATOM     31  O   UNL     1     -10.739   0.725  -2.572  1.00  0.00    -0.269 OA
BRANCH  29  32
ATOM     32  C   UNL     1     -10.092   0.261  -0.361  1.00  0.00     0.039 A 
ATOM     33  C   UNL     1     -10.823  -0.914  -0.167  1.00  0.00     0.014 A 
ATOM     34  C   UNL     1      -9.605   0.975   0.738  1.00  0.00     0.014 A 
ATOM     35  C   UNL     1     -11.013  -1.405   1.127  1.00  0.00     0.010 A 
ATOM     36  C   UNL     1      -9.728   0.442   2.018  1.00  0.00     0.010 A 
ATOM     37  C   UNL     1     -10.438  -0.749   2.228  1.00  0.00    -0.014 A 
BRANCH  37  38
ATOM     38  C   UNL     1     -10.558  -1.297   3.603  1.00  0.00     0.031 A 
ATOM     39  C   UNL     1     -11.266  -0.513   4.675  1.00  0.00     0.074 A 
ATOM     40  C   UNL     1      -9.952  -2.461   3.911  1.00  0.00     0.049 A 
ATOM     41  N   UNL     1     -11.434  -0.808   5.938  1.00  0.00    -0.248 NA
ATOM     42  C   UNL     1     -11.835   0.786   4.282  1.00  0.00     0.031 C 
ATOM     43  C   UNL     1      -9.176  -3.283   2.981  1.00  0.00     0.029 A 
ATOM     44  N   UNL     1      -9.878  -3.145   5.099  1.00  0.00    -0.354 N 
ATOM     45  C   UNL     1     -12.091   0.281   6.498  1.00  0.00     0.074 A 
ATOM     46  C   UNL     1     -12.256   1.260   5.445  1.00  0.00     0.031 C 
ATOM     47  C   UNL     1      -8.722  -4.370   3.626  1.00  0.00     0.029 A 
ATOM     48  C   UNL     1      -9.143  -4.305   5.022  1.00  0.00     0.049 A 
ATOM     49  H   UNL     1     -10.310  -2.835   5.928  1.00  0.00     0.167 HD
ATOM     50  C   UNL     1     -12.539   0.445   7.766  1.00  0.00     0.034 A 
ATOM     51  C   UNL     1      -8.840  -5.214   5.970  1.00  0.00     0.034 A 
ATOM     52  C   UNL     1     -12.403  -0.545   8.801  1.00  0.00     0.049 A 
ATOM     53  C   UNL     1      -9.363  -5.018   7.367  1.00  0.00     0.074 A 
ATOM     54  C   UNL     1     -12.906  -0.518  10.090  1.00  0.00     0.029 A 
ATOM     55  N   UNL     1     -11.698  -1.732   8.673  1.00  0.00    -0.354 N 
ATOM     56  N   UNL     1     -10.120  -4.057   7.838  1.00  0.00    -0.248 NA
ATOM     57  C   UNL     1      -9.014  -6.048   8.356  1.00  0.00     0.031 C 
ATOM     58  C   UNL     1     -12.472  -1.671  10.752  1.00  0.00     0.029 A 
ATOM     59  C   UNL     1     -11.733  -2.437   9.864  1.00  0.00     0.049 A 
ATOM     60  H   UNL     1     -11.240  -2.031   7.854  1.00  0.00     0.167 HD
ATOM     61  C   UNL     1     -10.375  -4.389   9.165  1.00  0.00     0.074 A 
ATOM     62  C   UNL     1      -9.701  -5.646   9.416  1.00  0.00     0.031 C 
ATOM     63  C   UNL     1     -11.096  -3.709  10.091  1.00  0.00     0.034 A 
BRANCH  50  64
ATOM     64  C   UNL     1     -13.248   1.736   8.092  1.00  0.00     0.023 A 
ATOM     65  C   UNL     1     -14.514   2.003   7.530  1.00  0.00     0.012 A 
ATOM     66  C   UNL     1     -12.675   2.674   8.974  1.00  0.00     0.148 A 
ATOM     67  C   UNL     1     -15.173   3.203   7.797  1.00  0.00     0.002 A 
ATOM     68  C   UNL     1     -13.362   3.845   9.275  1.00  0.00     0.091 A 
ATOM     69  F   UNL     1     -11.463   2.416   9.484  1.00  0.00    -0.205 F 
ATOM     70  C   UNL     1     -14.602   4.118   8.675  1.00  0.00     0.022 A 
BRANCH  68  71
ATOM     71  S   UNL     1     -12.745   5.046  10.459  1.00  0.00     0.127 S 
ATOM     72  O   UNL     1     -12.305   6.128   9.579  1.00  0.00    -0.237 OA
ATOM     73  O   UNL     1     -13.942   5.349  11.244  1.00  0.00    -0.237 OA
ATOM     74  O   UNL     1     -11.690   4.371  11.200  1.00  0.00    -0.744 OA
ENDBRANCH  68  71
ENDBRANCH  50  64
BRANCH  51  75
ATOM     75  C   UNL     1      -8.070  -6.438   5.608  1.00  0.00     0.023 A 
ATOM     76  C   UNL     1      -8.728  -7.683   5.599  1.00  0.00     0.012 A 
ATOM     77  C   UNL     1      -6.711  -6.376   5.246  1.00  0.00     0.148 A 
ATOM     78  C   UNL     1      -8.040  -8.849   5.263  1.00  0.00     0.002 A 
ATOM     79  C   UNL     1      -6.045  -7.534   4.861  1.00  0.00     0.091 A 
ATOM     80  F   UNL     1      -6.103  -5.181   5.267  1.00  0.00    -0.205 F 
ATOM     81  C   UNL     1      -6.703  -8.774   4.885  1.00  0.00     0.022 A 
BRANCH  79  82
ATOM     82  S   UNL     1      -4.359  -7.520   4.242  1.00  0.00     0.127 S 
ATOM     83  O   UNL     1      -3.652  -8.263   5.283  1.00  0.00    -0.237 OA
ATOM     84  O   UNL     1      -4.502  -8.227   2.969  1.00  0.00    -0.237 OA
ATOM     85  O   UNL     1      -3.995  -6.116   4.115  1.00  0.00    -0.744 OA
ENDBRANCH  79  82
ENDBRANCH  51  75
BRANCH  63  86
ATOM     86  C   UNL     1     -11.234  -4.326  11.460  1.00  0.00     0.023 A 
ATOM     87  C   UNL     1     -10.128  -4.368  12.332  1.00  0.00     0.012 A 
ATOM     88  C   UNL     1     -12.484  -4.802  11.907  1.00  0.00     0.148 A 
ATOM     89  C   UNL     1     -10.255  -4.904  13.613  1.00  0.00     0.002 A 
ATOM     90  C   UNL     1     -12.615  -5.285  13.203  1.00  0.00     0.091 A 
ATOM     91  F   UNL     1     -13.520  -4.771  11.057  1.00  0.00    -0.205 F 
ATOM     92  C   UNL     1     -11.499  -5.350  14.052  1.00  0.00     0.022 A 
BRANCH  90  93
ATOM     93  S   UNL     1     -14.197  -5.787  13.889  1.00  0.00     0.127 S 
ATOM     94  O   UNL     1     -14.038  -7.237  13.977  1.00  0.00    -0.237 OA
ATOM     95  O   UNL     1     -14.208  -5.095  15.178  1.00  0.00    -0.237 OA
ATOM     96  O   UNL     1     -15.209  -5.326  12.947  1.00  0.00    -0.744 OA
ENDBRANCH  90  93
ENDBRANCH  63  86
ENDBRANCH  37  38
ENDBRANCH  29  32
ENDBRANCH  27  28
ENDBRANCH  26  27
ENDBRANCH  25  26
ENDBRANCH  24  25
ENDBRANCH   1  24
TORSDOF 22
