REMARK SMILES Cc1ccc(-c2cc3cccnc3n2CCC(=O)NCCCCCCNC(=O)c2ccc(-c3c4nc(c(-c5cccc(S(=O)(=O)[O-])c5F)c5ccc([nH]5)c(-c5cccc(S(=O)(=O)[O-])c5F)c5nc(c(-c6cccc(S(=O)(=O)[O-])c6F)c6ccc3[nH]6)C=C5)C=C4)cc2)cn1
REMARK SMILES IDX 22 1 21 2 20 3 19 4 17 5 18 6 16 8 15 9 14 10 6 11 7 12 8 13
REMARK SMILES IDX 13 14 9 15 12 16 10 17 11 18 5 19 1 20 2 21 3 22 93 23 4 24
REMARK SMILES IDX 92 25 23 26 24 27 25 28 26 29 27 30 28 32 29 33 30 34 91 35
REMARK SMILES IDX 31 36 90 37 32 38 33 39 34 40 84 41 35 42 89 43 83 44 85 45
REMARK SMILES IDX 36 46 88 47 82 48 81 49 37 51 69 52 49 53 68 54 50 55 53 56
REMARK SMILES IDX 67 57 86 58 51 59 52 60 66 62 87 63 54 64 38 65 39 66 47 67
REMARK SMILES IDX 40 68 42 69 48 70 41 71 43 72 44 73 45 74 46 75 70 76 71 77
REMARK SMILES IDX 79 78 72 79 74 80 80 81 73 82 75 83 76 84 77 85 78 86 55 87
REMARK SMILES IDX 56 88 64 89 57 90 59 91 65 92 58 93 60 94 61 95 62 96 63 97
REMARK H PARENT 19 7 26 31 85 50 53 61
REMARK Flexibility Score: inf
ROOT
ATOM      1  C   UNL     1      -1.947   0.036  -2.900  1.00  0.00     0.002 C 
ENDROOT
BRANCH   1   2
ATOM      2  C   UNL     1      -3.045  -0.178  -1.865  1.00  0.00     0.021 C 
BRANCH   2   3
ATOM      3  C   UNL     1      -3.565  -1.589  -1.615  1.00  0.00     0.116 C 
BRANCH   3   4
ATOM      4  N   UNL     1      -2.640  -2.388  -0.826  1.00  0.00    -0.356 N 
ATOM      5  C   UNL     1      -2.727  -2.854   0.451  1.00  0.00     0.221 C 
ATOM      6  O   UNL     1      -1.795  -3.550   0.868  1.00  0.00    -0.275 OA
ATOM      7  H   UNL     1      -1.810  -2.633  -1.295  1.00  0.00     0.163 HD
BRANCH   5   8
ATOM      8  C   UNL     1      -3.905  -2.549   1.355  1.00  0.00     0.122 C 
BRANCH   8   9
ATOM      9  C   UNL     1      -3.761  -1.316   2.262  1.00  0.00     0.134 C 
BRANCH   9  10
ATOM     10  N   UNL     1      -3.976  -0.043   1.594  1.00  0.00    -0.325 N 
ATOM     11  C   UNL     1      -3.063   0.957   1.245  1.00  0.00     0.052 A 
ATOM     12  C   UNL     1      -3.842   1.936   0.605  1.00  0.00     0.039 A 
ATOM     13  C   UNL     1      -5.168   1.460   0.437  1.00  0.00     0.020 A 
ATOM     14  C   UNL     1      -5.246   0.276   1.144  1.00  0.00     0.140 A 
ATOM     15  C   UNL     1      -6.307   1.865  -0.281  1.00  0.00     0.013 A 
ATOM     16  N   UNL     1      -6.338  -0.510   1.290  1.00  0.00    -0.238 NA
ATOM     17  C   UNL     1      -7.456   1.079  -0.175  1.00  0.00     0.021 A 
ATOM     18  C   UNL     1      -7.423  -0.046   0.633  1.00  0.00     0.113 A 
BRANCH  11  19
ATOM     19  C   UNL     1      -1.564   0.883   1.211  1.00  0.00     0.017 A 
ATOM     20  C   UNL     1       2.563   0.622   0.013  1.00  0.00     0.066 C 
ATOM     21  C   UNL     1       1.136   0.708   0.463  1.00  0.00     0.037 A 
ATOM     22  C   UNL     1       0.487  -0.417   0.926  1.00  0.00     0.024 A 
ATOM     23  N   UNL     1       0.527   1.911   0.424  1.00  0.00    -0.261 NA
ATOM     24  C   UNL     1      -0.849  -0.311   1.312  1.00  0.00     0.014 A 
ATOM     25  C   UNL     1      -0.788   1.971   0.799  1.00  0.00     0.121 A 
ENDBRANCH  11  19
ENDBRANCH   9  10
ENDBRANCH   8   9
ENDBRANCH   5   8
ENDBRANCH   3   4
ENDBRANCH   2   3
ENDBRANCH   1   2
BRANCH   1  26
ATOM     26  C   UNL     1      -2.342  -0.264  -4.342  1.00  0.00     0.002 C 
BRANCH  26  27
ATOM     27  C   UNL     1      -3.683   0.328  -4.794  1.00  0.00     0.021 C 
BRANCH  27  28
ATOM     28  C   UNL     1      -3.743   1.843  -4.695  1.00  0.00     0.116 C 
BRANCH  28  29
ATOM     29  N   UNL     1      -2.855   2.467  -5.664  1.00  0.00    -0.352 N 
ATOM     30  C   UNL     1      -3.035   3.652  -6.340  1.00  0.00     0.251 C 
ATOM     31  H   UNL     1      -2.022   1.981  -5.861  1.00  0.00     0.163 HD
ATOM     32  O   UNL     1      -2.428   3.873  -7.375  1.00  0.00    -0.269 OA
BRANCH  30  33
ATOM     33  C   UNL     1      -3.912   4.680  -5.748  1.00  0.00     0.039 A 
ATOM     34  C   UNL     1      -4.557   5.617  -6.566  1.00  0.00     0.014 A 
ATOM     35  C   UNL     1      -3.974   4.781  -4.355  1.00  0.00     0.014 A 
ATOM     36  C   UNL     1      -5.231   6.675  -5.970  1.00  0.00     0.010 A 
ATOM     37  C   UNL     1      -4.719   5.761  -3.766  1.00  0.00     0.010 A 
ATOM     38  C   UNL     1      -5.266   6.747  -4.575  1.00  0.00    -0.014 A 
BRANCH  38  39
ATOM     39  C   UNL     1      -5.915   7.838  -3.883  1.00  0.00     0.031 A 
ATOM     40  C   UNL     1      -7.392   7.714  -3.847  1.00  0.00     0.074 A 
ATOM     41  C   UNL     1      -5.194   8.686  -3.120  1.00  0.00     0.049 A 
ATOM     42  N   UNL     1      -8.258   8.435  -4.477  1.00  0.00    -0.248 NA
ATOM     43  C   UNL     1      -7.971   6.532  -3.183  1.00  0.00     0.031 C 
ATOM     44  C   UNL     1      -3.757   8.638  -2.815  1.00  0.00     0.029 A 
ATOM     45  N   UNL     1      -5.629   9.696  -2.327  1.00  0.00    -0.354 N 
ATOM     46  C   UNL     1      -9.496   7.947  -4.072  1.00  0.00     0.074 A 
ATOM     47  C   UNL     1      -9.259   6.645  -3.507  1.00  0.00     0.031 C 
ATOM     48  C   UNL     1      -3.500   9.415  -1.737  1.00  0.00     0.029 A 
ATOM     49  C   UNL     1      -4.714  10.116  -1.363  1.00  0.00     0.049 A 
ATOM     50  H   UNL     1      -6.521  10.101  -2.424  1.00  0.00     0.167 HD
ATOM     51  C   UNL     1     -10.576   8.764  -3.941  1.00  0.00     0.034 A 
ATOM     52  C   UNL     1      -4.989  10.920  -0.303  1.00  0.00     0.034 A 
ATOM     53  C   UNL     1     -10.347  10.049  -4.547  1.00  0.00     0.049 A 
ATOM     54  C   UNL     1      -6.253  11.626  -0.636  1.00  0.00     0.074 A 
ATOM     55  C   UNL     1     -10.050  10.485  -5.822  1.00  0.00     0.029 A 
ATOM     56  N   UNL     1      -9.969  11.063  -3.700  1.00  0.00    -0.354 N 
ATOM     57  N   UNL     1      -6.371  12.463  -1.628  1.00  0.00    -0.248 NA
ATOM     58  C   UNL     1      -7.495  11.047  -0.151  1.00  0.00     0.031 C 
ATOM     59  C   UNL     1      -9.088  11.522  -5.641  1.00  0.00     0.029 A 
ATOM     60  C   UNL     1      -8.905  11.714  -4.270  1.00  0.00     0.049 A 
ATOM     61  H   UNL     1     -10.388  11.284  -2.837  1.00  0.00     0.167 HD
ATOM     62  C   UNL     1      -7.610  12.169  -2.182  1.00  0.00     0.074 A 
ATOM     63  C   UNL     1      -8.296  11.363  -1.172  1.00  0.00     0.031 C 
ATOM     64  C   UNL     1      -7.842  12.343  -3.516  1.00  0.00     0.034 A 
BRANCH  51  65
ATOM     65  C   UNL     1     -11.686   8.537  -2.949  1.00  0.00     0.023 A 
ATOM     66  C   UNL     1     -12.895   9.233  -3.140  1.00  0.00     0.012 A 
ATOM     67  C   UNL     1     -11.520   7.857  -1.719  1.00  0.00     0.148 A 
ATOM     68  C   UNL     1     -13.891   9.248  -2.156  1.00  0.00     0.002 A 
ATOM     69  C   UNL     1     -12.543   7.802  -0.782  1.00  0.00     0.091 A 
ATOM     70  F   UNL     1     -10.320   7.370  -1.384  1.00  0.00    -0.205 F 
ATOM     71  C   UNL     1     -13.725   8.516  -0.985  1.00  0.00     0.022 A 
BRANCH  69  72
ATOM     72  S   UNL     1     -12.387   6.832   0.722  1.00  0.00     0.127 S 
ATOM     73  O   UNL     1     -12.191   7.875   1.724  1.00  0.00    -0.237 OA
ATOM     74  O   UNL     1     -13.682   6.152   0.776  1.00  0.00    -0.237 OA
ATOM     75  O   UNL     1     -11.258   5.939   0.490  1.00  0.00    -0.744 OA
ENDBRANCH  69  72
ENDBRANCH  51  65
BRANCH  52  76
ATOM     76  C   UNL     1      -4.463  10.909   1.090  1.00  0.00     0.023 A 
ATOM     77  C   UNL     1      -4.787  11.982   1.952  1.00  0.00     0.012 A 
ATOM     78  C   UNL     1      -3.933   9.738   1.673  1.00  0.00     0.148 A 
ATOM     79  C   UNL     1      -4.660  11.866   3.342  1.00  0.00     0.002 A 
ATOM     80  C   UNL     1      -3.799   9.630   3.057  1.00  0.00     0.091 A 
ATOM     81  F   UNL     1      -3.655   8.691   0.887  1.00  0.00    -0.205 F 
ATOM     82  C   UNL     1      -4.180  10.684   3.896  1.00  0.00     0.022 A 
BRANCH  80  83
ATOM     83  S   UNL     1      -3.204   8.126   3.844  1.00  0.00     0.127 S 
ATOM     84  O   UNL     1      -2.246   8.650   4.819  1.00  0.00    -0.237 OA
ATOM     85  O   UNL     1      -4.430   7.582   4.422  1.00  0.00    -0.237 OA
ATOM     86  O   UNL     1      -2.602   7.334   2.778  1.00  0.00    -0.744 OA
ENDBRANCH  80  83
ENDBRANCH  52  76
BRANCH  64  87
ATOM     87  C   UNL     1      -6.783  13.058  -4.322  1.00  0.00     0.023 A 
ATOM     88  C   UNL     1      -5.526  12.480  -4.607  1.00  0.00     0.012 A 
ATOM     89  C   UNL     1      -7.130  14.263  -4.948  1.00  0.00     0.148 A 
ATOM     90  C   UNL     1      -4.633  13.098  -5.489  1.00  0.00     0.002 A 
ATOM     91  C   UNL     1      -6.255  14.859  -5.849  1.00  0.00     0.091 A 
ATOM     92  F   UNL     1      -8.334  14.789  -4.677  1.00  0.00    -0.205 F 
ATOM     93  C   UNL     1      -5.003  14.282  -6.120  1.00  0.00     0.022 A 
BRANCH  91  94
ATOM     94  S   UNL     1      -6.707  16.332  -6.766  1.00  0.00     0.127 S 
ATOM     95  O   UNL     1      -5.835  17.342  -6.169  1.00  0.00    -0.237 OA
ATOM     96  O   UNL     1      -6.364  15.962  -8.140  1.00  0.00    -0.237 OA
ATOM     97  O   UNL     1      -8.133  16.528  -6.539  1.00  0.00    -0.744 OA
ENDBRANCH  91  94
ENDBRANCH  64  87
ENDBRANCH  38  39
ENDBRANCH  30  33
ENDBRANCH  28  29
ENDBRANCH  27  28
ENDBRANCH  26  27
ENDBRANCH   1  26
TORSDOF 19
