REMARK SMILES COc1cc(C)cc2c1[C@@H](C)[C@@H](CC(=O)N[C@@H](Cc1c[nH]c3ccccc13)C(=O)NCCCCCCNC(=O)c1ccc(-c3c4nc(c(-c5cccc(S(=O)(=O)[O-])c5F)c5ccc([nH]5)c(-c5cccc(S(=O)(=O)[O-])c5F)c5nc(c(-c6cccc(S(=O)(=O)[O-])c6F)c6ccc3[nH]6)C=C5)C=C4)cc1)C(=O)O2
REMARK SMILES IDX 33 1 32 2 31 3 30 4 28 5 29 6 17 8 16 9 14 10 15 11 13 13
REMARK SMILES IDX 12 14 3 15 4 16 9 17 5 18 8 19 10 20 6 21 7 22 105 23 11 24
REMARK SMILES IDX 103 25 104 26 2 27 1 28 18 29 19 30 20 31 27 32 21 33 22 34
REMARK SMILES IDX 26 35 23 37 25 38 24 39 34 40 35 41 36 42 37 43 38 44 39 46
REMARK SMILES IDX 40 47 41 48 102 49 42 50 101 51 43 52 44 53 45 54 95 55
REMARK SMILES IDX 46 56 100 57 94 58 96 59 47 60 99 61 93 62 92 63 48 65 80 66
REMARK SMILES IDX 60 67 79 68 61 69 64 70 78 71 97 72 62 73 63 74 77 76 98 77
REMARK SMILES IDX 65 78 49 79 50 80 58 81 51 82 53 83 59 84 52 85 54 86 55 87
REMARK SMILES IDX 56 88 57 89 81 90 82 91 90 92 83 93 85 94 91 95 84 96 86 97
REMARK SMILES IDX 87 98 88 99 89 100 66 101 67 102 75 103 68 104 70 105 76 106
REMARK SMILES IDX 69 107 71 108 72 109 73 110 74 111
REMARK H PARENT 30 7 16 12 21 36 37 45 96 64 64 75
REMARK Flexibility Score: inf
ROOT
ATOM      1  C   UNL     1      -3.203  11.802   0.627  1.00  0.00     0.002 C 
ENDROOT
BRANCH   1   2
ATOM      2  C   UNL     1      -3.700  10.479   0.040  1.00  0.00     0.021 C 
BRANCH   2   3
ATOM      3  C   UNL     1      -2.880  10.055  -1.172  1.00  0.00     0.116 C 
BRANCH   3   4
ATOM      4  N   UNL     1      -1.688   9.377  -0.739  1.00  0.00    -0.354 N 
ATOM      5  C   UNL     1      -1.557   8.096  -0.328  1.00  0.00     0.242 C 
ATOM      6  O   UNL     1      -0.533   7.824   0.314  1.00  0.00    -0.273 OA
ATOM      7  H   UNL     1      -0.863   9.915  -0.742  1.00  0.00     0.163 HD
BRANCH   5   8
ATOM      8  C   UNL     1      -2.585   6.985  -0.643  1.00  0.00     0.175 C 
BRANCH   8   9
ATOM      9  N   UNL     1      -3.150   6.270   0.484  1.00  0.00    -0.344 N 
ATOM     10  C   UNL     1      -3.254   4.909   0.584  1.00  0.00     0.221 C 
ATOM     11  O   UNL     1      -4.186   4.419   1.218  1.00  0.00    -0.275 OA
ATOM     12  H   UNL     1      -3.487   6.807   1.237  1.00  0.00     0.164 HD
BRANCH  10  13
ATOM     13  C   UNL     1      -2.120   4.047   0.044  1.00  0.00     0.116 C 
BRANCH  13  14
ATOM     14  C   UNL     1      -2.240   3.442  -1.380  1.00  0.00     0.116 C 
ATOM     15  C   UNL     1       1.165   1.811  -1.028  1.00  0.00     0.126 A 
ATOM     16  C   UNL     1       2.436   2.355  -0.768  1.00  0.00     0.050 A 
ATOM     17  C   UNL     1       0.114   2.631  -1.439  1.00  0.00     0.041 A 
ATOM     18  C   UNL     1       2.682   3.729  -0.915  1.00  0.00    -0.044 A 
ATOM     19  C   UNL     1       0.432   3.971  -1.719  1.00  0.00     0.138 A 
ATOM     20  C   UNL     1      -1.340   2.194  -1.598  1.00  0.00     0.038 C 
ATOM     21  C   UNL     1       4.027   4.306  -0.592  1.00  0.00     0.044 C 
ATOM     22  C   UNL     1       1.674   4.534  -1.435  1.00  0.00     0.051 A 
ATOM     23  O   UNL     1      -0.486   4.825  -2.350  1.00  0.00    -0.426 OA
ATOM     24  C   UNL     1      -1.827   1.044  -0.710  1.00  0.00     0.014 C 
ATOM     25  C   UNL     1      -1.767   4.338  -2.503  1.00  0.00     0.315 C 
ATOM     26  O   UNL     1      -2.444   4.618  -3.486  1.00  0.00    -0.251 OA
BRANCH  15  27
ATOM     27  O   UNL     1       0.956   0.460  -1.017  1.00  0.00    -0.496 OA
ATOM     28  C   UNL     1       1.361  -0.173   0.191  1.00  0.00     0.278 C 
ENDBRANCH  15  27
ENDBRANCH  13  14
ENDBRANCH  10  13
ENDBRANCH   8   9
BRANCH   8  29
ATOM     29  C   UNL     1      -3.500   6.994  -1.860  1.00  0.00     0.072 C 
BRANCH  29  30
ATOM     30  C   UNL     1      -4.918   7.484  -1.978  1.00  0.00    -0.020 A 
ATOM     31  C   UNL     1      -5.380   7.796  -3.252  1.00  0.00     0.087 A 
ATOM     32  C   UNL     1      -6.065   7.596  -1.106  1.00  0.00     0.003 A 
ATOM     33  N   UNL     1      -6.736   7.796  -3.232  1.00  0.00    -0.361 N 
ATOM     34  C   UNL     1      -7.175   7.818  -1.936  1.00  0.00     0.046 A 
ATOM     35  C   UNL     1      -6.339   7.504   0.278  1.00  0.00     0.010 A 
ATOM     36  H   UNL     1      -7.316   7.783  -4.028  1.00  0.00     0.166 HD
ATOM     37  C   UNL     1      -8.486   7.979  -1.474  1.00  0.00     0.026 A 
ATOM     38  C   UNL     1      -7.645   7.704   0.765  1.00  0.00     0.001 A 
ATOM     39  C   UNL     1      -8.701   7.948  -0.102  1.00  0.00     0.002 A 
ENDBRANCH  29  30
ENDBRANCH   8  29
ENDBRANCH   5   8
ENDBRANCH   3   4
ENDBRANCH   2   3
ENDBRANCH   1   2
BRANCH   1  40
ATOM     40  C   UNL     1      -3.229  12.971  -0.367  1.00  0.00     0.002 C 
BRANCH  40  41
ATOM     41  C   UNL     1      -4.570  13.155  -1.079  1.00  0.00     0.021 C 
BRANCH  41  42
ATOM     42  C   UNL     1      -5.730  13.392  -0.123  1.00  0.00     0.116 C 
BRANCH  42  43
ATOM     43  N   UNL     1      -5.522  14.596   0.669  1.00  0.00    -0.352 N 
ATOM     44  C   UNL     1      -6.298  15.730   0.733  1.00  0.00     0.251 C 
ATOM     45  H   UNL     1      -4.716  14.599   1.234  1.00  0.00     0.163 HD
ATOM     46  O   UNL     1      -5.864  16.753   1.232  1.00  0.00    -0.269 OA
BRANCH  44  47
ATOM     47  C   UNL     1      -7.660  15.672   0.164  1.00  0.00     0.039 A 
ATOM     48  C   UNL     1      -8.472  14.568   0.435  1.00  0.00     0.014 A 
ATOM     49  C   UNL     1      -8.096  16.687  -0.686  1.00  0.00     0.014 A 
ATOM     50  C   UNL     1      -9.644  14.392  -0.284  1.00  0.00     0.010 A 
ATOM     51  C   UNL     1      -9.327  16.555  -1.332  1.00  0.00     0.010 A 
ATOM     52  C   UNL     1     -10.086  15.384  -1.174  1.00  0.00    -0.014 A 
BRANCH  52  53
ATOM     53  C   UNL     1     -11.350  15.172  -1.920  1.00  0.00     0.031 A 
ATOM     54  C   UNL     1     -11.357  15.091  -3.423  1.00  0.00     0.074 A 
ATOM     55  C   UNL     1     -12.494  15.012  -1.227  1.00  0.00     0.049 A 
ATOM     56  N   UNL     1     -12.373  14.910  -4.226  1.00  0.00    -0.248 NA
ATOM     57  C   UNL     1     -10.066  15.232  -4.117  1.00  0.00     0.031 C 
ATOM     58  C   UNL     1     -12.611  15.077   0.233  1.00  0.00     0.029 A 
ATOM     59  N   UNL     1     -13.772  14.751  -1.650  1.00  0.00    -0.354 N 
ATOM     60  C   UNL     1     -11.856  14.961  -5.514  1.00  0.00     0.074 A 
ATOM     61  C   UNL     1     -10.434  15.190  -5.392  1.00  0.00     0.031 C 
ATOM     62  C   UNL     1     -13.879  14.823   0.585  1.00  0.00     0.029 A 
ATOM     63  C   UNL     1     -14.677  14.643  -0.622  1.00  0.00     0.049 A 
ATOM     64  H   UNL     1     -14.017  14.651  -2.598  1.00  0.00     0.167 HD
ATOM     65  C   UNL     1     -12.507  14.812  -6.691  1.00  0.00     0.034 A 
ATOM     66  C   UNL     1     -16.008  14.440  -0.641  1.00  0.00     0.034 A 
ATOM     67  C   UNL     1     -13.912  14.531  -6.807  1.00  0.00     0.049 A 
ATOM     68  C   UNL     1     -16.703  14.282  -1.959  1.00  0.00     0.074 A 
ATOM     69  C   UNL     1     -14.648  14.315  -7.959  1.00  0.00     0.029 A 
ATOM     70  N   UNL     1     -14.791  14.428  -5.742  1.00  0.00    -0.354 N 
ATOM     71  N   UNL     1     -16.183  14.267  -3.162  1.00  0.00    -0.248 NA
ATOM     72  C   UNL     1     -18.160  14.100  -1.927  1.00  0.00     0.031 C 
ATOM     73  C   UNL     1     -15.978  14.095  -7.590  1.00  0.00     0.029 A 
ATOM     74  C   UNL     1     -16.065  14.155  -6.209  1.00  0.00     0.049 A 
ATOM     75  H   UNL     1     -14.546  14.532  -4.794  1.00  0.00     0.167 HD
ATOM     76  C   UNL     1     -17.246  14.061  -4.031  1.00  0.00     0.074 A 
ATOM     77  C   UNL     1     -18.437  13.939  -3.216  1.00  0.00     0.031 C 
ATOM     78  C   UNL     1     -17.233  13.994  -5.383  1.00  0.00     0.034 A 
BRANCH  65  79
ATOM     79  C   UNL     1     -11.711  14.901  -7.964  1.00  0.00     0.023 A 
ATOM     80  C   UNL     1     -10.943  13.795  -8.378  1.00  0.00     0.012 A 
ATOM     81  C   UNL     1     -11.820  16.026  -8.804  1.00  0.00     0.148 A 
ATOM     82  C   UNL     1     -10.290  13.809  -9.609  1.00  0.00     0.002 A 
ATOM     83  C   UNL     1     -11.191  16.021 -10.043  1.00  0.00     0.091 A 
ATOM     84  F   UNL     1     -12.549  17.069  -8.382  1.00  0.00    -0.205 F 
ATOM     85  C   UNL     1     -10.423  14.915 -10.445  1.00  0.00     0.022 A 
BRANCH  83  86
ATOM     86  S   UNL     1     -11.341  17.370 -11.219  1.00  0.00     0.127 S 
ATOM     87  O   UNL     1      -9.961  17.846 -11.298  1.00  0.00    -0.237 OA
ATOM     88  O   UNL     1     -11.818  16.679 -12.417  1.00  0.00    -0.237 OA
ATOM     89  O   UNL     1     -12.286  18.312 -10.637  1.00  0.00    -0.744 OA
ENDBRANCH  83  86
ENDBRANCH  65  79
BRANCH  66  90
ATOM     90  C   UNL     1     -16.744  14.347   0.647  1.00  0.00     0.023 A 
ATOM     91  C   UNL     1     -17.173  13.089   1.106  1.00  0.00     0.012 A 
ATOM     92  C   UNL     1     -16.934  15.484   1.457  1.00  0.00     0.148 A 
ATOM     93  C   UNL     1     -17.784  12.963   2.353  1.00  0.00     0.002 A 
ATOM     94  C   UNL     1     -17.505  15.345   2.715  1.00  0.00     0.091 A 
ATOM     95  F   UNL     1     -16.511  16.668   0.994  1.00  0.00    -0.205 F 
ATOM     96  C   UNL     1     -17.939  14.087   3.162  1.00  0.00     0.022 A 
BRANCH  94  97
ATOM     97  S   UNL     1     -17.649  16.712   3.870  1.00  0.00     0.127 S 
ATOM     98  O   UNL     1     -19.098  16.825   4.018  1.00  0.00    -0.237 OA
ATOM     99  O   UNL     1     -16.948  16.187   5.042  1.00  0.00    -0.237 OA
ATOM    100  O   UNL     1     -16.997  17.846   3.229  1.00  0.00    -0.744 OA
ENDBRANCH  94  97
ENDBRANCH  66  90
BRANCH  78 101
ATOM    101  C   UNL     1     -18.538  13.763  -6.090  1.00  0.00     0.023 A 
ATOM    102  C   UNL     1     -19.427  14.839  -6.269  1.00  0.00     0.012 A 
ATOM    103  C   UNL     1     -18.817  12.519  -6.689  1.00  0.00     0.148 A 
ATOM    104  C   UNL     1     -20.583  14.679  -7.032  1.00  0.00     0.002 A 
ATOM    105  C   UNL     1     -19.952  12.376  -7.476  1.00  0.00     0.091 A 
ATOM    106  F   UNL     1     -17.953  11.511  -6.496  1.00  0.00    -0.205 F 
ATOM    107  C   UNL     1     -20.838  13.453  -7.645  1.00  0.00     0.022 A 
BRANCH 105 108
ATOM    108  S   UNL     1     -20.329  10.863  -8.366  1.00  0.00     0.127 S 
ATOM    109  O   UNL     1     -21.559  10.428  -7.705  1.00  0.00    -0.237 OA
ATOM    110  O   UNL     1     -20.508  11.347  -9.734  1.00  0.00    -0.237 OA
ATOM    111  O   UNL     1     -19.183   9.984  -8.175  1.00  0.00    -0.744 OA
ENDBRANCH 105 108
ENDBRANCH  78 101
ENDBRANCH  52  53
ENDBRANCH  44  47
ENDBRANCH  42  43
ENDBRANCH  41  42
ENDBRANCH  40  41
ENDBRANCH   1  40
TORSDOF 22
