REMARK SMILES NC(=O)CC[N@@H+]1[C@@H](C(=O)NCCCCCCNC(=O)c2ccc(-c3c4nc(c(-c5cccc(S(=O)(=O)[O-])c5F)c5ccc([nH]5)c(-c5cccc(S(=O)(=O)[O-])c5F)c5nc(c(-c6cccc(S(=O)(=O)[O-])c6F)c6ccc3[nH]6)C=C5)C=C4)cc2)CC[C@@H]2CCCC[C@H]21
REMARK SMILES IDX 13 1 12 2 11 3 10 4 8 5 9 6 7 8 6 9 90 10 83 12 85 13 89 14
REMARK SMILES IDX 84 15 86 16 88 17 87 18 5 19 4 20 2 21 1 22 3 25 14 26 15 27
REMARK SMILES IDX 16 28 17 29 18 30 19 32 20 33 21 34 82 35 22 36 81 37 23 38
REMARK SMILES IDX 24 39 25 40 75 41 26 42 80 43 74 44 76 45 27 46 79 47 73 48
REMARK SMILES IDX 72 49 28 51 60 52 40 53 59 54 41 55 44 56 58 57 77 58 42 59
REMARK SMILES IDX 43 60 57 62 78 63 45 64 29 65 30 66 38 67 31 68 33 69 39 70
REMARK SMILES IDX 32 71 34 72 35 73 36 74 37 75 61 76 62 77 70 78 63 79 65 80
REMARK SMILES IDX 71 81 64 82 66 83 67 84 68 85 69 86 46 87 47 88 55 89 48 90
REMARK SMILES IDX 50 91 56 92 49 93 51 94 52 95 53 96 54 97
REMARK H PARENT 10 7 6 11 1 23 1 24 17 31 76 50 44 61
REMARK Flexibility Score: inf
ROOT
ATOM      1  C   UNL     1       7.409  -2.615  -1.836  1.00  0.00     0.002 C 
ENDROOT
BRANCH   1   2
ATOM      2  C   UNL     1       6.779  -1.293  -1.374  1.00  0.00     0.021 C 
BRANCH   2   3
ATOM      3  C   UNL     1       5.568  -0.872  -2.212  1.00  0.00     0.116 C 
BRANCH   3   4
ATOM      4  N   UNL     1       4.522  -1.857  -2.050  1.00  0.00    -0.351 N 
ATOM      5  C   UNL     1       3.444  -1.822  -1.225  1.00  0.00     0.278 C 
ATOM      6  O   UNL     1       2.876  -2.893  -0.984  1.00  0.00    -0.268 OA
ATOM      7  H   UNL     1       4.603  -2.661  -2.613  1.00  0.00     0.163 HD
BRANCH   5   8
ATOM      8  C   UNL     1       2.905  -0.490  -0.652  1.00  0.00     0.274 C 
ATOM      9  N   UNL     1       2.559   0.445  -1.756  1.00  0.00    -0.322 N 
ATOM     10  C   UNL     1       2.399   1.873  -1.422  1.00  0.00     0.187 C 
ATOM     11  H   UNL     1       3.436   0.456  -2.276  1.00  0.00     0.349 HD
ATOM     12  C   UNL     1       3.809   0.065   0.454  1.00  0.00     0.076 C 
ATOM     13  C   UNL     1       3.382   2.371  -0.335  1.00  0.00     0.048 C 
ATOM     14  C   UNL     1       2.587   2.796  -2.655  1.00  0.00     0.065 C 
ATOM     15  C   UNL     1       3.368   1.454   0.884  1.00  0.00     0.016 C 
ATOM     16  C   UNL     1       3.047   3.817   0.064  1.00  0.00     0.010 C 
ATOM     17  C   UNL     1       2.269   4.252  -2.303  1.00  0.00     0.006 C 
ATOM     18  C   UNL     1       3.109   4.757  -1.138  1.00  0.00     0.001 C 
BRANCH   9  19
ATOM     19  C   UNL     1       1.524  -0.071  -2.690  1.00  0.00     0.273 C 
BRANCH  19  20
ATOM     20  C   UNL     1       0.396  -1.008  -2.229  1.00  0.00     0.161 C 
BRANCH  20  21
ATOM     21  C   UNL     1      -0.749  -0.401  -1.447  1.00  0.00     0.223 C 
ATOM     22  N   UNL     1      -0.454   0.270  -0.305  1.00  0.00    -0.369 N 
ATOM     23  H   UNL     1      -1.175   0.677   0.228  1.00  0.00     0.159 HD
ATOM     24  H   UNL     1       0.482   0.349  -0.008  1.00  0.00     0.159 HD
ATOM     25  O   UNL     1      -1.925  -0.574  -1.758  1.00  0.00    -0.275 OA
ENDBRANCH  20  21
ENDBRANCH  19  20
ENDBRANCH   9  19
ENDBRANCH   5   8
ENDBRANCH   3   4
ENDBRANCH   2   3
ENDBRANCH   1   2
BRANCH   1  26
ATOM     26  C   UNL     1       7.833  -2.634  -3.307  1.00  0.00     0.002 C 
BRANCH  26  27
ATOM     27  C   UNL     1       8.757  -1.483  -3.708  1.00  0.00     0.021 C 
BRANCH  27  28
ATOM     28  C   UNL     1      10.039  -1.407  -2.890  1.00  0.00     0.116 C 
BRANCH  28  29
ATOM     29  N   UNL     1      10.860  -2.593  -3.071  1.00  0.00    -0.352 N 
ATOM     30  C   UNL     1      12.173  -2.675  -3.465  1.00  0.00     0.251 C 
ATOM     31  H   UNL     1      10.416  -3.452  -2.886  1.00  0.00     0.163 HD
ATOM     32  O   UNL     1      12.656  -3.750  -3.793  1.00  0.00    -0.269 OA
BRANCH  30  33
ATOM     33  C   UNL     1      12.987  -1.442  -3.499  1.00  0.00     0.039 A 
ATOM     34  C   UNL     1      13.782  -1.186  -4.617  1.00  0.00     0.014 A 
ATOM     35  C   UNL     1      12.948  -0.539  -2.432  1.00  0.00     0.014 A 
ATOM     36  C   UNL     1      14.505   0.006  -4.685  1.00  0.00     0.010 A 
ATOM     37  C   UNL     1      13.603   0.682  -2.539  1.00  0.00     0.010 A 
ATOM     38  C   UNL     1      14.400   0.961  -3.659  1.00  0.00    -0.014 A 
BRANCH  38  39
ATOM     39  C   UNL     1      15.114   2.259  -3.743  1.00  0.00     0.031 A 
ATOM     40  C   UNL     1      16.159   2.615  -2.720  1.00  0.00     0.074 A 
ATOM     41  C   UNL     1      14.768   3.149  -4.693  1.00  0.00     0.049 A 
ATOM     42  N   UNL     1      16.859   3.713  -2.606  1.00  0.00    -0.248 NA
ATOM     43  C   UNL     1      16.433   1.618  -1.671  1.00  0.00     0.031 C 
ATOM     44  C   UNL     1      13.716   2.951  -5.694  1.00  0.00     0.029 A 
ATOM     45  N   UNL     1      15.246   4.407  -4.959  1.00  0.00    -0.354 N 
ATOM     46  C   UNL     1      17.629   3.555  -1.460  1.00  0.00     0.074 A 
ATOM     47  C   UNL     1      17.280   2.272  -0.890  1.00  0.00     0.031 C 
ATOM     48  C   UNL     1      13.638   4.043  -6.471  1.00  0.00     0.029 A 
ATOM     49  C   UNL     1      14.606   5.030  -6.004  1.00  0.00     0.049 A 
ATOM     50  H   UNL     1      15.979   4.824  -4.450  1.00  0.00     0.167 HD
ATOM     51  C   UNL     1      18.564   4.388  -0.943  1.00  0.00     0.034 A 
ATOM     52  C   UNL     1      14.774   6.262  -6.524  1.00  0.00     0.034 A 
ATOM     53  C   UNL     1      18.929   5.648  -1.531  1.00  0.00     0.049 A 
ATOM     54  C   UNL     1      15.836   7.159  -5.947  1.00  0.00     0.074 A 
ATOM     55  C   UNL     1      19.923   6.526  -1.136  1.00  0.00     0.029 A 
ATOM     56  N   UNL     1      18.307   6.218  -2.631  1.00  0.00    -0.354 N 
ATOM     57  N   UNL     1      16.664   6.927  -4.958  1.00  0.00    -0.248 NA
ATOM     58  C   UNL     1      16.010   8.473  -6.581  1.00  0.00     0.031 C 
ATOM     59  C   UNL     1      19.877   7.643  -1.976  1.00  0.00     0.029 A 
ATOM     60  C   UNL     1      18.882   7.444  -2.919  1.00  0.00     0.049 A 
ATOM     61  H   UNL     1      17.565   5.810  -3.134  1.00  0.00     0.167 HD
ATOM     62  C   UNL     1      17.481   8.049  -4.873  1.00  0.00     0.074 A 
ATOM     63  C   UNL     1      17.059   8.950  -5.926  1.00  0.00     0.031 C 
ATOM     64  C   UNL     1      18.481   8.313  -3.997  1.00  0.00     0.034 A 
BRANCH  51  65
ATOM     65  C   UNL     1      19.284   3.940   0.303  1.00  0.00     0.023 A 
ATOM     66  C   UNL     1      20.188   2.858   0.239  1.00  0.00     0.012 A 
ATOM     67  C   UNL     1      19.100   4.611   1.528  1.00  0.00     0.148 A 
ATOM     68  C   UNL     1      20.861   2.424   1.380  1.00  0.00     0.002 A 
ATOM     69  C   UNL     1      19.813   4.204   2.650  1.00  0.00     0.091 A 
ATOM     70  F   UNL     1      18.223   5.623   1.577  1.00  0.00    -0.205 F 
ATOM     71  C   UNL     1      20.682   3.103   2.581  1.00  0.00     0.022 A 
BRANCH  69  72
ATOM     72  S   UNL     1      19.715   5.064   4.224  1.00  0.00     0.127 S 
ATOM     73  O   UNL     1      18.980   4.099   5.041  1.00  0.00    -0.237 OA
ATOM     74  O   UNL     1      21.126   5.215   4.580  1.00  0.00    -0.237 OA
ATOM     75  O   UNL     1      19.018   6.314   3.956  1.00  0.00    -0.744 OA
ENDBRANCH  69  72
ENDBRANCH  51  65
BRANCH  52  76
ATOM     76  C   UNL     1      13.958   6.692  -7.693  1.00  0.00     0.023 A 
ATOM     77  C   UNL     1      14.574   6.841  -8.951  1.00  0.00     0.012 A 
ATOM     78  C   UNL     1      12.573   6.921  -7.575  1.00  0.00     0.148 A 
ATOM     79  C   UNL     1      13.832   7.241 -10.063  1.00  0.00     0.002 A 
ATOM     80  C   UNL     1      11.830   7.263  -8.698  1.00  0.00     0.091 A 
ATOM     81  F   UNL     1      12.008   6.779  -6.368  1.00  0.00    -0.205 F 
ATOM     82  C   UNL     1      12.460   7.442  -9.940  1.00  0.00     0.022 A 
BRANCH  80  83
ATOM     83  S   UNL     1      10.041   7.415  -8.662  1.00  0.00     0.127 S 
ATOM     84  O   UNL     1       9.857   8.845  -8.900  1.00  0.00    -0.237 OA
ATOM     85  O   UNL     1       9.644   6.548  -9.772  1.00  0.00    -0.237 OA
ATOM     86  O   UNL     1       9.629   6.937  -7.349  1.00  0.00    -0.744 OA
ENDBRANCH  80  83
ENDBRANCH  52  76
BRANCH  64  87
ATOM     87  C   UNL     1      19.221   9.616  -4.154  1.00  0.00     0.023 A 
ATOM     88  C   UNL     1      18.589  10.831  -3.823  1.00  0.00     0.012 A 
ATOM     89  C   UNL     1      20.570   9.628  -4.564  1.00  0.00     0.148 A 
ATOM     90  C   UNL     1      19.276  12.040  -3.931  1.00  0.00     0.002 A 
ATOM     91  C   UNL     1      21.264  10.831  -4.618  1.00  0.00     0.091 A 
ATOM     92  F   UNL     1      21.149   8.464  -4.891  1.00  0.00    -0.205 F 
ATOM     93  C   UNL     1      20.615  12.039  -4.316  1.00  0.00     0.022 A 
BRANCH  91  94
ATOM     94  S   UNL     1      23.015  10.917  -5.006  1.00  0.00     0.127 S 
ATOM     95  O   UNL     1      22.996  11.535  -6.331  1.00  0.00    -0.237 OA
ATOM     96  O   UNL     1      23.526  11.777  -3.938  1.00  0.00    -0.237 OA
ATOM     97  O   UNL     1      23.505   9.545  -4.965  1.00  0.00    -0.744 OA
ENDBRANCH  91  94
ENDBRANCH  64  87
ENDBRANCH  38  39
ENDBRANCH  30  33
ENDBRANCH  28  29
ENDBRANCH  27  28
ENDBRANCH  26  27
ENDBRANCH   1  26
TORSDOF 19
