REMARK SMILES Cc1ccc(S(=O)(=O)n2cc(C(=O)C(=O)N[C@@H](Cc3c[nH]c4ccccc34)C(=O)NCCCCCCNC(=O)c3ccc(-c4c5nc(c(-c6cccc(S(=O)(=O)[O-])c6F)c6ccc([nH]6)c(-c6cccc(S(=O)(=O)[O-])c6F)c6nc(c(-c7cccc(S(=O)(=O)[O-])c7F)c7ccc4[nH]7)C=C6)C=C5)cc3)c3ccccc32)cc1
REMARK SMILES IDX 32 1 31 2 30 3 28 4 29 5 17 7 16 8 14 9 15 10 12 12 13 13
REMARK SMILES IDX 11 14 9 15 10 16 108 17 103 18 107 19 104 20 106 21 105 22
REMARK SMILES IDX 6 23 7 24 8 25 5 26 1 27 2 28 3 29 110 30 4 31 109 32 18 33
REMARK SMILES IDX 19 34 20 35 27 36 21 37 22 38 26 39 23 41 25 42 24 43 33 44
REMARK SMILES IDX 34 45 35 46 36 47 37 48 38 49 39 51 40 52 41 53 102 54 42 55
REMARK SMILES IDX 101 56 43 57 44 58 45 59 95 60 46 61 100 62 94 63 96 64
REMARK SMILES IDX 47 65 99 66 93 67 92 68 48 70 80 71 60 72 79 73 61 74 64 75
REMARK SMILES IDX 78 76 97 77 62 78 63 79 77 81 98 82 65 83 49 84 50 85 58 86
REMARK SMILES IDX 51 87 53 88 59 89 52 90 54 91 55 92 56 93 57 94 81 95 82 96
REMARK SMILES IDX 90 97 83 98 85 99 91 100 84 101 86 102 87 103 88 104 89 105
REMARK SMILES IDX 66 106 67 107 75 108 68 109 70 110 76 111 69 112 71 113
REMARK SMILES IDX 72 114 73 115 74 116
REMARK H PARENT 30 6 16 11 21 40 37 50 96 69 64 80
REMARK Flexibility Score: inf
ROOT
ATOM      1  C   UNL     1     -12.268   5.341  -2.490  1.00  0.00     0.021 C 
ENDROOT
BRANCH   1   2
ATOM      2  C   UNL     1     -12.293   4.169  -1.520  1.00  0.00     0.116 C 
BRANCH   2   3
ATOM      3  N   UNL     1     -12.072   2.855  -2.074  1.00  0.00    -0.354 N 
ATOM      4  C   UNL     1     -11.627   1.746  -1.402  1.00  0.00     0.242 C 
ATOM      5  O   UNL     1     -12.086   0.655  -1.769  1.00  0.00    -0.273 OA
ATOM      6  H   UNL     1     -12.261   2.743  -3.034  1.00  0.00     0.163 HD
BRANCH   4   7
ATOM      7  C   UNL     1     -10.713   1.813  -0.138  1.00  0.00     0.176 C 
BRANCH   7   8
ATOM      8  N   UNL     1      -9.572   2.754  -0.195  1.00  0.00    -0.337 N 
ATOM      9  C   UNL     1      -8.226   2.534  -0.466  1.00  0.00     0.293 C 
ATOM     10  O   UNL     1      -7.403   3.429  -0.305  1.00  0.00    -0.265 OA
ATOM     11  H   UNL     1      -9.805   3.692  -0.010  1.00  0.00     0.164 HD
BRANCH   9  12
ATOM     12  C   UNL     1      -7.746   1.177  -0.992  1.00  0.00     0.252 C 
ATOM     13  O   UNL     1      -8.445   0.671  -1.871  1.00  0.00    -0.283 OA
BRANCH  12  14
ATOM     14  C   UNL     1      -6.600   0.441  -0.412  1.00  0.00     0.054 A 
ATOM     15  N   UNL     1      -4.642  -0.255   0.509  1.00  0.00    -0.240 N 
ATOM     16  C   UNL     1      -5.310   0.848  -0.032  1.00  0.00     0.117 A 
ATOM     17  C   UNL     1      -5.587  -1.289   0.644  1.00  0.00     0.065 A 
ATOM     18  C   UNL     1      -6.615  -0.978  -0.239  1.00  0.00     0.012 A 
ATOM     19  C   UNL     1      -5.475  -2.572   1.218  1.00  0.00     0.028 A 
ATOM     20  C   UNL     1      -7.429  -2.027  -0.719  1.00  0.00     0.011 A 
ATOM     21  C   UNL     1      -6.238  -3.603   0.672  1.00  0.00     0.002 A 
ATOM     22  C   UNL     1      -7.174  -3.341  -0.318  1.00  0.00     0.001 A 
BRANCH  15  23
ATOM     23  S   UNL     1      -3.088  -0.900   0.024  1.00  0.00     0.268 S 
ATOM     24  O   UNL     1      -3.340  -1.373  -1.328  1.00  0.00    -0.201 OA
ATOM     25  O   UNL     1      -2.807  -1.843   1.102  1.00  0.00    -0.201 OA
BRANCH  23  26
ATOM     26  C   UNL     1      -1.543  -0.071  -0.073  1.00  0.00     0.088 A 
ATOM     27  C   UNL     1       2.665   0.934  -0.044  1.00  0.00     0.044 C 
ATOM     28  C   UNL     1       1.194   0.631  -0.101  1.00  0.00    -0.051 A 
ATOM     29  C   UNL     1       0.826  -0.682  -0.352  1.00  0.00     0.005 A 
ATOM     30  C   UNL     1       0.183   1.590   0.138  1.00  0.00     0.005 A 
ATOM     31  C   UNL     1      -0.516  -1.014  -0.350  1.00  0.00     0.022 A 
ATOM     32  C   UNL     1      -1.197   1.247   0.160  1.00  0.00     0.022 A 
ENDBRANCH  23  26
ENDBRANCH  15  23
ENDBRANCH  12  14
ENDBRANCH   9  12
ENDBRANCH   7   8
BRANCH   7  33
ATOM     33  C   UNL     1     -11.524   1.875   1.197  1.00  0.00     0.072 C 
BRANCH  33  34
ATOM     34  C   UNL     1     -12.304   3.126   1.526  1.00  0.00    -0.020 A 
ATOM     35  C   UNL     1     -13.685   3.223   1.605  1.00  0.00     0.087 A 
ATOM     36  C   UNL     1     -11.798   4.442   1.812  1.00  0.00     0.003 A 
ATOM     37  N   UNL     1     -14.023   4.535   1.816  1.00  0.00    -0.361 N 
ATOM     38  C   UNL     1     -12.890   5.313   1.843  1.00  0.00     0.046 A 
ATOM     39  C   UNL     1     -10.509   4.996   1.949  1.00  0.00     0.010 A 
ATOM     40  H   UNL     1     -14.941   4.871   1.931  1.00  0.00     0.166 HD
ATOM     41  C   UNL     1     -12.752   6.706   1.881  1.00  0.00     0.026 A 
ATOM     42  C   UNL     1     -10.350   6.386   1.952  1.00  0.00     0.001 A 
ATOM     43  C   UNL     1     -11.456   7.227   1.894  1.00  0.00     0.002 A 
ENDBRANCH  33  34
ENDBRANCH   7  33
ENDBRANCH   4   7
ENDBRANCH   2   3
ENDBRANCH   1   2
BRANCH   1  44
ATOM     44  C   UNL     1     -13.452   5.506  -3.448  1.00  0.00     0.002 C 
BRANCH  44  45
ATOM     45  C   UNL     1     -14.880   5.425  -2.886  1.00  0.00     0.002 C 
BRANCH  45  46
ATOM     46  C   UNL     1     -15.180   6.145  -1.572  1.00  0.00     0.021 C 
BRANCH  46  47
ATOM     47  C   UNL     1     -14.957   7.648  -1.569  1.00  0.00     0.116 C 
BRANCH  47  48
ATOM     48  N   UNL     1     -16.161   8.427  -1.817  1.00  0.00    -0.352 N 
ATOM     49  C   UNL     1     -16.332   9.800  -1.783  1.00  0.00     0.251 C 
ATOM     50  H   UNL     1     -16.965   7.904  -2.039  1.00  0.00     0.163 HD
ATOM     51  O   UNL     1     -17.470  10.264  -1.852  1.00  0.00    -0.269 OA
BRANCH  49  52
ATOM     52  C   UNL     1     -15.142  10.684  -1.802  1.00  0.00     0.039 A 
ATOM     53  C   UNL     1     -15.089  11.685  -2.781  1.00  0.00     0.014 A 
ATOM     54  C   UNL     1     -14.005  10.370  -1.062  1.00  0.00     0.014 A 
ATOM     55  C   UNL     1     -13.853  12.166  -3.205  1.00  0.00     0.010 A 
ATOM     56  C   UNL     1     -12.776  10.767  -1.541  1.00  0.00     0.010 A 
ATOM     57  C   UNL     1     -12.703  11.605  -2.659  1.00  0.00    -0.014 A 
BRANCH  57  58
ATOM     58  C   UNL     1     -11.368  11.766  -3.208  1.00  0.00     0.031 A 
ATOM     59  C   UNL     1     -10.451  12.766  -2.641  1.00  0.00     0.074 A 
ATOM     60  C   UNL     1     -10.925  10.867  -4.114  1.00  0.00     0.049 A 
ATOM     61  N   UNL     1      -9.372  13.164  -3.220  1.00  0.00    -0.248 NA
ATOM     62  C   UNL     1     -10.709  13.422  -1.369  1.00  0.00     0.031 C 
ATOM     63  C   UNL     1      -9.543  10.591  -4.486  1.00  0.00     0.029 A 
ATOM     64  N   UNL     1     -11.681  10.175  -5.064  1.00  0.00    -0.354 N 
ATOM     65  C   UNL     1      -8.656  13.896  -2.299  1.00  0.00     0.074 A 
ATOM     66  C   UNL     1      -9.570  14.099  -1.200  1.00  0.00     0.031 C 
ATOM     67  C   UNL     1      -9.529  10.054  -5.715  1.00  0.00     0.029 A 
ATOM     68  C   UNL     1     -10.887  10.134  -6.223  1.00  0.00     0.049 A 
ATOM     69  H   UNL     1     -12.581   9.795  -4.946  1.00  0.00     0.167 HD
ATOM     70  C   UNL     1      -7.327  14.106  -2.523  1.00  0.00     0.034 A 
ATOM     71  C   UNL     1     -11.255  10.691  -7.413  1.00  0.00     0.034 A 
ATOM     72  C   UNL     1      -6.930  13.594  -3.845  1.00  0.00     0.049 A 
ATOM     73  C   UNL     1     -10.247  11.691  -7.950  1.00  0.00     0.074 A 
ATOM     74  C   UNL     1      -6.303  12.432  -4.267  1.00  0.00     0.029 A 
ATOM     75  N   UNL     1      -7.425  14.207  -4.988  1.00  0.00    -0.354 N 
ATOM     76  N   UNL     1      -9.212  12.133  -7.291  1.00  0.00    -0.248 NA
ATOM     77  C   UNL     1     -10.352  12.297  -9.272  1.00  0.00     0.031 C 
ATOM     78  C   UNL     1      -6.458  12.333  -5.677  1.00  0.00     0.029 A 
ATOM     79  C   UNL     1      -7.160  13.443  -6.115  1.00  0.00     0.049 A 
ATOM     80  H   UNL     1      -7.900  15.069  -4.998  1.00  0.00     0.167 HD
ATOM     81  C   UNL     1      -8.596  13.143  -7.995  1.00  0.00     0.074 A 
ATOM     82  C   UNL     1      -9.310  13.147  -9.262  1.00  0.00     0.031 C 
ATOM     83  C   UNL     1      -7.600  13.905  -7.431  1.00  0.00     0.034 A 
BRANCH  70  84
ATOM     84  C   UNL     1      -6.308  14.493  -1.459  1.00  0.00     0.023 A 
ATOM     85  C   UNL     1      -4.951  14.194  -1.726  1.00  0.00     0.012 A 
ATOM     86  C   UNL     1      -6.569  15.053  -0.188  1.00  0.00     0.148 A 
ATOM     87  C   UNL     1      -3.942  14.329  -0.765  1.00  0.00     0.002 A 
ATOM     88  C   UNL     1      -5.578  15.126   0.797  1.00  0.00     0.091 A 
ATOM     89  F   UNL     1      -7.755  15.607   0.065  1.00  0.00    -0.205 F 
ATOM     90  C   UNL     1      -4.262  14.758   0.512  1.00  0.00     0.022 A 
BRANCH  88  91
ATOM     91  S   UNL     1      -5.938  15.607   2.497  1.00  0.00     0.127 S 
ATOM     92  O   UNL     1      -5.371  14.490   3.258  1.00  0.00    -0.237 OA
ATOM     93  O   UNL     1      -5.208  16.865   2.632  1.00  0.00    -0.237 OA
ATOM     94  O   UNL     1      -7.390  15.710   2.593  1.00  0.00    -0.744 OA
ENDBRANCH  88  91
ENDBRANCH  70  84
BRANCH  71  95
ATOM     95  C   UNL     1     -12.733  10.758  -7.613  1.00  0.00     0.023 A 
ATOM     96  C   UNL     1     -13.431   9.525  -7.635  1.00  0.00     0.012 A 
ATOM     97  C   UNL     1     -13.456  11.941  -7.384  1.00  0.00     0.148 A 
ATOM     98  C   UNL     1     -14.782   9.459  -7.290  1.00  0.00     0.002 A 
ATOM     99  C   UNL     1     -14.809  11.867  -7.052  1.00  0.00     0.091 A 
ATOM    100  F   UNL     1     -12.802  13.109  -7.414  1.00  0.00    -0.205 F 
ATOM    101  C   UNL     1     -15.461  10.627  -6.964  1.00  0.00     0.022 A 
BRANCH  99 102
ATOM    102  S   UNL     1     -15.741  13.335  -6.593  1.00  0.00     0.127 S 
ATOM    103  O   UNL     1     -16.320  13.725  -7.875  1.00  0.00    -0.237 OA
ATOM    104  O   UNL     1     -16.697  12.812  -5.618  1.00  0.00    -0.237 OA
ATOM    105  O   UNL     1     -14.749  14.236  -6.026  1.00  0.00    -0.744 OA
ENDBRANCH  99 102
ENDBRANCH  71  95
BRANCH  83 106
ATOM    106  C   UNL     1      -6.950  15.170  -8.007  1.00  0.00     0.023 A 
ATOM    107  C   UNL     1      -7.366  15.780  -9.204  1.00  0.00     0.012 A 
ATOM    108  C   UNL     1      -5.921  15.859  -7.298  1.00  0.00     0.148 A 
ATOM    109  C   UNL     1      -6.819  16.984  -9.672  1.00  0.00     0.002 A 
ATOM    110  C   UNL     1      -5.444  17.102  -7.716  1.00  0.00     0.091 A 
ATOM    111  F   UNL     1      -5.352  15.300  -6.222  1.00  0.00    -0.205 F 
ATOM    112  C   UNL     1      -5.880  17.662  -8.914  1.00  0.00     0.022 A 
BRANCH 110 113
ATOM    113  S   UNL     1      -4.352  18.080  -6.672  1.00  0.00     0.127 S 
ATOM    114  O   UNL     1      -3.034  17.710  -7.182  1.00  0.00    -0.237 OA
ATOM    115  O   UNL     1      -4.762  19.451  -6.985  1.00  0.00    -0.237 OA
ATOM    116  O   UNL     1      -4.659  17.665  -5.310  1.00  0.00    -0.744 OA
ENDBRANCH 110 113
ENDBRANCH  83 106
ENDBRANCH  57  58
ENDBRANCH  49  52
ENDBRANCH  47  48
ENDBRANCH  46  47
ENDBRANCH  45  46
ENDBRANCH  44  45
ENDBRANCH   1  44
TORSDOF 23
