REMARK SMILES COC(=O)c1ccc(C)c(NC(=O)[C@H]2CC=CC[C@H]2C(=O)NCCCCCCNC(=O)c2ccc(-c3c4nc(c(-c5cccc(S(=O)(=O)[O-])c5F)c5ccc([nH]5)c(-c5cccc(S(=O)(=O)[O-])c5F)c5nc(c(-c6cccc(S(=O)(=O)[O-])c6F)c6ccc3[nH]6)C=C5)C=C4)cc2)c1
REMARK SMILES IDX 25 1 24 2 23 3 22 4 20 5 21 6 19 8 14 9 15 10 16 11 18 12
REMARK SMILES IDX 17 13 12 14 11 15 13 17 10 18 5 19 6 20 95 21 7 22 8 23 9 24
REMARK SMILES IDX 3 25 4 26 2 27 1 28 26 29 27 30 28 31 29 32 30 33 31 35
REMARK SMILES IDX 32 36 33 37 94 38 34 39 93 40 35 41 36 42 37 43 87 44 38 45
REMARK SMILES IDX 92 46 86 47 88 48 39 49 91 50 85 51 84 52 40 54 72 55 52 56
REMARK SMILES IDX 71 57 53 58 56 59 70 60 89 61 54 62 55 63 69 65 90 66 57 67
REMARK SMILES IDX 41 68 42 69 50 70 43 71 45 72 51 73 44 74 46 75 47 76 48 77
REMARK SMILES IDX 49 78 73 79 74 80 82 81 75 82 77 83 83 84 76 85 78 86 79 87
REMARK SMILES IDX 80 88 81 89 58 90 59 91 67 92 60 93 62 94 68 95 61 96 63 97
REMARK SMILES IDX 64 98 65 99 66 100
REMARK H PARENT 22 7 11 16 29 34 88 53 56 64
REMARK Flexibility Score: inf
ROOT
ATOM      1  C   UNL     1       9.362   0.602  -2.011  1.00  0.00     0.002 C 
ENDROOT
BRANCH   1   2
ATOM      2  C   UNL     1       8.300   0.349  -0.938  1.00  0.00     0.021 C 
BRANCH   2   3
ATOM      3  C   UNL     1       8.728  -0.544   0.227  1.00  0.00     0.116 C 
BRANCH   3   4
ATOM      4  N   UNL     1       9.781   0.032   1.040  1.00  0.00    -0.356 N 
ATOM      5  C   UNL     1       9.871   0.174   2.392  1.00  0.00     0.224 C 
ATOM      6  O   UNL     1      10.887   0.703   2.855  1.00  0.00    -0.275 OA
ATOM      7  H   UNL     1      10.553   0.376   0.535  1.00  0.00     0.163 HD
BRANCH   5   8
ATOM      8  C   UNL     1       8.799  -0.374   3.337  1.00  0.00     0.095 C 
ATOM      9  C   UNL     1       7.442   0.404   3.442  1.00  0.00     0.095 C 
ATOM     10  C   UNL     1       6.258  -0.461   3.935  1.00  0.00     0.041 C 
ATOM     11  C   UNL     1       6.485  -1.920   4.172  1.00  0.00    -0.030 C 
ATOM     12  C   UNL     1       8.759  -1.907   3.189  1.00  0.00     0.041 C 
ATOM     13  C   UNL     1       7.594  -2.574   3.828  1.00  0.00    -0.030 C 
BRANCH   9  14
ATOM     14  C   UNL     1       7.151   1.406   2.296  1.00  0.00     0.228 C 
ATOM     15  N   UNL     1       5.895   1.594   1.802  1.00  0.00    -0.326 N 
ATOM     16  H   UNL     1       5.814   1.512   0.824  1.00  0.00     0.169 HD
ATOM     17  O   UNL     1       8.051   2.078   1.789  1.00  0.00    -0.274 OA
BRANCH  15  18
ATOM     18  C   UNL     1       4.698   1.887   2.479  1.00  0.00     0.044 A 
ATOM     19  C   UNL     1       2.272   1.679   2.413  1.00  0.00     0.062 A 
ATOM     20  C   UNL     1       2.192   2.224   3.694  1.00  0.00     0.016 A 
ATOM     21  C   UNL     1       3.525   1.533   1.804  1.00  0.00     0.042 A 
ATOM     22  C   UNL     1       3.352   2.657   4.337  1.00  0.00     0.006 A 
ATOM     23  C   UNL     1       4.612   2.532   3.723  1.00  0.00    -0.027 A 
ATOM     24  C   UNL     1       5.778   3.190   4.405  1.00  0.00     0.046 C 
BRANCH  19  25
ATOM     25  C   UNL     1       1.042   1.137   1.780  1.00  0.00     0.337 C 
ATOM     26  O   UNL     1      -0.003   0.962   2.390  1.00  0.00    -0.246 OA
BRANCH  25  27
ATOM     27  O   UNL     1       1.336   0.750   0.521  1.00  0.00    -0.465 OA
ATOM     28  C   UNL     1       0.476  -0.224  -0.072  1.00  0.00     0.282 C 
ENDBRANCH  25  27
ENDBRANCH  19  25
ENDBRANCH  15  18
ENDBRANCH   9  14
ENDBRANCH   5   8
ENDBRANCH   3   4
ENDBRANCH   2   3
ENDBRANCH   1   2
BRANCH   1  29
ATOM     29  C   UNL     1      10.005  -0.639  -2.641  1.00  0.00     0.002 C 
BRANCH  29  30
ATOM     30  C   UNL     1       9.059  -1.784  -3.001  1.00  0.00     0.021 C 
BRANCH  30  31
ATOM     31  C   UNL     1       7.957  -1.419  -3.982  1.00  0.00     0.116 C 
BRANCH  31  32
ATOM     32  N   UNL     1       8.324  -1.663  -5.360  1.00  0.00    -0.352 N 
ATOM     33  C   UNL     1       7.535  -1.658  -6.494  1.00  0.00     0.251 C 
ATOM     34  H   UNL     1       9.276  -1.863  -5.512  1.00  0.00     0.163 HD
ATOM     35  O   UNL     1       7.974  -2.187  -7.511  1.00  0.00    -0.269 OA
BRANCH  33  36
ATOM     36  C   UNL     1       6.277  -0.866  -6.521  1.00  0.00     0.039 A 
ATOM     37  C   UNL     1       6.075  -0.056  -7.647  1.00  0.00     0.014 A 
ATOM     38  C   UNL     1       5.484  -0.688  -5.391  1.00  0.00     0.014 A 
ATOM     39  C   UNL     1       5.314   1.104  -7.534  1.00  0.00     0.010 A 
ATOM     40  C   UNL     1       4.791   0.494  -5.249  1.00  0.00     0.010 A 
ATOM     41  C   UNL     1       4.794   1.427  -6.289  1.00  0.00    -0.014 A 
BRANCH  41  42
ATOM     42  C   UNL     1       4.277   2.732  -5.923  1.00  0.00     0.031 A 
ATOM     43  C   UNL     1       2.838   3.011  -6.046  1.00  0.00     0.074 A 
ATOM     44  C   UNL     1       5.098   3.570  -5.247  1.00  0.00     0.049 A 
ATOM     45  N   UNL     1       2.320   4.166  -5.810  1.00  0.00    -0.248 NA
ATOM     46  C   UNL     1       1.861   2.008  -6.465  1.00  0.00     0.031 C 
ATOM     47  C   UNL     1       4.725   4.697  -4.399  1.00  0.00     0.029 A 
ATOM     48  N   UNL     1       6.488   3.697  -5.369  1.00  0.00    -0.354 N 
ATOM     49  C   UNL     1       0.966   3.975  -5.701  1.00  0.00     0.074 A 
ATOM     50  C   UNL     1       0.718   2.673  -6.265  1.00  0.00     0.031 C 
ATOM     51  C   UNL     1       5.763   5.545  -4.328  1.00  0.00     0.029 A 
ATOM     52  C   UNL     1       6.740   5.082  -5.297  1.00  0.00     0.049 A 
ATOM     53  H   UNL     1       7.147   2.974  -5.481  1.00  0.00     0.167 HD
ATOM     54  C   UNL     1       0.246   4.881  -4.989  1.00  0.00     0.034 A 
ATOM     55  C   UNL     1       7.188   5.810  -6.368  1.00  0.00     0.034 A 
ATOM     56  C   UNL     1       1.006   6.122  -4.787  1.00  0.00     0.049 A 
ATOM     57  C   UNL     1       6.235   6.927  -6.795  1.00  0.00     0.074 A 
ATOM     58  C   UNL     1       1.651   6.727  -3.724  1.00  0.00     0.029 A 
ATOM     59  N   UNL     1       1.413   6.813  -5.918  1.00  0.00    -0.354 N 
ATOM     60  N   UNL     1       5.113   7.226  -6.196  1.00  0.00    -0.248 NA
ATOM     61  C   UNL     1       6.439   7.728  -8.005  1.00  0.00     0.031 C 
ATOM     62  C   UNL     1       2.552   7.705  -4.260  1.00  0.00     0.029 A 
ATOM     63  C   UNL     1       2.412   7.728  -5.638  1.00  0.00     0.049 A 
ATOM     64  H   UNL     1       1.036   6.669  -6.816  1.00  0.00     0.167 HD
ATOM     65  C   UNL     1       4.382   8.069  -6.993  1.00  0.00     0.074 A 
ATOM     66  C   UNL     1       5.275   8.393  -8.093  1.00  0.00     0.031 C 
ATOM     67  C   UNL     1       3.074   8.394  -6.757  1.00  0.00     0.034 A 
BRANCH  54  68
ATOM     68  C   UNL     1      -1.107   4.612  -4.369  1.00  0.00     0.023 A 
ATOM     69  C   UNL     1      -1.786   5.707  -3.795  1.00  0.00     0.012 A 
ATOM     70  C   UNL     1      -1.717   3.341  -4.205  1.00  0.00     0.148 A 
ATOM     71  C   UNL     1      -2.999   5.557  -3.111  1.00  0.00     0.002 A 
ATOM     72  C   UNL     1      -2.966   3.204  -3.594  1.00  0.00     0.091 A 
ATOM     73  F   UNL     1      -1.053   2.227  -4.528  1.00  0.00    -0.205 F 
ATOM     74  C   UNL     1      -3.604   4.310  -3.031  1.00  0.00     0.022 A 
BRANCH  72  75
ATOM     75  S   UNL     1      -3.822   1.619  -3.523  1.00  0.00     0.127 S 
ATOM     76  O   UNL     1      -3.612   1.216  -2.134  1.00  0.00    -0.237 OA
ATOM     77  O   UNL     1      -5.200   1.987  -3.850  1.00  0.00    -0.237 OA
ATOM     78  O   UNL     1      -3.179   0.773  -4.522  1.00  0.00    -0.744 OA
ENDBRANCH  72  75
ENDBRANCH  54  68
BRANCH  55  79
ATOM     79  C   UNL     1       8.033   5.008  -7.309  1.00  0.00     0.023 A 
ATOM     80  C   UNL     1       9.213   4.428  -6.783  1.00  0.00     0.012 A 
ATOM     81  C   UNL     1       7.517   4.508  -8.517  1.00  0.00     0.148 A 
ATOM     82  C   UNL     1       9.759   3.276  -7.354  1.00  0.00     0.002 A 
ATOM     83  C   UNL     1       8.082   3.374  -9.093  1.00  0.00     0.091 A 
ATOM     84  F   UNL     1       6.440   5.095  -9.052  1.00  0.00    -0.205 F 
ATOM     85  C   UNL     1       9.169   2.727  -8.486  1.00  0.00     0.022 A 
BRANCH  83  86
ATOM     86  S   UNL     1       7.368   2.636 -10.568  1.00  0.00     0.127 S 
ATOM     87  O   UNL     1       8.136   3.290 -11.622  1.00  0.00    -0.237 OA
ATOM     88  O   UNL     1       7.658   1.214 -10.386  1.00  0.00    -0.237 OA
ATOM     89  O   UNL     1       5.952   2.967 -10.497  1.00  0.00    -0.744 OA
ENDBRANCH  83  86
ENDBRANCH  55  79
BRANCH  67  90
ATOM     90  C   UNL     1       2.325   9.394  -7.612  1.00  0.00     0.023 A 
ATOM     91  C   UNL     1       2.955  10.597  -7.997  1.00  0.00     0.012 A 
ATOM     92  C   UNL     1       0.952   9.256  -7.927  1.00  0.00     0.148 A 
ATOM     93  C   UNL     1       2.272  11.592  -8.702  1.00  0.00     0.002 A 
ATOM     94  C   UNL     1       0.250  10.295  -8.532  1.00  0.00     0.091 A 
ATOM     95  F   UNL     1       0.329   8.096  -7.690  1.00  0.00    -0.205 F 
ATOM     96  C   UNL     1       0.913  11.453  -8.948  1.00  0.00     0.022 A 
BRANCH  94  97
ATOM     97  S   UNL     1      -1.544  10.281  -8.673  1.00  0.00     0.127 S 
ATOM     98  O   UNL     1      -1.895  11.619  -8.191  1.00  0.00    -0.237 OA
ATOM     99  O   UNL     1      -1.734  10.081 -10.107  1.00  0.00    -0.237 OA
ATOM    100  O   UNL     1      -1.999   9.199  -7.811  1.00  0.00    -0.744 OA
ENDBRANCH  94  97
ENDBRANCH  67  90
ENDBRANCH  41  42
ENDBRANCH  33  36
ENDBRANCH  31  32
ENDBRANCH  30  31
ENDBRANCH  29  30
ENDBRANCH   1  29
TORSDOF 20
