REMARK SMILES CC(C)[NH2+][C@]1(C(=O)NCCCCCCNC(=O)c2ccc(-c3c4nc(c(-c5cccc(S(=O)(=O)[O-])c5F)c5ccc([nH]5)c(-c5cccc(S(=O)(=O)[O-])c5F)c5nc(c(-c6cccc(S(=O)(=O)[O-])c6F)c6ccc3[nH]6)C=C5)C=C4)cc2)CC[C@@H]([N@@H+](C)[C@@H](C)C(C)C)C1
REMARK SMILES IDX 11 1 10 2 9 3 8 4 6 5 7 6 5 8 81 9 91 10 82 11 83 12 4 13
REMARK SMILES IDX 2 16 1 17 3 18 84 19 85 20 86 22 87 23 88 24 89 25 90 26
REMARK SMILES IDX 12 27 13 28 14 29 15 30 16 31 17 33 18 34 19 35 80 36 20 37
REMARK SMILES IDX 79 38 21 39 22 40 23 41 73 42 24 43 78 44 72 45 74 46 25 47
REMARK SMILES IDX 77 48 71 49 70 50 26 52 58 53 38 54 57 55 39 56 42 57 56 58
REMARK SMILES IDX 75 59 40 60 41 61 55 63 76 64 43 65 27 66 28 67 36 68 29 69
REMARK SMILES IDX 31 70 37 71 30 72 32 73 33 74 34 75 35 76 59 77 60 78 68 79
REMARK SMILES IDX 61 80 63 81 69 82 62 83 64 84 65 85 66 86 67 87 44 88 45 89
REMARK SMILES IDX 53 90 46 91 48 92 54 93 47 94 49 95 50 96 51 97 52 98
REMARK H PARENT 8 7 4 14 4 15 84 21 15 32 74 51 42 62
REMARK Flexibility Score: inf
ROOT
ATOM      1  C   UNL     1       3.097   1.077  -0.074  1.00  0.00     0.002 C 
ENDROOT
BRANCH   1   2
ATOM      2  C   UNL     1       2.574   1.343   1.337  1.00  0.00     0.021 C 
BRANCH   2   3
ATOM      3  C   UNL     1       1.193   1.984   1.390  1.00  0.00     0.116 C 
BRANCH   3   4
ATOM      4  N   UNL     1       0.147   1.054   1.016  1.00  0.00    -0.351 N 
ATOM      5  C   UNL     1      -1.026   0.720   1.638  1.00  0.00     0.281 C 
ATOM      6  O   UNL     1      -1.713  -0.135   1.070  1.00  0.00    -0.268 OA
ATOM      7  H   UNL     1       0.308   0.580   0.169  1.00  0.00     0.163 HD
BRANCH   5   8
ATOM      8  C   UNL     1      -1.440   1.377   3.014  1.00  0.00     0.181 C 
ATOM      9  C   UNL     1      -1.422   2.911   2.850  1.00  0.00     0.085 C 
ATOM     10  C   UNL     1      -2.938   1.085   3.285  1.00  0.00     0.144 C 
ATOM     11  C   UNL     1      -2.511   3.473   3.732  1.00  0.00     0.072 C 
ATOM     12  C   UNL     1      -3.577   2.385   3.819  1.00  0.00     0.191 C 
BRANCH   8  13
ATOM     13  N   UNL     1      -0.492   0.846   4.014  1.00  0.00    -0.331 N 
ATOM     14  H   UNL     1      -0.220  -0.077   3.674  1.00  0.00     0.347 HD
ATOM     15  H   UNL     1       0.185   1.607   4.062  1.00  0.00     0.347 HD
BRANCH  13  16
ATOM     16  C   UNL     1      -0.808   0.668   5.423  1.00  0.00     0.176 C 
ATOM     17  C   UNL     1       0.264  -0.275   5.989  1.00  0.00     0.075 C 
ATOM     18  C   UNL     1      -0.792   1.964   6.229  1.00  0.00     0.075 C 
ENDBRANCH  13  16
ENDBRANCH   8  13
BRANCH  12  19
ATOM     19  N   UNL     1      -4.936   2.737   3.352  1.00  0.00    -0.332 N 
ATOM     20  C   UNL     1      -5.577   3.620   4.340  1.00  0.00     0.333 C 
ATOM     21  H   UNL     1      -5.364   1.814   3.278  1.00  0.00     0.348 HD
BRANCH  19  22
ATOM     22  C   UNL     1      -5.183   3.219   1.960  1.00  0.00     0.183 C 
ATOM     23  C   UNL     1      -4.605   4.600   1.605  1.00  0.00     0.075 C 
BRANCH  22  24
ATOM     24  C   UNL     1      -4.884   2.169   0.843  1.00  0.00     0.041 C 
ATOM     25  C   UNL     1      -5.739   0.906   1.032  1.00  0.00     0.013 C 
ATOM     26  C   UNL     1      -5.114   2.695  -0.581  1.00  0.00     0.013 C 
ENDBRANCH  22  24
ENDBRANCH  19  22
ENDBRANCH  12  19
ENDBRANCH   5   8
ENDBRANCH   3   4
ENDBRANCH   2   3
ENDBRANCH   1   2
BRANCH   1  27
ATOM     27  C   UNL     1       3.155   2.303  -0.992  1.00  0.00     0.002 C 
BRANCH  27  28
ATOM     28  C   UNL     1       3.883   3.522  -0.419  1.00  0.00     0.021 C 
BRANCH  28  29
ATOM     29  C   UNL     1       5.306   3.260   0.061  1.00  0.00     0.116 C 
BRANCH  29  30
ATOM     30  N   UNL     1       6.167   2.771  -1.002  1.00  0.00    -0.352 N 
ATOM     31  C   UNL     1       7.392   3.235  -1.412  1.00  0.00     0.251 C 
ATOM     32  H   UNL     1       5.822   1.995  -1.500  1.00  0.00     0.163 HD
ATOM     33  O   UNL     1       7.895   2.807  -2.444  1.00  0.00    -0.269 OA
BRANCH  31  34
ATOM     34  C   UNL     1       8.092   4.268  -0.617  1.00  0.00     0.039 A 
ATOM     35  C   UNL     1       8.679   5.346  -1.283  1.00  0.00     0.014 A 
ATOM     36  C   UNL     1       8.171   4.176   0.776  1.00  0.00     0.014 A 
ATOM     37  C   UNL     1       9.298   6.359  -0.548  1.00  0.00     0.010 A 
ATOM     38  C   UNL     1       8.718   5.224   1.510  1.00  0.00     0.010 A 
ATOM     39  C   UNL     1       9.295   6.324   0.857  1.00  0.00    -0.014 A 
BRANCH  39  40
ATOM     40  C   UNL     1       9.874   7.436   1.653  1.00  0.00     0.031 A 
ATOM     41  C   UNL     1      11.039   7.191   2.574  1.00  0.00     0.074 A 
ATOM     42  C   UNL     1       9.297   8.654   1.611  1.00  0.00     0.049 A 
ATOM     43  N   UNL     1      11.647   8.028   3.374  1.00  0.00    -0.248 NA
ATOM     44  C   UNL     1      11.575   5.821   2.624  1.00  0.00     0.031 C 
ATOM     45  C   UNL     1       8.111   8.999   0.824  1.00  0.00     0.029 A 
ATOM     46  N   UNL     1       9.610   9.819   2.266  1.00  0.00    -0.354 N 
ATOM     47  C   UNL     1      12.605   7.283   4.050  1.00  0.00     0.074 A 
ATOM     48  C   UNL     1      12.479   5.918   3.587  1.00  0.00     0.031 C 
ATOM     49  C   UNL     1       7.798  10.286   1.040  1.00  0.00     0.029 A 
ATOM     50  C   UNL     1       8.736  10.849   2.006  1.00  0.00     0.049 A 
ATOM     51  H   UNL     1      10.386   9.909   2.865  1.00  0.00     0.167 HD
ATOM     52  C   UNL     1      13.522   7.699   4.955  1.00  0.00     0.034 A 
ATOM     53  C   UNL     1       8.684  12.102   2.500  1.00  0.00     0.034 A 
ATOM     54  C   UNL     1      13.667   9.063   5.386  1.00  0.00     0.049 A 
ATOM     55  C   UNL     1       9.739  12.551   3.473  1.00  0.00     0.074 A 
ATOM     56  C   UNL     1      14.632   9.603   6.219  1.00  0.00     0.029 A 
ATOM     57  N   UNL     1      12.816  10.100   5.037  1.00  0.00    -0.354 N 
ATOM     58  N   UNL     1      10.745  11.872   3.970  1.00  0.00    -0.248 NA
ATOM     59  C   UNL     1       9.677  13.948   3.925  1.00  0.00     0.031 C 
ATOM     60  C   UNL     1      14.338  10.958   6.407  1.00  0.00     0.029 A 
ATOM     61  C   UNL     1      13.218  11.272   5.654  1.00  0.00     0.049 A 
ATOM     62  H   UNL     1      12.040  10.015   4.437  1.00  0.00     0.167 HD
ATOM     63  C   UNL     1      11.453  12.765   4.765  1.00  0.00     0.074 A 
ATOM     64  C   UNL     1      10.773  14.040   4.666  1.00  0.00     0.031 C 
ATOM     65  C   UNL     1      12.559  12.546   5.518  1.00  0.00     0.034 A 
BRANCH  52  66
ATOM     66  C   UNL     1      14.466   6.669   5.523  1.00  0.00     0.023 A 
ATOM     67  C   UNL     1      15.461   6.099   4.702  1.00  0.00     0.012 A 
ATOM     68  C   UNL     1      14.404   6.308   6.883  1.00  0.00     0.148 A 
ATOM     69  C   UNL     1      16.352   5.157   5.215  1.00  0.00     0.002 A 
ATOM     70  C   UNL     1      15.327   5.406   7.399  1.00  0.00     0.091 A 
ATOM     71  F   UNL     1      13.439   6.844   7.644  1.00  0.00    -0.205 F 
ATOM     72  C   UNL     1      16.292   4.819   6.564  1.00  0.00     0.022 A 
BRANCH  70  73
ATOM     73  S   UNL     1      15.386   4.970   9.140  1.00  0.00     0.127 S 
ATOM     74  O   UNL     1      14.919   3.585   9.113  1.00  0.00    -0.237 OA
ATOM     75  O   UNL     1      16.808   5.128   9.448  1.00  0.00    -0.237 OA
ATOM     76  O   UNL     1      14.509   5.912   9.821  1.00  0.00    -0.744 OA
ENDBRANCH  70  73
ENDBRANCH  52  66
BRANCH  53  77
ATOM     77  C   UNL     1       7.614  13.033   2.044  1.00  0.00     0.023 A 
ATOM     78  C   UNL     1       7.944  14.128   1.223  1.00  0.00     0.012 A 
ATOM     79  C   UNL     1       6.266  12.816   2.392  1.00  0.00     0.148 A 
ATOM     80  C   UNL     1       6.956  15.010   0.783  1.00  0.00     0.002 A 
ATOM     81  C   UNL     1       5.280  13.663   1.903  1.00  0.00     0.091 A 
ATOM     82  F   UNL     1       5.975  11.772   3.181  1.00  0.00    -0.205 F 
ATOM     83  C   UNL     1       5.624  14.772   1.113  1.00  0.00     0.022 A 
BRANCH  81  84
ATOM     84  S   UNL     1       3.530  13.356   2.163  1.00  0.00     0.127 S 
ATOM     85  O   UNL     1       3.158  14.464   3.038  1.00  0.00    -0.237 OA
ATOM     86  O   UNL     1       3.004  13.442   0.800  1.00  0.00    -0.237 OA
ATOM     87  O   UNL     1       3.445  12.027   2.755  1.00  0.00    -0.744 OA
ENDBRANCH  81  84
ENDBRANCH  53  77
BRANCH  65  88
ATOM     88  C   UNL     1      13.138  13.717   6.270  1.00  0.00     0.023 A 
ATOM     89  C   UNL     1      12.463  14.242   7.389  1.00  0.00     0.012 A 
ATOM     90  C   UNL     1      14.392  14.249   5.907  1.00  0.00     0.148 A 
ATOM     91  C   UNL     1      13.008  15.302   8.113  1.00  0.00     0.002 A 
ATOM     92  C   UNL     1      14.954  15.268   6.665  1.00  0.00     0.091 A 
ATOM     93  F   UNL     1      15.011  13.748   4.829  1.00  0.00    -0.205 F 
ATOM     94  C   UNL     1      14.258  15.806   7.760  1.00  0.00     0.022 A 
BRANCH  92  95
ATOM     95  S   UNL     1      16.601  15.911   6.346  1.00  0.00     0.127 S 
ATOM     96  O   UNL     1      16.304  17.247   5.832  1.00  0.00    -0.237 OA
ATOM     97  O   UNL     1      17.204  15.891   7.679  1.00  0.00    -0.237 OA
ATOM     98  O   UNL     1      17.213  14.997   5.392  1.00  0.00    -0.744 OA
ENDBRANCH  92  95
ENDBRANCH  65  88
ENDBRANCH  39  40
ENDBRANCH  31  34
ENDBRANCH  29  30
ENDBRANCH  28  29
ENDBRANCH  27  28
ENDBRANCH   1  27
TORSDOF 21
