REMARK SMILES COCCCNC(=O)[C@@H]1[C@@H](C(=O)NCCCCCCNC(=O)c2ccc(-c3c4nc(c(-c5cccc(S(=O)(=O)[O-])c5F)c5ccc([nH]5)c(-c5cccc(S(=O)(=O)[O-])c5F)c5nc(c(-c6cccc(S(=O)(=O)[O-])c6F)c6ccc3[nH]6)C=C5)C=C4)cc2)[C@@H]2C=C[C@H]1C2
REMARK SMILES IDX 15 1 14 2 13 3 11 4 12 5 10 7 9 8 89 9 86 10 88 11 90 12
REMARK SMILES IDX 87 13 7 14 6 15 8 17 5 18 4 19 3 20 2 21 1 22 16 23 17 24
REMARK SMILES IDX 18 25 19 26 20 27 21 28 22 30 23 31 24 32 85 33 25 34 84 35
REMARK SMILES IDX 26 36 27 37 28 38 78 39 29 40 83 41 77 42 79 43 30 44 82 45
REMARK SMILES IDX 76 46 75 47 31 49 63 50 43 51 62 52 44 53 47 54 61 55 80 56
REMARK SMILES IDX 45 57 46 58 60 60 81 61 48 62 32 63 33 64 41 65 34 66 36 67
REMARK SMILES IDX 42 68 35 69 37 70 38 71 39 72 40 73 64 74 65 75 73 76 66 77
REMARK SMILES IDX 68 78 74 79 67 80 69 81 70 82 71 83 72 84 49 85 50 86 58 87
REMARK SMILES IDX 51 88 53 89 59 90 52 91 54 92 55 93 56 94 57 95
REMARK H PARENT 13 6 6 16 20 29 79 48 47 59
REMARK Flexibility Score: inf
ROOT
ATOM      1  C   UNL     1       3.242  -4.173   6.672  1.00  0.00     0.021 C 
ENDROOT
BRANCH   1   2
ATOM      2  C   UNL     1       2.892  -3.986   5.191  1.00  0.00     0.116 C 
BRANCH   2   3
ATOM      3  N   UNL     1       1.451  -3.934   5.028  1.00  0.00    -0.356 N 
ATOM      4  C   UNL     1       0.547  -2.952   5.242  1.00  0.00     0.224 C 
ATOM      5  O   UNL     1      -0.598  -3.345   5.506  1.00  0.00    -0.275 OA
ATOM      6  H   UNL     1       1.057  -4.774   4.699  1.00  0.00     0.163 HD
BRANCH   4   7
ATOM      7  C   UNL     1       0.778  -1.468   4.959  1.00  0.00     0.098 C 
ATOM      8  C   UNL     1       2.158  -0.786   5.114  1.00  0.00     0.098 C 
ATOM      9  C   UNL     1       1.904   0.352   6.136  1.00  0.00     0.025 C 
ATOM     10  C   UNL     1      -0.094  -0.628   5.958  1.00  0.00     0.025 C 
ATOM     11  C   UNL     1       0.964   1.381   5.567  1.00  0.00    -0.027 C 
ATOM     12  C   UNL     1       0.921  -0.354   7.077  1.00  0.00     0.017 C 
ATOM     13  C   UNL     1      -0.237   0.795   5.460  1.00  0.00    -0.027 C 
BRANCH   8  14
ATOM     14  C   UNL     1       2.916  -0.307   3.875  1.00  0.00     0.224 C 
ATOM     15  N   UNL     1       2.379   0.285   2.777  1.00  0.00    -0.356 N 
ATOM     16  H   UNL     1       3.052   0.698   2.188  1.00  0.00     0.163 HD
ATOM     17  O   UNL     1       4.151  -0.399   3.876  1.00  0.00    -0.275 OA
BRANCH  15  18
ATOM     18  C   UNL     1       1.017   0.437   2.291  1.00  0.00     0.118 C 
BRANCH  18  19
ATOM     19  C   UNL     1       0.707   1.812   1.709  1.00  0.00     0.050 C 
BRANCH  19  20
ATOM     20  C   UNL     1       1.319   2.107   0.345  1.00  0.00     0.161 C 
BRANCH  20  21
ATOM     21  O   UNL     1       0.596   1.516  -0.733  1.00  0.00    -0.385 OA
ATOM     22  C   UNL     1       0.941   0.168  -1.014  1.00  0.00     0.194 C 
ENDBRANCH  20  21
ENDBRANCH  19  20
ENDBRANCH  18  19
ENDBRANCH  15  18
ENDBRANCH   8  14
ENDBRANCH   4   7
ENDBRANCH   2   3
ENDBRANCH   1   2
BRANCH   1  23
ATOM     23  C   UNL     1       2.727  -5.496   7.267  1.00  0.00     0.002 C 
BRANCH  23  24
ATOM     24  C   UNL     1       3.239  -6.762   6.573  1.00  0.00     0.002 C 
BRANCH  24  25
ATOM     25  C   UNL     1       4.763  -6.902   6.535  1.00  0.00     0.021 C 
BRANCH  25  26
ATOM     26  C   UNL     1       5.426  -6.971   7.907  1.00  0.00     0.116 C 
BRANCH  26  27
ATOM     27  N   UNL     1       5.018  -8.155   8.646  1.00  0.00    -0.352 N 
ATOM     28  C   UNL     1       5.789  -9.081   9.302  1.00  0.00     0.251 C 
ATOM     29  H   UNL     1       4.047  -8.315   8.681  1.00  0.00     0.163 HD
ATOM     30  O   UNL     1       5.275 -10.125   9.694  1.00  0.00    -0.269 OA
BRANCH  28  31
ATOM     31  C   UNL     1       7.229  -8.830   9.535  1.00  0.00     0.039 A 
ATOM     32  C   UNL     1       8.124  -9.897   9.416  1.00  0.00     0.014 A 
ATOM     33  C   UNL     1       7.694  -7.570   9.926  1.00  0.00     0.014 A 
ATOM     34  C   UNL     1       9.482  -9.698   9.673  1.00  0.00     0.010 A 
ATOM     35  C   UNL     1       9.058  -7.356  10.109  1.00  0.00     0.010 A 
ATOM     36  C   UNL     1       9.962  -8.424  10.018  1.00  0.00    -0.014 A 
BRANCH  36  37
ATOM     37  C   UNL     1      11.396  -8.211  10.338  1.00  0.00     0.031 A 
ATOM     38  C   UNL     1      11.807  -7.804  11.730  1.00  0.00     0.074 A 
ATOM     39  C   UNL     1      12.326  -8.337   9.370  1.00  0.00     0.049 A 
ATOM     40  N   UNL     1      13.005  -7.578  12.203  1.00  0.00    -0.248 NA
ATOM     41  C   UNL     1      10.729  -7.598  12.712  1.00  0.00     0.031 C 
ATOM     42  C   UNL     1      12.049  -8.644   7.966  1.00  0.00     0.029 A 
ATOM     43  N   UNL     1      13.691  -8.205   9.419  1.00  0.00    -0.354 N 
ATOM     44  C   UNL     1      12.824  -7.172  13.521  1.00  0.00     0.074 A 
ATOM     45  C   UNL     1      11.399  -7.142  13.761  1.00  0.00     0.031 C 
ATOM     46  C   UNL     1      13.208  -8.688   7.289  1.00  0.00     0.029 A 
ATOM     47  C   UNL     1      14.307  -8.398   8.205  1.00  0.00     0.049 A 
ATOM     48  H   UNL     1      14.182  -7.992  10.245  1.00  0.00     0.167 HD
ATOM     49  C   UNL     1      13.758  -6.886  14.459  1.00  0.00     0.034 A 
ATOM     50  C   UNL     1      15.612  -8.357   7.872  1.00  0.00     0.034 A 
ATOM     51  C   UNL     1      15.175  -6.971  14.234  1.00  0.00     0.049 A 
ATOM     52  C   UNL     1      16.633  -8.113   8.951  1.00  0.00     0.074 A 
ATOM     53  C   UNL     1      16.205  -6.779  15.137  1.00  0.00     0.029 A 
ATOM     54  N   UNL     1      15.763  -7.278  13.017  1.00  0.00    -0.354 N 
ATOM     55  N   UNL     1      16.447  -7.888  10.229  1.00  0.00    -0.248 NA
ATOM     56  C   UNL     1      18.047  -8.167   8.552  1.00  0.00     0.031 C 
ATOM     57  C   UNL     1      17.417  -6.960  14.463  1.00  0.00     0.029 A 
ATOM     58  C   UNL     1      17.141  -7.287  13.145  1.00  0.00     0.049 A 
ATOM     59  H   UNL     1      15.272  -7.462  12.183  1.00  0.00     0.167 HD
ATOM     60  C   UNL     1      17.715  -7.820  10.794  1.00  0.00     0.074 A 
ATOM     61  C   UNL     1      18.662  -8.046   9.721  1.00  0.00     0.031 C 
ATOM     62  C   UNL     1      18.067  -7.580  12.082  1.00  0.00     0.034 A 
BRANCH  49  63
ATOM     63  C   UNL     1      13.273  -6.518  15.838  1.00  0.00     0.023 A 
ATOM     64  C   UNL     1      12.694  -7.510  16.657  1.00  0.00     0.012 A 
ATOM     65  C   UNL     1      13.431  -5.213  16.343  1.00  0.00     0.148 A 
ATOM     66  C   UNL     1      12.247  -7.201  17.941  1.00  0.00     0.002 A 
ATOM     67  C   UNL     1      13.024  -4.923  17.642  1.00  0.00     0.091 A 
ATOM     68  F   UNL     1      13.963  -4.277  15.545  1.00  0.00    -0.205 F 
ATOM     69  C   UNL     1      12.421  -5.912  18.436  1.00  0.00     0.022 A 
BRANCH  67  70
ATOM     70  S   UNL     1      13.277  -3.315  18.401  1.00  0.00     0.127 S 
ATOM     71  O   UNL     1      11.913  -2.788  18.436  1.00  0.00    -0.237 OA
ATOM     72  O   UNL     1      13.826  -3.673  19.709  1.00  0.00    -0.237 OA
ATOM     73  O   UNL     1      14.201  -2.602  17.530  1.00  0.00    -0.744 OA
ENDBRANCH  67  70
ENDBRANCH  49  63
BRANCH  50  74
ATOM     74  C   UNL     1      16.033  -8.653   6.473  1.00  0.00     0.023 A 
ATOM     75  C   UNL     1      16.700  -9.862   6.194  1.00  0.00     0.012 A 
ATOM     76  C   UNL     1      15.758  -7.762   5.418  1.00  0.00     0.148 A 
ATOM     77  C   UNL     1      17.117 -10.163   4.897  1.00  0.00     0.002 A 
ATOM     78  C   UNL     1      16.129  -8.092   4.119  1.00  0.00     0.091 A 
ATOM     79  F   UNL     1      15.132  -6.612   5.704  1.00  0.00    -0.205 F 
ATOM     80  C   UNL     1      16.824  -9.284   3.859  1.00  0.00     0.022 A 
BRANCH  78  81
ATOM     81  S   UNL     1      15.679  -7.082   2.704  1.00  0.00     0.127 S 
ATOM     82  O   UNL     1      16.960  -6.483   2.344  1.00  0.00    -0.237 OA
ATOM     83  O   UNL     1      15.179  -8.083   1.762  1.00  0.00    -0.237 OA
ATOM     84  O   UNL     1      14.660  -6.160   3.191  1.00  0.00    -0.744 OA
ENDBRANCH  78  81
ENDBRANCH  50  74
BRANCH  62  85
ATOM     85  C   UNL     1      19.534  -7.601  12.421  1.00  0.00     0.023 A 
ATOM     86  C   UNL     1      20.369  -6.548  11.999  1.00  0.00     0.012 A 
ATOM     87  C   UNL     1      20.069  -8.632  13.218  1.00  0.00     0.148 A 
ATOM     88  C   UNL     1      21.723  -6.542  12.332  1.00  0.00     0.002 A 
ATOM     89  C   UNL     1      21.409  -8.593  13.587  1.00  0.00     0.091 A 
ATOM     90  F   UNL     1      19.265  -9.638  13.593  1.00  0.00    -0.205 F 
ATOM     91  C   UNL     1      22.240  -7.556  13.135  1.00  0.00     0.022 A 
BRANCH  89  92
ATOM     92  S   UNL     1      22.126  -9.808  14.699  1.00  0.00     0.127 S 
ATOM     93  O   UNL     1      22.844 -10.678  13.769  1.00  0.00    -0.237 OA
ATOM     94  O   UNL     1      22.987  -8.985  15.551  1.00  0.00    -0.237 OA
ATOM     95  O   UNL     1      21.002 -10.419  15.396  1.00  0.00    -0.744 OA
ENDBRANCH  89  92
ENDBRANCH  62  85
ENDBRANCH  36  37
ENDBRANCH  28  31
ENDBRANCH  26  27
ENDBRANCH  25  26
ENDBRANCH  24  25
ENDBRANCH  23  24
ENDBRANCH   1  23
TORSDOF 21
