REMARK SMILES CCOC(=O)c1c(NC(=O)/C=C(/C)C(=O)NCCCCCCNC(=O)c2ccc(-c3c4nc(c(-c5cccc(S(=O)(=O)[O-])c5F)c5ccc([nH]5)c(-c5cccc(S(=O)(=O)[O-])c5F)c5nc(c(-c6cccc(S(=O)(=O)[O-])c6F)c6ccc3[nH]6)C=C5)C=C4)cc2)sc2c1CC[C@H](C(C)(C)C)C2
REMARK SMILES IDX 18 1 17 2 16 3 14 4 15 5 12 7 11 8 13 9 9 10 8 11 10 13 7 14
REMARK SMILES IDX 6 15 91 16 89 17 90 18 92 19 99 20 93 21 94 22 4 23 5 24
REMARK SMILES IDX 3 25 2 26 1 27 95 28 96 29 97 30 98 31 19 32 20 33 21 34
REMARK SMILES IDX 22 35 23 36 24 37 25 39 26 40 27 41 88 42 28 43 87 44 29 45
REMARK SMILES IDX 30 46 31 47 81 48 32 49 86 50 80 51 82 52 33 53 85 54 79 55
REMARK SMILES IDX 78 56 34 58 66 59 46 60 65 61 47 62 50 63 64 64 83 65 48 66
REMARK SMILES IDX 49 67 63 69 84 70 51 71 35 72 36 73 44 74 37 75 39 76 45 77
REMARK SMILES IDX 38 78 40 79 41 80 42 81 43 82 67 83 68 84 76 85 69 86 71 87
REMARK SMILES IDX 77 88 70 89 72 90 73 91 74 92 75 93 52 94 53 95 61 96 54 97
REMARK SMILES IDX 56 98 62 99 55 100 57 101 58 102 59 103 60 104
REMARK H PARENT 16 6 8 12 23 38 82 57 50 68
REMARK Flexibility Score: inf
ROOT
ATOM      1  C   UNL     1       0.039   4.907   0.731  1.00  0.00     0.021 C 
ENDROOT
BRANCH   1   2
ATOM      2  C   UNL     1      -0.269   3.820  -0.419  1.00  0.00     0.116 C 
BRANCH   2   3
ATOM      3  N   UNL     1       0.654   2.825  -1.251  1.00  0.00    -0.352 N 
ATOM      4  C   UNL     1       1.609   1.839  -1.467  1.00  0.00     0.247 C 
ATOM      5  O   UNL     1       1.551   1.454  -2.654  1.00  0.00    -0.270 OA
ATOM      6  H   UNL     1       0.385   3.037  -2.174  1.00  0.00     0.163 HD
BRANCH   4   7
ATOM      7  C   UNL     1       2.742   1.131  -0.664  1.00  0.00     0.019 C 
ATOM      8  C   UNL     1       3.938   0.974  -1.269  1.00  0.00     0.080 C 
ATOM      9  C   UNL     1       2.919   0.477   0.699  1.00  0.00     0.050 C 
BRANCH   8  10
ATOM     10  C   UNL     1       4.553   1.562  -2.451  1.00  0.00     0.249 C 
ATOM     11  N   UNL     1       5.026   2.828  -2.282  1.00  0.00    -0.313 N 
ATOM     12  H   UNL     1       5.881   3.027  -2.728  1.00  0.00     0.171 HD
ATOM     13  O   UNL     1       4.976   0.832  -3.344  1.00  0.00    -0.270 OA
BRANCH  11  14
ATOM     14  C   UNL     1       4.467   3.868  -1.569  1.00  0.00     0.110 A 
ATOM     15  C   UNL     1       3.210   4.105  -1.005  1.00  0.00     0.098 A 
ATOM     16  C   UNL     1       2.710   5.158  -1.954  1.00  0.00    -0.017 A 
ATOM     17  S   UNL     1       5.251   5.342  -1.980  1.00  0.00    -0.122 S 
ATOM     18  C   UNL     1       3.738   6.015  -2.351  1.00  0.00     0.011 A 
ATOM     19  C   UNL     1       1.357   5.406  -2.550  1.00  0.00     0.038 C 
ATOM     20  C   UNL     1       3.577   7.326  -3.102  1.00  0.00     0.051 C 
ATOM     21  C   UNL     1       1.200   6.689  -3.387  1.00  0.00     0.009 C 
ATOM     22  C   UNL     1       2.122   7.834  -2.909  1.00  0.00    -0.000 C 
BRANCH  15  23
ATOM     23  C   UNL     1       2.927   3.740   0.495  1.00  0.00     0.341 C 
ATOM     24  O   UNL     1       3.773   4.116   1.305  1.00  0.00    -0.246 OA
BRANCH  23  25
ATOM     25  O   UNL     1       1.890   2.981   1.042  1.00  0.00    -0.462 OA
BRANCH  25  26
ATOM     26  C   UNL     1       0.617   2.081   1.609  1.00  0.00     0.230 C 
ATOM     27  C   UNL     1      -0.021   0.844   0.894  1.00  0.00     0.049 C 
ENDBRANCH  25  26
ENDBRANCH  23  25
ENDBRANCH  15  23
BRANCH  22  28
ATOM     28  C   UNL     1       1.731   9.243  -3.504  1.00  0.00    -0.035 C 
ATOM     29  C   UNL     1       0.582   9.850  -2.655  1.00  0.00     0.011 C 
ATOM     30  C   UNL     1       2.902  10.238  -3.437  1.00  0.00     0.011 C 
ATOM     31  C   UNL     1       1.228   9.176  -4.957  1.00  0.00     0.011 C 
ENDBRANCH  22  28
ENDBRANCH  11  14
ENDBRANCH   8  10
ENDBRANCH   4   7
ENDBRANCH   2   3
ENDBRANCH   1   2
BRANCH   1  32
ATOM     32  C   UNL     1       0.685   6.294   0.551  1.00  0.00     0.002 C 
BRANCH  32  33
ATOM     33  C   UNL     1      -0.135   7.351  -0.184  1.00  0.00     0.002 C 
BRANCH  33  34
ATOM     34  C   UNL     1      -1.380   7.835   0.532  1.00  0.00     0.021 C 
BRANCH  34  35
ATOM     35  C   UNL     1      -1.065   8.836   1.628  1.00  0.00     0.116 C 
BRANCH  35  36
ATOM     36  N   UNL     1      -0.690  10.145   1.088  1.00  0.00    -0.352 N 
ATOM     37  C   UNL     1      -1.398  11.326   1.096  1.00  0.00     0.251 C 
ATOM     38  H   UNL     1       0.194  10.187   0.657  1.00  0.00     0.163 HD
ATOM     39  O   UNL     1      -1.046  12.275   0.403  1.00  0.00    -0.269 OA
BRANCH  37  40
ATOM     40  C   UNL     1      -2.603  11.421   1.945  1.00  0.00     0.039 A 
ATOM     41  C   UNL     1      -3.782  11.967   1.438  1.00  0.00     0.014 A 
ATOM     42  C   UNL     1      -2.569  10.879   3.229  1.00  0.00     0.014 A 
ATOM     43  C   UNL     1      -4.954  11.883   2.195  1.00  0.00     0.010 A 
ATOM     44  C   UNL     1      -3.755  10.657   3.903  1.00  0.00     0.010 A 
ATOM     45  C   UNL     1      -4.958  11.182   3.413  1.00  0.00    -0.014 A 
BRANCH  45  46
ATOM     46  C   UNL     1      -6.187  10.995   4.223  1.00  0.00     0.031 A 
ATOM     47  C   UNL     1      -6.198  11.444   5.663  1.00  0.00     0.074 A 
ATOM     48  C   UNL     1      -7.228  10.303   3.720  1.00  0.00     0.049 A 
ATOM     49  N   UNL     1      -7.106  11.252   6.582  1.00  0.00    -0.248 NA
ATOM     50  C   UNL     1      -4.998  12.149   6.151  1.00  0.00     0.031 C 
ATOM     51  C   UNL     1      -7.288   9.712   2.381  1.00  0.00     0.029 A 
ATOM     52  N   UNL     1      -8.424   9.947   4.292  1.00  0.00    -0.354 N 
ATOM     53  C   UNL     1      -6.558  11.744   7.761  1.00  0.00     0.074 A 
ATOM     54  C   UNL     1      -5.219  12.189   7.455  1.00  0.00     0.031 C 
ATOM     55  C   UNL     1      -8.463   9.079   2.231  1.00  0.00     0.029 A 
ATOM     56  C   UNL     1      -9.225   9.190   3.470  1.00  0.00     0.049 A 
ATOM     57  H   UNL     1      -8.683  10.210   5.205  1.00  0.00     0.167 HD
ATOM     58  C   UNL     1      -7.130  11.856   8.982  1.00  0.00     0.034 A 
ATOM     59  C   UNL     1     -10.435   8.642   3.693  1.00  0.00     0.034 A 
ATOM     60  C   UNL     1      -8.492  11.489   9.253  1.00  0.00     0.049 A 
ATOM     61  C   UNL     1     -11.101   8.876   5.021  1.00  0.00     0.074 A 
ATOM     62  C   UNL     1      -9.224  11.687  10.408  1.00  0.00     0.029 A 
ATOM     63  N   UNL     1      -9.326  10.847   8.351  1.00  0.00    -0.354 N 
ATOM     64  N   UNL     1     -10.638   9.505   6.074  1.00  0.00    -0.248 NA
ATOM     65  C   UNL     1     -12.468   8.362   5.181  1.00  0.00     0.031 C 
ATOM     66  C   UNL     1     -10.497  11.140  10.213  1.00  0.00     0.029 A 
ATOM     67  C   UNL     1     -10.565  10.630   8.925  1.00  0.00     0.049 A 
ATOM     68  H   UNL     1      -9.074  10.585   7.436  1.00  0.00     0.167 HD
ATOM     69  C   UNL     1     -11.664   9.491   7.011  1.00  0.00     0.074 A 
ATOM     70  C   UNL     1     -12.782   8.807   6.391  1.00  0.00     0.031 C 
ATOM     71  C   UNL     1     -11.678   9.986   8.274  1.00  0.00     0.034 A 
BRANCH  58  72
ATOM     72  C   UNL     1      -6.298  12.449  10.091  1.00  0.00     0.023 A 
ATOM     73  C   UNL     1      -5.918  13.807  10.037  1.00  0.00     0.012 A 
ATOM     74  C   UNL     1      -5.901  11.668  11.193  1.00  0.00     0.148 A 
ATOM     75  C   UNL     1      -5.110  14.362  11.027  1.00  0.00     0.002 A 
ATOM     76  C   UNL     1      -5.141  12.244  12.206  1.00  0.00     0.091 A 
ATOM     77  F   UNL     1      -6.247  10.374  11.221  1.00  0.00    -0.205 F 
ATOM     78  C   UNL     1      -4.730  13.584  12.116  1.00  0.00     0.022 A 
BRANCH  76  79
ATOM     79  S   UNL     1      -4.676  11.347  13.691  1.00  0.00     0.127 S 
ATOM     80  O   UNL     1      -3.252  11.110  13.460  1.00  0.00    -0.237 OA
ATOM     81  O   UNL     1      -4.968  12.322  14.743  1.00  0.00    -0.237 OA
ATOM     82  O   UNL     1      -5.516  10.158  13.718  1.00  0.00    -0.744 OA
ENDBRANCH  76  79
ENDBRANCH  58  72
BRANCH  59  83
ATOM     83  C   UNL     1     -11.118   7.896   2.599  1.00  0.00     0.023 A 
ATOM     84  C   UNL     1     -12.217   8.483   1.942  1.00  0.00     0.012 A 
ATOM     85  C   UNL     1     -10.641   6.646   2.157  1.00  0.00     0.148 A 
ATOM     86  C   UNL     1     -12.843   7.830   0.879  1.00  0.00     0.002 A 
ATOM     87  C   UNL     1     -11.234   6.027   1.063  1.00  0.00     0.091 A 
ATOM     88  F   UNL     1      -9.597   6.103   2.798  1.00  0.00    -0.205 F 
ATOM     89  C   UNL     1     -12.345   6.609   0.432  1.00  0.00     0.022 A 
BRANCH  87  90
ATOM     90  S   UNL     1     -10.575   4.525   0.328  1.00  0.00     0.127 S 
ATOM     91  O   UNL     1     -11.632   3.560   0.620  1.00  0.00    -0.237 OA
ATOM     92  O   UNL     1     -10.460   4.906  -1.080  1.00  0.00    -0.237 OA
ATOM     93  O   UNL     1      -9.301   4.285   0.992  1.00  0.00    -0.744 OA
ENDBRANCH  87  90
ENDBRANCH  59  83
BRANCH  71  94
ATOM     94  C   UNL     1     -12.948   9.836   9.068  1.00  0.00     0.023 A 
ATOM     95  C   UNL     1     -13.317   8.573   9.568  1.00  0.00     0.012 A 
ATOM     96  C   UNL     1     -13.725  10.965   9.391  1.00  0.00     0.148 A 
ATOM     97  C   UNL     1     -14.460   8.431  10.354  1.00  0.00     0.002 A 
ATOM     98  C   UNL     1     -14.833  10.824  10.217  1.00  0.00     0.091 A 
ATOM     99  F   UNL     1     -13.365  12.155   8.888  1.00  0.00    -0.205 F 
ATOM    100  C   UNL     1     -15.209   9.556  10.689  1.00  0.00     0.022 A 
BRANCH  98 101
ATOM    101  S   UNL     1     -15.794  12.232  10.782  1.00  0.00     0.127 S 
ATOM    102  O   UNL     1     -17.025  12.082  10.009  1.00  0.00    -0.237 OA
ATOM    103  O   UNL     1     -15.934  11.957  12.213  1.00  0.00    -0.237 OA
ATOM    104  O   UNL     1     -14.999  13.412  10.470  1.00  0.00    -0.744 OA
ENDBRANCH  98 101
ENDBRANCH  71  94
ENDBRANCH  45  46
ENDBRANCH  37  40
ENDBRANCH  35  36
ENDBRANCH  34  35
ENDBRANCH  33  34
ENDBRANCH  32  33
ENDBRANCH   1  32
TORSDOF 22
