REMARK SMILES Cc1nc2cc(C(=O)NCCCCCCNC(=O)c3ccc(-c4c5nc(c(-c6cccc(S(=O)(=O)[O-])c6F)c6ccc([nH]6)c(-c6cccc(S(=O)(=O)[O-])c6F)c6nc(c(-c7cccc(S(=O)(=O)[O-])c7F)c7ccc4[nH]7)C=C6)C=C5)cc3)ccc2n1CCC[NH+]1CCOCC1
REMARK SMILES IDX 12 1 11 2 10 3 9 4 7 5 8 6 6 8 1 9 2 10 3 11 85 12 4 13
REMARK SMILES IDX 84 14 5 15 83 16 82 17 86 18 87 19 88 20 89 21 90 22 94 23
REMARK SMILES IDX 91 25 93 26 92 27 13 28 14 29 15 30 16 31 17 32 18 34 19 35
REMARK SMILES IDX 20 36 81 37 21 38 80 39 22 40 23 41 24 42 74 43 25 44 79 45
REMARK SMILES IDX 73 46 75 47 26 48 78 49 72 50 71 51 27 53 59 54 39 55 58 56
REMARK SMILES IDX 40 57 43 58 57 59 76 60 41 61 42 62 56 64 77 65 44 66 28 67
REMARK SMILES IDX 29 68 37 69 30 70 32 71 38 72 31 73 33 74 34 75 35 76 36 77
REMARK SMILES IDX 60 78 61 79 69 80 62 81 64 82 70 83 63 84 65 85 66 86 67 87
REMARK SMILES IDX 68 88 45 89 46 90 54 91 47 92 49 93 55 94 48 95 50 96 51 97
REMARK SMILES IDX 52 98 53 99
REMARK H PARENT 9 7 89 24 16 33 75 52 43 63
REMARK Flexibility Score: inf
ROOT
ATOM      1  C   UNL     1      -1.638   0.435 -10.653  1.00  0.00     0.002 C 
ENDROOT
BRANCH   1   2
ATOM      2  C   UNL     1      -1.349   0.868  -9.209  1.00  0.00     0.021 C 
BRANCH   2   3
ATOM      3  C   UNL     1      -2.336   0.263  -8.209  1.00  0.00     0.116 C 
BRANCH   3   4
ATOM      4  N   UNL     1      -1.948  -1.108  -7.945  1.00  0.00    -0.352 N 
ATOM      5  C   UNL     1      -1.205  -1.674  -6.945  1.00  0.00     0.251 C 
ATOM      6  O   UNL     1      -0.902  -2.863  -7.056  1.00  0.00    -0.269 OA
ATOM      7  H   UNL     1      -2.283  -1.753  -8.609  1.00  0.00     0.163 HD
BRANCH   5   8
ATOM      8  C   UNL     1      -0.850  -0.947  -5.697  1.00  0.00     0.042 A 
ATOM      9  C   UNL     1      -0.556  -0.911   0.251  1.00  0.00     0.088 C 
ATOM     10  C   UNL     1      -0.617  -0.637  -1.198  1.00  0.00     0.106 A 
ATOM     11  N   UNL     1      -0.701  -1.641  -2.050  1.00  0.00    -0.233 NA
ATOM     12  N   UNL     1      -0.597   0.575  -1.858  1.00  0.00    -0.328 N 
ATOM     13  C   UNL     1      -0.701  -1.096  -3.292  1.00  0.00     0.090 A 
ATOM     14  C   UNL     1      -0.547   0.279  -3.224  1.00  0.00     0.068 A 
ATOM     15  C   UNL     1      -0.855  -1.725  -4.530  1.00  0.00     0.044 A 
ATOM     16  C   UNL     1      -0.429   1.069  -4.376  1.00  0.00     0.029 A 
ATOM     17  C   UNL     1      -0.553   0.418  -5.615  1.00  0.00     0.016 A 
BRANCH  12  18
ATOM     18  C   UNL     1      -0.721   1.958  -1.430  1.00  0.00     0.130 C 
BRANCH  18  19
ATOM     19  C   UNL     1      -0.933   2.449   0.018  1.00  0.00     0.083 C 
BRANCH  19  20
ATOM     20  C   UNL     1       0.239   2.370   1.020  1.00  0.00     0.264 C 
BRANCH  20  21
ATOM     21  N   UNL     1       1.437   1.926   0.354  1.00  0.00    -0.331 N 
ATOM     22  C   UNL     1       2.247   2.979  -0.269  1.00  0.00     0.291 C 
ATOM     23  C   UNL     1       2.315   1.010   1.083  1.00  0.00     0.291 C 
ATOM     24  H   UNL     1       0.996   1.375  -0.383  1.00  0.00     0.348 HD
ATOM     25  C   UNL     1       3.157   2.295  -1.300  1.00  0.00     0.221 C 
ATOM     26  C   UNL     1       3.220   0.341   0.034  1.00  0.00     0.221 C 
ATOM     27  O   UNL     1       4.006   1.319  -0.672  1.00  0.00    -0.370 OA
ENDBRANCH  20  21
ENDBRANCH  19  20
ENDBRANCH  18  19
ENDBRANCH  12  18
ENDBRANCH   5   8
ENDBRANCH   3   4
ENDBRANCH   2   3
ENDBRANCH   1   2
BRANCH   1  28
ATOM     28  C   UNL     1      -2.950   0.985 -11.222  1.00  0.00     0.002 C 
BRANCH  28  29
ATOM     29  C   UNL     1      -3.085   2.510 -11.152  1.00  0.00     0.021 C 
BRANCH  29  30
ATOM     30  C   UNL     1      -1.954   3.256 -11.861  1.00  0.00     0.116 C 
BRANCH  30  31
ATOM     31  N   UNL     1      -1.863   2.950 -13.273  1.00  0.00    -0.352 N 
ATOM     32  C   UNL     1      -2.573   3.330 -14.379  1.00  0.00     0.251 C 
ATOM     33  H   UNL     1      -1.128   2.330 -13.484  1.00  0.00     0.163 HD
ATOM     34  O   UNL     1      -2.179   2.873 -15.456  1.00  0.00    -0.269 OA
BRANCH  32  35
ATOM     35  C   UNL     1      -3.790   4.187 -14.355  1.00  0.00     0.039 A 
ATOM     36  C   UNL     1      -4.253   4.900 -13.249  1.00  0.00     0.014 A 
ATOM     37  C   UNL     1      -4.530   4.251 -15.551  1.00  0.00     0.014 A 
ATOM     38  C   UNL     1      -5.467   5.570 -13.297  1.00  0.00     0.010 A 
ATOM     39  C   UNL     1      -5.729   4.953 -15.618  1.00  0.00     0.010 A 
ATOM     40  C   UNL     1      -6.215   5.578 -14.475  1.00  0.00    -0.014 A 
BRANCH  40  41
ATOM     41  C   UNL     1      -7.436   6.374 -14.478  1.00  0.00     0.031 A 
ATOM     42  C   UNL     1      -7.230   7.827 -14.209  1.00  0.00     0.074 A 
ATOM     43  C   UNL     1      -8.650   5.878 -14.781  1.00  0.00     0.049 A 
ATOM     44  N   UNL     1      -7.659   8.527 -13.208  1.00  0.00    -0.248 NA
ATOM     45  C   UNL     1      -6.326   8.557 -15.111  1.00  0.00     0.031 C 
ATOM     46  C   UNL     1      -8.971   4.559 -15.331  1.00  0.00     0.029 A 
ATOM     47  N   UNL     1      -9.856   6.512 -14.771  1.00  0.00    -0.354 N 
ATOM     48  C   UNL     1      -7.257   9.836 -13.468  1.00  0.00     0.074 A 
ATOM     49  C   UNL     1      -6.319   9.770 -14.558  1.00  0.00     0.031 C 
ATOM     50  C   UNL     1     -10.231   4.578 -15.820  1.00  0.00     0.029 A 
ATOM     51  C   UNL     1     -10.844   5.853 -15.495  1.00  0.00     0.049 A 
ATOM     52  H   UNL     1     -10.014   7.359 -14.294  1.00  0.00     0.167 HD
ATOM     53  C   UNL     1      -7.885  10.913 -12.921  1.00  0.00     0.034 A 
ATOM     54  C   UNL     1     -12.046   6.363 -15.858  1.00  0.00     0.034 A 
ATOM     55  C   UNL     1      -8.678  10.559 -11.780  1.00  0.00     0.049 A 
ATOM     56  C   UNL     1     -12.332   7.484 -14.932  1.00  0.00     0.074 A 
ATOM     57  C   UNL     1      -8.428  10.019 -10.537  1.00  0.00     0.029 A 
ATOM     58  N   UNL     1     -10.031  10.455 -11.980  1.00  0.00    -0.354 N 
ATOM     59  N   UNL     1     -12.548   7.340 -13.654  1.00  0.00    -0.248 NA
ATOM     60  C   UNL     1     -12.033   8.837 -15.369  1.00  0.00     0.031 C 
ATOM     61  C   UNL     1      -9.566   9.211 -10.251  1.00  0.00     0.029 A 
ATOM     62  C   UNL     1     -10.455   9.333 -11.323  1.00  0.00     0.049 A 
ATOM     63  H   UNL     1     -10.594  11.073 -12.500  1.00  0.00     0.167 HD
ATOM     64  C   UNL     1     -12.003   8.478 -13.079  1.00  0.00     0.074 A 
ATOM     65  C   UNL     1     -11.824   9.414 -14.184  1.00  0.00     0.031 C 
ATOM     66  C   UNL     1     -11.490   8.450 -11.816  1.00  0.00     0.034 A 
BRANCH  53  67
ATOM     67  C   UNL     1      -8.065  12.236 -13.624  1.00  0.00     0.023 A 
ATOM     68  C   UNL     1      -8.530  13.334 -12.868  1.00  0.00     0.012 A 
ATOM     69  C   UNL     1      -8.065  12.378 -15.031  1.00  0.00     0.148 A 
ATOM     70  C   UNL     1      -8.992  14.505 -13.482  1.00  0.00     0.002 A 
ATOM     71  C   UNL     1      -8.448  13.571 -15.632  1.00  0.00     0.091 A 
ATOM     72  F   UNL     1      -7.830  11.316 -15.808  1.00  0.00    -0.205 F 
ATOM     73  C   UNL     1      -8.937  14.629 -14.865  1.00  0.00     0.022 A 
BRANCH  71  74
ATOM     74  S   UNL     1      -8.344  13.785 -17.413  1.00  0.00     0.127 S 
ATOM     75  O   UNL     1      -9.749  13.648 -17.803  1.00  0.00    -0.237 OA
ATOM     76  O   UNL     1      -7.807  15.147 -17.519  1.00  0.00    -0.237 OA
ATOM     77  O   UNL     1      -7.440  12.752 -17.874  1.00  0.00    -0.744 OA
ENDBRANCH  71  74
ENDBRANCH  53  67
BRANCH  54  78
ATOM     78  C   UNL     1     -12.863   6.131 -17.076  1.00  0.00     0.023 A 
ATOM     79  C   UNL     1     -14.196   6.595 -17.106  1.00  0.00     0.012 A 
ATOM     80  C   UNL     1     -12.278   5.730 -18.298  1.00  0.00     0.148 A 
ATOM     81  C   UNL     1     -14.899   6.712 -18.311  1.00  0.00     0.002 A 
ATOM     82  C   UNL     1     -12.988   5.832 -19.493  1.00  0.00     0.091 A 
ATOM     83  F   UNL     1     -10.996   5.344 -18.311  1.00  0.00    -0.205 F 
ATOM     84  C   UNL     1     -14.292   6.340 -19.506  1.00  0.00     0.022 A 
BRANCH  82  85
ATOM     85  S   UNL     1     -12.262   5.369 -21.072  1.00  0.00     0.127 S 
ATOM     86  O   UNL     1     -13.366   4.660 -21.722  1.00  0.00    -0.237 OA
ATOM     87  O   UNL     1     -11.944   6.670 -21.653  1.00  0.00    -0.237 OA
ATOM     88  O   UNL     1     -11.122   4.521 -20.745  1.00  0.00    -0.744 OA
ENDBRANCH  82  85
ENDBRANCH  54  78
BRANCH  66  89
ATOM     89  C   UNL     1     -11.778   7.250 -10.953  1.00  0.00     0.023 A 
ATOM     90  C   UNL     1     -11.197   5.993 -11.216  1.00  0.00     0.012 A 
ATOM     91  C   UNL     1     -12.434   7.462  -9.729  1.00  0.00     0.148 A 
ATOM     92  C   UNL     1     -11.262   4.967 -10.269  1.00  0.00     0.002 A 
ATOM     93  C   UNL     1     -12.456   6.456  -8.773  1.00  0.00     0.091 A 
ATOM     94  F   UNL     1     -12.963   8.673  -9.499  1.00  0.00    -0.205 F 
ATOM     95  C   UNL     1     -11.876   5.205  -9.040  1.00  0.00     0.022 A 
BRANCH  93  96
ATOM     96  S   UNL     1     -13.098   6.731  -7.120  1.00  0.00     0.127 S 
ATOM     97  O   UNL     1     -14.195   5.768  -7.052  1.00  0.00    -0.237 OA
ATOM     98  O   UNL     1     -11.941   6.401  -6.285  1.00  0.00    -0.237 OA
ATOM     99  O   UNL     1     -13.501   8.130  -7.064  1.00  0.00    -0.744 OA
ENDBRANCH  93  96
ENDBRANCH  66  89
ENDBRANCH  40  41
ENDBRANCH  32  35
ENDBRANCH  30  31
ENDBRANCH  29  30
ENDBRANCH  28  29
ENDBRANCH   1  28
TORSDOF 20
