REMARK SMILES O=C(CS(=O)(=O)N1CCC1)NCCCCCCNC(=O)c1ccc(-c2c3nc(c(-c4cccc(S(=O)(=O)[O-])c4F)c4ccc([nH]4)c(-c4cccc(S(=O)(=O)[O-])c4F)c4nc(c(-c5cccc(S(=O)(=O)[O-])c5F)c5ccc2[nH]5)C=C4)C=C3)cc1
REMARK SMILES IDX 15 1 14 2 13 3 12 4 11 5 1 6 2 7 3 9 4 10 5 11 6 12 7 13
REMARK SMILES IDX 8 14 10 15 9 16 16 17 17 18 18 19 19 20 20 22 21 23 22 24
REMARK SMILES IDX 83 25 23 26 82 27 24 28 25 29 26 30 76 31 27 32 81 33 75 34
REMARK SMILES IDX 77 35 28 36 80 37 74 38 73 39 29 41 61 42 41 43 60 44 42 45
REMARK SMILES IDX 45 46 59 47 78 48 43 49 44 50 58 52 79 53 46 54 30 55 31 56
REMARK SMILES IDX 39 57 32 58 34 59 40 60 33 61 35 62 36 63 37 64 38 65 62 66
REMARK SMILES IDX 63 67 71 68 64 69 66 70 72 71 65 72 67 73 68 74 69 75 70 76
REMARK SMILES IDX 47 77 48 78 56 79 49 80 51 81 57 82 50 83 52 84 53 85 54 86
REMARK SMILES IDX 55 87
REMARK H PARENT 11 8 18 21 77 40 45 51
REMARK Flexibility Score: inf
ROOT
ATOM      1  C   UNL     1       4.575   2.682   3.317  1.00  0.00     0.002 C 
ENDROOT
BRANCH   1   2
ATOM      2  C   UNL     1       4.147   1.218   3.459  1.00  0.00     0.002 C 
BRANCH   2   3
ATOM      3  C   UNL     1       2.650   0.947   3.258  1.00  0.00     0.021 C 
BRANCH   3   4
ATOM      4  C   UNL     1       2.109   1.377   1.898  1.00  0.00     0.116 C 
BRANCH   4   5
ATOM      5  N   UNL     1       2.794   0.701   0.813  1.00  0.00    -0.355 N 
ATOM      6  O   UNL     1       1.022  -0.580   0.153  1.00  0.00    -0.274 OA
ATOM      7  C   UNL     1       2.182  -0.204  -0.018  1.00  0.00     0.236 C 
ATOM      8  H   UNL     1       3.746   0.901   0.665  1.00  0.00     0.163 HD
BRANCH   7   9
ATOM      9  C   UNL     1       3.003  -0.785  -1.127  1.00  0.00     0.253 C 
BRANCH   9  10
ATOM     10  S   UNL     1       3.980   0.419  -1.980  1.00  0.00     0.223 S 
ATOM     11  O   UNL     1       4.838   1.059  -1.000  1.00  0.00    -0.212 OA
ATOM     12  O   UNL     1       4.567  -0.238  -3.132  1.00  0.00    -0.212 OA
BRANCH  10  13
ATOM     13  N   UNL     1       2.921   1.568  -2.558  1.00  0.00    -0.201 NA
ATOM     14  C   UNL     1       1.476   1.818  -2.328  1.00  0.00     0.103 C 
ATOM     15  C   UNL     1       3.160   3.040  -2.563  1.00  0.00     0.103 C 
ATOM     16  C   UNL     1       1.660   3.268  -2.807  1.00  0.00     0.033 C 
ENDBRANCH  10  13
ENDBRANCH   9  10
ENDBRANCH   7   9
ENDBRANCH   4   5
ENDBRANCH   3   4
ENDBRANCH   2   3
ENDBRANCH   1   2
BRANCH   1  17
ATOM     17  C   UNL     1       3.881   3.663   4.265  1.00  0.00     0.021 C 
BRANCH  17  18
ATOM     18  C   UNL     1       4.023   3.340   5.750  1.00  0.00     0.116 C 
BRANCH  18  19
ATOM     19  N   UNL     1       5.409   3.343   6.191  1.00  0.00    -0.352 N 
ATOM     20  C   UNL     1       5.988   3.974   7.264  1.00  0.00     0.251 C 
ATOM     21  H   UNL     1       6.025   2.812   5.636  1.00  0.00     0.163 HD
ATOM     22  O   UNL     1       7.212   3.986   7.373  1.00  0.00    -0.269 OA
BRANCH  20  23
ATOM     23  C   UNL     1       5.150   4.658   8.276  1.00  0.00     0.039 A 
ATOM     24  C   UNL     1       5.566   5.902   8.759  1.00  0.00     0.014 A 
ATOM     25  C   UNL     1       3.974   4.079   8.762  1.00  0.00     0.014 A 
ATOM     26  C   UNL     1       4.775   6.586   9.685  1.00  0.00     0.010 A 
ATOM     27  C   UNL     1       3.149   4.798   9.626  1.00  0.00     0.010 A 
ATOM     28  C   UNL     1       3.542   6.056  10.103  1.00  0.00    -0.014 A 
BRANCH  28  29
ATOM     29  C   UNL     1       2.651   6.830  11.008  1.00  0.00     0.031 A 
ATOM     30  C   UNL     1       2.297   6.312  12.376  1.00  0.00     0.074 A 
ATOM     31  C   UNL     1       2.108   7.983  10.569  1.00  0.00     0.049 A 
ATOM     32  N   UNL     1       1.567   6.875  13.306  1.00  0.00    -0.248 NA
ATOM     33  C   UNL     1       2.806   4.980  12.742  1.00  0.00     0.031 C 
ATOM     34  C   UNL     1       2.300   8.552   9.233  1.00  0.00     0.029 A 
ATOM     35  N   UNL     1       1.277   8.879  11.193  1.00  0.00    -0.354 N 
ATOM     36  C   UNL     1       1.498   5.957  14.347  1.00  0.00     0.074 A 
ATOM     37  C   UNL     1       2.234   4.786  13.922  1.00  0.00     0.031 C 
ATOM     38  C   UNL     1       1.633   9.713   9.148  1.00  0.00     0.029 A 
ATOM     39  C   UNL     1       0.941   9.958  10.409  1.00  0.00     0.049 A 
ATOM     40  H   UNL     1       0.952   8.761  12.115  1.00  0.00     0.167 HD
ATOM     41  C   UNL     1       0.898   6.083  15.556  1.00  0.00     0.034 A 
ATOM     42  C   UNL     1       0.169  11.029  10.676  1.00  0.00     0.034 A 
ATOM     43  C   UNL     1       0.195   7.262  15.988  1.00  0.00     0.049 A 
ATOM     44  C   UNL     1      -0.449  11.165  12.041  1.00  0.00     0.074 A 
ATOM     45  C   UNL     1      -0.354   7.530  17.230  1.00  0.00     0.029 A 
ATOM     46  N   UNL     1      -0.079   8.361  15.187  1.00  0.00    -0.354 N 
ATOM     47  N   UNL     1      -0.347  10.369  13.077  1.00  0.00    -0.248 NA
ATOM     48  C   UNL     1      -1.256  12.368  12.283  1.00  0.00     0.031 C 
ATOM     49  C   UNL     1      -0.994   8.773  17.168  1.00  0.00     0.029 A 
ATOM     50  C   UNL     1      -0.810   9.299  15.899  1.00  0.00     0.049 A 
ATOM     51  H   UNL     1       0.204   8.460  14.250  1.00  0.00     0.167 HD
ATOM     52  C   UNL     1      -1.049  10.990  14.105  1.00  0.00     0.074 A 
ATOM     53  C   UNL     1      -1.545  12.242  13.571  1.00  0.00     0.031 C 
ATOM     54  C   UNL     1      -1.273  10.557  15.371  1.00  0.00     0.034 A 
BRANCH  41  55
ATOM     55  C   UNL     1       1.004   4.922  16.514  1.00  0.00     0.023 A 
ATOM     56  C   UNL     1       2.247   4.604  17.099  1.00  0.00     0.012 A 
ATOM     57  C   UNL     1      -0.136   4.175  16.871  1.00  0.00     0.148 A 
ATOM     58  C   UNL     1       2.363   3.535  17.988  1.00  0.00     0.002 A 
ATOM     59  C   UNL     1      -0.022   3.143  17.796  1.00  0.00     0.091 A 
ATOM     60  F   UNL     1      -1.307   4.476  16.291  1.00  0.00    -0.205 F 
ATOM     61  C   UNL     1       1.228   2.812  18.343  1.00  0.00     0.022 A 
BRANCH  59  62
ATOM     62  S   UNL     1      -1.440   2.208  18.381  1.00  0.00     0.127 S 
ATOM     63  O   UNL     1      -1.232   0.917  17.728  1.00  0.00    -0.237 OA
ATOM     64  O   UNL     1      -1.226   2.199  19.829  1.00  0.00    -0.237 OA
ATOM     65  O   UNL     1      -2.616   2.948  17.947  1.00  0.00    -0.744 OA
ENDBRANCH  59  62
ENDBRANCH  41  55
BRANCH  42  66
ATOM     66  C   UNL     1       0.006  12.103   9.655  1.00  0.00     0.023 A 
ATOM     67  C   UNL     1       0.607  13.358   9.874  1.00  0.00     0.012 A 
ATOM     68  C   UNL     1      -0.709  11.882   8.463  1.00  0.00     0.148 A 
ATOM     69  C   UNL     1       0.470  14.385   8.940  1.00  0.00     0.002 A 
ATOM     70  C   UNL     1      -0.793  12.891   7.510  1.00  0.00     0.091 A 
ATOM     71  F   UNL     1      -1.278  10.683   8.277  1.00  0.00    -0.205 F 
ATOM     72  C   UNL     1      -0.220  14.149   7.755  1.00  0.00     0.022 A 
BRANCH  70  73
ATOM     73  S   UNL     1      -1.548  12.639   5.900  1.00  0.00     0.127 S 
ATOM     74  O   UNL     1      -2.721  13.506   5.980  1.00  0.00    -0.237 OA
ATOM     75  O   UNL     1      -0.495  13.107   4.999  1.00  0.00    -0.237 OA
ATOM     76  O   UNL     1      -1.824  11.211   5.812  1.00  0.00    -0.744 OA
ENDBRANCH  70  73
ENDBRANCH  42  66
BRANCH  54  77
ATOM     77  C   UNL     1      -2.072  11.458  16.279  1.00  0.00     0.023 A 
ATOM     78  C   UNL     1      -3.448  11.658  16.041  1.00  0.00     0.012 A 
ATOM     79  C   UNL     1      -1.469  12.081  17.389  1.00  0.00     0.148 A 
ATOM     80  C   UNL     1      -4.196  12.502  16.861  1.00  0.00     0.002 A 
ATOM     81  C   UNL     1      -2.233  12.877  18.235  1.00  0.00     0.091 A 
ATOM     82  F   UNL     1      -0.156  11.897  17.593  1.00  0.00    -0.205 F 
ATOM     83  C   UNL     1      -3.592  13.103  17.963  1.00  0.00     0.022 A 
BRANCH  81  84
ATOM     84  S   UNL     1      -1.561  13.609  19.731  1.00  0.00     0.127 S 
ATOM     85  O   UNL     1      -1.430  15.013  19.344  1.00  0.00    -0.237 OA
ATOM     86  O   UNL     1      -2.617  13.343  20.709  1.00  0.00    -0.237 OA
ATOM     87  O   UNL     1      -0.310  12.910  19.991  1.00  0.00    -0.744 OA
ENDBRANCH  81  84
ENDBRANCH  54  77
ENDBRANCH  28  29
ENDBRANCH  20  23
ENDBRANCH  18  19
ENDBRANCH  17  18
ENDBRANCH   1  17
TORSDOF 18
