REMARK SMILES O=C(NCCCCCCNC(=O)[C@@H](NC(=O)[C@H]1CC[C@@H]2CCCC[C@H]2[NH2+]1)C1CC1)c1ccc(-c2c3nc(c(-c4cccc(S(=O)(=O)[O-])c4F)c4ccc([nH]4)c(-c4cccc(S(=O)(=O)[O-])c4F)c4nc(c(-c5cccc(S(=O)(=O)[O-])c5F)c5ccc2[nH]5)C=C4)C=C3)cc1
REMARK SMILES IDX 6 1 5 2 4 3 3 4 1 5 2 6 30 8 31 9 92 10 32 11 91 12 33 13
REMARK SMILES IDX 34 14 35 15 85 16 36 17 90 18 84 19 86 20 37 21 89 22 83 23
REMARK SMILES IDX 82 24 38 26 70 27 50 28 69 29 51 30 54 31 68 32 87 33 52 34
REMARK SMILES IDX 53 35 67 37 88 38 55 39 39 40 40 41 48 42 41 43 43 44 49 45
REMARK SMILES IDX 42 46 44 47 45 48 46 49 47 50 71 51 72 52 80 53 73 54 75 55
REMARK SMILES IDX 81 56 74 57 76 58 77 59 78 60 79 61 56 62 57 63 65 64 58 65
REMARK SMILES IDX 60 66 66 67 59 68 61 69 62 70 63 71 64 72 7 73 8 74 9 75
REMARK SMILES IDX 10 76 11 77 12 79 13 80 14 81 15 82 16 84 17 85 18 86 26 87
REMARK SMILES IDX 19 88 25 89 20 92 24 93 21 94 23 95 22 96 27 97 28 98 29 99
REMARK H PARENT 3 7 86 25 54 36 10 78 14 83 26 90 26 91
REMARK Flexibility Score: inf
ROOT
ATOM      1  C   UNL     1      10.556 -10.324  -1.652  1.00  0.00     0.002 C 
ENDROOT
BRANCH   1   2
ATOM      2  C   UNL     1      11.746  -9.709  -0.914  1.00  0.00     0.021 C 
BRANCH   2   3
ATOM      3  C   UNL     1      11.783  -9.919   0.595  1.00  0.00     0.116 C 
BRANCH   3   4
ATOM      4  N   UNL     1      11.803 -11.318   0.983  1.00  0.00    -0.352 N 
ATOM      5  O   UNL     1      12.566 -13.199   1.953  1.00  0.00    -0.269 OA
ATOM      6  C   UNL     1      12.653 -11.983   1.839  1.00  0.00     0.251 C 
ATOM      7  H   UNL     1      11.104 -11.876   0.572  1.00  0.00     0.163 HD
BRANCH   6   8
ATOM      8  C   UNL     1      13.694 -11.235   2.584  1.00  0.00     0.039 A 
ATOM      9  C   UNL     1      13.406 -10.019   3.207  1.00  0.00     0.014 A 
ATOM     10  C   UNL     1      14.986 -11.763   2.655  1.00  0.00     0.014 A 
ATOM     11  C   UNL     1      14.437  -9.257   3.750  1.00  0.00     0.010 A 
ATOM     12  C   UNL     1      16.005 -11.036   3.280  1.00  0.00     0.010 A 
ATOM     13  C   UNL     1      15.751  -9.754   3.790  1.00  0.00    -0.014 A 
BRANCH  13  14
ATOM     14  C   UNL     1      16.825  -8.928   4.402  1.00  0.00     0.031 A 
ATOM     15  C   UNL     1      17.989  -8.428   3.587  1.00  0.00     0.074 A 
ATOM     16  C   UNL     1      16.736  -8.609   5.709  1.00  0.00     0.049 A 
ATOM     17  N   UNL     1      18.969  -7.640   3.951  1.00  0.00    -0.248 NA
ATOM     18  C   UNL     1      18.075  -8.876   2.188  1.00  0.00     0.031 C 
ATOM     19  C   UNL     1      15.686  -9.075   6.617  1.00  0.00     0.029 A 
ATOM     20  N   UNL     1      17.529  -7.816   6.499  1.00  0.00    -0.354 N 
ATOM     21  C   UNL     1      19.809  -7.533   2.848  1.00  0.00     0.074 A 
ATOM     22  C   UNL     1      19.227  -8.344   1.800  1.00  0.00     0.031 C 
ATOM     23  C   UNL     1      15.876  -8.529   7.827  1.00  0.00     0.029 A 
ATOM     24  C   UNL     1      17.082  -7.710   7.795  1.00  0.00     0.049 A 
ATOM     25  H   UNL     1      18.341  -7.367   6.170  1.00  0.00     0.167 HD
ATOM     26  C   UNL     1      20.948  -6.812   2.714  1.00  0.00     0.034 A 
ATOM     27  C   UNL     1      17.582  -7.026   8.842  1.00  0.00     0.034 A 
ATOM     28  C   UNL     1      21.495  -5.964   3.741  1.00  0.00     0.049 A 
ATOM     29  C   UNL     1      18.815  -6.191   8.646  1.00  0.00     0.074 A 
ATOM     30  C   UNL     1      22.600  -5.133   3.673  1.00  0.00     0.029 A 
ATOM     31  N   UNL     1      20.982  -5.839   5.023  1.00  0.00    -0.354 N 
ATOM     32  N   UNL     1      19.510  -5.990   7.553  1.00  0.00    -0.248 NA
ATOM     33  C   UNL     1      19.315  -5.463   9.820  1.00  0.00     0.031 C 
ATOM     34  C   UNL     1      22.764  -4.517   4.918  1.00  0.00     0.029 A 
ATOM     35  C   UNL     1      21.751  -4.951   5.758  1.00  0.00     0.049 A 
ATOM     36  H   UNL     1      20.188  -6.312   5.362  1.00  0.00     0.167 HD
ATOM     37  C   UNL     1      20.511  -5.091   7.899  1.00  0.00     0.074 A 
ATOM     38  C   UNL     1      20.315  -4.766   9.297  1.00  0.00     0.031 C 
ATOM     39  C   UNL     1      21.512  -4.594   7.132  1.00  0.00     0.034 A 
BRANCH  26  40
ATOM     40  C   UNL     1      21.666  -6.867   1.389  1.00  0.00     0.023 A 
ATOM     41  C   UNL     1      21.131  -6.183   0.279  1.00  0.00     0.012 A 
ATOM     42  C   UNL     1      22.902  -7.531   1.261  1.00  0.00     0.148 A 
ATOM     43  C   UNL     1      21.800  -6.183  -0.945  1.00  0.00     0.002 A 
ATOM     44  C   UNL     1      23.582  -7.493   0.048  1.00  0.00     0.091 A 
ATOM     45  F   UNL     1      23.386  -8.195   2.321  1.00  0.00    -0.205 F 
ATOM     46  C   UNL     1      23.029  -6.828  -1.058  1.00  0.00     0.022 A 
BRANCH  44  47
ATOM     47  S   UNL     1      25.207  -8.230  -0.171  1.00  0.00     0.127 S 
ATOM     48  O   UNL     1      24.884  -9.434  -0.935  1.00  0.00    -0.237 OA
ATOM     49  O   UNL     1      25.916  -7.199  -0.930  1.00  0.00    -0.237 OA
ATOM     50  O   UNL     1      25.726  -8.454   1.171  1.00  0.00    -0.744 OA
ENDBRANCH  44  47
ENDBRANCH  26  40
BRANCH  27  51
ATOM     51  C   UNL     1      16.865  -7.048  10.148  1.00  0.00     0.023 A 
ATOM     52  C   UNL     1      16.208  -5.884  10.593  1.00  0.00     0.012 A 
ATOM     53  C   UNL     1      16.786  -8.221  10.922  1.00  0.00     0.148 A 
ATOM     54  C   UNL     1      15.505  -5.882  11.798  1.00  0.00     0.002 A 
ATOM     55  C   UNL     1      16.035  -8.228  12.092  1.00  0.00     0.091 A 
ATOM     56  F   UNL     1      17.433  -9.313  10.491  1.00  0.00    -0.205 F 
ATOM     57  C   UNL     1      15.407  -7.056  12.540  1.00  0.00     0.022 A 
BRANCH  55  58
ATOM     58  S   UNL     1      15.742  -9.733  13.029  1.00  0.00     0.127 S 
ATOM     59  O   UNL     1      16.628  -9.549  14.175  1.00  0.00    -0.237 OA
ATOM     60  O   UNL     1      14.314  -9.632  13.331  1.00  0.00    -0.237 OA
ATOM     61  O   UNL     1      16.084 -10.824  12.126  1.00  0.00    -0.744 OA
ENDBRANCH  55  58
ENDBRANCH  27  51
BRANCH  39  62
ATOM     62  C   UNL     1      22.462  -3.621   7.780  1.00  0.00     0.023 A 
ATOM     63  C   UNL     1      23.415  -4.088   8.707  1.00  0.00     0.012 A 
ATOM     64  C   UNL     1      22.451  -2.258   7.427  1.00  0.00     0.148 A 
ATOM     65  C   UNL     1      24.318  -3.207   9.300  1.00  0.00     0.002 A 
ATOM     66  C   UNL     1      23.384  -1.393   7.988  1.00  0.00     0.091 A 
ATOM     67  F   UNL     1      21.523  -1.826   6.561  1.00  0.00    -0.205 F 
ATOM     68  C   UNL     1      24.311  -1.864   8.933  1.00  0.00     0.022 A 
BRANCH  66  69
ATOM     69  S   UNL     1      23.500   0.331   7.498  1.00  0.00     0.127 S 
ATOM     70  O   UNL     1      22.813   1.002   8.599  1.00  0.00    -0.237 OA
ATOM     71  O   UNL     1      24.946   0.552   7.457  1.00  0.00    -0.237 OA
ATOM     72  O   UNL     1      22.845   0.416   6.199  1.00  0.00    -0.744 OA
ENDBRANCH  66  69
ENDBRANCH  39  62
ENDBRANCH  13  14
ENDBRANCH   6   8
ENDBRANCH   3   4
ENDBRANCH   2   3
ENDBRANCH   1   2
BRANCH   1  73
ATOM     73  C   UNL     1       9.163  -9.977  -1.118  1.00  0.00     0.002 C 
BRANCH  73  74
ATOM     74  C   UNL     1       8.874  -8.495  -0.872  1.00  0.00     0.021 C 
BRANCH  74  75
ATOM     75  C   UNL     1       9.105  -7.570  -2.059  1.00  0.00     0.116 C 
BRANCH  75  76
ATOM     76  N   UNL     1       8.092  -7.678  -3.086  1.00  0.00    -0.354 N 
ATOM     77  C   UNL     1       7.635  -6.755  -3.979  1.00  0.00     0.242 C 
ATOM     78  H   UNL     1       7.663  -8.561  -3.150  1.00  0.00     0.163 HD
ATOM     79  O   UNL     1       6.945  -7.193  -4.910  1.00  0.00    -0.273 OA
BRANCH  77  80
ATOM     80  C   UNL     1       8.052  -5.249  -3.966  1.00  0.00     0.174 C 
BRANCH  80  81
ATOM     81  N   UNL     1       8.174  -4.623  -2.643  1.00  0.00    -0.339 N 
ATOM     82  C   UNL     1       9.142  -4.066  -1.864  1.00  0.00     0.278 C 
ATOM     83  H   UNL     1       7.302  -4.598  -2.188  1.00  0.00     0.164 HD
ATOM     84  O   UNL     1       8.787  -3.729  -0.730  1.00  0.00    -0.268 OA
BRANCH  82  85
ATOM     85  C   UNL     1      10.576  -3.844  -2.370  1.00  0.00     0.272 C 
ATOM     86  C   UNL     1      11.389  -2.938  -1.435  1.00  0.00     0.076 C 
ATOM     87  N   UNL     1      11.289  -5.132  -2.492  1.00  0.00    -0.333 N 
ATOM     88  C   UNL     1      12.789  -2.694  -2.008  1.00  0.00     0.016 C 
ATOM     89  C   UNL     1      12.567  -4.928  -3.178  1.00  0.00     0.186 C 
ATOM     90  H   UNL     1      10.718  -5.787  -3.027  1.00  0.00     0.347 HD
ATOM     91  H   UNL     1      11.463  -5.511  -1.561  1.00  0.00     0.347 HD
ATOM     92  C   UNL     1      13.487  -4.020  -2.345  1.00  0.00     0.048 C 
ATOM     93  C   UNL     1      13.239  -6.277  -3.451  1.00  0.00     0.065 C 
ATOM     94  C   UNL     1      14.803  -3.791  -3.099  1.00  0.00     0.010 C 
ATOM     95  C   UNL     1      14.559  -6.073  -4.191  1.00  0.00     0.006 C 
ATOM     96  C   UNL     1      15.487  -5.115  -3.447  1.00  0.00     0.001 C 
ENDBRANCH  82  85
ENDBRANCH  80  81
BRANCH  80  97
ATOM     97  C   UNL     1       9.148  -4.961  -4.960  1.00  0.00     0.021 C 
ATOM     98  C   UNL     1       8.807  -4.706  -6.413  1.00  0.00     0.006 C 
ATOM     99  C   UNL     1       9.334  -3.588  -5.567  1.00  0.00     0.006 C 
ENDBRANCH  80  97
ENDBRANCH  77  80
ENDBRANCH  75  76
ENDBRANCH  74  75
ENDBRANCH  73  74
ENDBRANCH   1  73
TORSDOF 19
