REMARK SMILES Cc1c(CC(=O)NCCCCCCNC(=O)c2ccc(-c3c4nc(c(-c5cccc(S(=O)(=O)[O-])c5F)c5ccc([nH]5)c(-c5cccc(S(=O)(=O)[O-])c5F)c5nc(c(-c6cccc(S(=O)(=O)[O-])c6F)c6ccc3[nH]6)C=C5)C=C4)cc2)cc(-c2ccc(S(C)(=O)=O)cc2)n1-c1cccc(F)c1
REMARK SMILES IDX 10 1 9 2 8 3 7 4 5 5 6 6 4 8 3 9 1 10 2 11 92 12 80 13 81 14
REMARK SMILES IDX 93 15 94 16 99 17 95 18 97 19 96 20 98 21 82 22 83 23 91 24
REMARK SMILES IDX 84 25 90 26 85 27 86 28 87 29 88 30 89 31 11 32 12 33 13 34
REMARK SMILES IDX 14 35 15 36 16 38 17 39 18 40 79 41 19 42 78 43 20 44 21 45
REMARK SMILES IDX 22 46 72 47 23 48 77 49 71 50 73 51 24 52 76 53 70 54 69 55
REMARK SMILES IDX 25 57 57 58 37 59 56 60 38 61 41 62 55 63 74 64 39 65 40 66
REMARK SMILES IDX 54 68 75 69 42 70 26 71 27 72 35 73 28 74 30 75 36 76 29 77
REMARK SMILES IDX 31 78 32 79 33 80 34 81 58 82 59 83 67 84 60 85 62 86 68 87
REMARK SMILES IDX 61 88 63 89 64 90 65 91 66 92 43 93 44 94 52 95 45 96 47 97
REMARK SMILES IDX 53 98 46 99 48 100 49 101 50 102 51 103
REMARK H PARENT 7 7 14 37 73 56 41 67
REMARK Flexibility Score: inf
ROOT
ATOM      1  C   UNL     1      -2.568   1.860  -3.682  1.00  0.00     0.002 C 
ENDROOT
BRANCH   1   2
ATOM      2  C   UNL     1      -2.142   2.258  -2.263  1.00  0.00     0.021 C 
BRANCH   2   3
ATOM      3  C   UNL     1      -3.104   1.807  -1.165  1.00  0.00     0.116 C 
BRANCH   3   4
ATOM      4  N   UNL     1      -2.962   0.390  -0.878  1.00  0.00    -0.356 N 
ATOM      5  C   UNL     1      -2.318  -0.216   0.164  1.00  0.00     0.224 C 
ATOM      6  O   UNL     1      -2.276  -1.449   0.188  1.00  0.00    -0.275 OA
ATOM      7  H   UNL     1      -3.390  -0.218  -1.523  1.00  0.00     0.163 HD
BRANCH   5   8
ATOM      8  C   UNL     1      -1.733   0.612   1.296  1.00  0.00     0.137 C 
BRANCH   8   9
ATOM      9  C   UNL     1      -0.591   1.477   0.873  1.00  0.00    -0.017 A 
ATOM     10  C   UNL     1       1.106  -0.268  -0.010  1.00  0.00     0.065 C 
ATOM     11  C   UNL     1       0.607   1.109   0.272  1.00  0.00     0.024 A 
ATOM     12  N   UNL     1       1.346   2.264   0.016  1.00  0.00    -0.313 N 
ATOM     13  C   UNL     1      -0.545   2.875   1.053  1.00  0.00     0.033 A 
ATOM     14  C   UNL     1       0.624   3.348   0.500  1.00  0.00     0.053 A 
BRANCH  12  15
ATOM     15  C   UNL     1       2.620   2.328  -0.618  1.00  0.00     0.049 A 
ATOM     16  C   UNL     1       3.655   3.084  -0.046  1.00  0.00     0.027 A 
ATOM     17  C   UNL     1       2.817   1.685  -1.843  1.00  0.00     0.065 A 
ATOM     18  C   UNL     1       4.883   3.198  -0.702  1.00  0.00     0.005 A 
ATOM     19  C   UNL     1       4.043   1.819  -2.487  1.00  0.00     0.125 A 
ATOM     20  C   UNL     1       5.075   2.567  -1.929  1.00  0.00     0.039 A 
ATOM     21  F   UNL     1       4.229   1.223  -3.672  1.00  0.00    -0.207 F 
ENDBRANCH  12  15
BRANCH  14  22
ATOM     22  C   UNL     1       1.012   4.746   0.406  1.00  0.00    -0.001 A 
ATOM     23  C   UNL     1       1.323   5.341  -0.824  1.00  0.00     0.011 A 
ATOM     24  C   UNL     1       1.062   5.491   1.591  1.00  0.00     0.011 A 
ATOM     25  C   UNL     1       1.754   6.660  -0.854  1.00  0.00     0.021 A 
ATOM     26  C   UNL     1       1.482   6.805   1.567  1.00  0.00     0.021 A 
ATOM     27  C   UNL     1       1.853   7.363   0.352  1.00  0.00     0.067 A 
BRANCH  27  28
ATOM     28  S   UNL     1       2.532   8.988   0.365  1.00  0.00     0.175 S 
ATOM     29  C   UNL     1       4.113   8.700  -0.418  1.00  0.00     0.163 C 
ATOM     30  O   UNL     1       1.613   9.764  -0.426  1.00  0.00    -0.224 OA
ATOM     31  O   UNL     1       2.797   9.330   1.754  1.00  0.00    -0.224 OA
ENDBRANCH  27  28
ENDBRANCH  14  22
ENDBRANCH   8   9
ENDBRANCH   5   8
ENDBRANCH   3   4
ENDBRANCH   2   3
ENDBRANCH   1   2
BRANCH   1  32
ATOM     32  C   UNL     1      -3.841   2.533  -4.213  1.00  0.00     0.002 C 
BRANCH  32  33
ATOM     33  C   UNL     1      -3.969   4.054  -4.003  1.00  0.00     0.021 C 
BRANCH  33  34
ATOM     34  C   UNL     1      -2.727   4.931  -4.276  1.00  0.00     0.116 C 
BRANCH  34  35
ATOM     35  N   UNL     1      -2.732   5.593  -5.559  1.00  0.00    -0.352 N 
ATOM     36  C   UNL     1      -2.002   6.703  -5.959  1.00  0.00     0.251 C 
ATOM     37  H   UNL     1      -3.331   5.206  -6.238  1.00  0.00     0.163 HD
ATOM     38  O   UNL     1      -2.175   7.092  -7.114  1.00  0.00    -0.269 OA
BRANCH  36  39
ATOM     39  C   UNL     1      -1.133   7.492  -5.003  1.00  0.00     0.039 A 
ATOM     40  C   UNL     1      -1.716   8.541  -4.312  1.00  0.00     0.014 A 
ATOM     41  C   UNL     1       0.271   7.412  -4.941  1.00  0.00     0.014 A 
ATOM     42  C   UNL     1      -0.915   9.449  -3.555  1.00  0.00     0.010 A 
ATOM     43  C   UNL     1       1.089   8.397  -4.233  1.00  0.00     0.010 A 
ATOM     44  C   UNL     1       0.531   9.480  -3.533  1.00  0.00    -0.014 A 
BRANCH  44  45
ATOM     45  C   UNL     1       1.179  10.937  -3.197  1.00  0.00     0.031 A 
ATOM     46  C   UNL     1       0.360  11.816  -4.069  1.00  0.00     0.074 A 
ATOM     47  C   UNL     1       2.265  11.616  -2.627  1.00  0.00     0.049 A 
ATOM     48  N   UNL     1       0.242  11.505  -5.334  1.00  0.00    -0.248 NA
ATOM     49  C   UNL     1      -0.644  12.764  -3.594  1.00  0.00     0.031 C 
ATOM     50  C   UNL     1       3.551  11.059  -2.203  1.00  0.00     0.029 A 
ATOM     51  N   UNL     1       2.499  12.983  -2.243  1.00  0.00    -0.354 N 
ATOM     52  C   UNL     1      -0.470  12.517  -5.891  1.00  0.00     0.074 A 
ATOM     53  C   UNL     1      -1.240  13.034  -4.764  1.00  0.00     0.031 C 
ATOM     54  C   UNL     1       4.270  11.915  -1.417  1.00  0.00     0.029 A 
ATOM     55  C   UNL     1       3.616  13.214  -1.340  1.00  0.00     0.049 A 
ATOM     56  H   UNL     1       1.935  13.719  -2.572  1.00  0.00     0.167 HD
ATOM     57  C   UNL     1       0.222  13.203  -6.849  1.00  0.00     0.034 A 
ATOM     58  C   UNL     1       4.098  14.367  -0.712  1.00  0.00     0.034 A 
ATOM     59  C   UNL     1       0.626  14.508  -6.408  1.00  0.00     0.049 A 
ATOM     60  C   UNL     1       3.856  15.401  -1.724  1.00  0.00     0.074 A 
ATOM     61  C   UNL     1       0.016  15.477  -5.634  1.00  0.00     0.029 A 
ATOM     62  N   UNL     1       1.979  14.758  -6.365  1.00  0.00    -0.354 N 
ATOM     63  N   UNL     1       4.632  15.510  -2.763  1.00  0.00    -0.248 NA
ATOM     64  C   UNL     1       2.841  16.432  -1.577  1.00  0.00     0.031 C 
ATOM     65  C   UNL     1       1.026  15.932  -4.761  1.00  0.00     0.029 A 
ATOM     66  C   UNL     1       2.258  15.555  -5.271  1.00  0.00     0.049 A 
ATOM     67  H   UNL     1       2.643  14.422  -7.010  1.00  0.00     0.167 HD
ATOM     68  C   UNL     1       3.859  16.218  -3.626  1.00  0.00     0.074 A 
ATOM     69  C   UNL     1       2.956  16.985  -2.787  1.00  0.00     0.031 C 
ATOM     70  C   UNL     1       3.625  15.636  -4.826  1.00  0.00     0.034 A 
BRANCH  57  71
ATOM     71  C   UNL     1       1.016  12.329  -7.807  1.00  0.00     0.023 A 
ATOM     72  C   UNL     1       0.553  12.252  -9.129  1.00  0.00     0.012 A 
ATOM     73  C   UNL     1       2.085  11.474  -7.413  1.00  0.00     0.148 A 
ATOM     74  C   UNL     1       1.090  11.315 -10.017  1.00  0.00     0.002 A 
ATOM     75  C   UNL     1       2.538  10.472  -8.266  1.00  0.00     0.091 A 
ATOM     76  F   UNL     1       2.661  11.655  -6.214  1.00  0.00    -0.205 F 
ATOM     77  C   UNL     1       2.049  10.401  -9.577  1.00  0.00     0.022 A 
BRANCH  75  78
ATOM     78  S   UNL     1       3.589   9.118  -7.694  1.00  0.00     0.127 S 
ATOM     79  O   UNL     1       2.950   7.942  -8.294  1.00  0.00    -0.237 OA
ATOM     80  O   UNL     1       4.891   9.446  -8.261  1.00  0.00    -0.237 OA
ATOM     81  O   UNL     1       3.526   9.128  -6.236  1.00  0.00    -0.744 OA
ENDBRANCH  75  78
ENDBRANCH  57  71
BRANCH  58  82
ATOM     82  C   UNL     1       5.096  14.990   0.335  1.00  0.00     0.023 A 
ATOM     83  C   UNL     1       5.993  16.024  -0.108  1.00  0.00     0.012 A 
ATOM     84  C   UNL     1       4.860  14.987   1.735  1.00  0.00     0.148 A 
ATOM     85  C   UNL     1       6.496  17.048   0.719  1.00  0.00     0.002 A 
ATOM     86  C   UNL     1       5.408  15.998   2.576  1.00  0.00     0.091 A 
ATOM     87  F   UNL     1       4.022  14.070   2.233  1.00  0.00    -0.205 F 
ATOM     88  C   UNL     1       6.191  17.043   2.063  1.00  0.00     0.022 A 
BRANCH  86  89
ATOM     89  S   UNL     1       5.100  16.125   4.357  1.00  0.00     0.127 S 
ATOM     90  O   UNL     1       6.437  16.394   4.892  1.00  0.00    -0.237 OA
ATOM     91  O   UNL     1       4.185  17.264   4.427  1.00  0.00    -0.237 OA
ATOM     92  O   UNL     1       4.540  14.840   4.749  1.00  0.00    -0.744 OA
ENDBRANCH  86  89
ENDBRANCH  58  82
BRANCH  70  93
ATOM     93  C   UNL     1       4.776  14.921  -5.504  1.00  0.00     0.023 A 
ATOM     94  C   UNL     1       5.565  13.902  -4.923  1.00  0.00     0.012 A 
ATOM     95  C   UNL     1       5.077  15.311  -6.817  1.00  0.00     0.148 A 
ATOM     96  C   UNL     1       6.630  13.319  -5.622  1.00  0.00     0.002 A 
ATOM     97  C   UNL     1       6.103  14.700  -7.528  1.00  0.00     0.091 A 
ATOM     98  F   UNL     1       4.346  16.299  -7.357  1.00  0.00    -0.205 F 
ATOM     99  C   UNL     1       6.890  13.707  -6.933  1.00  0.00     0.022 A 
BRANCH  97 100
ATOM    100  S   UNL     1       6.419  15.162  -9.231  1.00  0.00     0.127 S 
ATOM    101  O   UNL     1       7.516  16.118  -9.085  1.00  0.00    -0.237 OA
ATOM    102  O   UNL     1       6.790  13.899  -9.861  1.00  0.00    -0.237 OA
ATOM    103  O   UNL     1       5.162  15.725  -9.715  1.00  0.00    -0.744 OA
ENDBRANCH  97 100
ENDBRANCH  70  93
ENDBRANCH  44  45
ENDBRANCH  36  39
ENDBRANCH  34  35
ENDBRANCH  33  34
ENDBRANCH  32  33
ENDBRANCH   1  32
TORSDOF 20
