REMARK SMILES C=CCn1nc(C(=O)NCCCCCCNC(=O)c2ccc(-c3c4nc(c(-c5cccc(S(=O)(=O)[O-])c5F)c5ccc([nH]5)c(-c5cccc(S(=O)(=O)[O-])c5F)c5nc(c(-c6cccc(S(=O)(=O)[O-])c6F)c6ccc3[nH]6)C=C5)C=C4)cc2)c2c1CC[C@@H]([NH+]1CCC(C(C)(C)O)CC1)C2
REMARK SMILES IDX 12 1 11 2 10 3 9 4 7 5 8 6 6 8 4 9 5 10 83 11 82 12 84 13
REMARK SMILES IDX 97 14 85 15 86 16 3 17 2 18 1 19 87 20 88 21 96 22 89 24
REMARK SMILES IDX 95 25 90 26 91 27 92 28 93 29 94 30 13 32 14 33 15 34 16 35
REMARK SMILES IDX 17 36 18 38 19 39 20 40 81 41 21 42 80 43 22 44 23 45 24 46
REMARK SMILES IDX 74 47 25 48 79 49 73 50 75 51 26 52 78 53 72 54 71 55 27 57
REMARK SMILES IDX 59 58 39 59 58 60 40 61 43 62 57 63 76 64 41 65 42 66 56 68
REMARK SMILES IDX 77 69 44 70 28 71 29 72 37 73 30 74 32 75 38 76 31 77 33 78
REMARK SMILES IDX 34 79 35 80 36 81 60 82 61 83 69 84 62 85 64 86 70 87 63 88
REMARK SMILES IDX 65 89 66 90 67 91 68 92 45 93 46 94 54 95 47 96 49 97 55 98
REMARK SMILES IDX 48 99 50 100 51 101 52 102 53 103
REMARK H PARENT 9 7 87 23 94 31 16 37 75 56 43 67
REMARK Flexibility Score: inf
ROOT
ATOM      1  C   UNL     1      -4.137   9.430  -0.936  1.00  0.00     0.002 C 
ENDROOT
BRANCH   1   2
ATOM      2  C   UNL     1      -3.577   8.011  -0.992  1.00  0.00     0.021 C 
BRANCH   2   3
ATOM      3  C   UNL     1      -3.987   7.118   0.191  1.00  0.00     0.116 C 
BRANCH   3   4
ATOM      4  N   UNL     1      -4.738   5.955  -0.234  1.00  0.00    -0.351 N 
ATOM      5  C   UNL     1      -4.470   4.607  -0.305  1.00  0.00     0.272 C 
ATOM      6  O   UNL     1      -5.476   3.905  -0.472  1.00  0.00    -0.267 OA
ATOM      7  H   UNL     1      -5.646   6.179  -0.541  1.00  0.00     0.163 HD
BRANCH   5   8
ATOM      8  C   UNL     1      -3.120   4.007  -0.164  1.00  0.00     0.153 A 
ATOM      9  N   UNL     1      -1.732   2.361  -0.020  1.00  0.00    -0.265 N 
ATOM     10  N   UNL     1      -3.036   2.688   0.122  1.00  0.00    -0.167 NA
ATOM     11  C   UNL     1      -0.941   3.472  -0.048  1.00  0.00     0.043 A 
ATOM     12  C   UNL     1      -1.801   4.516  -0.334  1.00  0.00     0.012 A 
ATOM     13  C   UNL     1       0.538   3.571   0.032  1.00  0.00     0.062 C 
ATOM     14  C   UNL     1      -1.297   5.835  -0.780  1.00  0.00     0.105 C 
ATOM     15  C   UNL     1       1.019   5.000  -0.282  1.00  0.00     0.072 C 
ATOM     16  C   UNL     1       0.168   5.842  -1.269  1.00  0.00     0.189 C 
BRANCH   9  17
ATOM     17  C   UNL     1      -1.444   0.933  -0.199  1.00  0.00     0.171 C 
BRANCH  17  18
ATOM     18  C   UNL     1      -0.035   0.532  -0.516  1.00  0.00    -0.011 C 
ATOM     19  C   UNL     1       0.774  -0.154   0.302  1.00  0.00     0.006 C 
ENDBRANCH  17  18
ENDBRANCH   9  17
BRANCH  16  20
ATOM     20  N   UNL     1       0.208   5.724  -2.732  1.00  0.00    -0.332 N 
ATOM     21  C   UNL     1      -0.176   4.492  -3.397  1.00  0.00     0.262 C 
ATOM     22  C   UNL     1       1.352   6.308  -3.418  1.00  0.00     0.262 C 
ATOM     23  H   UNL     1      -0.605   6.329  -2.843  1.00  0.00     0.348 HD
ATOM     24  C   UNL     1       0.925   3.441  -3.419  1.00  0.00     0.068 C 
ATOM     25  C   UNL     1       2.591   5.440  -3.316  1.00  0.00     0.068 C 
ATOM     26  C   UNL     1       2.373   3.941  -3.639  1.00  0.00     0.031 C 
BRANCH  26  27
ATOM     27  C   UNL     1       3.437   3.051  -2.904  1.00  0.00     0.062 C 
ATOM     28  C   UNL     1       3.238   1.551  -3.143  1.00  0.00     0.042 C 
ATOM     29  C   UNL     1       4.863   3.450  -3.303  1.00  0.00     0.042 C 
BRANCH  27  30
ATOM     30  O   UNL     1       3.330   3.233  -1.484  1.00  0.00    -0.390 OA
ATOM     31  H   UNL     1       2.437   2.990  -1.193  1.00  0.00     0.211 HD
ENDBRANCH  27  30
ENDBRANCH  26  27
ENDBRANCH  16  20
ENDBRANCH   5   8
ENDBRANCH   3   4
ENDBRANCH   2   3
ENDBRANCH   1   2
BRANCH   1  32
ATOM     32  C   UNL     1      -3.664  10.250   0.273  1.00  0.00     0.002 C 
BRANCH  32  33
ATOM     33  C   UNL     1      -2.156  10.544   0.364  1.00  0.00     0.021 C 
BRANCH  33  34
ATOM     34  C   UNL     1      -1.643  11.474  -0.725  1.00  0.00     0.116 C 
BRANCH  34  35
ATOM     35  N   UNL     1      -2.303  12.784  -0.688  1.00  0.00    -0.352 N 
ATOM     36  C   UNL     1      -2.182  13.856  -1.556  1.00  0.00     0.251 C 
ATOM     37  H   UNL     1      -2.923  12.921   0.064  1.00  0.00     0.163 HD
ATOM     38  O   UNL     1      -2.547  14.970  -1.227  1.00  0.00    -0.269 OA
BRANCH  36  39
ATOM     39  C   UNL     1      -1.601  13.616  -2.888  1.00  0.00     0.039 A 
ATOM     40  C   UNL     1      -0.738  14.534  -3.492  1.00  0.00     0.014 A 
ATOM     41  C   UNL     1      -1.919  12.418  -3.517  1.00  0.00     0.014 A 
ATOM     42  C   UNL     1      -0.141  14.191  -4.702  1.00  0.00     0.010 A 
ATOM     43  C   UNL     1      -1.172  11.995  -4.578  1.00  0.00     0.010 A 
ATOM     44  C   UNL     1      -0.355  12.908  -5.226  1.00  0.00    -0.014 A 
BRANCH  44  45
ATOM     45  C   UNL     1       0.298  12.460  -6.443  1.00  0.00     0.031 A 
ATOM     46  C   UNL     1       1.777  12.530  -6.427  1.00  0.00     0.074 A 
ATOM     47  C   UNL     1      -0.374  11.833  -7.432  1.00  0.00     0.049 A 
ATOM     48  N   UNL     1       2.517  13.385  -7.048  1.00  0.00    -0.248 NA
ATOM     49  C   UNL     1       2.517  11.654  -5.508  1.00  0.00     0.031 C 
ATOM     50  C   UNL     1      -1.781  11.404  -7.460  1.00  0.00     0.029 A 
ATOM     51  N   UNL     1       0.117  11.316  -8.585  1.00  0.00    -0.354 N 
ATOM     52  C   UNL     1       3.830  12.997  -6.800  1.00  0.00     0.074 A 
ATOM     53  C   UNL     1       3.769  12.082  -5.689  1.00  0.00     0.031 C 
ATOM     54  C   UNL     1      -1.951  10.485  -8.435  1.00  0.00     0.029 A 
ATOM     55  C   UNL     1      -0.730  10.411  -9.211  1.00  0.00     0.049 A 
ATOM     56  H   UNL     1       1.000  11.560  -8.947  1.00  0.00     0.167 HD
ATOM     57  C   UNL     1       4.821  13.266  -7.694  1.00  0.00     0.034 A 
ATOM     58  C   UNL     1      -0.426   9.636 -10.277  1.00  0.00     0.034 A 
ATOM     59  C   UNL     1       4.370  14.187  -8.712  1.00  0.00     0.049 A 
ATOM     60  C   UNL     1       0.707  10.291 -10.971  1.00  0.00     0.074 A 
ATOM     61  C   UNL     1       3.854  15.467  -8.715  1.00  0.00     0.029 A 
ATOM     62  N   UNL     1       4.036  13.644  -9.931  1.00  0.00    -0.354 N 
ATOM     63  N   UNL     1       0.608  11.456 -11.552  1.00  0.00    -0.248 NA
ATOM     64  C   UNL     1       2.058   9.877 -10.629  1.00  0.00     0.031 C 
ATOM     65  C   UNL     1       2.835  15.447  -9.714  1.00  0.00     0.029 A 
ATOM     66  C   UNL     1       2.834  14.183 -10.308  1.00  0.00     0.049 A 
ATOM     67  H   UNL     1       4.564  12.987 -10.440  1.00  0.00     0.167 HD
ATOM     68  C   UNL     1       1.789  12.108 -11.221  1.00  0.00     0.074 A 
ATOM     69  C   UNL     1       2.688  11.049 -10.762  1.00  0.00     0.031 C 
ATOM     70  C   UNL     1       1.829  13.466 -11.067  1.00  0.00     0.034 A 
BRANCH  57  71
ATOM     71  C   UNL     1       6.074  12.446  -7.900  1.00  0.00     0.023 A 
ATOM     72  C   UNL     1       7.059  12.987  -8.759  1.00  0.00     0.012 A 
ATOM     73  C   UNL     1       6.221  11.090  -7.532  1.00  0.00     0.148 A 
ATOM     74  C   UNL     1       8.093  12.203  -9.280  1.00  0.00     0.002 A 
ATOM     75  C   UNL     1       7.295  10.334  -7.991  1.00  0.00     0.091 A 
ATOM     76  F   UNL     1       5.257  10.472  -6.847  1.00  0.00    -0.205 F 
ATOM     77  C   UNL     1       8.215  10.875  -8.892  1.00  0.00     0.022 A 
BRANCH  75  78
ATOM     78  S   UNL     1       7.526   8.624  -7.486  1.00  0.00     0.127 S 
ATOM     79  O   UNL     1       7.135   7.907  -8.695  1.00  0.00    -0.237 OA
ATOM     80  O   UNL     1       8.956   8.592  -7.180  1.00  0.00    -0.237 OA
ATOM     81  O   UNL     1       6.665   8.440  -6.324  1.00  0.00    -0.744 OA
ENDBRANCH  75  78
ENDBRANCH  57  71
BRANCH  58  82
ATOM     82  C   UNL     1      -0.884   8.268 -10.598  1.00  0.00     0.023 A 
ATOM     83  C   UNL     1      -0.792   7.792 -11.919  1.00  0.00     0.012 A 
ATOM     84  C   UNL     1      -1.147   7.337  -9.566  1.00  0.00     0.148 A 
ATOM     85  C   UNL     1      -0.921   6.427 -12.201  1.00  0.00     0.002 A 
ATOM     86  C   UNL     1      -1.273   5.981  -9.851  1.00  0.00     0.091 A 
ATOM     87  F   UNL     1      -1.177   7.770  -8.299  1.00  0.00    -0.205 F 
ATOM     88  C   UNL     1      -1.150   5.521 -11.168  1.00  0.00     0.022 A 
BRANCH  86  89
ATOM     89  S   UNL     1      -1.528   4.750  -8.565  1.00  0.00     0.127 S 
ATOM     90  O   UNL     1      -2.627   3.958  -9.117  1.00  0.00    -0.237 OA
ATOM     91  O   UNL     1      -0.236   4.069  -8.536  1.00  0.00    -0.237 OA
ATOM     92  O   UNL     1      -1.872   5.498  -7.362  1.00  0.00    -0.744 OA
ENDBRANCH  86  89
ENDBRANCH  58  82
BRANCH  70  93
ATOM     93  C   UNL     1       0.610  14.263 -11.474  1.00  0.00     0.023 A 
ATOM     94  C   UNL     1      -0.638  14.106 -10.833  1.00  0.00     0.012 A 
ATOM     95  C   UNL     1       0.766  15.314 -12.393  1.00  0.00     0.148 A 
ATOM     96  C   UNL     1      -1.710  14.957 -11.117  1.00  0.00     0.002 A 
ATOM     97  C   UNL     1      -0.288  16.187 -12.641  1.00  0.00     0.091 A 
ATOM     98  F   UNL     1       1.959  15.463 -12.988  1.00  0.00    -0.205 F 
ATOM     99  C   UNL     1      -1.531  16.007 -12.013  1.00  0.00     0.022 A 
BRANCH  97 100
ATOM    100  S   UNL     1      -0.089  17.631 -13.687  1.00  0.00     0.127 S 
ATOM    101  O   UNL     1      -0.817  17.239 -14.892  1.00  0.00    -0.237 OA
ATOM    102  O   UNL     1      -0.733  18.683 -12.898  1.00  0.00    -0.237 OA
ATOM    103  O   UNL     1       1.348  17.811 -13.854  1.00  0.00    -0.744 OA
ENDBRANCH  97 100
ENDBRANCH  70  93
ENDBRANCH  44  45
ENDBRANCH  36  39
ENDBRANCH  34  35
ENDBRANCH  33  34
ENDBRANCH  32  33
ENDBRANCH   1  32
TORSDOF 21
