REMARK SMILES C[NH+]1CCC(C(=O)N2C[C@@H](C(=O)NCCCCCCNC(=O)c3ccc(-c4c5nc(c(-c6cccc(S(=O)(=O)[O-])c6F)c6ccc([nH]6)c(-c6cccc(S(=O)(=O)[O-])c6F)c6nc(c(-c7cccc(S(=O)(=O)[O-])c7F)c7ccc4[nH]7)C=C6)C=C5)cc3)[C@H](c3ccc4c(c3)OCO4)C2)CC1
REMARK SMILES IDX 17 1 16 2 15 3 14 4 13 5 11 6 12 7 10 9 8 10 9 11 96 12
REMARK SMILES IDX 86 13 6 14 7 15 5 16 1 17 2 18 3 19 98 20 4 22 97 23 87 24
REMARK SMILES IDX 88 25 92 26 89 27 91 28 90 29 93 30 95 31 94 32 18 33 19 34
REMARK SMILES IDX 20 35 21 36 22 38 23 39 24 40 85 41 25 42 84 43 26 44 27 45
REMARK SMILES IDX 28 46 78 47 29 48 83 49 77 50 79 51 30 52 82 53 76 54 75 55
REMARK SMILES IDX 31 57 63 58 43 59 62 60 44 61 47 62 61 63 80 64 45 65 46 66
REMARK SMILES IDX 60 68 81 69 48 70 32 71 33 72 41 73 34 74 36 75 42 76 35 77
REMARK SMILES IDX 37 78 38 79 39 80 40 81 64 82 65 83 73 84 66 85 68 86 74 87
REMARK SMILES IDX 67 88 69 89 70 90 71 91 72 92 49 93 50 94 58 95 51 96 53 97
REMARK SMILES IDX 59 98 52 99 54 100 55 101 56 102 57 103
REMARK H PARENT 13 8 2 21 20 37 79 56 47 67
REMARK Flexibility Score: inf
ROOT
ATOM      1  C   UNL     1       1.208   0.674   9.399  1.00  0.00     0.002 C 
ENDROOT
BRANCH   1   2
ATOM      2  C   UNL     1       0.278  -0.012   8.392  1.00  0.00     0.002 C 
BRANCH   2   3
ATOM      3  C   UNL     1       0.251   0.588   6.981  1.00  0.00     0.021 C 
BRANCH   3   4
ATOM      4  C   UNL     1       1.612   0.731   6.304  1.00  0.00     0.116 C 
BRANCH   4   5
ATOM      5  N   UNL     1       2.274  -0.547   6.090  1.00  0.00    -0.356 N 
ATOM      6  C   UNL     1       3.018  -0.978   5.031  1.00  0.00     0.225 C 
ATOM      7  O   UNL     1       3.589  -2.066   5.122  1.00  0.00    -0.275 OA
ATOM      8  H   UNL     1       2.170  -1.199   6.820  1.00  0.00     0.163 HD
BRANCH   6   9
ATOM      9  C   UNL     1       3.124  -0.125   3.787  1.00  0.00     0.107 C 
ATOM     10  N   UNL     1       3.613  -0.075   1.529  1.00  0.00    -0.341 N 
ATOM     11  C   UNL     1       3.150  -0.994   2.546  1.00  0.00     0.133 C 
ATOM     12  C   UNL     1       4.601   0.830   2.117  1.00  0.00     0.128 C 
ATOM     13  C   UNL     1       4.460   0.641   3.649  1.00  0.00     0.053 C 
BRANCH  10  14
ATOM     14  C   UNL     1       3.279   0.020   0.203  1.00  0.00     0.226 C 
ATOM     15  O   UNL     1       4.110   0.437  -0.614  1.00  0.00    -0.275 OA
BRANCH  14  16
ATOM     16  C   UNL     1       1.815  -0.096  -0.243  1.00  0.00     0.090 C 
ATOM     17  C   UNL     1      -2.482   0.031  -0.265  1.00  0.00     0.332 C 
ATOM     18  N   UNL     1      -1.073  -0.046   0.116  1.00  0.00    -0.337 N 
ATOM     19  C   UNL     1      -0.369   1.186  -0.258  1.00  0.00     0.262 C 
ATOM     20  C   UNL     1      -0.426  -1.224  -0.480  1.00  0.00     0.262 C 
ATOM     21  H   UNL     1      -1.025  -0.147   1.130  1.00  0.00     0.347 HD
ATOM     22  C   UNL     1       1.071   1.154   0.249  1.00  0.00     0.075 C 
ATOM     23  C   UNL     1       1.003  -1.353   0.058  1.00  0.00     0.075 C 
ENDBRANCH  14  16
ENDBRANCH  10  14
BRANCH  13  24
ATOM     24  C   UNL     1       4.455   1.869   4.537  1.00  0.00    -0.038 A 
ATOM     25  C   UNL     1       3.834   3.082   4.160  1.00  0.00     0.008 A 
ATOM     26  C   UNL     1       4.940   1.730   5.853  1.00  0.00     0.054 A 
ATOM     27  C   UNL     1       3.661   4.121   5.083  1.00  0.00     0.051 A 
ATOM     28  C   UNL     1       4.721   2.755   6.748  1.00  0.00     0.166 A 
ATOM     29  C   UNL     1       4.089   3.914   6.375  1.00  0.00     0.165 A 
ATOM     30  O   UNL     1       5.002   2.720   8.079  1.00  0.00    -0.454 OA
ATOM     31  O   UNL     1       3.897   4.758   7.422  1.00  0.00    -0.454 OA
ATOM     32  C   UNL     1       4.408   3.965   8.510  1.00  0.00     0.468 C 
ENDBRANCH  13  24
ENDBRANCH   6   9
ENDBRANCH   4   5
ENDBRANCH   3   4
ENDBRANCH   2   3
ENDBRANCH   1   2
BRANCH   1  33
ATOM     33  C   UNL     1       1.011   2.181   9.572  1.00  0.00     0.021 C 
BRANCH  33  34
ATOM     34  C   UNL     1      -0.376   2.616  10.035  1.00  0.00     0.116 C 
BRANCH  34  35
ATOM     35  N   UNL     1      -0.665   2.196  11.398  1.00  0.00    -0.352 N 
ATOM     36  C   UNL     1      -1.027   2.942  12.495  1.00  0.00     0.251 C 
ATOM     37  H   UNL     1      -0.588   1.228  11.560  1.00  0.00     0.163 HD
ATOM     38  O   UNL     1      -1.059   2.406  13.601  1.00  0.00    -0.269 OA
BRANCH  36  39
ATOM     39  C   UNL     1      -1.360   4.382  12.366  1.00  0.00     0.039 A 
ATOM     40  C   UNL     1      -0.926   5.266  13.360  1.00  0.00     0.014 A 
ATOM     41  C   UNL     1      -2.123   4.866  11.300  1.00  0.00     0.014 A 
ATOM     42  C   UNL     1      -1.206   6.633  13.256  1.00  0.00     0.010 A 
ATOM     43  C   UNL     1      -2.335   6.237  11.158  1.00  0.00     0.010 A 
ATOM     44  C   UNL     1      -1.890   7.137  12.138  1.00  0.00    -0.014 A 
BRANCH  44  45
ATOM     45  C   UNL     1      -2.151   8.594  11.974  1.00  0.00     0.031 A 
ATOM     46  C   UNL     1      -3.566   9.110  11.905  1.00  0.00     0.074 A 
ATOM     47  C   UNL     1      -1.120   9.443  11.785  1.00  0.00     0.049 A 
ATOM     48  N   UNL     1      -3.990  10.328  11.683  1.00  0.00    -0.248 NA
ATOM     49  C   UNL     1      -4.649   8.125  12.077  1.00  0.00     0.031 C 
ATOM     50  C   UNL     1       0.293   9.062  11.736  1.00  0.00     0.029 A 
ATOM     51  N   UNL     1      -1.104  10.798  11.559  1.00  0.00    -0.354 N 
ATOM     52  C   UNL     1      -5.377  10.247  11.634  1.00  0.00     0.074 A 
ATOM     53  C   UNL     1      -5.726   8.858  11.832  1.00  0.00     0.031 C 
ATOM     54  C   UNL     1       1.036  10.153  11.485  1.00  0.00     0.029 A 
ATOM     55  C   UNL     1       0.155  11.307  11.332  1.00  0.00     0.049 A 
ATOM     56  H   UNL     1      -1.917  11.354  11.560  1.00  0.00     0.167 HD
ATOM     57  C   UNL     1      -6.280  11.242  11.466  1.00  0.00     0.034 A 
ATOM     58  C   UNL     1       0.555  12.557  11.025  1.00  0.00     0.034 A 
ATOM     59  C   UNL     1      -5.938  12.633  11.351  1.00  0.00     0.049 A 
ATOM     60  C   UNL     1      -0.470  13.656  10.934  1.00  0.00     0.074 A 
ATOM     61  C   UNL     1      -6.787  13.725  11.310  1.00  0.00     0.029 A 
ATOM     62  N   UNL     1      -4.647  13.126  11.256  1.00  0.00    -0.354 N 
ATOM     63  N   UNL     1      -1.770  13.585  11.084  1.00  0.00    -0.248 NA
ATOM     64  C   UNL     1       0.030  15.015  10.672  1.00  0.00     0.031 C 
ATOM     65  C   UNL     1      -6.009  14.879  11.175  1.00  0.00     0.029 A 
ATOM     66  C   UNL     1      -4.676  14.505  11.148  1.00  0.00     0.049 A 
ATOM     67  H   UNL     1      -3.830  12.576  11.264  1.00  0.00     0.167 HD
ATOM     68  C   UNL     1      -2.238  14.889  10.970  1.00  0.00     0.074 A 
ATOM     69  C   UNL     1      -1.081  15.734  10.763  1.00  0.00     0.031 C 
ATOM     70  C   UNL     1      -3.514  15.344  11.012  1.00  0.00     0.034 A 
BRANCH  57  71
ATOM     71  C   UNL     1      -7.742  10.882  11.462  1.00  0.00     0.023 A 
ATOM     72  C   UNL     1      -8.378  10.547  12.674  1.00  0.00     0.012 A 
ATOM     73  C   UNL     1      -8.506  10.976  10.281  1.00  0.00     0.148 A 
ATOM     74  C   UNL     1      -9.748  10.290  12.709  1.00  0.00     0.002 A 
ATOM     75  C   UNL     1      -9.878  10.757  10.332  1.00  0.00     0.091 A 
ATOM     76  F   UNL     1      -7.878  11.279   9.136  1.00  0.00    -0.205 F 
ATOM     77  C   UNL     1     -10.498  10.406  11.542  1.00  0.00     0.022 A 
BRANCH  75  78
ATOM     78  S   UNL     1     -10.946  10.960   8.901  1.00  0.00     0.127 S 
ATOM     79  O   UNL     1     -11.363   9.578   8.648  1.00  0.00    -0.237 OA
ATOM     80  O   UNL     1     -12.004  11.825   9.429  1.00  0.00    -0.237 OA
ATOM     81  O   UNL     1     -10.126  11.561   7.865  1.00  0.00    -0.744 OA
ENDBRANCH  75  78
ENDBRANCH  57  71
BRANCH  58  82
ATOM     82  C   UNL     1       2.004  12.854  10.839  1.00  0.00     0.023 A 
ATOM     83  C   UNL     1       2.681  13.631  11.800  1.00  0.00     0.012 A 
ATOM     84  C   UNL     1       2.717  12.368   9.727  1.00  0.00     0.148 A 
ATOM     85  C   UNL     1       4.029  13.951  11.637  1.00  0.00     0.002 A 
ATOM     86  C   UNL     1       4.074  12.643   9.598  1.00  0.00     0.091 A 
ATOM     87  F   UNL     1       2.055  11.646   8.811  1.00  0.00    -0.205 F 
ATOM     88  C   UNL     1       4.728  13.450  10.542  1.00  0.00     0.022 A 
BRANCH  86  89
ATOM     89  S   UNL     1       5.069  11.919   8.290  1.00  0.00     0.127 S 
ATOM     90  O   UNL     1       5.167  13.023   7.340  1.00  0.00    -0.237 OA
ATOM     91  O   UNL     1       6.313  11.596   8.991  1.00  0.00    -0.237 OA
ATOM     92  O   UNL     1       4.320  10.751   7.844  1.00  0.00    -0.744 OA
ENDBRANCH  86  89
ENDBRANCH  58  82
BRANCH  70  93
ATOM     93  C   UNL     1      -3.739  16.826  10.870  1.00  0.00     0.023 A 
ATOM     94  C   UNL     1      -3.588  17.436   9.609  1.00  0.00     0.012 A 
ATOM     95  C   UNL     1      -4.181  17.595  11.964  1.00  0.00     0.148 A 
ATOM     96  C   UNL     1      -3.848  18.796   9.446  1.00  0.00     0.002 A 
ATOM     97  C   UNL     1      -4.482  18.940  11.783  1.00  0.00     0.091 A 
ATOM     98  F   UNL     1      -4.299  17.000  13.160  1.00  0.00    -0.205 F 
ATOM     99  C   UNL     1      -4.306  19.544  10.528  1.00  0.00     0.022 A 
BRANCH  97 100
ATOM    100  S   UNL     1      -5.170  19.953  13.098  1.00  0.00     0.127 S 
ATOM    101  O   UNL     1      -4.014  20.758  13.490  1.00  0.00    -0.237 OA
ATOM    102  O   UNL     1      -6.223  20.695  12.404  1.00  0.00    -0.237 OA
ATOM    103  O   UNL     1      -5.656  19.020  14.106  1.00  0.00    -0.744 OA
ENDBRANCH  97 100
ENDBRANCH  70  93
ENDBRANCH  44  45
ENDBRANCH  36  39
ENDBRANCH  34  35
ENDBRANCH  33  34
ENDBRANCH   1  33
TORSDOF 19
