REMARK SMILES Cc1ccc(-c2c(C(=O)NCCCCCCNC(=O)c3ccc(-c4c5nc(c(-c6cccc(S(=O)(=O)[O-])c6F)c6ccc([nH]6)c(-c6cccc(S(=O)(=O)[O-])c6F)c6nc(c(-c7cccc(S(=O)(=O)[O-])c7F)c7ccc4[nH]7)C=C6)C=C5)cc3)nnn2Cc2c(F)cccc2Cl)cc1
REMARK SMILES IDX 14 1 13 2 12 3 11 4 10 5 8 6 9 7 7 9 6 10 85 11 83 12 84 13
REMARK SMILES IDX 5 14 1 15 2 16 3 17 96 18 4 19 95 20 86 21 87 22 88 23 93 24
REMARK SMILES IDX 89 25 90 26 92 27 94 28 91 29 15 30 16 31 17 32 18 33 19 35
REMARK SMILES IDX 20 36 21 37 82 38 22 39 81 40 23 41 24 42 25 43 75 44 26 45
REMARK SMILES IDX 80 46 74 47 76 48 27 49 79 50 73 51 72 52 28 54 60 55 40 56
REMARK SMILES IDX 59 57 41 58 44 59 58 60 77 61 42 62 43 63 57 65 78 66 45 67
REMARK SMILES IDX 29 68 30 69 38 70 31 71 33 72 39 73 32 74 34 75 35 76 36 77
REMARK SMILES IDX 37 78 61 79 62 80 70 81 63 82 65 83 71 84 64 85 66 86 67 87
REMARK SMILES IDX 68 88 69 89 46 90 47 91 55 92 48 93 50 94 56 95 49 96 51 97
REMARK SMILES IDX 52 98 53 99 54 100
REMARK H PARENT 10 8 17 34 76 53 44 64
REMARK Flexibility Score: inf
ROOT
ATOM      1  C   UNL     1       0.133  -2.821   4.329  1.00  0.00     0.002 C 
ENDROOT
BRANCH   1   2
ATOM      2  C   UNL     1      -0.465  -1.521   4.881  1.00  0.00     0.002 C 
BRANCH   2   3
ATOM      3  C   UNL     1      -0.889  -0.415   3.918  1.00  0.00     0.021 C 
BRANCH   3   4
ATOM      4  C   UNL     1      -1.750  -0.770   2.715  1.00  0.00     0.116 C 
BRANCH   4   5
ATOM      5  N   UNL     1      -3.098  -1.179   2.977  1.00  0.00    -0.351 N 
ATOM      6  C   UNL     1      -4.222  -1.075   2.186  1.00  0.00     0.274 C 
ATOM      7  O   UNL     1      -5.231  -1.600   2.672  1.00  0.00    -0.267 OA
ATOM      8  H   UNL     1      -3.244  -1.597   3.856  1.00  0.00     0.163 HD
BRANCH   6   9
ATOM      9  C   UNL     1      -4.298  -0.400   0.873  1.00  0.00     0.178 A 
ATOM     10  C   UNL     1      -3.398   0.045  -0.106  1.00  0.00     0.102 A 
ATOM     11  N   UNL     1      -4.229   0.468  -1.133  1.00  0.00    -0.239 N 
ATOM     12  N   UNL     1      -5.582  -0.120   0.417  1.00  0.00    -0.124 NA
ATOM     13  N   UNL     1      -5.519   0.439  -0.773  1.00  0.00    -0.066 NA
BRANCH  10  14
ATOM     14  C   UNL     1      -1.946   0.070  -0.257  1.00  0.00     0.002 A 
ATOM     15  C   UNL     1       2.359   0.166  -0.582  1.00  0.00     0.044 C 
ATOM     16  C   UNL     1       0.863   0.142  -0.470  1.00  0.00    -0.051 A 
ATOM     17  C   UNL     1       0.171  -1.070  -0.583  1.00  0.00     0.004 A 
ATOM     18  C   UNL     1       0.139   1.322  -0.278  1.00  0.00     0.004 A 
ATOM     19  C   UNL     1      -1.222  -1.107  -0.474  1.00  0.00     0.011 A 
ATOM     20  C   UNL     1      -1.255   1.288  -0.179  1.00  0.00     0.011 A 
ENDBRANCH  10  14
BRANCH  11  21
ATOM     21  C   UNL     1      -3.908   0.958  -2.471  1.00  0.00     0.187 C 
BRANCH  21  22
ATOM     22  C   UNL     1      -3.020   0.081  -3.321  1.00  0.00     0.028 A 
ATOM     23  C   UNL     1      -2.139   0.739  -4.194  1.00  0.00     0.129 A 
ATOM     24  C   UNL     1      -3.026  -1.321  -3.368  1.00  0.00     0.049 A 
ATOM     25  F   UNL     1      -2.175   2.077  -4.281  1.00  0.00    -0.207 F 
ATOM     26  C   UNL     1      -1.233   0.055  -5.001  1.00  0.00     0.040 A 
ATOM     27  C   UNL     1      -2.085  -2.017  -4.142  1.00  0.00     0.021 A 
ATOM     28  Cl  UNL     1      -4.184  -2.294  -2.533  1.00  0.00    -0.084 Cl
ATOM     29  C   UNL     1      -1.181  -1.331  -4.950  1.00  0.00     0.005 A 
ENDBRANCH  21  22
ENDBRANCH  11  21
ENDBRANCH   6   9
ENDBRANCH   4   5
ENDBRANCH   3   4
ENDBRANCH   2   3
ENDBRANCH   1   2
BRANCH   1  30
ATOM     30  C   UNL     1       1.102  -2.755   3.150  1.00  0.00     0.021 C 
BRANCH  30  31
ATOM     31  C   UNL     1       2.313  -1.848   3.325  1.00  0.00     0.116 C 
BRANCH  31  32
ATOM     32  N   UNL     1       3.575  -2.574   3.399  1.00  0.00    -0.352 N 
ATOM     33  C   UNL     1       4.870  -2.088   3.386  1.00  0.00     0.251 C 
ATOM     34  H   UNL     1       3.494  -3.553   3.470  1.00  0.00     0.163 HD
ATOM     35  O   UNL     1       5.813  -2.876   3.326  1.00  0.00    -0.269 OA
BRANCH  33  36
ATOM     36  C   UNL     1       5.101  -0.637   3.562  1.00  0.00     0.039 A 
ATOM     37  C   UNL     1       5.957  -0.227   4.590  1.00  0.00     0.014 A 
ATOM     38  C   UNL     1       4.308   0.293   2.899  1.00  0.00     0.014 A 
ATOM     39  C   UNL     1       5.811   1.045   5.135  1.00  0.00     0.010 A 
ATOM     40  C   UNL     1       4.102   1.523   3.479  1.00  0.00     0.010 A 
ATOM     41  C   UNL     1       4.794   1.858   4.646  1.00  0.00    -0.014 A 
BRANCH  41  42
ATOM     42  C   UNL     1       4.323   3.064   5.298  1.00  0.00     0.031 A 
ATOM     43  C   UNL     1       4.962   4.355   5.017  1.00  0.00     0.074 A 
ATOM     44  C   UNL     1       3.177   2.989   6.009  1.00  0.00     0.049 A 
ATOM     45  N   UNL     1       4.765   5.421   5.713  1.00  0.00    -0.248 NA
ATOM     46  C   UNL     1       5.937   4.524   3.947  1.00  0.00     0.031 C 
ATOM     47  C   UNL     1       2.283   4.076   6.380  1.00  0.00     0.029 A 
ATOM     48  N   UNL     1       2.705   1.890   6.736  1.00  0.00    -0.354 N 
ATOM     49  C   UNL     1       5.306   6.466   4.999  1.00  0.00     0.074 A 
ATOM     50  C   UNL     1       6.165   5.838   4.028  1.00  0.00     0.031 C 
ATOM     51  C   UNL     1       1.558   3.691   7.442  1.00  0.00     0.029 A 
ATOM     52  C   UNL     1       2.111   2.425   7.893  1.00  0.00     0.049 A 
ATOM     53  H   UNL     1       2.774   0.940   6.489  1.00  0.00     0.167 HD
ATOM     54  C   UNL     1       4.803   7.715   5.202  1.00  0.00     0.034 A 
ATOM     55  C   UNL     1       2.553   2.160   9.159  1.00  0.00     0.034 A 
ATOM     56  C   UNL     1       3.949   7.739   6.403  1.00  0.00     0.049 A 
ATOM     57  C   UNL     1       2.943   3.411   9.927  1.00  0.00     0.074 A 
ATOM     58  C   UNL     1       2.578   7.764   6.597  1.00  0.00     0.029 A 
ATOM     59  N   UNL     1       4.511   7.451   7.644  1.00  0.00    -0.354 N 
ATOM     60  N   UNL     1       3.015   4.602   9.398  1.00  0.00    -0.248 NA
ATOM     61  C   UNL     1       3.310   3.420  11.340  1.00  0.00     0.031 C 
ATOM     62  C   UNL     1       2.318   7.373   7.941  1.00  0.00     0.029 A 
ATOM     63  C   UNL     1       3.529   7.157   8.577  1.00  0.00     0.049 A 
ATOM     64  H   UNL     1       5.478   7.455   7.833  1.00  0.00     0.167 HD
ATOM     65  C   UNL     1       3.537   5.490  10.301  1.00  0.00     0.074 A 
ATOM     66  C   UNL     1       3.624   4.715  11.529  1.00  0.00     0.031 C 
ATOM     67  C   UNL     1       3.904   6.760   9.935  1.00  0.00     0.034 A 
BRANCH  54  68
ATOM     68  C   UNL     1       4.846   8.868   4.200  1.00  0.00     0.023 A 
ATOM     69  C   UNL     1       4.089  10.020   4.516  1.00  0.00     0.012 A 
ATOM     70  C   UNL     1       5.467   8.882   2.924  1.00  0.00     0.148 A 
ATOM     71  C   UNL     1       3.916  11.083   3.618  1.00  0.00     0.002 A 
ATOM     72  C   UNL     1       5.321   9.953   2.037  1.00  0.00     0.091 A 
ATOM     73  F   UNL     1       6.181   7.841   2.508  1.00  0.00    -0.205 F 
ATOM     74  C   UNL     1       4.531  11.051   2.375  1.00  0.00     0.022 A 
BRANCH  72  75
ATOM     75  S   UNL     1       6.107   9.979   0.412  1.00  0.00     0.127 S 
ATOM     76  O   UNL     1       4.952   9.976  -0.486  1.00  0.00    -0.237 OA
ATOM     77  O   UNL     1       6.851  11.238   0.445  1.00  0.00    -0.237 OA
ATOM     78  O   UNL     1       6.942   8.786   0.332  1.00  0.00    -0.744 OA
ENDBRANCH  72  75
ENDBRANCH  54  68
BRANCH  55  79
ATOM     79  C   UNL     1       3.198   0.818   9.290  1.00  0.00     0.023 A 
ATOM     80  C   UNL     1       2.381  -0.306   9.009  1.00  0.00     0.012 A 
ATOM     81  C   UNL     1       4.594   0.668   9.244  1.00  0.00     0.148 A 
ATOM     82  C   UNL     1       2.936  -1.493   8.528  1.00  0.00     0.002 A 
ATOM     83  C   UNL     1       5.141  -0.526   8.774  1.00  0.00     0.091 A 
ATOM     84  F   UNL     1       5.365   1.713   9.573  1.00  0.00    -0.205 F 
ATOM     85  C   UNL     1       4.314  -1.588   8.372  1.00  0.00     0.022 A 
BRANCH  83  86
ATOM     86  S   UNL     1       6.915  -0.705   8.537  1.00  0.00     0.127 S 
ATOM     87  O   UNL     1       7.332  -1.240   9.828  1.00  0.00    -0.237 OA
ATOM     88  O   UNL     1       6.995  -1.652   7.425  1.00  0.00    -0.237 OA
ATOM     89  O   UNL     1       7.377   0.636   8.209  1.00  0.00    -0.744 OA
ENDBRANCH  83  86
ENDBRANCH  55  79
BRANCH  67  90
ATOM     90  C   UNL     1       4.675   7.750  10.797  1.00  0.00     0.023 A 
ATOM     91  C   UNL     1       5.441   7.358  11.910  1.00  0.00     0.012 A 
ATOM     92  C   UNL     1       4.767   9.118  10.419  1.00  0.00     0.148 A 
ATOM     93  C   UNL     1       6.210   8.271  12.644  1.00  0.00     0.002 A 
ATOM     94  C   UNL     1       5.624   9.996  11.080  1.00  0.00     0.091 A 
ATOM     95  F   UNL     1       4.004   9.592   9.424  1.00  0.00    -0.205 F 
ATOM     96  C   UNL     1       6.323   9.585  12.214  1.00  0.00     0.022 A 
BRANCH  94  97
ATOM     97  S   UNL     1       5.983  11.624  10.402  1.00  0.00     0.127 S 
ATOM     98  O   UNL     1       5.017  12.466  11.102  1.00  0.00    -0.237 OA
ATOM     99  O   UNL     1       7.376  11.833  10.803  1.00  0.00    -0.237 OA
ATOM    100  O   UNL     1       5.794  11.484   8.964  1.00  0.00    -0.744 OA
ENDBRANCH  94  97
ENDBRANCH  67  90
ENDBRANCH  41  42
ENDBRANCH  33  36
ENDBRANCH  31  32
ENDBRANCH  30  31
ENDBRANCH   1  30
TORSDOF 19
