REMARK SMILES Cc1ccc(N)cc1S(=O)(=O)Nc1cccc(C(=O)NCCCCCCNC(=O)c2ccc(-c3c4nc(c(-c5cccc(S(=O)(=O)[O-])c5F)c5ccc([nH]5)c(-c5cccc(S(=O)(=O)[O-])c5F)c5nc(c(-c6cccc(S(=O)(=O)[O-])c6F)c6ccc3[nH]6)C=C5)C=C4)cc2)c1
REMARK SMILES IDX 23 1 22 2 21 3 20 4 18 5 19 6 17 8 13 9 14 10 93 11 15 12
REMARK SMILES IDX 16 13 12 14 9 16 10 17 11 18 8 19 1 20 2 21 3 22 4 23 7 24
REMARK SMILES IDX 5 25 6 26 24 29 25 30 26 31 27 32 28 33 29 35 30 36 31 37
REMARK SMILES IDX 92 38 32 39 91 40 33 41 34 42 35 43 85 44 36 45 90 46 84 47
REMARK SMILES IDX 86 48 37 49 89 50 83 51 82 52 38 54 70 55 50 56 69 57 51 58
REMARK SMILES IDX 54 59 68 60 87 61 52 62 53 63 67 65 88 66 55 67 39 68 40 69
REMARK SMILES IDX 48 70 41 71 43 72 49 73 42 74 44 75 45 76 46 77 47 78 71 79
REMARK SMILES IDX 72 80 80 81 73 82 75 83 81 84 74 85 76 86 77 87 78 88 79 89
REMARK SMILES IDX 56 90 57 91 65 92 58 93 60 94 66 95 59 96 61 97 62 98 63 99
REMARK SMILES IDX 64 100
REMARK H PARENT 20 7 12 15 6 27 6 28 27 34 86 53 54 64
REMARK Flexibility Score: inf
ROOT
ATOM      1  C   UNL     1      -0.820  -0.692   5.202  1.00  0.00     0.002 C 
ENDROOT
BRANCH   1   2
ATOM      2  C   UNL     1      -1.546  -0.022   4.029  1.00  0.00     0.021 C 
BRANCH   2   3
ATOM      3  C   UNL     1      -1.681  -0.953   2.823  1.00  0.00     0.116 C 
BRANCH   3   4
ATOM      4  N   UNL     1      -2.862  -1.787   2.974  1.00  0.00    -0.352 N 
ATOM      5  C   UNL     1      -4.146  -1.691   2.504  1.00  0.00     0.251 C 
ATOM      6  O   UNL     1      -4.946  -2.556   2.868  1.00  0.00    -0.269 OA
ATOM      7  H   UNL     1      -2.707  -2.587   3.526  1.00  0.00     0.163 HD
BRANCH   5   8
ATOM      8  C   UNL     1      -4.595  -0.672   1.511  1.00  0.00     0.041 A 
ATOM      9  C   UNL     1      -4.259   1.288   0.139  1.00  0.00     0.050 A 
ATOM     10  C   UNL     1      -5.375   0.950  -0.633  1.00  0.00     0.027 A 
ATOM     11  C   UNL     1      -3.959   0.550   1.282  1.00  0.00     0.040 A 
ATOM     12  C   UNL     1      -6.105  -0.197  -0.340  1.00  0.00     0.003 A 
ATOM     13  C   UNL     1      -5.690  -1.023   0.703  1.00  0.00     0.014 A 
BRANCH   9  14
ATOM     14  N   UNL     1      -3.404   2.285  -0.395  1.00  0.00    -0.280 N 
ATOM     15  H   UNL     1      -3.794   2.873  -1.081  1.00  0.00     0.180 HD
BRANCH  14  16
ATOM     16  S   UNL     1      -1.811   2.574   0.007  1.00  0.00     0.262 S 
ATOM     17  O   UNL     1      -1.754   2.773   1.441  1.00  0.00    -0.201 OA
ATOM     18  O   UNL     1      -1.396   3.613  -0.913  1.00  0.00    -0.201 OA
BRANCH  16  19
ATOM     19  C   UNL     1      -0.768   1.160  -0.346  1.00  0.00     0.092 A 
ATOM     20  C   UNL     1      -2.371  -0.313  -1.756  1.00  0.00     0.046 C 
ATOM     21  C   UNL     1      -1.112  -0.034  -0.998  1.00  0.00    -0.030 A 
ATOM     22  C   UNL     1      -0.190  -1.101  -0.947  1.00  0.00     0.007 A 
ATOM     23  C   UNL     1       1.084  -0.946  -0.397  1.00  0.00     0.026 A 
ATOM     24  C   UNL     1       0.541   1.308   0.170  1.00  0.00     0.048 A 
ATOM     25  C   UNL     1       1.491   0.290   0.084  1.00  0.00     0.033 A 
BRANCH  25  26
ATOM     26  N   UNL     1       2.758   0.458   0.625  1.00  0.00    -0.399 N 
ATOM     27  H   UNL     1       3.422  -0.267   0.558  1.00  0.00     0.156 HD
ATOM     28  H   UNL     1       2.994   1.301   1.075  1.00  0.00     0.156 HD
ENDBRANCH  25  26
ENDBRANCH  16  19
ENDBRANCH  14  16
ENDBRANCH   9  14
ENDBRANCH   5   8
ENDBRANCH   3   4
ENDBRANCH   2   3
ENDBRANCH   1   2
BRANCH   1  29
ATOM     29  C   UNL     1       0.672  -0.949   4.955  1.00  0.00     0.002 C 
BRANCH  29  30
ATOM     30  C   UNL     1       1.499   0.296   4.620  1.00  0.00     0.021 C 
BRANCH  30  31
ATOM     31  C   UNL     1       1.446   1.396   5.676  1.00  0.00     0.116 C 
BRANCH  31  32
ATOM     32  N   UNL     1       1.986   0.948   6.952  1.00  0.00    -0.352 N 
ATOM     33  C   UNL     1       2.907   1.565   7.762  1.00  0.00     0.251 C 
ATOM     34  H   UNL     1       1.645   0.084   7.279  1.00  0.00     0.163 HD
ATOM     35  O   UNL     1       3.402   0.960   8.708  1.00  0.00    -0.269 OA
BRANCH  33  36
ATOM     36  C   UNL     1       3.306   2.959   7.479  1.00  0.00     0.039 A 
ATOM     37  C   UNL     1       4.663   3.294   7.491  1.00  0.00     0.014 A 
ATOM     38  C   UNL     1       2.339   3.932   7.215  1.00  0.00     0.014 A 
ATOM     39  C   UNL     1       5.055   4.601   7.192  1.00  0.00     0.010 A 
ATOM     40  C   UNL     1       2.734   5.218   6.861  1.00  0.00     0.010 A 
ATOM     41  C   UNL     1       4.093   5.567   6.857  1.00  0.00    -0.014 A 
BRANCH  41  42
ATOM     42  C   UNL     1       4.473   6.959   6.516  1.00  0.00     0.031 A 
ATOM     43  C   UNL     1       4.045   8.088   7.411  1.00  0.00     0.074 A 
ATOM     44  C   UNL     1       5.102   7.215   5.353  1.00  0.00     0.049 A 
ATOM     45  N   UNL     1       4.173   9.377   7.234  1.00  0.00    -0.248 NA
ATOM     46  C   UNL     1       3.355   7.719   8.659  1.00  0.00     0.031 C 
ATOM     47  C   UNL     1       5.509   6.207   4.372  1.00  0.00     0.029 A 
ATOM     48  N   UNL     1       5.478   8.405   4.783  1.00  0.00    -0.354 N 
ATOM     49  C   UNL     1       3.539   9.973   8.318  1.00  0.00     0.074 A 
ATOM     50  C   UNL     1       3.007   8.905   9.137  1.00  0.00     0.031 C 
ATOM     51  C   UNL     1       6.073   6.821   3.320  1.00  0.00     0.029 A 
ATOM     52  C   UNL     1       6.044   8.265   3.537  1.00  0.00     0.049 A 
ATOM     53  H   UNL     1       5.354   9.277   5.223  1.00  0.00     0.167 HD
ATOM     54  C   UNL     1       3.435  11.288   8.621  1.00  0.00     0.034 A 
ATOM     55  C   UNL     1       6.484   9.196   2.668  1.00  0.00     0.034 A 
ATOM     56  C   UNL     1       4.017  12.341   7.834  1.00  0.00     0.049 A 
ATOM     57  C   UNL     1       6.406  10.649   3.054  1.00  0.00     0.074 A 
ATOM     58  C   UNL     1       4.044  13.699   8.098  1.00  0.00     0.029 A 
ATOM     59  N   UNL     1       4.679  12.152   6.631  1.00  0.00    -0.354 N 
ATOM     60  N   UNL     1       5.937  11.185   4.154  1.00  0.00    -0.248 NA
ATOM     61  C   UNL     1       6.952  11.622   2.096  1.00  0.00     0.031 C 
ATOM     62  C   UNL     1       4.722  14.332   7.050  1.00  0.00     0.029 A 
ATOM     63  C   UNL     1       5.123  13.367   6.139  1.00  0.00     0.049 A 
ATOM     64  H   UNL     1       4.814  11.282   6.191  1.00  0.00     0.167 HD
ATOM     65  C   UNL     1       6.165  12.552   4.040  1.00  0.00     0.074 A 
ATOM     66  C   UNL     1       6.827  12.759   2.768  1.00  0.00     0.031 C 
ATOM     67  C   UNL     1       5.843  13.546   4.904  1.00  0.00     0.034 A 
BRANCH  54  68
ATOM     68  C   UNL     1       2.716  11.653   9.893  1.00  0.00     0.023 A 
ATOM     69  C   UNL     1       3.336  11.398  11.133  1.00  0.00     0.012 A 
ATOM     70  C   UNL     1       1.453  12.275   9.867  1.00  0.00     0.148 A 
ATOM     71  C   UNL     1       2.696  11.719  12.328  1.00  0.00     0.002 A 
ATOM     72  C   UNL     1       0.838  12.630  11.063  1.00  0.00     0.091 A 
ATOM     73  F   UNL     1       0.864  12.487   8.682  1.00  0.00    -0.205 F 
ATOM     74  C   UNL     1       1.452  12.343  12.294  1.00  0.00     0.022 A 
BRANCH  72  75
ATOM     75  S   UNL     1      -0.731  13.505  11.110  1.00  0.00     0.127 S 
ATOM     76  O   UNL     1      -1.666  12.423  11.412  1.00  0.00    -0.237 OA
ATOM     77  O   UNL     1      -0.527  14.456  12.204  1.00  0.00    -0.237 OA
ATOM     78  O   UNL     1      -0.876  14.122   9.799  1.00  0.00    -0.744 OA
ENDBRANCH  72  75
ENDBRANCH  54  68
BRANCH  55  79
ATOM     79  C   UNL     1       7.124   8.770   1.391  1.00  0.00     0.023 A 
ATOM     80  C   UNL     1       8.518   8.911   1.248  1.00  0.00     0.012 A 
ATOM     81  C   UNL     1       6.382   8.182   0.349  1.00  0.00     0.148 A 
ATOM     82  C   UNL     1       9.160   8.495   0.081  1.00  0.00     0.002 A 
ATOM     83  C   UNL     1       7.035   7.722  -0.790  1.00  0.00     0.091 A 
ATOM     84  F   UNL     1       5.055   8.067   0.498  1.00  0.00    -0.205 F 
ATOM     85  C   UNL     1       8.421   7.892  -0.932  1.00  0.00     0.022 A 
BRANCH  83  86
ATOM     86  S   UNL     1       6.187   6.810  -2.086  1.00  0.00     0.127 S 
ATOM     87  O   UNL     1       6.153   7.788  -3.169  1.00  0.00    -0.237 OA
ATOM     88  O   UNL     1       7.092   5.680  -2.304  1.00  0.00    -0.237 OA
ATOM     89  O   UNL     1       4.897   6.438  -1.521  1.00  0.00    -0.744 OA
ENDBRANCH  83  86
ENDBRANCH  55  79
BRANCH  67  90
ATOM     90  C   UNL     1       6.233  14.952   4.532  1.00  0.00     0.023 A 
ATOM     91  C   UNL     1       5.495  15.643   3.553  1.00  0.00     0.012 A 
ATOM     92  C   UNL     1       7.268  15.616   5.220  1.00  0.00     0.148 A 
ATOM     93  C   UNL     1       5.794  16.971   3.248  1.00  0.00     0.002 A 
ATOM     94  C   UNL     1       7.532  16.952   4.940  1.00  0.00     0.091 A 
ATOM     95  F   UNL     1       7.973  14.932   6.133  1.00  0.00    -0.205 F 
ATOM     96  C   UNL     1       6.802  17.628   3.950  1.00  0.00     0.022 A 
BRANCH  94  97
ATOM     97  S   UNL     1       8.751  17.899   5.861  1.00  0.00     0.127 S 
ATOM     98  O   UNL     1       9.860  17.962   4.911  1.00  0.00    -0.237 OA
ATOM     99  O   UNL     1       8.061  19.172   6.077  1.00  0.00    -0.237 OA
ATOM    100  O   UNL     1       9.007  17.141   7.078  1.00  0.00    -0.744 OA
ENDBRANCH  94  97
ENDBRANCH  67  90
ENDBRANCH  41  42
ENDBRANCH  33  36
ENDBRANCH  31  32
ENDBRANCH  30  31
ENDBRANCH  29  30
ENDBRANCH   1  29
TORSDOF 20
