REMARK SMILES O=C(CCCC(=O)Nc1ccccc1F)NCCCCCCNC(=O)c1ccc(-c2c3nc(c(-c4cccc(S(=O)(=O)[O-])c4F)c4ccc([nH]4)c(-c4cccc(S(=O)(=O)[O-])c4F)c4nc(c(-c5cccc(S(=O)(=O)[O-])c5F)c5ccc2[nH]5)C=C4)C=C3)cc1
REMARK SMILES IDX 19 1 18 2 17 3 16 4 1 5 2 6 3 8 4 9 5 10 6 11 7 12 8 13 9 15
REMARK SMILES IDX 10 16 14 17 11 18 13 19 15 20 12 21 20 22 21 23 22 24 23 25
REMARK SMILES IDX 24 26 25 28 26 29 27 30 88 31 28 32 87 33 29 34 30 35 31 36
REMARK SMILES IDX 81 37 32 38 86 39 80 40 82 41 33 42 85 43 79 44 78 45 34 47
REMARK SMILES IDX 66 48 46 49 65 50 47 51 50 52 64 53 83 54 48 55 49 56 63 58
REMARK SMILES IDX 84 59 51 60 35 61 36 62 44 63 37 64 39 65 45 66 38 67 40 68
REMARK SMILES IDX 41 69 42 70 43 71 67 72 68 73 76 74 69 75 71 76 77 77 70 78
REMARK SMILES IDX 72 79 73 80 74 81 75 82 52 83 53 84 61 85 54 86 56 87 62 88
REMARK SMILES IDX 55 89 57 90 58 91 59 92 60 93
REMARK H PARENT 16 7 8 14 23 27 82 46 50 57
REMARK Flexibility Score: inf
ROOT
ATOM      1  C   UNL     1       4.115   2.898   2.373  1.00  0.00     0.002 C 
ENDROOT
BRANCH   1   2
ATOM      2  C   UNL     1       2.589   2.760   2.305  1.00  0.00     0.021 C 
BRANCH   2   3
ATOM      3  C   UNL     1       2.006   2.599   0.900  1.00  0.00     0.116 C 
BRANCH   3   4
ATOM      4  N   UNL     1       2.494   1.417   0.219  1.00  0.00    -0.356 N 
ATOM      5  O   UNL     1       1.208   1.704  -1.647  1.00  0.00    -0.275 OA
ATOM      6  C   UNL     1       2.066   1.071  -1.038  1.00  0.00     0.220 C 
ATOM      7  H   UNL     1       3.154   0.845   0.672  1.00  0.00     0.163 HD
BRANCH   6   8
ATOM      8  C   UNL     1       2.641  -0.220  -1.599  1.00  0.00     0.100 C 
BRANCH   8   9
ATOM      9  C   UNL     1       4.141  -0.308  -1.893  1.00  0.00     0.020 C 
BRANCH   9  10
ATOM     10  C   UNL     1       5.169   0.123  -0.852  1.00  0.00     0.101 C 
BRANCH  10  11
ATOM     11  C   UNL     1       5.796  -0.886   0.117  1.00  0.00     0.224 C 
ATOM     12  O   UNL     1       6.918  -1.349  -0.104  1.00  0.00    -0.275 OA
ATOM     13  N   UNL     1       5.263  -1.020   1.373  1.00  0.00    -0.324 N 
ATOM     14  H   UNL     1       5.896  -0.905   2.118  1.00  0.00     0.170 HD
BRANCH  13  15
ATOM     15  C   UNL     1       3.939  -1.298   1.742  1.00  0.00     0.077 A 
ATOM     16  C   UNL     1       3.448  -0.733   2.921  1.00  0.00     0.029 A 
ATOM     17  C   UNL     1       3.113  -2.151   1.011  1.00  0.00     0.146 A 
ATOM     18  C   UNL     1       2.100  -0.891   3.264  1.00  0.00     0.002 A 
ATOM     19  C   UNL     1       1.777  -2.336   1.364  1.00  0.00     0.041 A 
ATOM     20  F   UNL     1       3.594  -2.808  -0.055  1.00  0.00    -0.205 F 
ATOM     21  C   UNL     1       1.259  -1.672   2.472  1.00  0.00     0.003 A 
ENDBRANCH  13  15
ENDBRANCH  10  11
ENDBRANCH   9  10
ENDBRANCH   8   9
ENDBRANCH   6   8
ENDBRANCH   3   4
ENDBRANCH   2   3
ENDBRANCH   1   2
BRANCH   1  22
ATOM     22  C   UNL     1       4.691   4.126   1.666  1.00  0.00     0.002 C 
BRANCH  22  23
ATOM     23  C   UNL     1       4.099   5.466   2.107  1.00  0.00     0.021 C 
BRANCH  23  24
ATOM     24  C   UNL     1       4.191   5.755   3.603  1.00  0.00     0.116 C 
BRANCH  24  25
ATOM     25  N   UNL     1       5.565   5.910   4.054  1.00  0.00    -0.352 N 
ATOM     26  C   UNL     1       6.136   6.949   4.751  1.00  0.00     0.251 C 
ATOM     27  H   UNL     1       6.171   5.167   3.829  1.00  0.00     0.163 HD
ATOM     28  O   UNL     1       7.354   6.993   4.895  1.00  0.00    -0.269 OA
BRANCH  26  29
ATOM     29  C   UNL     1       5.283   8.023   5.308  1.00  0.00     0.039 A 
ATOM     30  C   UNL     1       5.664   9.354   5.117  1.00  0.00     0.014 A 
ATOM     31  C   UNL     1       4.114   7.723   6.013  1.00  0.00     0.014 A 
ATOM     32  C   UNL     1       4.839  10.383   5.579  1.00  0.00     0.010 A 
ATOM     33  C   UNL     1       3.259   8.751   6.411  1.00  0.00     0.010 A 
ATOM     34  C   UNL     1       3.611  10.092   6.198  1.00  0.00    -0.014 A 
BRANCH  34  35
ATOM     35  C   UNL     1       2.676  11.180   6.591  1.00  0.00     0.031 A 
ATOM     36  C   UNL     1       2.311  11.397   8.035  1.00  0.00     0.074 A 
ATOM     37  C   UNL     1       2.102  11.936   5.632  1.00  0.00     0.049 A 
ATOM     38  N   UNL     1       1.499  12.283   8.551  1.00  0.00    -0.248 NA
ATOM     39  C   UNL     1       2.917  10.494   9.028  1.00  0.00     0.031 C 
ATOM     40  C   UNL     1       2.313  11.774   4.192  1.00  0.00     0.029 A 
ATOM     41  N   UNL     1       1.211  12.978   5.719  1.00  0.00    -0.354 N 
ATOM     42  C   UNL     1       1.475  12.031   9.917  1.00  0.00     0.074 A 
ATOM     43  C   UNL     1       2.330  10.888  10.150  1.00  0.00     0.031 C 
ATOM     44  C   UNL     1       1.586  12.689   3.534  1.00  0.00     0.029 A 
ATOM     45  C   UNL     1       0.830  13.484   4.497  1.00  0.00     0.049 A 
ATOM     46  H   UNL     1       0.876  13.329   6.576  1.00  0.00     0.167 HD
ATOM     47  C   UNL     1       0.824  12.708  10.891  1.00  0.00     0.034 A 
ATOM     48  C   UNL     1      -0.032  14.472   4.183  1.00  0.00     0.034 A 
ATOM     49  C   UNL     1       0.013  13.873  10.661  1.00  0.00     0.049 A 
ATOM     50  C   UNL     1      -0.710  15.233   5.290  1.00  0.00     0.074 A 
ATOM     51  C   UNL     1      -0.615  14.675  11.597  1.00  0.00     0.029 A 
ATOM     52  N   UNL     1      -0.286  14.401   9.416  1.00  0.00    -0.354 N 
ATOM     53  N   UNL     1      -0.599  15.071   6.586  1.00  0.00    -0.248 NA
ATOM     54  C   UNL     1      -1.603  16.335   4.899  1.00  0.00     0.031 C 
ATOM     55  C   UNL     1      -1.318  15.672  10.918  1.00  0.00     0.029 A 
ATOM     56  C   UNL     1      -1.097  15.513   9.559  1.00  0.00     0.049 A 
ATOM     57  H   UNL     1       0.031  14.039   8.557  1.00  0.00     0.167 HD
ATOM     58  C   UNL     1      -1.374  16.071   7.163  1.00  0.00     0.074 A 
ATOM     59  C   UNL     1      -1.939  16.843   6.078  1.00  0.00     0.031 C 
ATOM     60  C   UNL     1      -1.603  16.316   8.476  1.00  0.00     0.034 A 
BRANCH  47  61
ATOM     61  C   UNL     1       1.004  12.263  12.319  1.00  0.00     0.023 A 
ATOM     62  C   UNL     1       2.223  12.527  12.975  1.00  0.00     0.012 A 
ATOM     63  C   UNL     1      -0.071  11.718  13.048  1.00  0.00     0.148 A 
ATOM     64  C   UNL     1       2.374  12.244  14.332  1.00  0.00     0.002 A 
ATOM     65  C   UNL     1       0.071  11.482  14.410  1.00  0.00     0.091 A 
ATOM     66  F   UNL     1      -1.217  11.463  12.400  1.00  0.00    -0.205 F 
ATOM     67  C   UNL     1       1.295  11.737  15.051  1.00  0.00     0.022 A 
BRANCH  65  68
ATOM     68  S   UNL     1      -1.282  10.916  15.448  1.00  0.00     0.127 S 
ATOM     69  O   UNL     1      -0.806   9.595  15.857  1.00  0.00    -0.237 OA
ATOM     70  O   UNL     1      -1.291  11.918  16.513  1.00  0.00    -0.237 OA
ATOM     71  O   UNL     1      -2.467  10.911  14.600  1.00  0.00    -0.744 OA
ENDBRANCH  65  68
ENDBRANCH  47  61
BRANCH  48  72
ATOM     72  C   UNL     1      -0.243  14.842   2.754  1.00  0.00     0.023 A 
ATOM     73  C   UNL     1       0.249  16.072   2.276  1.00  0.00     0.012 A 
ATOM     74  C   UNL     1      -0.882  13.964   1.857  1.00  0.00     0.148 A 
ATOM     75  C   UNL     1       0.086  16.432   0.937  1.00  0.00     0.002 A 
ATOM     76  C   UNL     1      -0.986  14.301   0.513  1.00  0.00     0.091 A 
ATOM     77  F   UNL     1      -1.356  12.804   2.334  1.00  0.00    -0.205 F 
ATOM     78  C   UNL     1      -0.519  15.542   0.054  1.00  0.00     0.022 A 
BRANCH  76  79
ATOM     79  S   UNL     1      -1.617  13.156  -0.719  1.00  0.00     0.127 S 
ATOM     80  O   UNL     1      -2.896  13.768  -1.069  1.00  0.00    -0.237 OA
ATOM     81  O   UNL     1      -0.589  13.236  -1.758  1.00  0.00    -0.237 OA
ATOM     82  O   UNL     1      -1.693  11.864  -0.051  1.00  0.00    -0.744 OA
ENDBRANCH  76  79
ENDBRANCH  48  72
BRANCH  60  83
ATOM     83  C   UNL     1      -2.471  17.490   8.845  1.00  0.00     0.023 A 
ATOM     84  C   UNL     1      -3.865  17.417   8.660  1.00  0.00     0.012 A 
ATOM     85  C   UNL     1      -1.916  18.605   9.505  1.00  0.00     0.148 A 
ATOM     86  C   UNL     1      -4.692  18.444   9.113  1.00  0.00     0.002 A 
ATOM     87  C   UNL     1      -2.751  19.598  10.001  1.00  0.00     0.091 A 
ATOM     88  F   UNL     1      -0.584  18.659   9.658  1.00  0.00    -0.205 F 
ATOM     89  C   UNL     1      -4.138  19.524   9.797  1.00  0.00     0.022 A 
BRANCH  87  90
ATOM     90  S   UNL     1      -2.142  20.970  10.988  1.00  0.00     0.127 S 
ATOM     91  O   UNL     1      -2.363  22.104  10.091  1.00  0.00    -0.237 OA
ATOM     92  O   UNL     1      -3.028  20.931  12.151  1.00  0.00    -0.237 OA
ATOM     93  O   UNL     1      -0.746  20.672  11.278  1.00  0.00    -0.744 OA
ENDBRANCH  87  90
ENDBRANCH  60  83
ENDBRANCH  34  35
ENDBRANCH  26  29
ENDBRANCH  24  25
ENDBRANCH  23  24
ENDBRANCH  22  23
ENDBRANCH   1  22
TORSDOF 20
