REMARK SMILES COc1cc(/C=C2/S/C(=[NH+]\C(C)=O)NC2=O)cc(Br)c1OCC(=O)NCCCCCCNC(=O)c1ccc(-c2c3nc(c(-c4cccc(S(=O)(=O)[O-])c4F)c4ccc([nH]4)c(-c4cccc(S(=O)(=O)[O-])c4F)c4nc(c(-c5cccc(S(=O)(=O)[O-])c5F)c5ccc2[nH]5)C=C4)C=C3)cc1
REMARK SMILES IDX 28 1 27 2 26 3 25 4 23 5 24 6 22 8 21 9 20 10 3 11 4 12 5 13
REMARK SMILES IDX 18 14 17 15 19 16 2 17 1 18 6 19 7 20 8 21 15 22 9 23 14 24
REMARK SMILES IDX 16 25 10 26 11 28 12 30 13 31 29 32 30 33 31 34 32 35 33 36
REMARK SMILES IDX 34 38 35 39 36 40 97 41 37 42 96 43 38 44 39 45 40 46 90 47
REMARK SMILES IDX 41 48 95 49 89 50 91 51 42 52 94 53 88 54 87 55 43 57 75 58
REMARK SMILES IDX 55 59 74 60 56 61 59 62 73 63 92 64 57 65 58 66 72 68 93 69
REMARK SMILES IDX 60 70 44 71 45 72 53 73 46 74 48 75 54 76 47 77 49 78 50 79
REMARK SMILES IDX 51 80 52 81 76 82 77 83 85 84 78 85 80 86 86 87 79 88 81 89
REMARK SMILES IDX 82 90 83 91 84 92 61 93 62 94 70 95 63 96 65 97 71 98 64 99
REMARK SMILES IDX 66 100 67 101 68 102 69 103
REMARK H PARENT 25 7 14 27 10 29 32 37 91 56 59 67
REMARK Flexibility Score: inf
ROOT
ATOM      1  C   UNL     1      -2.458  -0.532   4.571  1.00  0.00     0.002 C 
ENDROOT
BRANCH   1   2
ATOM      2  C   UNL     1      -2.179   0.011   3.162  1.00  0.00     0.021 C 
BRANCH   2   3
ATOM      3  C   UNL     1      -3.066   1.178   2.733  1.00  0.00     0.116 C 
BRANCH   3   4
ATOM      4  N   UNL     1      -2.947   2.297   3.645  1.00  0.00    -0.353 N 
ATOM      5  C   UNL     1      -2.592   3.584   3.377  1.00  0.00     0.257 C 
ATOM      6  O   UNL     1      -2.612   4.395   4.306  1.00  0.00    -0.271 OA
ATOM      7  H   UNL     1      -3.151   2.100   4.588  1.00  0.00     0.163 HD
BRANCH   5   8
ATOM      8  C   UNL     1      -2.271   4.005   1.933  1.00  0.00     0.329 C 
BRANCH   8   9
ATOM      9  O   UNL     1      -1.180   3.475   1.206  1.00  0.00    -0.479 OA
BRANCH   9  10
ATOM     10  C   UNL     1       0.053   3.322   1.780  1.00  0.00     0.176 A 
ATOM     11  C   UNL     1       0.757   2.171   1.340  1.00  0.00     0.162 A 
ATOM     12  C   UNL     1       2.045   1.894   1.819  1.00  0.00     0.058 A 
ATOM     13  C   UNL     1       2.650   2.744   2.742  1.00  0.00    -0.019 A 
ATOM     14  C   UNL     1       0.705   4.211   2.646  1.00  0.00     0.064 A 
ATOM     15  C   UNL     1       1.983   3.904   3.140  1.00  0.00     0.028 A 
ATOM     16  Br  UNL     1       0.083   5.948   3.108  1.00  0.00    -0.047 Br
BRANCH  11  17
ATOM     17  O   UNL     1       0.107   1.383   0.417  1.00  0.00    -0.493 OA
ATOM     18  C   UNL     1       0.729   0.166   0.021  1.00  0.00     0.278 C 
ENDBRANCH  11  17
BRANCH  13  19
ATOM     19  C   UNL     1       3.990   2.436   3.254  1.00  0.00     0.032 C 
ATOM     20  C   UNL     1       4.254   2.079   4.518  1.00  0.00     0.110 C 
ATOM     21  S   UNL     1       5.858   1.856   5.144  1.00  0.00     0.007 SA
ATOM     22  C   UNL     1       3.274   1.898   5.626  1.00  0.00     0.346 C 
ATOM     23  C   UNL     1       5.311   1.904   6.792  1.00  0.00     0.324 C 
ATOM     24  N   UNL     1       3.954   1.854   6.811  1.00  0.00    -0.199 N 
ATOM     25  O   UNL     1       2.067   1.810   5.526  1.00  0.00    -0.240 OA
ATOM     26  N   UNL     1       5.913   1.978   7.919  1.00  0.00    -0.204 N 
ATOM     27  H   UNL     1       3.468   1.786   7.664  1.00  0.00     0.316 HD
ATOM     28  C   UNL     1       7.253   2.002   8.193  1.00  0.00     0.304 C 
ATOM     29  H   UNL     1       5.324   2.023   8.706  1.00  0.00     0.316 HD
ATOM     30  C   UNL     1       8.284   2.518   7.226  1.00  0.00     0.144 C 
ATOM     31  O   UNL     1       7.650   1.656   9.307  1.00  0.00    -0.247 OA
ENDBRANCH  13  19
ENDBRANCH   9  10
ENDBRANCH   8   9
ENDBRANCH   5   8
ENDBRANCH   3   4
ENDBRANCH   2   3
ENDBRANCH   1   2
BRANCH   1  32
ATOM     32  C   UNL     1      -3.908  -0.940   4.853  1.00  0.00     0.002 C 
BRANCH  32  33
ATOM     33  C   UNL     1      -4.503  -1.950   3.872  1.00  0.00     0.021 C 
BRANCH  33  34
ATOM     34  C   UNL     1      -3.735  -3.261   3.764  1.00  0.00     0.116 C 
BRANCH  34  35
ATOM     35  N   UNL     1      -3.764  -4.028   5.002  1.00  0.00    -0.352 N 
ATOM     36  C   UNL     1      -4.113  -5.346   5.183  1.00  0.00     0.251 C 
ATOM     37  H   UNL     1      -3.500  -3.540   5.815  1.00  0.00     0.163 HD
ATOM     38  O   UNL     1      -4.245  -5.811   6.310  1.00  0.00    -0.269 OA
BRANCH  36  39
ATOM     39  C   UNL     1      -4.351  -6.191   3.994  1.00  0.00     0.039 A 
ATOM     40  C   UNL     1      -5.534  -6.929   3.903  1.00  0.00     0.014 A 
ATOM     41  C   UNL     1      -3.426  -6.201   2.946  1.00  0.00     0.014 A 
ATOM     42  C   UNL     1      -5.827  -7.617   2.722  1.00  0.00     0.010 A 
ATOM     43  C   UNL     1      -3.756  -6.821   1.747  1.00  0.00     0.010 A 
ATOM     44  C   UNL     1      -4.960  -7.533   1.620  1.00  0.00    -0.014 A 
BRANCH  44  45
ATOM     45  C   UNL     1      -5.283  -8.162   0.314  1.00  0.00     0.031 A 
ATOM     46  C   UNL     1      -4.369  -9.214  -0.253  1.00  0.00     0.074 A 
ATOM     47  C   UNL     1      -6.318  -7.701  -0.417  1.00  0.00     0.049 A 
ATOM     48  N   UNL     1      -4.383  -9.770  -1.435  1.00  0.00    -0.248 NA
ATOM     49  C   UNL     1      -3.274  -9.679   0.616  1.00  0.00     0.031 C 
ATOM     50  C   UNL     1      -7.242  -6.643  -0.004  1.00  0.00     0.029 A 
ATOM     51  N   UNL     1      -6.741  -8.035  -1.680  1.00  0.00    -0.354 N 
ATOM     52  C   UNL     1      -3.279 -10.613  -1.471  1.00  0.00     0.074 A 
ATOM     53  C   UNL     1      -2.600 -10.474  -0.201  1.00  0.00     0.031 C 
ATOM     54  C   UNL     1      -8.116  -6.409  -0.996  1.00  0.00     0.029 A 
ATOM     55  C   UNL     1      -7.789  -7.265  -2.132  1.00  0.00     0.049 A 
ATOM     56  H   UNL     1      -6.334  -8.756  -2.212  1.00  0.00     0.167 HD
ATOM     57  C   UNL     1      -2.878 -11.443  -2.462  1.00  0.00     0.034 A 
ATOM     58  C   UNL     1      -8.399  -7.232  -3.334  1.00  0.00     0.034 A 
ATOM     59  C   UNL     1      -3.577 -11.604  -3.707  1.00  0.00     0.049 A 
ATOM     60  C   UNL     1      -7.941  -8.173  -4.415  1.00  0.00     0.074 A 
ATOM     61  C   UNL     1      -3.298 -12.480  -4.741  1.00  0.00     0.029 A 
ATOM     62  N   UNL     1      -4.685 -10.867  -4.094  1.00  0.00    -0.354 N 
ATOM     63  N   UNL     1      -6.977  -9.061  -4.381  1.00  0.00    -0.248 NA
ATOM     64  C   UNL     1      -8.671  -8.131  -5.691  1.00  0.00     0.031 C 
ATOM     65  C   UNL     1      -4.216 -12.247  -5.769  1.00  0.00     0.029 A 
ATOM     66  C   UNL     1      -5.094 -11.258  -5.357  1.00  0.00     0.049 A 
ATOM     67  H   UNL     1      -5.117 -10.169  -3.551  1.00  0.00     0.167 HD
ATOM     68  C   UNL     1      -7.015  -9.713  -5.609  1.00  0.00     0.074 A 
ATOM     69  C   UNL     1      -8.102  -9.124  -6.362  1.00  0.00     0.031 C 
ATOM     70  C   UNL     1      -6.216 -10.705  -6.072  1.00  0.00     0.034 A 
BRANCH  57  71
ATOM     71  C   UNL     1      -1.640 -12.269  -2.228  1.00  0.00     0.023 A 
ATOM     72  C   UNL     1      -1.668 -13.324  -1.293  1.00  0.00     0.012 A 
ATOM     73  C   UNL     1      -0.468 -12.040  -2.975  1.00  0.00     0.148 A 
ATOM     74  C   UNL     1      -0.539 -14.113  -1.077  1.00  0.00     0.002 A 
ATOM     75  C   UNL     1       0.637 -12.862  -2.791  1.00  0.00     0.091 A 
ATOM     76  F   UNL     1      -0.453 -11.021  -3.846  1.00  0.00    -0.205 F 
ATOM     77  C   UNL     1       0.608 -13.889  -1.833  1.00  0.00     0.022 A 
BRANCH  75  78
ATOM     78  S   UNL     1       2.134 -12.709  -3.772  1.00  0.00     0.127 S 
ATOM     79  O   UNL     1       3.087 -12.214  -2.779  1.00  0.00    -0.237 OA
ATOM     80  O   UNL     1       2.362 -14.089  -4.201  1.00  0.00    -0.237 OA
ATOM     81  O   UNL     1       1.817 -11.781  -4.848  1.00  0.00    -0.744 OA
ENDBRANCH  75  78
ENDBRANCH  57  71
BRANCH  58  82
ATOM     82  C   UNL     1      -9.539  -6.300  -3.568  1.00  0.00     0.023 A 
ATOM     83  C   UNL     1     -10.838  -6.821  -3.728  1.00  0.00     0.012 A 
ATOM     84  C   UNL     1      -9.348  -4.905  -3.616  1.00  0.00     0.148 A 
ATOM     85  C   UNL     1     -11.920  -5.973  -3.968  1.00  0.00     0.002 A 
ATOM     86  C   UNL     1     -10.439  -4.063  -3.799  1.00  0.00     0.091 A 
ATOM     87  F   UNL     1      -8.104  -4.429  -3.470  1.00  0.00    -0.205 F 
ATOM     88  C   UNL     1     -11.723  -4.596  -3.994  1.00  0.00     0.022 A 
BRANCH  86  89
ATOM     89  S   UNL     1     -10.302  -2.274  -3.720  1.00  0.00     0.127 S 
ATOM     90  O   UNL     1     -10.572  -1.892  -5.103  1.00  0.00    -0.237 OA
ATOM     91  O   UNL     1     -11.359  -1.933  -2.767  1.00  0.00    -0.237 OA
ATOM     92  O   UNL     1      -8.952  -2.002  -3.242  1.00  0.00    -0.744 OA
ENDBRANCH  86  89
ENDBRANCH  58  82
BRANCH  70  93
ATOM     93  C   UNL     1      -6.513 -11.277  -7.433  1.00  0.00     0.023 A 
ATOM     94  C   UNL     1      -6.213 -10.537  -8.593  1.00  0.00     0.012 A 
ATOM     95  C   UNL     1      -6.990 -12.598  -7.556  1.00  0.00     0.148 A 
ATOM     96  C   UNL     1      -6.405 -11.097  -9.857  1.00  0.00     0.002 A 
ATOM     97  C   UNL     1      -7.128 -13.166  -8.816  1.00  0.00     0.091 A 
ATOM     98  F   UNL     1      -7.284 -13.277  -6.438  1.00  0.00    -0.205 F 
ATOM     99  C   UNL     1      -6.848 -12.414  -9.967  1.00  0.00     0.022 A 
BRANCH  97 100
ATOM    100  S   UNL     1      -7.591 -14.885  -9.054  1.00  0.00     0.127 S 
ATOM    101  O   UNL     1      -8.909 -14.755  -9.674  1.00  0.00    -0.237 OA
ATOM    102  O   UNL     1      -6.539 -15.365  -9.950  1.00  0.00    -0.237 OA
ATOM    103  O   UNL     1      -7.586 -15.494  -7.730  1.00  0.00    -0.744 OA
ENDBRANCH  97 100
ENDBRANCH  70  93
ENDBRANCH  44  45
ENDBRANCH  36  39
ENDBRANCH  34  35
ENDBRANCH  33  34
ENDBRANCH  32  33
ENDBRANCH   1  32
TORSDOF 20
