REMARK SMILES NS(=O)(=O)c1ccc(-n2nc(C(=O)NCCCCCCNC(=O)c3ccc(-c4c5nc(c(-c6cccc(S(=O)(=O)[O-])c6F)c6ccc([nH]6)c(-c6cccc(S(=O)(=O)[O-])c6F)c6nc(c(-c7cccc(S(=O)(=O)[O-])c7F)c7ccc4[nH]7)C=C6)C=C5)cc3)cc2-c2ccc(Cl)s2)cc1
REMARK SMILES IDX 17 1 16 2 15 3 14 4 12 5 13 6 11 8 9 9 10 10 88 11 87 12
REMARK SMILES IDX 8 13 5 14 6 15 96 16 7 17 95 18 2 19 3 20 4 21 1 22 89 25
REMARK SMILES IDX 90 26 94 27 91 28 92 29 93 30 18 31 19 32 20 33 21 34 22 35
REMARK SMILES IDX 23 37 24 38 25 39 86 40 26 41 85 42 27 43 28 44 29 45 79 46
REMARK SMILES IDX 30 47 84 48 78 49 80 50 31 51 83 52 77 53 76 54 32 56 64 57
REMARK SMILES IDX 44 58 63 59 45 60 48 61 62 62 81 63 46 64 47 65 61 67 82 68
REMARK SMILES IDX 49 69 33 70 34 71 42 72 35 73 37 74 43 75 36 76 38 77 39 78
REMARK SMILES IDX 40 79 41 80 65 81 66 82 74 83 67 84 69 85 75 86 68 87 70 88
REMARK SMILES IDX 71 89 72 90 73 91 50 92 51 93 59 94 52 95 54 96 60 97 53 98
REMARK SMILES IDX 55 99 56 100 57 101 58 102
REMARK H PARENT 14 7 1 23 1 24 21 36 80 55 48 66
REMARK Flexibility Score: inf
ROOT
ATOM      1  C   UNL     1       5.914 -12.587   2.347  1.00  0.00     0.002 C 
ENDROOT
BRANCH   1   2
ATOM      2  C   UNL     1       5.329 -11.358   1.641  1.00  0.00     0.021 C 
BRANCH   2   3
ATOM      3  C   UNL     1       3.911 -11.018   2.096  1.00  0.00     0.116 C 
BRANCH   3   4
ATOM      4  N   UNL     1       3.917 -10.240   3.316  1.00  0.00    -0.351 N 
ATOM      5  C   UNL     1       3.616  -8.930   3.610  1.00  0.00     0.271 C 
ATOM      6  O   UNL     1       3.706  -8.633   4.807  1.00  0.00    -0.267 OA
ATOM      7  H   UNL     1       4.197 -10.759   4.104  1.00  0.00     0.163 HD
BRANCH   5   8
ATOM      8  C   UNL     1       3.162  -7.958   2.588  1.00  0.00     0.151 A 
ATOM      9  N   UNL     1       2.315  -6.115   1.846  1.00  0.00    -0.231 N 
ATOM     10  N   UNL     1       2.763  -6.724   2.969  1.00  0.00    -0.162 NA
ATOM     11  C   UNL     1       2.461  -6.911   0.732  1.00  0.00     0.085 A 
ATOM     12  C   UNL     1       3.066  -8.062   1.181  1.00  0.00     0.066 A 
BRANCH   9  13
ATOM     13  C   UNL     1       1.779  -4.809   1.906  1.00  0.00     0.065 A 
ATOM     14  C   UNL     1       0.927  -2.176   1.751  1.00  0.00     0.082 A 
ATOM     15  C   UNL     1       0.145  -3.184   1.176  1.00  0.00     0.024 A 
ATOM     16  C   UNL     1       2.098  -2.483   2.454  1.00  0.00     0.024 A 
ATOM     17  C   UNL     1       0.585  -4.506   1.237  1.00  0.00     0.030 A 
ATOM     18  C   UNL     1       2.515  -3.810   2.555  1.00  0.00     0.030 A 
BRANCH  14  19
ATOM     19  S   UNL     1       0.428  -0.489   1.580  1.00  0.00     0.238 S 
ATOM     20  O   UNL     1       1.084   0.310   2.599  1.00  0.00    -0.207 OA
ATOM     21  O   UNL     1      -0.992  -0.431   1.363  1.00  0.00    -0.207 OA
BRANCH  19  22
ATOM     22  N   UNL     1       1.148  -0.072   0.127  1.00  0.00    -0.225 NA
ATOM     23  H   UNL     1       0.933   0.900  -0.092  1.00  0.00     0.137 HD
ATOM     24  H   UNL     1       0.792  -0.675  -0.615  1.00  0.00     0.137 HD
ENDBRANCH  19  22
ENDBRANCH  14  19
ENDBRANCH   9  13
BRANCH  11  25
ATOM     25  C   UNL     1       2.192  -6.569  -0.631  1.00  0.00     0.054 A 
ATOM     26  C   UNL     1       1.374  -7.261  -1.504  1.00  0.00     0.024 A 
ATOM     27  S   UNL     1       2.992  -5.268  -1.409  1.00  0.00    -0.122 S 
ATOM     28  C   UNL     1       1.418  -6.721  -2.824  1.00  0.00     0.033 A 
ATOM     29  C   UNL     1       2.266  -5.645  -2.888  1.00  0.00     0.094 A 
ATOM     30  Cl  UNL     1       2.619  -4.705  -4.279  1.00  0.00    -0.072 Cl
ENDBRANCH  11  25
ENDBRANCH   5   8
ENDBRANCH   3   4
ENDBRANCH   2   3
ENDBRANCH   1   2
BRANCH   1  31
ATOM     31  C   UNL     1       5.073 -13.873   2.253  1.00  0.00     0.002 C 
BRANCH  31  32
ATOM     32  C   UNL     1       4.580 -14.266   0.852  1.00  0.00     0.021 C 
BRANCH  32  33
ATOM     33  C   UNL     1       5.702 -14.610  -0.115  1.00  0.00     0.116 C 
BRANCH  33  34
ATOM     34  N   UNL     1       6.432 -15.809   0.295  1.00  0.00    -0.352 N 
ATOM     35  C   UNL     1       7.549 -16.370  -0.288  1.00  0.00     0.251 C 
ATOM     36  H   UNL     1       6.081 -16.275   1.088  1.00  0.00     0.163 HD
ATOM     37  O   UNL     1       7.833 -17.545  -0.082  1.00  0.00    -0.269 OA
BRANCH  35  38
ATOM     38  C   UNL     1       8.387 -15.535  -1.166  1.00  0.00     0.039 A 
ATOM     39  C   UNL     1       8.924 -16.048  -2.346  1.00  0.00     0.014 A 
ATOM     40  C   UNL     1       8.599 -14.205  -0.808  1.00  0.00     0.014 A 
ATOM     41  C   UNL     1       9.601 -15.182  -3.200  1.00  0.00     0.010 A 
ATOM     42  C   UNL     1       9.113 -13.322  -1.725  1.00  0.00     0.010 A 
ATOM     43  C   UNL     1       9.663 -13.808  -2.901  1.00  0.00    -0.014 A 
BRANCH  43  44
ATOM     44  C   UNL     1      10.200 -12.868  -3.882  1.00  0.00     0.031 A 
ATOM     45  C   UNL     1       9.646 -13.052  -5.247  1.00  0.00     0.074 A 
ATOM     46  C   UNL     1      11.023 -11.836  -3.590  1.00  0.00     0.049 A 
ATOM     47  N   UNL     1      10.220 -13.661  -6.231  1.00  0.00    -0.248 NA
ATOM     48  C   UNL     1       8.240 -12.707  -5.501  1.00  0.00     0.031 C 
ATOM     49  C   UNL     1      11.415 -11.333  -2.266  1.00  0.00     0.029 A 
ATOM     50  N   UNL     1      11.605 -10.937  -4.432  1.00  0.00    -0.354 N 
ATOM     51  C   UNL     1       9.352 -13.526  -7.310  1.00  0.00     0.074 A 
ATOM     52  C   UNL     1       8.082 -13.143  -6.755  1.00  0.00     0.031 C 
ATOM     53  C   UNL     1      11.941 -10.094  -2.388  1.00  0.00     0.029 A 
ATOM     54  C   UNL     1      12.110  -9.806  -3.798  1.00  0.00     0.049 A 
ATOM     55  H   UNL     1      11.664 -11.075  -5.405  1.00  0.00     0.167 HD
ATOM     56  C   UNL     1       9.842 -13.450  -8.578  1.00  0.00     0.034 A 
ATOM     57  C   UNL     1      12.623  -8.704  -4.394  1.00  0.00     0.034 A 
ATOM     58  C   UNL     1      11.249 -13.771  -8.599  1.00  0.00     0.049 A 
ATOM     59  C   UNL     1      13.096  -9.123  -5.728  1.00  0.00     0.074 A 
ATOM     60  C   UNL     1      12.030 -14.886  -8.393  1.00  0.00     0.029 A 
ATOM     61  N   UNL     1      12.058 -12.672  -8.469  1.00  0.00    -0.354 N 
ATOM     62  N   UNL     1      14.084  -9.954  -5.907  1.00  0.00    -0.248 NA
ATOM     63  C   UNL     1      12.252  -8.890  -6.889  1.00  0.00     0.031 C 
ATOM     64  C   UNL     1      13.263 -14.397  -7.866  1.00  0.00     0.029 A 
ATOM     65  C   UNL     1      13.213 -13.002  -7.819  1.00  0.00     0.049 A 
ATOM     66  H   UNL     1      11.837 -11.770  -8.798  1.00  0.00     0.167 HD
ATOM     67  C   UNL     1      13.700 -10.691  -7.013  1.00  0.00     0.074 A 
ATOM     68  C   UNL     1      12.688  -9.877  -7.676  1.00  0.00     0.031 C 
ATOM     69  C   UNL     1      14.004 -12.019  -7.104  1.00  0.00     0.034 A 
BRANCH  56  70
ATOM     70  C   UNL     1       9.246 -12.641  -9.714  1.00  0.00     0.023 A 
ATOM     71  C   UNL     1       9.857 -12.776 -10.984  1.00  0.00     0.012 A 
ATOM     72  C   UNL     1       8.354 -11.557  -9.550  1.00  0.00     0.148 A 
ATOM     73  C   UNL     1       9.634 -11.854 -12.013  1.00  0.00     0.002 A 
ATOM     74  C   UNL     1       8.079 -10.685 -10.599  1.00  0.00     0.091 A 
ATOM     75  F   UNL     1       7.865 -11.272  -8.342  1.00  0.00    -0.205 F 
ATOM     76  C   UNL     1       8.740 -10.810 -11.823  1.00  0.00     0.022 A 
BRANCH  74  77
ATOM     77  S   UNL     1       6.906  -9.334 -10.423  1.00  0.00     0.127 S 
ATOM     78  O   UNL     1       7.789  -8.172 -10.472  1.00  0.00    -0.237 OA
ATOM     79  O   UNL     1       6.061  -9.523 -11.602  1.00  0.00    -0.237 OA
ATOM     80  O   UNL     1       6.225  -9.566  -9.156  1.00  0.00    -0.744 OA
ENDBRANCH  74  77
ENDBRANCH  56  70
BRANCH  57  81
ATOM     81  C   UNL     1      12.550  -7.279  -4.002  1.00  0.00     0.023 A 
ATOM     82  C   UNL     1      13.455  -6.355  -4.562  1.00  0.00     0.012 A 
ATOM     83  C   UNL     1      11.404  -6.780  -3.346  1.00  0.00     0.148 A 
ATOM     84  C   UNL     1      13.197  -4.980  -4.524  1.00  0.00     0.002 A 
ATOM     85  C   UNL     1      11.150  -5.413  -3.312  1.00  0.00     0.091 A 
ATOM     86  F   UNL     1      10.521  -7.653  -2.843  1.00  0.00    -0.205 F 
ATOM     87  C   UNL     1      12.037  -4.510  -3.914  1.00  0.00     0.022 A 
BRANCH  85  88
ATOM     88  S   UNL     1       9.653  -4.732  -2.586  1.00  0.00     0.127 S 
ATOM     89  O   UNL     1      10.191  -3.702  -1.698  1.00  0.00    -0.237 OA
ATOM     90  O   UNL     1       8.953  -4.223  -3.761  1.00  0.00    -0.237 OA
ATOM     91  O   UNL     1       9.004  -5.841  -1.897  1.00  0.00    -0.744 OA
ENDBRANCH  85  88
ENDBRANCH  57  81
BRANCH  69  92
ATOM     92  C   UNL     1      15.138 -12.533  -6.261  1.00  0.00     0.023 A 
ATOM     93  C   UNL     1      15.106 -12.565  -4.852  1.00  0.00     0.012 A 
ATOM     94  C   UNL     1      16.233 -13.102  -6.931  1.00  0.00     0.148 A 
ATOM     95  C   UNL     1      16.160 -13.135  -4.130  1.00  0.00     0.002 A 
ATOM     96  C   UNL     1      17.253 -13.710  -6.214  1.00  0.00     0.091 A 
ATOM     97  F   UNL     1      16.248 -13.053  -8.272  1.00  0.00    -0.205 F 
ATOM     98  C   UNL     1      17.227 -13.719  -4.812  1.00  0.00     0.022 A 
BRANCH  96  99
ATOM     99  S   UNL     1      18.587 -14.575  -7.042  1.00  0.00     0.127 S 
ATOM    100  O   UNL     1      19.707 -13.655  -6.862  1.00  0.00    -0.237 OA
ATOM    101  O   UNL     1      18.682 -15.815  -6.270  1.00  0.00    -0.237 OA
ATOM    102  O   UNL     1      18.148 -14.767  -8.419  1.00  0.00    -0.744 OA
ENDBRANCH  96  99
ENDBRANCH  69  92
ENDBRANCH  43  44
ENDBRANCH  35  38
ENDBRANCH  33  34
ENDBRANCH  32  33
ENDBRANCH  31  32
ENDBRANCH   1  31
TORSDOF 20
