REMARK SMILES O=C(Cc1cncnc1N1CCC2(CC1)OCCC[C@@H]2O)NCCCCCCNC(=O)c1ccc(-c2c3nc(c(-c4cccc(S(=O)(=O)[O-])c4F)c4ccc([nH]4)c(-c4cccc(S(=O)(=O)[O-])c4F)c4nc(c(-c5cccc(S(=O)(=O)[O-])c5F)c5ccc2[nH]5)C=C4)C=C3)cc1
REMARK SMILES IDX 25 1 24 2 23 3 22 4 1 5 2 6 3 8 4 9 5 10 9 11 6 12 8 13 7 14
REMARK SMILES IDX 10 15 11 16 15 17 12 18 14 19 13 20 16 21 20 22 17 23 19 24
REMARK SMILES IDX 18 25 21 26 26 28 27 29 28 30 29 31 30 32 31 34 32 35 33 36
REMARK SMILES IDX 94 37 34 38 93 39 35 40 36 41 37 42 87 43 38 44 92 45 86 46
REMARK SMILES IDX 88 47 39 48 91 49 85 50 84 51 40 53 72 54 52 55 71 56 53 57
REMARK SMILES IDX 56 58 70 59 89 60 54 61 55 62 69 64 90 65 57 66 41 67 42 68
REMARK SMILES IDX 50 69 43 70 45 71 51 72 44 73 46 74 47 75 48 76 49 77 73 78
REMARK SMILES IDX 74 79 82 80 75 81 77 82 83 83 76 84 78 85 79 86 80 87 81 88
REMARK SMILES IDX 58 89 59 90 67 91 60 92 62 93 68 94 61 95 63 96 64 97 65 98
REMARK SMILES IDX 66 99
REMARK H PARENT 22 7 21 27 29 33 88 52 56 63
REMARK Flexibility Score: inf
ROOT
ATOM      1  C   UNL     1       3.150   2.418  -3.215  1.00  0.00     0.002 C 
ENDROOT
BRANCH   1   2
ATOM      2  C   UNL     1       1.797   1.800  -2.850  1.00  0.00     0.021 C 
BRANCH   2   3
ATOM      3  C   UNL     1       1.795   0.341  -2.382  1.00  0.00     0.116 C 
BRANCH   3   4
ATOM      4  N   UNL     1       2.557   0.083  -1.168  1.00  0.00    -0.356 N 
ATOM      5  O   UNL     1       0.747   0.095   0.233  1.00  0.00    -0.275 OA
ATOM      6  C   UNL     1       1.949  -0.099   0.054  1.00  0.00     0.224 C 
ATOM      7  H   UNL     1       3.538   0.036  -1.223  1.00  0.00     0.163 HD
BRANCH   6   8
ATOM      8  C   UNL     1       2.841  -0.485   1.226  1.00  0.00     0.141 C 
BRANCH   8   9
ATOM      9  C   UNL     1       3.881  -1.537   0.954  1.00  0.00     0.022 A 
ATOM     10  C   UNL     1       3.513  -2.872   0.930  1.00  0.00     0.121 A 
ATOM     11  C   UNL     1       5.213  -1.269   0.643  1.00  0.00     0.135 A 
ATOM     12  N   UNL     1       4.352  -3.879   0.639  1.00  0.00    -0.244 NA
ATOM     13  N   UNL     1       6.069  -2.252   0.313  1.00  0.00    -0.219 NA
ATOM     14  C   UNL     1       5.600  -3.508   0.336  1.00  0.00     0.224 A 
BRANCH  11  15
ATOM     15  N   UNL     1       5.671   0.028   0.573  1.00  0.00    -0.356 N 
ATOM     16  C   UNL     1       6.510   0.421  -0.544  1.00  0.00     0.121 C 
ATOM     17  C   UNL     1       5.929   0.791   1.785  1.00  0.00     0.121 C 
ATOM     18  C   UNL     1       5.982   1.787  -0.958  1.00  0.00     0.060 C 
ATOM     19  C   UNL     1       5.499   2.235   1.530  1.00  0.00     0.060 C 
ATOM     20  C   UNL     1       5.999   2.835   0.184  1.00  0.00     0.097 C 
ATOM     21  O   UNL     1       7.338   3.329   0.415  1.00  0.00    -0.372 OA
ATOM     22  C   UNL     1       5.077   4.048  -0.161  1.00  0.00     0.146 C 
ATOM     23  C   UNL     1       7.911   4.072  -0.668  1.00  0.00     0.161 C 
ATOM     24  C   UNL     1       5.610   4.855  -1.340  1.00  0.00     0.037 C 
ATOM     25  C   UNL     1       7.056   5.261  -1.092  1.00  0.00     0.031 C 
BRANCH  22  26
ATOM     26  O   UNL     1       4.974   4.931   0.966  1.00  0.00    -0.390 OA
ATOM     27  H   UNL     1       5.851   5.287   1.180  1.00  0.00     0.211 HD
ENDBRANCH  22  26
ENDBRANCH  11  15
ENDBRANCH   8   9
ENDBRANCH   6   8
ENDBRANCH   3   4
ENDBRANCH   2   3
ENDBRANCH   1   2
BRANCH   1  28
ATOM     28  C   UNL     1       4.084   1.584  -4.097  1.00  0.00     0.002 C 
BRANCH  28  29
ATOM     29  C   UNL     1       3.728   1.603  -5.584  1.00  0.00     0.021 C 
BRANCH  29  30
ATOM     30  C   UNL     1       3.979   2.943  -6.273  1.00  0.00     0.116 C 
BRANCH  30  31
ATOM     31  N   UNL     1       5.388   3.319  -6.321  1.00  0.00    -0.352 N 
ATOM     32  C   UNL     1       6.030   4.070  -7.283  1.00  0.00     0.251 C 
ATOM     33  H   UNL     1       5.948   2.997  -5.577  1.00  0.00     0.163 HD
ATOM     34  O   UNL     1       7.238   4.245  -7.241  1.00  0.00    -0.269 OA
BRANCH  32  35
ATOM     35  C   UNL     1       5.224   4.622  -8.394  1.00  0.00     0.039 A 
ATOM     36  C   UNL     1       5.568   4.296  -9.708  1.00  0.00     0.014 A 
ATOM     37  C   UNL     1       4.078   5.373  -8.123  1.00  0.00     0.014 A 
ATOM     38  C   UNL     1       4.709   4.654 -10.750  1.00  0.00     0.010 A 
ATOM     39  C   UNL     1       3.194   5.669  -9.154  1.00  0.00     0.010 A 
ATOM     40  C   UNL     1       3.494   5.303 -10.476  1.00  0.00    -0.014 A 
BRANCH  40  41
ATOM     41  C   UNL     1       2.500   5.573 -11.545  1.00  0.00     0.031 A 
ATOM     42  C   UNL     1       2.121   6.987 -11.887  1.00  0.00     0.074 A 
ATOM     43  C   UNL     1       1.853   4.543 -12.127  1.00  0.00     0.049 A 
ATOM     44  N   UNL     1       1.220   7.418 -12.731  1.00  0.00    -0.248 NA
ATOM     45  C   UNL     1       2.824   8.058 -11.161  1.00  0.00     0.031 C 
ATOM     46  C   UNL     1       2.061   3.127 -11.814  1.00  0.00     0.029 A 
ATOM     47  N   UNL     1       0.863   4.528 -13.079  1.00  0.00    -0.354 N 
ATOM     48  C   UNL     1       1.220   8.802 -12.612  1.00  0.00     0.074 A 
ATOM     49  C   UNL     1       2.187   9.138 -11.590  1.00  0.00     0.031 C 
ATOM     50  C   UNL     1       1.225   2.384 -12.557  1.00  0.00     0.029 A 
ATOM     51  C   UNL     1       0.406   3.266 -13.382  1.00  0.00     0.049 A 
ATOM     52  H   UNL     1       0.514   5.344 -13.505  1.00  0.00     0.167 HD
ATOM     53  C   UNL     1       0.503   9.713 -13.312  1.00  0.00     0.034 A 
ATOM     54  C   UNL     1      -0.566   2.865 -14.225  1.00  0.00     0.034 A 
ATOM     55  C   UNL     1      -0.416   9.379 -14.365  1.00  0.00     0.049 A 
ATOM     56  C   UNL     1      -1.303   3.897 -15.036  1.00  0.00     0.074 A 
ATOM     57  C   UNL     1      -1.109  10.232 -15.204  1.00  0.00     0.029 A 
ATOM     58  N   UNL     1      -0.774   8.088 -14.721  1.00  0.00    -0.354 N 
ATOM     59  N   UNL     1      -1.158   5.200 -15.038  1.00  0.00    -0.248 NA
ATOM     60  C   UNL     1      -2.309   3.403 -15.988  1.00  0.00     0.031 C 
ATOM     61  C   UNL     1      -1.896   9.457 -16.063  1.00  0.00     0.029 A 
ATOM     62  C   UNL     1      -1.683   8.120 -15.765  1.00  0.00     0.049 A 
ATOM     63  H   UNL     1      -0.432   7.269 -14.295  1.00  0.00     0.167 HD
ATOM     64  C   UNL     1      -2.030   5.679 -16.010  1.00  0.00     0.074 A 
ATOM     65  C   UNL     1      -2.682   4.524 -16.592  1.00  0.00     0.031 C 
ATOM     66  C   UNL     1      -2.280   6.960 -16.375  1.00  0.00     0.034 A 
BRANCH  53  67
ATOM     67  C   UNL     1       0.741  11.168 -13.007  1.00  0.00     0.023 A 
ATOM     68  C   UNL     1       1.948  11.771 -13.419  1.00  0.00     0.012 A 
ATOM     69  C   UNL     1      -0.238  11.950 -12.366  1.00  0.00     0.148 A 
ATOM     70  C   UNL     1       2.191  13.120 -13.168  1.00  0.00     0.002 A 
ATOM     71  C   UNL     1      -0.006  13.305 -12.155  1.00  0.00     0.091 A 
ATOM     72  F   UNL     1      -1.369  11.355 -11.959  1.00  0.00    -0.205 F 
ATOM     73  C   UNL     1       1.211  13.888 -12.546  1.00  0.00     0.022 A 
BRANCH  71  74
ATOM     74  S   UNL     1      -1.236  14.394 -11.429  1.00  0.00     0.127 S 
ATOM     75  O   UNL     1      -0.690  14.603 -10.089  1.00  0.00    -0.237 OA
ATOM     76  O   UNL     1      -1.168  15.566 -12.304  1.00  0.00    -0.237 OA
ATOM     77  O   UNL     1      -2.496  13.668 -11.488  1.00  0.00    -0.744 OA
ENDBRANCH  71  74
ENDBRANCH  53  67
BRANCH  54  78
ATOM     78  C   UNL     1      -0.841   1.411 -14.404  1.00  0.00     0.023 A 
ATOM     79  C   UNL     1      -0.463   0.783 -15.607  1.00  0.00     0.012 A 
ATOM     80  C   UNL     1      -1.435   0.642 -13.385  1.00  0.00     0.148 A 
ATOM     81  C   UNL     1      -0.698  -0.578 -15.804  1.00  0.00     0.002 A 
ATOM     82  C   UNL     1      -1.619  -0.725 -13.567  1.00  0.00     0.091 A 
ATOM     83  F   UNL     1      -1.802   1.260 -12.253  1.00  0.00    -0.205 F 
ATOM     84  C   UNL     1      -1.266  -1.334 -14.781  1.00  0.00     0.022 A 
BRANCH  82  85
ATOM     85  S   UNL     1      -2.218  -1.795 -12.254  1.00  0.00     0.127 S 
ATOM     86  O   UNL     1      -3.584  -2.069 -12.691  1.00  0.00    -0.237 OA
ATOM     87  O   UNL     1      -1.301  -2.932 -12.346  1.00  0.00    -0.237 OA
ATOM     88  O   UNL     1      -2.083  -1.019 -11.029  1.00  0.00    -0.744 OA
ENDBRANCH  82  85
ENDBRANCH  54  78
BRANCH  66  89
ATOM     89  C   UNL     1      -3.284   7.192 -17.472  1.00  0.00     0.023 A 
ATOM     90  C   UNL     1      -4.658   7.035 -17.203  1.00  0.00     0.012 A 
ATOM     91  C   UNL     1      -2.874   7.650 -18.740  1.00  0.00     0.148 A 
ATOM     92  C   UNL     1      -5.608   7.306 -18.186  1.00  0.00     0.002 A 
ATOM     93  C   UNL     1      -3.829   7.961 -19.701  1.00  0.00     0.091 A 
ATOM     94  F   UNL     1      -1.561   7.774 -18.983  1.00  0.00    -0.205 F 
ATOM     95  C   UNL     1      -5.195   7.780 -19.430  1.00  0.00     0.022 A 
BRANCH  93  96
ATOM     96  S   UNL     1      -3.393   8.665 -21.296  1.00  0.00     0.127 S 
ATOM     97  O   UNL     1      -3.583   7.523 -22.188  1.00  0.00    -0.237 OA
ATOM     98  O   UNL     1      -4.384   9.731 -21.448  1.00  0.00    -0.237 OA
ATOM     99  O   UNL     1      -2.021   9.135 -21.162  1.00  0.00    -0.744 OA
ENDBRANCH  93  96
ENDBRANCH  66  89
ENDBRANCH  40  41
ENDBRANCH  32  35
ENDBRANCH  30  31
ENDBRANCH  29  30
ENDBRANCH  28  29
ENDBRANCH   1  28
TORSDOF 19
