REMARK SMILES Cc1nn(C)cc1C[NH+]1CCN(C(=O)Cn2ccc(C(=O)NCCCCCCNC(=O)c3ccc(-c4c5nc(c(-c6cccc(S(=O)(=O)[O-])c6F)c6ccc([nH]6)c(-c6cccc(S(=O)(=O)[O-])c6F)c6nc(c(-c7cccc(S(=O)(=O)[O-])c7F)c7ccc4[nH]7)C=C6)C=C5)cc3)n2)CC1
REMARK SMILES IDX 25 1 24 2 23 3 22 4 20 5 21 6 19 8 16 9 17 10 95 11 18 12
REMARK SMILES IDX 15 13 13 14 9 15 10 16 97 17 11 19 96 20 12 21 14 22 8 23
REMARK SMILES IDX 7 24 1 25 2 26 3 27 4 28 6 29 5 30 26 31 27 32 28 33 29 34
REMARK SMILES IDX 30 35 31 37 32 38 33 39 94 40 34 41 93 42 35 43 36 44 37 45
REMARK SMILES IDX 87 46 38 47 92 48 86 49 88 50 39 51 91 52 85 53 84 54 40 56
REMARK SMILES IDX 72 57 52 58 71 59 53 60 56 61 70 62 89 63 54 64 55 65 69 67
REMARK SMILES IDX 90 68 57 69 41 70 42 71 50 72 43 73 45 74 51 75 44 76 46 77
REMARK SMILES IDX 47 78 48 79 49 80 73 81 74 82 82 83 75 84 77 85 83 86 76 87
REMARK SMILES IDX 78 88 79 89 80 90 81 91 58 92 59 93 67 94 60 95 62 96 68 97
REMARK SMILES IDX 61 98 63 99 64 100 65 101 66 102
REMARK H PARENT 22 7 9 18 29 36 88 55 56 66
REMARK Flexibility Score: inf
ROOT
ATOM      1  C   UNL     1       8.993   4.429  -2.032  1.00  0.00     0.002 C 
ENDROOT
BRANCH   1   2
ATOM      2  C   UNL     1       7.540   3.938  -2.085  1.00  0.00     0.021 C 
BRANCH   2   3
ATOM      3  C   UNL     1       7.215   3.117  -3.332  1.00  0.00     0.116 C 
BRANCH   3   4
ATOM      4  N   UNL     1       7.770   1.785  -3.232  1.00  0.00    -0.351 N 
ATOM      5  C   UNL     1       7.197   0.536  -3.215  1.00  0.00     0.271 C 
ATOM      6  O   UNL     1       7.995  -0.408  -3.198  1.00  0.00    -0.267 OA
ATOM      7  H   UNL     1       8.752   1.771  -3.161  1.00  0.00     0.163 HD
BRANCH   5   8
ATOM      8  C   UNL     1       5.733   0.332  -3.259  1.00  0.00     0.150 A 
ATOM      9  N   UNL     1       3.910  -0.760  -3.565  1.00  0.00    -0.263 N 
ATOM     10  C   UNL     1       3.501   0.476  -3.178  1.00  0.00     0.110 A 
ATOM     11  N   UNL     1       5.249  -0.871  -3.639  1.00  0.00    -0.167 NA
ATOM     12  C   UNL     1       4.649   1.189  -2.924  1.00  0.00     0.056 A 
BRANCH   9  13
ATOM     13  C   UNL     1       3.121  -1.975  -3.729  1.00  0.00     0.244 C 
BRANCH  13  14
ATOM     14  C   UNL     1       1.640  -1.712  -3.920  1.00  0.00     0.244 C 
ATOM     15  N   UNL     1      -1.315  -3.132  -1.031  1.00  0.00    -0.328 N 
ATOM     16  C   UNL     1      -1.673  -2.400  -2.252  1.00  0.00     0.284 C 
ATOM     17  C   UNL     1      -0.032  -3.820  -1.184  1.00  0.00     0.284 C 
ATOM     18  H   UNL     1      -2.021  -3.862  -0.929  1.00  0.00     0.348 HD
ATOM     19  C   UNL     1      -0.565  -1.544  -2.892  1.00  0.00     0.181 C 
ATOM     20  C   UNL     1       1.125  -3.033  -1.830  1.00  0.00     0.181 C 
ATOM     21  N   UNL     1       0.742  -2.204  -2.974  1.00  0.00    -0.330 N 
ATOM     22  O   UNL     1       1.252  -1.056  -4.892  1.00  0.00    -0.273 OA
BRANCH  15  23
ATOM     23  C   UNL     1      -1.517  -2.421   0.241  1.00  0.00     0.302 C 
BRANCH  23  24
ATOM     24  C   UNL     1      -0.738  -1.162   0.367  1.00  0.00     0.047 A 
ATOM     25  C   UNL     1      -2.547   0.695  -0.095  1.00  0.00     0.069 C 
ATOM     26  C   UNL     1      -1.182   0.178   0.167  1.00  0.00     0.068 A 
ATOM     27  N   UNL     1      -0.160   1.039   0.179  1.00  0.00    -0.178 NA
ATOM     28  N   UNL     1       0.899   0.297   0.537  1.00  0.00    -0.275 N 
ATOM     29  C   UNL     1       0.580  -1.012   0.754  1.00  0.00     0.118 A 
ATOM     30  C   UNL     1       2.225   0.867   0.501  1.00  0.00     0.173 C 
ENDBRANCH  23  24
ENDBRANCH  15  23
ENDBRANCH  13  14
ENDBRANCH   9  13
ENDBRANCH   5   8
ENDBRANCH   3   4
ENDBRANCH   2   3
ENDBRANCH   1   2
BRANCH   1  31
ATOM     31  C   UNL     1       9.474   5.217  -3.262  1.00  0.00     0.002 C 
BRANCH  31  32
ATOM     32  C   UNL     1       8.568   6.367  -3.728  1.00  0.00     0.021 C 
BRANCH  32  33
ATOM     33  C   UNL     1       8.485   7.514  -2.734  1.00  0.00     0.116 C 
BRANCH  33  34
ATOM     34  N   UNL     1       9.767   8.206  -2.593  1.00  0.00    -0.352 N 
ATOM     35  C   UNL     1      10.095   9.247  -1.745  1.00  0.00     0.251 C 
ATOM     36  H   UNL     1      10.491   7.887  -3.179  1.00  0.00     0.163 HD
ATOM     37  O   UNL     1      11.057   9.960  -1.972  1.00  0.00    -0.269 OA
BRANCH  35  38
ATOM     38  C   UNL     1       9.260   9.465  -0.551  1.00  0.00     0.039 A 
ATOM     39  C   UNL     1       8.922  10.753  -0.125  1.00  0.00     0.014 A 
ATOM     40  C   UNL     1       8.800   8.342   0.130  1.00  0.00     0.014 A 
ATOM     41  C   UNL     1       8.053  10.894   0.953  1.00  0.00     0.010 A 
ATOM     42  C   UNL     1       7.819   8.478   1.073  1.00  0.00     0.010 A 
ATOM     43  C   UNL     1       7.495   9.747   1.536  1.00  0.00    -0.014 A 
BRANCH  43  44
ATOM     44  C   UNL     1       6.464   9.844   2.562  1.00  0.00     0.031 A 
ATOM     45  C   UNL     1       5.255  10.593   2.130  1.00  0.00     0.074 A 
ATOM     46  C   UNL     1       6.510   9.106   3.693  1.00  0.00     0.049 A 
ATOM     47  N   UNL     1       4.851  11.745   2.554  1.00  0.00    -0.248 NA
ATOM     48  C   UNL     1       4.501  10.092   0.969  1.00  0.00     0.031 C 
ATOM     49  C   UNL     1       7.503   8.084   4.059  1.00  0.00     0.029 A 
ATOM     50  N   UNL     1       5.589   8.990   4.688  1.00  0.00    -0.354 N 
ATOM     51  C   UNL     1       3.640  11.975   1.903  1.00  0.00     0.074 A 
ATOM     52  C   UNL     1       3.613  11.071   0.785  1.00  0.00     0.031 C 
ATOM     53  C   UNL     1       6.994   7.284   5.022  1.00  0.00     0.029 A 
ATOM     54  C   UNL     1       5.730   7.839   5.462  1.00  0.00     0.049 A 
ATOM     55  H   UNL     1       4.885   9.659   4.846  1.00  0.00     0.167 HD
ATOM     56  C   UNL     1       2.639  12.669   2.514  1.00  0.00     0.034 A 
ATOM     57  C   UNL     1       4.844   7.353   6.366  1.00  0.00     0.034 A 
ATOM     58  C   UNL     1       3.132  13.355   3.684  1.00  0.00     0.049 A 
ATOM     59  C   UNL     1       3.951   8.472   6.738  1.00  0.00     0.074 A 
ATOM     60  C   UNL     1       4.108  14.297   3.936  1.00  0.00     0.029 A 
ATOM     61  N   UNL     1       2.844  12.769   4.894  1.00  0.00    -0.354 N 
ATOM     62  N   UNL     1       4.355   9.527   7.387  1.00  0.00    -0.248 NA
ATOM     63  C   UNL     1       2.705   8.622   6.007  1.00  0.00     0.031 C 
ATOM     64  C   UNL     1       4.679  13.909   5.184  1.00  0.00     0.029 A 
ATOM     65  C   UNL     1       3.971  12.805   5.665  1.00  0.00     0.049 A 
ATOM     66  H   UNL     1       1.975  12.390   5.158  1.00  0.00     0.167 HD
ATOM     67  C   UNL     1       3.700  10.579   6.761  1.00  0.00     0.074 A 
ATOM     68  C   UNL     1       2.607   9.954   6.017  1.00  0.00     0.031 C 
ATOM     69  C   UNL     1       4.289  11.807   6.664  1.00  0.00     0.034 A 
BRANCH  56  70
ATOM     70  C   UNL     1       1.152  12.412   2.342  1.00  0.00     0.023 A 
ATOM     71  C   UNL     1       0.273  13.292   3.016  1.00  0.00     0.012 A 
ATOM     72  C   UNL     1       0.585  11.225   1.824  1.00  0.00     0.148 A 
ATOM     73  C   UNL     1      -1.071  12.970   3.237  1.00  0.00     0.002 A 
ATOM     74  C   UNL     1      -0.769  10.944   1.980  1.00  0.00     0.091 A 
ATOM     75  F   UNL     1       1.361  10.283   1.288  1.00  0.00    -0.205 F 
ATOM     76  C   UNL     1      -1.594  11.795   2.717  1.00  0.00     0.022 A 
BRANCH  74  77
ATOM     77  S   UNL     1      -1.509   9.457   1.291  1.00  0.00     0.127 S 
ATOM     78  O   UNL     1      -1.752   8.670   2.496  1.00  0.00    -0.237 OA
ATOM     79  O   UNL     1      -2.707   9.994   0.646  1.00  0.00    -0.237 OA
ATOM     80  O   UNL     1      -0.521   8.920   0.363  1.00  0.00    -0.744 OA
ENDBRANCH  74  77
ENDBRANCH  56  70
BRANCH  57  81
ATOM     81  C   UNL     1       4.550   5.959   6.771  1.00  0.00     0.023 A 
ATOM     82  C   UNL     1       3.902   5.715   8.000  1.00  0.00     0.012 A 
ATOM     83  C   UNL     1       4.627   4.902   5.836  1.00  0.00     0.148 A 
ATOM     84  C   UNL     1       3.312   4.474   8.270  1.00  0.00     0.002 A 
ATOM     85  C   UNL     1       4.039   3.669   6.109  1.00  0.00     0.091 A 
ATOM     86  F   UNL     1       5.196   5.136   4.646  1.00  0.00    -0.205 F 
ATOM     87  C   UNL     1       3.368   3.457   7.321  1.00  0.00     0.022 A 
BRANCH  85  88
ATOM     88  S   UNL     1       4.043   2.316   4.923  1.00  0.00     0.127 S 
ATOM     89  O   UNL     1       4.541   1.203   5.731  1.00  0.00    -0.237 OA
ATOM     90  O   UNL     1       2.633   2.220   4.556  1.00  0.00    -0.237 OA
ATOM     91  O   UNL     1       4.939   2.723   3.847  1.00  0.00    -0.744 OA
ENDBRANCH  85  88
ENDBRANCH  57  81
BRANCH  69  92
ATOM     92  C   UNL     1       5.513  12.072   7.504  1.00  0.00     0.023 A 
ATOM     93  C   UNL     1       6.726  11.368   7.339  1.00  0.00     0.012 A 
ATOM     94  C   UNL     1       5.481  13.172   8.375  1.00  0.00     0.148 A 
ATOM     95  C   UNL     1       7.872  11.742   8.048  1.00  0.00     0.002 A 
ATOM     96  C   UNL     1       6.633  13.570   9.040  1.00  0.00     0.091 A 
ATOM     97  F   UNL     1       4.321  13.830   8.520  1.00  0.00    -0.205 F 
ATOM     98  C   UNL     1       7.829  12.852   8.888  1.00  0.00     0.022 A 
BRANCH  96  99
ATOM     99  S   UNL     1       6.661  15.064  10.031  1.00  0.00     0.127 S 
ATOM    100  O   UNL     1       6.607  14.528  11.390  1.00  0.00    -0.237 OA
ATOM    101  O   UNL     1       7.943  15.665   9.660  1.00  0.00    -0.237 OA
ATOM    102  O   UNL     1       5.500  15.841   9.614  1.00  0.00    -0.744 OA
ENDBRANCH  96  99
ENDBRANCH  69  92
ENDBRANCH  43  44
ENDBRANCH  35  38
ENDBRANCH  33  34
ENDBRANCH  32  33
ENDBRANCH  31  32
ENDBRANCH   1  31
TORSDOF 20
