REMARK SMILES O=C(NCCCCCCNC(=O)c1cccc(CS(=O)(=O)NCc2ccccc2)c1)c1ccc(-c2c3nc(c(-c4cccc(S(=O)(=O)[O-])c4F)c4ccc([nH]4)c(-c4cccc(S(=O)(=O)[O-])c4F)c4nc(c(-c5cccc(S(=O)(=O)[O-])c5F)c5ccc2[nH]5)C=C4)C=C3)cc1
REMARK SMILES IDX 7 1 6 2 5 3 4 4 3 5 1 6 2 7 31 9 32 10 93 11 33 12 92 13
REMARK SMILES IDX 34 14 35 15 36 16 86 17 37 18 91 19 85 20 87 21 38 22 90 23
REMARK SMILES IDX 84 24 83 25 39 27 71 28 51 29 70 30 52 31 55 32 69 33 88 34
REMARK SMILES IDX 53 35 54 36 68 38 89 39 56 40 40 41 41 42 49 43 42 44 44 45
REMARK SMILES IDX 50 46 43 47 45 48 46 49 47 50 48 51 72 52 73 53 81 54 74 55
REMARK SMILES IDX 76 56 82 57 75 58 77 59 78 60 79 61 80 62 57 63 58 64 66 65
REMARK SMILES IDX 59 66 61 67 67 68 60 69 62 70 63 71 64 72 65 73 8 74 9 75
REMARK SMILES IDX 10 76 11 77 12 79 13 80 14 81 30 82 15 83 17 84 16 85 18 86
REMARK SMILES IDX 19 87 20 88 21 89 22 90 23 92 24 93 25 94 29 95 26 96 28 97
REMARK SMILES IDX 27 98
REMARK H PARENT 3 8 87 26 55 37 10 78 22 91
REMARK Flexibility Score: inf
ROOT
ATOM      1  C   UNL     1       4.727  -2.734   3.274  1.00  0.00     0.002 C 
ENDROOT
BRANCH   1   2
ATOM      2  C   UNL     1       4.230  -1.308   3.532  1.00  0.00     0.002 C 
BRANCH   2   3
ATOM      3  C   UNL     1       4.736  -0.255   2.544  1.00  0.00     0.021 C 
BRANCH   3   4
ATOM      4  C   UNL     1       4.473  -0.584   1.079  1.00  0.00     0.116 C 
BRANCH   4   5
ATOM      5  N   UNL     1       3.054  -0.711   0.800  1.00  0.00    -0.352 N 
ATOM      6  O   UNL     1       1.053  -0.078  -0.009  1.00  0.00    -0.269 OA
ATOM      7  C   UNL     1       2.275   0.011  -0.067  1.00  0.00     0.251 C 
ATOM      8  H   UNL     1       2.585  -1.414   1.305  1.00  0.00     0.163 HD
BRANCH   7   9
ATOM      9  C   UNL     1       2.919   0.905  -1.052  1.00  0.00     0.039 A 
ATOM     10  C   UNL     1       4.020   0.470  -1.797  1.00  0.00     0.014 A 
ATOM     11  C   UNL     1       2.403   2.188  -1.240  1.00  0.00     0.014 A 
ATOM     12  C   UNL     1       4.678   1.355  -2.644  1.00  0.00     0.010 A 
ATOM     13  C   UNL     1       3.018   3.050  -2.148  1.00  0.00     0.010 A 
ATOM     14  C   UNL     1       4.173   2.649  -2.840  1.00  0.00    -0.014 A 
BRANCH  14  15
ATOM     15  C   UNL     1       4.809   3.561  -3.821  1.00  0.00     0.031 A 
ATOM     16  C   UNL     1       5.416   4.860  -3.380  1.00  0.00     0.074 A 
ATOM     17  C   UNL     1       4.766   3.240  -5.128  1.00  0.00     0.049 A 
ATOM     18  N   UNL     1       5.914   5.825  -4.109  1.00  0.00    -0.248 NA
ATOM     19  C   UNL     1       5.459   5.116  -1.932  1.00  0.00     0.031 C 
ATOM     20  C   UNL     1       4.171   2.018  -5.674  1.00  0.00     0.029 A 
ATOM     21  N   UNL     1       5.192   3.929  -6.235  1.00  0.00    -0.354 N 
ATOM     22  C   UNL     1       6.281   6.825  -3.217  1.00  0.00     0.074 A 
ATOM     23  C   UNL     1       5.948   6.347  -1.891  1.00  0.00     0.031 C 
ATOM     24  C   UNL     1       4.249   2.052  -7.011  1.00  0.00     0.029 A 
ATOM     25  C   UNL     1       4.841   3.322  -7.418  1.00  0.00     0.049 A 
ATOM     26  H   UNL     1       5.697   4.772  -6.188  1.00  0.00     0.167 HD
ATOM     27  C   UNL     1       6.846   8.028  -3.481  1.00  0.00     0.034 A 
ATOM     28  C   UNL     1       4.936   3.755  -8.690  1.00  0.00     0.034 A 
ATOM     29  C   UNL     1       7.178   8.486  -4.804  1.00  0.00     0.049 A 
ATOM     30  C   UNL     1       5.556   5.093  -8.961  1.00  0.00     0.074 A 
ATOM     31  C   UNL     1       7.821   9.654  -5.173  1.00  0.00     0.029 A 
ATOM     32  N   UNL     1       6.868   7.813  -5.977  1.00  0.00    -0.354 N 
ATOM     33  N   UNL     1       6.014   5.974  -8.105  1.00  0.00    -0.248 NA
ATOM     34  C   UNL     1       5.704   5.488 -10.368  1.00  0.00     0.031 C 
ATOM     35  C   UNL     1       7.856   9.710  -6.570  1.00  0.00     0.029 A 
ATOM     36  C   UNL     1       7.286   8.550  -7.071  1.00  0.00     0.049 A 
ATOM     37  H   UNL     1       6.417   6.939  -6.024  1.00  0.00     0.167 HD
ATOM     38  C   UNL     1       6.539   7.010  -8.867  1.00  0.00     0.074 A 
ATOM     39  C   UNL     1       6.344   6.645 -10.256  1.00  0.00     0.031 C 
ATOM     40  C   UNL     1       7.129   8.156  -8.450  1.00  0.00     0.034 A 
BRANCH  27  41
ATOM     41  C   UNL     1       7.134   8.936  -2.312  1.00  0.00     0.023 A 
ATOM     42  C   UNL     1       8.144   8.600  -1.387  1.00  0.00     0.012 A 
ATOM     43  C   UNL     1       6.422  10.141  -2.146  1.00  0.00     0.148 A 
ATOM     44  C   UNL     1       8.403   9.418  -0.288  1.00  0.00     0.002 A 
ATOM     45  C   UNL     1       6.721  10.977  -1.076  1.00  0.00     0.091 A 
ATOM     46  F   UNL     1       5.454  10.440  -3.023  1.00  0.00    -0.205 F 
ATOM     47  C   UNL     1       7.698  10.609  -0.137  1.00  0.00     0.022 A 
BRANCH  45  48
ATOM     48  S   UNL     1       5.924  12.570  -0.847  1.00  0.00     0.127 S 
ATOM     49  O   UNL     1       5.018  12.289   0.266  1.00  0.00    -0.237 OA
ATOM     50  O   UNL     1       7.055  13.435  -0.507  1.00  0.00    -0.237 OA
ATOM     51  O   UNL     1       5.285  12.883  -2.117  1.00  0.00    -0.744 OA
ENDBRANCH  45  48
ENDBRANCH  27  41
BRANCH  28  52
ATOM     52  C   UNL     1       4.433   2.885  -9.787  1.00  0.00     0.023 A 
ATOM     53  C   UNL     1       5.347   2.231 -10.633  1.00  0.00     0.012 A 
ATOM     54  C   UNL     1       3.054   2.633  -9.932  1.00  0.00     0.148 A 
ATOM     55  C   UNL     1       4.895   1.350 -11.616  1.00  0.00     0.002 A 
ATOM     56  C   UNL     1       2.615   1.712 -10.874  1.00  0.00     0.091 A 
ATOM     57  F   UNL     1       2.204   3.269  -9.113  1.00  0.00    -0.205 F 
ATOM     58  C   UNL     1       3.533   1.081 -11.728  1.00  0.00     0.022 A 
BRANCH  56  59
ATOM     59  S   UNL     1       0.899   1.194 -10.995  1.00  0.00     0.127 S 
ATOM     60  O   UNL     1       0.541   1.663 -12.332  1.00  0.00    -0.237 OA
ATOM     61  O   UNL     1       1.018  -0.258 -10.862  1.00  0.00    -0.237 OA
ATOM     62  O   UNL     1       0.207   1.850  -9.895  1.00  0.00    -0.744 OA
ENDBRANCH  56  59
ENDBRANCH  28  52
BRANCH  40  63
ATOM     63  C   UNL     1       7.673   9.092  -9.495  1.00  0.00     0.023 A 
ATOM     64  C   UNL     1       6.801   9.885 -10.265  1.00  0.00     0.012 A 
ATOM     65  C   UNL     1       9.066   9.268  -9.623  1.00  0.00     0.148 A 
ATOM     66  C   UNL     1       7.309  10.830 -11.157  1.00  0.00     0.002 A 
ATOM     67  C   UNL     1       9.563  10.247 -10.472  1.00  0.00     0.091 A 
ATOM     68  F   UNL     1       9.876   8.487  -8.893  1.00  0.00    -0.205 F 
ATOM     69  C   UNL     1       8.687  11.023 -11.248  1.00  0.00     0.022 A 
BRANCH  67  70
ATOM     70  S   UNL     1      11.313  10.638 -10.575  1.00  0.00     0.127 S 
ATOM     71  O   UNL     1      11.629  10.230 -11.944  1.00  0.00    -0.237 OA
ATOM     72  O   UNL     1      11.319  12.083 -10.352  1.00  0.00    -0.237 OA
ATOM     73  O   UNL     1      11.965   9.858  -9.532  1.00  0.00    -0.744 OA
ENDBRANCH  67  70
ENDBRANCH  40  63
ENDBRANCH  14  15
ENDBRANCH   7   9
ENDBRANCH   4   5
ENDBRANCH   3   4
ENDBRANCH   2   3
ENDBRANCH   1   2
BRANCH   1  74
ATOM     74  C   UNL     1       6.246  -2.880   3.172  1.00  0.00     0.021 C 
BRANCH  74  75
ATOM     75  C   UNL     1       7.008  -2.362   4.384  1.00  0.00     0.116 C 
BRANCH  75  76
ATOM     76  N   UNL     1       6.713  -3.136   5.580  1.00  0.00    -0.352 N 
ATOM     77  C   UNL     1       7.586  -3.825   6.383  1.00  0.00     0.251 C 
ATOM     78  H   UNL     1       5.766  -3.170   5.847  1.00  0.00     0.163 HD
ATOM     79  O   UNL     1       7.185  -4.592   7.251  1.00  0.00    -0.269 OA
BRANCH  77  80
ATOM     80  C   UNL     1       9.034  -3.618   6.196  1.00  0.00     0.040 A 
ATOM     81  C   UNL     1       9.877  -4.717   6.049  1.00  0.00     0.014 A 
ATOM     82  C   UNL     1       9.549  -2.317   6.181  1.00  0.00     0.018 A 
ATOM     83  C   UNL     1      11.236  -4.506   5.824  1.00  0.00     0.001 A 
ATOM     84  C   UNL     1      10.911  -2.094   5.957  1.00  0.00    -0.031 A 
ATOM     85  C   UNL     1      11.747  -3.204   5.763  1.00  0.00     0.005 A 
BRANCH  84  86
ATOM     86  C   UNL     1      11.420  -0.681   5.896  1.00  0.00     0.189 C 
BRANCH  86  87
ATOM     87  S   UNL     1      12.502  -0.275   7.269  1.00  0.00     0.216 S 
ATOM     88  O   UNL     1      13.681  -1.104   7.215  1.00  0.00    -0.212 OA
ATOM     89  O   UNL     1      12.658   1.169   7.259  1.00  0.00    -0.212 OA
BRANCH  87  90
ATOM     90  N   UNL     1      11.656  -0.555   8.673  1.00  0.00    -0.211 NA
ATOM     91  H   UNL     1      10.772  -0.061   8.551  1.00  0.00     0.141 HD
BRANCH  90  92
ATOM     92  C   UNL     1      11.288  -1.856   9.233  1.00  0.00     0.134 C 
BRANCH  92  93
ATOM     93  C   UNL     1      12.347  -2.917   9.369  1.00  0.00    -0.033 A 
ATOM     94  C   UNL     1      11.999  -4.268   9.211  1.00  0.00     0.005 A 
ATOM     95  C   UNL     1      13.672  -2.606   9.695  1.00  0.00     0.005 A 
ATOM     96  C   UNL     1      12.969  -5.270   9.279  1.00  0.00     0.000 A 
ATOM     97  C   UNL     1      14.646  -3.604   9.746  1.00  0.00     0.000 A 
ATOM     98  C   UNL     1      14.297  -4.934   9.527  1.00  0.00     0.000 A 
ENDBRANCH  92  93
ENDBRANCH  90  92
ENDBRANCH  87  90
ENDBRANCH  86  87
ENDBRANCH  84  86
ENDBRANCH  77  80
ENDBRANCH  75  76
ENDBRANCH  74  75
ENDBRANCH   1  74
TORSDOF 21
