REMARK SMILES CC1(C)CCN(C(=O)CC(C)(C)C(=O)NCCCCCCNC(=O)c2ccc(-c3c4nc(c(-c5cccc(S(=O)(=O)[O-])c5F)c5ccc([nH]5)c(-c5cccc(S(=O)(=O)[O-])c5F)c5nc(c(-c6cccc(S(=O)(=O)[O-])c6F)c6ccc3[nH]6)C=C5)C=C4)cc2)C1
REMARK SMILES IDX 18 1 17 2 16 3 15 4 13 5 14 6 10 8 11 9 12 10 9 11 7 12 8 13
REMARK SMILES IDX 6 14 1 15 2 16 3 17 4 18 88 19 5 20 19 21 20 22 21 23 22 24
REMARK SMILES IDX 23 25 24 27 25 28 26 29 87 30 27 31 86 32 28 33 29 34 30 35
REMARK SMILES IDX 80 36 31 37 85 38 79 39 81 40 32 41 84 42 78 43 77 44 33 46
REMARK SMILES IDX 65 47 45 48 64 49 46 50 49 51 63 52 82 53 47 54 48 55 62 57
REMARK SMILES IDX 83 58 50 59 34 60 35 61 43 62 36 63 38 64 44 65 37 66 39 67
REMARK SMILES IDX 40 68 41 69 42 70 66 71 67 72 75 73 68 74 70 75 76 76 69 77
REMARK SMILES IDX 71 78 72 79 73 80 74 81 51 82 52 83 60 84 53 85 55 86 61 87
REMARK SMILES IDX 54 88 56 89 57 90 58 91 59 92
REMARK H PARENT 15 7 22 26 81 45 49 56
REMARK Flexibility Score: inf
ROOT
ATOM      1  C   UNL     1      -0.204   4.629  -6.521  1.00  0.00     0.002 C 
ENDROOT
BRANCH   1   2
ATOM      2  C   UNL     1      -0.206   5.255  -5.128  1.00  0.00     0.021 C 
BRANCH   2   3
ATOM      3  C   UNL     1      -0.302   4.268  -3.975  1.00  0.00     0.116 C 
BRANCH   3   4
ATOM      4  N   UNL     1       0.896   3.469  -3.824  1.00  0.00    -0.356 N 
ATOM      5  C   UNL     1       1.643   3.141  -2.735  1.00  0.00     0.226 C 
ATOM      6  O   UNL     1       2.664   2.493  -2.973  1.00  0.00    -0.274 OA
ATOM      7  H   UNL     1       1.233   3.091  -4.668  1.00  0.00     0.163 HD
BRANCH   5   8
ATOM      8  C   UNL     1       1.298   3.625  -1.311  1.00  0.00     0.052 C 
ATOM      9  C   UNL     1      -0.180   3.425  -0.963  1.00  0.00     0.022 C 
ATOM     10  C   UNL     1       1.612   5.135  -1.226  1.00  0.00     0.022 C 
BRANCH   8  11
ATOM     11  C   UNL     1       2.187   2.911  -0.232  1.00  0.00     0.116 C 
BRANCH  11  12
ATOM     12  C   UNL     1       2.429   1.396  -0.287  1.00  0.00     0.223 C 
ATOM     13  O   UNL     1       3.510   0.961  -0.697  1.00  0.00    -0.275 OA
BRANCH  12  14
ATOM     14  N   UNL     1       1.489   0.522   0.209  1.00  0.00    -0.342 N 
ATOM     15  C   UNL     1      -1.055  -0.187  -1.160  1.00  0.00     0.013 C 
ATOM     16  C   UNL     1      -0.668  -0.358   0.324  1.00  0.00    -0.016 C 
ATOM     17  C   UNL     1      -1.943  -0.496   1.150  1.00  0.00     0.013 C 
ATOM     18  C   UNL     1       0.318  -1.531   0.471  1.00  0.00     0.030 C 
ATOM     19  C   UNL     1       0.219   0.775   0.856  1.00  0.00     0.126 C 
ATOM     20  C   UNL     1       1.664  -0.918   0.051  1.00  0.00     0.120 C 
ENDBRANCH  12  14
ENDBRANCH  11  12
ENDBRANCH   8  11
ENDBRANCH   5   8
ENDBRANCH   3   4
ENDBRANCH   2   3
ENDBRANCH   1   2
BRANCH   1  21
ATOM     21  C   UNL     1      -1.379   3.696  -6.824  1.00  0.00     0.002 C 
BRANCH  21  22
ATOM     22  C   UNL     1      -2.772   4.266  -6.542  1.00  0.00     0.021 C 
BRANCH  22  23
ATOM     23  C   UNL     1      -3.067   5.616  -7.186  1.00  0.00     0.116 C 
BRANCH  23  24
ATOM     24  N   UNL     1      -2.920   5.583  -8.630  1.00  0.00    -0.352 N 
ATOM     25  C   UNL     1      -3.797   5.995  -9.603  1.00  0.00     0.251 C 
ATOM     26  H   UNL     1      -2.070   5.211  -8.960  1.00  0.00     0.163 HD
ATOM     27  O   UNL     1      -3.575   5.729 -10.778  1.00  0.00    -0.269 OA
BRANCH  25  28
ATOM     28  C   UNL     1      -5.017   6.741  -9.226  1.00  0.00     0.039 A 
ATOM     29  C   UNL     1      -6.231   6.383  -9.818  1.00  0.00     0.014 A 
ATOM     30  C   UNL     1      -4.968   7.789  -8.302  1.00  0.00     0.014 A 
ATOM     31  C   UNL     1      -7.403   7.043  -9.445  1.00  0.00     0.010 A 
ATOM     32  C   UNL     1      -6.148   8.395  -7.877  1.00  0.00     0.010 A 
ATOM     33  C   UNL     1      -7.377   8.035  -8.450  1.00  0.00    -0.014 A 
BRANCH  33  34
ATOM     34  C   UNL     1      -8.631   8.685  -7.990  1.00  0.00     0.031 A 
ATOM     35  C   UNL     1      -8.836  10.166  -8.170  1.00  0.00     0.074 A 
ATOM     36  C   UNL     1      -9.556   7.952  -7.338  1.00  0.00     0.049 A 
ATOM     37  N   UNL     1      -9.854  10.904  -7.810  1.00  0.00    -0.248 NA
ATOM     38  C   UNL     1      -7.749  10.922  -8.814  1.00  0.00     0.031 C 
ATOM     39  C   UNL     1      -9.435   6.526  -7.022  1.00  0.00     0.029 A 
ATOM     40  N   UNL     1     -10.768   8.307  -6.799  1.00  0.00    -0.354 N 
ATOM     41  C   UNL     1      -9.515  12.210  -8.142  1.00  0.00     0.074 A 
ATOM     42  C   UNL     1      -8.188  12.169  -8.715  1.00  0.00     0.031 C 
ATOM     43  C   UNL     1     -10.525   6.130  -6.346  1.00  0.00     0.029 A 
ATOM     44  C   UNL     1     -11.408   7.276  -6.152  1.00  0.00     0.049 A 
ATOM     45  H   UNL     1     -11.143   9.214  -6.870  1.00  0.00     0.167 HD
ATOM     46  C   UNL     1     -10.251  13.338  -8.002  1.00  0.00     0.034 A 
ATOM     47  C   UNL     1     -12.568   7.255  -5.466  1.00  0.00     0.034 A 
ATOM     48  C   UNL     1     -11.589  13.368  -7.477  1.00  0.00     0.049 A 
ATOM     49  C   UNL     1     -13.387   8.515  -5.378  1.00  0.00     0.074 A 
ATOM     50  C   UNL     1     -12.459  14.442  -7.407  1.00  0.00     0.029 A 
ATOM     51  N   UNL     1     -12.245  12.286  -6.914  1.00  0.00    -0.354 N 
ATOM     52  N   UNL     1     -13.130   9.702  -5.870  1.00  0.00    -0.248 NA
ATOM     53  C   UNL     1     -14.675   8.424  -4.674  1.00  0.00     0.031 C 
ATOM     54  C   UNL     1     -13.626  14.018  -6.763  1.00  0.00     0.029 A 
ATOM     55  C   UNL     1     -13.499  12.670  -6.472  1.00  0.00     0.049 A 
ATOM     56  H   UNL     1     -11.874  11.377  -6.840  1.00  0.00     0.167 HD
ATOM     57  C   UNL     1     -14.236  10.488  -5.566  1.00  0.00     0.074 A 
ATOM     58  C   UNL     1     -15.177   9.634  -4.871  1.00  0.00     0.031 C 
ATOM     59  C   UNL     1     -14.447  11.802  -5.825  1.00  0.00     0.034 A 
BRANCH  46  60
ATOM     60  C   UNL     1      -9.647  14.642  -8.456  1.00  0.00     0.023 A 
ATOM     61  C   UNL     1      -9.496  14.905  -9.832  1.00  0.00     0.012 A 
ATOM     62  C   UNL     1      -9.318  15.642  -7.519  1.00  0.00     0.148 A 
ATOM     63  C   UNL     1      -9.004  16.135 -10.269  1.00  0.00     0.002 A 
ATOM     64  C   UNL     1      -8.873  16.881  -7.963  1.00  0.00     0.091 A 
ATOM     65  F   UNL     1      -9.450  15.363  -6.215  1.00  0.00    -0.205 F 
ATOM     66  C   UNL     1      -8.706  17.126  -9.336  1.00  0.00     0.022 A 
BRANCH  64  67
ATOM     67  S   UNL     1      -8.544  18.250  -6.849  1.00  0.00     0.127 S 
ATOM     68  O   UNL     1      -7.094  18.392  -6.977  1.00  0.00    -0.237 OA
ATOM     69  O   UNL     1      -9.318  19.332  -7.457  1.00  0.00    -0.237 OA
ATOM     70  O   UNL     1      -9.013  17.826  -5.537  1.00  0.00    -0.744 OA
ENDBRANCH  64  67
ENDBRANCH  46  60
BRANCH  47  71
ATOM     71  C   UNL     1     -13.046   5.990  -4.838  1.00  0.00     0.023 A 
ATOM     72  C   UNL     1     -14.194   5.350  -5.343  1.00  0.00     0.012 A 
ATOM     73  C   UNL     1     -12.365   5.418  -3.747  1.00  0.00     0.148 A 
ATOM     74  C   UNL     1     -14.681   4.187  -4.743  1.00  0.00     0.002 A 
ATOM     75  C   UNL     1     -12.819   4.227  -3.194  1.00  0.00     0.091 A 
ATOM     76  F   UNL     1     -11.280   6.048  -3.273  1.00  0.00    -0.205 F 
ATOM     77  C   UNL     1     -13.989   3.621  -3.676  1.00  0.00     0.022 A 
BRANCH  75  78
ATOM     78  S   UNL     1     -11.912   3.360  -1.909  1.00  0.00     0.127 S 
ATOM     79  O   UNL     1     -12.750   3.596  -0.737  1.00  0.00    -0.237 OA
ATOM     80  O   UNL     1     -11.921   1.984  -2.407  1.00  0.00    -0.237 OA
ATOM     81  O   UNL     1     -10.591   3.974  -1.880  1.00  0.00    -0.744 OA
ENDBRANCH  75  78
ENDBRANCH  47  71
BRANCH  59  82
ATOM     82  C   UNL     1     -15.762  12.397  -5.394  1.00  0.00     0.023 A 
ATOM     83  C   UNL     1     -16.028  12.603  -4.026  1.00  0.00     0.012 A 
ATOM     84  C   UNL     1     -16.707  12.815  -6.353  1.00  0.00     0.148 A 
ATOM     85  C   UNL     1     -17.230  13.180  -3.617  1.00  0.00     0.002 A 
ATOM     86  C   UNL     1     -17.878  13.439  -5.941  1.00  0.00     0.091 A 
ATOM     87  F   UNL     1     -16.443  12.595  -7.649  1.00  0.00    -0.205 F 
ATOM     88  C   UNL     1     -18.148  13.608  -4.573  1.00  0.00     0.022 A 
BRANCH  86  89
ATOM     89  S   UNL     1     -19.070  14.112  -7.103  1.00  0.00     0.127 S 
ATOM     90  O   UNL     1     -20.182  13.174  -6.965  1.00  0.00    -0.237 OA
ATOM     91  O   UNL     1     -19.323  15.443  -6.550  1.00  0.00    -0.237 OA
ATOM     92  O   UNL     1     -18.410  14.113  -8.401  1.00  0.00    -0.744 OA
ENDBRANCH  86  89
ENDBRANCH  59  82
ENDBRANCH  33  34
ENDBRANCH  25  28
ENDBRANCH  23  24
ENDBRANCH  22  23
ENDBRANCH  21  22
ENDBRANCH   1  21
TORSDOF 19
