REMARK SMILES Cc1ccc(-n2cnnn2)cc1OCC(=O)NCCCCCCNC(=O)c1ccc(-c2c3nc(c(-c4cccc(S(=O)(=O)[O-])c4F)c4ccc([nH]4)c(-c4cccc(S(=O)(=O)[O-])c4F)c4nc(c(-c5cccc(S(=O)(=O)[O-])c5F)c5ccc2[nH]5)C=C4)C=C3)cc1
REMARK SMILES IDX 20 1 19 2 18 3 17 4 15 5 16 6 14 8 13 9 12 10 1 11 2 12 3 13
REMARK SMILES IDX 4 14 11 15 5 16 6 17 7 18 10 19 8 20 9 21 21 22 22 23 23 24
REMARK SMILES IDX 24 25 25 26 26 28 27 29 28 30 89 31 29 32 88 33 30 34 31 35
REMARK SMILES IDX 32 36 82 37 33 38 87 39 81 40 83 41 34 42 86 43 80 44 79 45
REMARK SMILES IDX 35 47 67 48 47 49 66 50 48 51 51 52 65 53 84 54 49 55 50 56
REMARK SMILES IDX 64 58 85 59 52 60 36 61 37 62 45 63 38 64 40 65 46 66 39 67
REMARK SMILES IDX 41 68 42 69 43 70 44 71 68 72 69 73 77 74 70 75 72 76 78 77
REMARK SMILES IDX 71 78 73 79 74 80 75 81 76 82 53 83 54 84 62 85 55 86 57 87
REMARK SMILES IDX 63 88 56 89 58 90 59 91 60 92 61 93
REMARK H PARENT 17 7 24 27 83 46 51 57
REMARK Flexibility Score: inf
ROOT
ATOM      1  C   UNL     1       1.138   2.640   4.898  1.00  0.00     0.002 C 
ENDROOT
BRANCH   1   2
ATOM      2  C   UNL     1       0.577   2.993   3.515  1.00  0.00     0.021 C 
BRANCH   2   3
ATOM      3  C   UNL     1       1.593   3.438   2.475  1.00  0.00     0.116 C 
BRANCH   3   4
ATOM      4  N   UNL     1       2.627   2.457   2.248  1.00  0.00    -0.353 N 
ATOM      5  C   UNL     1       3.130   2.055   1.049  1.00  0.00     0.257 C 
ATOM      6  O   UNL     1       4.188   1.422   1.034  1.00  0.00    -0.271 OA
ATOM      7  H   UNL     1       3.010   2.032   3.049  1.00  0.00     0.163 HD
BRANCH   5   8
ATOM      8  C   UNL     1       2.411   2.460  -0.247  1.00  0.00     0.329 C 
BRANCH   8   9
ATOM      9  O   UNL     1       1.036   2.203  -0.443  1.00  0.00    -0.483 OA
BRANCH   9  10
ATOM     10  C   UNL     1       0.463   0.975  -0.289  1.00  0.00     0.125 A 
ATOM     11  C   UNL     1       2.497  -0.639  -0.401  1.00  0.00     0.048 C 
ATOM     12  C   UNL     1       1.049  -0.295  -0.211  1.00  0.00    -0.009 A 
ATOM     13  C   UNL     1       0.220  -1.404   0.071  1.00  0.00     0.009 A 
ATOM     14  C   UNL     1      -1.163  -1.286   0.176  1.00  0.00     0.029 A 
ATOM     15  C   UNL     1      -0.947   1.077  -0.244  1.00  0.00     0.075 A 
ATOM     16  C   UNL     1      -1.758  -0.047  -0.038  1.00  0.00     0.072 A 
BRANCH  16  17
ATOM     17  N   UNL     1      -3.167   0.038  -0.083  1.00  0.00    -0.200 N 
ATOM     18  C   UNL     1      -3.959   0.994  -0.664  1.00  0.00     0.252 A 
ATOM     19  N   UNL     1      -3.971  -0.945   0.380  1.00  0.00    -0.040 NA
ATOM     20  N   UNL     1      -5.219   0.648  -0.537  1.00  0.00    -0.117 NA
ATOM     21  N   UNL     1      -5.211  -0.544   0.138  1.00  0.00    -0.024 NA
ENDBRANCH  16  17
ENDBRANCH   9  10
ENDBRANCH   8   9
ENDBRANCH   5   8
ENDBRANCH   3   4
ENDBRANCH   2   3
ENDBRANCH   1   2
BRANCH   1  22
ATOM     22  C   UNL     1       2.186   3.579   5.534  1.00  0.00     0.002 C 
BRANCH  22  23
ATOM     23  C   UNL     1       1.969   5.102   5.478  1.00  0.00     0.021 C 
BRANCH  23  24
ATOM     24  C   UNL     1       0.645   5.544   6.047  1.00  0.00     0.116 C 
BRANCH  24  25
ATOM     25  N   UNL     1       0.612   5.510   7.495  1.00  0.00    -0.352 N 
ATOM     26  C   UNL     1      -0.364   6.060   8.298  1.00  0.00     0.251 C 
ATOM     27  H   UNL     1       1.357   5.051   7.948  1.00  0.00     0.163 HD
ATOM     28  O   UNL     1       0.008   6.734   9.268  1.00  0.00    -0.269 OA
BRANCH  26  29
ATOM     29  C   UNL     1      -1.793   5.743   8.073  1.00  0.00     0.039 A 
ATOM     30  C   UNL     1      -2.732   5.968   9.089  1.00  0.00     0.014 A 
ATOM     31  C   UNL     1      -2.182   5.009   6.961  1.00  0.00     0.014 A 
ATOM     32  C   UNL     1      -3.912   5.226   9.101  1.00  0.00     0.010 A 
ATOM     33  C   UNL     1      -3.406   4.442   6.871  1.00  0.00     0.010 A 
ATOM     34  C   UNL     1      -4.151   4.380   8.030  1.00  0.00    -0.014 A 
BRANCH  34  35
ATOM     35  C   UNL     1      -5.092   3.294   7.942  1.00  0.00     0.031 A 
ATOM     36  C   UNL     1      -6.450   3.621   7.527  1.00  0.00     0.074 A 
ATOM     37  C   UNL     1      -4.523   2.070   7.811  1.00  0.00     0.049 A 
ATOM     38  N   UNL     1      -7.426   2.796   7.572  1.00  0.00    -0.248 NA
ATOM     39  C   UNL     1      -6.809   4.941   7.013  1.00  0.00     0.031 C 
ATOM     40  C   UNL     1      -4.999   0.904   7.080  1.00  0.00     0.029 A 
ATOM     41  N   UNL     1      -3.300   1.632   8.293  1.00  0.00    -0.354 N 
ATOM     42  C   UNL     1      -8.437   3.346   6.816  1.00  0.00     0.074 A 
ATOM     43  C   UNL     1      -8.059   4.722   6.600  1.00  0.00     0.031 C 
ATOM     44  C   UNL     1      -4.226  -0.157   7.391  1.00  0.00     0.029 A 
ATOM     45  C   UNL     1      -3.325   0.252   8.460  1.00  0.00     0.049 A 
ATOM     46  H   UNL     1      -2.528   2.211   8.488  1.00  0.00     0.167 HD
ATOM     47  C   UNL     1      -9.373   2.510   6.291  1.00  0.00     0.034 A 
ATOM     48  C   UNL     1      -3.341  -0.259   9.734  1.00  0.00     0.034 A 
ATOM     49  C   UNL     1      -9.056   1.116   6.658  1.00  0.00     0.049 A 
ATOM     50  C   UNL     1      -4.720  -0.784  10.122  1.00  0.00     0.074 A 
ATOM     51  C   UNL     1      -8.362   0.114   5.996  1.00  0.00     0.029 A 
ATOM     52  N   UNL     1      -9.092   0.738   7.997  1.00  0.00    -0.354 N 
ATOM     53  N   UNL     1      -5.788  -0.652   9.382  1.00  0.00    -0.248 NA
ATOM     54  C   UNL     1      -5.003  -1.518  11.352  1.00  0.00     0.031 C 
ATOM     55  C   UNL     1      -7.891  -0.813   6.971  1.00  0.00     0.029 A 
ATOM     56  C   UNL     1      -8.314  -0.393   8.221  1.00  0.00     0.049 A 
ATOM     57  H   UNL     1      -9.603   1.210   8.695  1.00  0.00     0.167 HD
ATOM     58  C   UNL     1      -6.888  -1.121  10.039  1.00  0.00     0.074 A 
ATOM     59  C   UNL     1      -6.327  -1.732  11.235  1.00  0.00     0.031 C 
ATOM     60  C   UNL     1      -8.163  -0.923   9.577  1.00  0.00     0.034 A 
BRANCH  47  61
ATOM     61  C   UNL     1     -10.335   2.899   5.188  1.00  0.00     0.023 A 
ATOM     62  C   UNL     1     -10.789   1.864   4.342  1.00  0.00     0.012 A 
ATOM     63  C   UNL     1     -10.821   4.199   4.900  1.00  0.00     0.148 A 
ATOM     64  C   UNL     1     -11.610   2.100   3.237  1.00  0.00     0.002 A 
ATOM     65  C   UNL     1     -11.596   4.446   3.760  1.00  0.00     0.091 A 
ATOM     66  F   UNL     1     -10.604   5.196   5.764  1.00  0.00    -0.205 F 
ATOM     67  C   UNL     1     -11.992   3.395   2.928  1.00  0.00     0.022 A 
BRANCH  65  68
ATOM     68  S   UNL     1     -12.086   6.104   3.247  1.00  0.00     0.127 S 
ATOM     69  O   UNL     1     -11.698   6.119   1.833  1.00  0.00    -0.237 OA
ATOM     70  O   UNL     1     -13.528   6.091   3.477  1.00  0.00    -0.237 OA
ATOM     71  O   UNL     1     -11.322   7.027   4.078  1.00  0.00    -0.744 OA
ENDBRANCH  65  68
ENDBRANCH  47  61
BRANCH  48  72
ATOM     72  C   UNL     1      -2.389   0.490  10.628  1.00  0.00     0.023 A 
ATOM     73  C   UNL     1      -1.024   0.457  10.239  1.00  0.00     0.012 A 
ATOM     74  C   UNL     1      -2.829   1.551  11.439  1.00  0.00     0.148 A 
ATOM     75  C   UNL     1      -0.193   1.560  10.448  1.00  0.00     0.002 A 
ATOM     76  C   UNL     1      -1.986   2.642  11.660  1.00  0.00     0.091 A 
ATOM     77  F   UNL     1      -4.077   1.517  11.926  1.00  0.00    -0.205 F 
ATOM     78  C   UNL     1      -0.693   2.676  11.110  1.00  0.00     0.022 A 
BRANCH  76  79
ATOM     79  S   UNL     1      -2.560   4.092  12.556  1.00  0.00     0.127 S 
ATOM     80  O   UNL     1      -2.192   3.754  13.929  1.00  0.00    -0.237 OA
ATOM     81  O   UNL     1      -1.771   5.175  11.971  1.00  0.00    -0.237 OA
ATOM     82  O   UNL     1      -3.985   4.171  12.272  1.00  0.00    -0.744 OA
ENDBRANCH  76  79
ENDBRANCH  48  72
BRANCH  60  83
ATOM     83  C   UNL     1      -9.413  -1.212  10.382  1.00  0.00     0.023 A 
ATOM     84  C   UNL     1      -9.413  -1.224  11.788  1.00  0.00     0.012 A 
ATOM     85  C   UNL     1     -10.674  -1.327   9.740  1.00  0.00     0.148 A 
ATOM     86  C   UNL     1     -10.584  -1.431  12.523  1.00  0.00     0.002 A 
ATOM     87  C   UNL     1     -11.849  -1.387  10.479  1.00  0.00     0.091 A 
ATOM     88  F   UNL     1     -10.742  -1.398   8.403  1.00  0.00    -0.205 F 
ATOM     89  C   UNL     1     -11.806  -1.488  11.869  1.00  0.00     0.022 A 
BRANCH  87  90
ATOM     90  S   UNL     1     -13.450  -1.160   9.693  1.00  0.00     0.127 S 
ATOM     91  O   UNL     1     -13.895  -2.539   9.508  1.00  0.00    -0.237 OA
ATOM     92  O   UNL     1     -14.191  -0.410  10.709  1.00  0.00    -0.237 OA
ATOM     93  O   UNL     1     -13.176  -0.405   8.478  1.00  0.00    -0.744 OA
ENDBRANCH  87  90
ENDBRANCH  60  83
ENDBRANCH  34  35
ENDBRANCH  26  29
ENDBRANCH  24  25
ENDBRANCH  23  24
ENDBRANCH  22  23
ENDBRANCH   1  22
TORSDOF 19
