REMARK SMILES O=C(NCCCCCCNC(=O)c1ccc(N2C(=O)C[C@H]([NH+]3CCN(c4ccc(F)cc4)CC3)C2=O)cc1)c1ccc(-c2c3nc(c(-c4cccc(S(=O)(=O)[O-])c4F)c4ccc([nH]4)c(-c4cccc(S(=O)(=O)[O-])c4F)c4nc(c(-c5cccc(S(=O)(=O)[O-])c5F)c5ccc2[nH]5)C=C4)C=C3)cc1
REMARK SMILES IDX 6 1 5 2 4 3 3 4 1 5 2 6 39 8 40 9 101 10 41 11 100 12 42 13
REMARK SMILES IDX 43 14 44 15 94 16 45 17 99 18 93 19 95 20 46 21 98 22 92 23
REMARK SMILES IDX 91 24 47 26 79 27 59 28 78 29 60 30 63 31 77 32 96 33 61 34
REMARK SMILES IDX 62 35 76 37 97 38 64 39 48 40 49 41 57 42 50 43 52 44 58 45
REMARK SMILES IDX 51 46 53 47 54 48 55 49 56 50 80 51 81 52 89 53 82 54 84 55
REMARK SMILES IDX 90 56 83 57 85 58 86 59 87 60 88 61 65 62 66 63 74 64 67 65
REMARK SMILES IDX 69 66 75 67 68 68 70 69 71 70 72 71 73 72 7 73 8 74 9 75
REMARK SMILES IDX 10 76 11 77 12 79 13 80 14 81 38 82 15 83 37 84 16 85 17 86
REMARK SMILES IDX 18 87 35 88 19 89 20 90 21 91 36 92 22 93 23 94 34 95 24 97
REMARK SMILES IDX 33 98 25 99 26 100 27 101 32 102 28 103 31 104 29 105 30 106
REMARK H PARENT 3 7 95 25 63 36 10 78 22 96
REMARK Flexibility Score: inf
ROOT
ATOM      1  C   UNL     1       4.203  -3.284  -2.166  1.00  0.00     0.002 C 
ENDROOT
BRANCH   1   2
ATOM      2  C   UNL     1       4.656  -2.534  -0.916  1.00  0.00     0.021 C 
BRANCH   2   3
ATOM      3  C   UNL     1       4.402  -1.034  -0.947  1.00  0.00     0.116 C 
BRANCH   3   4
ATOM      4  N   UNL     1       2.986  -0.702  -0.985  1.00  0.00    -0.352 N 
ATOM      5  O   UNL     1       1.032   0.129  -0.220  1.00  0.00    -0.269 OA
ATOM      6  C   UNL     1       2.255   0.087  -0.126  1.00  0.00     0.251 C 
ATOM      7  H   UNL     1       2.479  -1.098  -1.730  1.00  0.00     0.163 HD
BRANCH   6   8
ATOM      8  C   UNL     1       2.956   0.848   0.932  1.00  0.00     0.039 A 
ATOM      9  C   UNL     1       4.134   1.536   0.639  1.00  0.00     0.014 A 
ATOM     10  C   UNL     1       2.457   0.836   2.237  1.00  0.00     0.014 A 
ATOM     11  C   UNL     1       4.913   2.036   1.674  1.00  0.00     0.010 A 
ATOM     12  C   UNL     1       3.189   1.443   3.263  1.00  0.00     0.010 A 
ATOM     13  C   UNL     1       4.449   2.003   3.000  1.00  0.00    -0.014 A 
BRANCH  13  14
ATOM     14  C   UNL     1       5.288   2.601   4.072  1.00  0.00     0.031 A 
ATOM     15  C   UNL     1       5.803   1.777   5.223  1.00  0.00     0.074 A 
ATOM     16  C   UNL     1       5.609   3.908   3.985  1.00  0.00     0.049 A 
ATOM     17  N   UNL     1       6.595   2.138   6.201  1.00  0.00    -0.248 NA
ATOM     18  C   UNL     1       5.372   0.371   5.295  1.00  0.00     0.031 C 
ATOM     19  C   UNL     1       5.140   4.821   2.939  1.00  0.00     0.029 A 
ATOM     20  N   UNL     1       6.408   4.694   4.774  1.00  0.00    -0.354 N 
ATOM     21  C   UNL     1       6.717   1.028   7.029  1.00  0.00     0.074 A 
ATOM     22  C   UNL     1       5.913  -0.022   6.441  1.00  0.00     0.031 C 
ATOM     23  C   UNL     1       5.693   6.027   3.125  1.00  0.00     0.029 A 
ATOM     24  C   UNL     1       6.500   5.995   4.337  1.00  0.00     0.049 A 
ATOM     25  H   UNL     1       6.871   4.360   5.577  1.00  0.00     0.167 HD
ATOM     26  C   UNL     1       7.438   0.892   8.169  1.00  0.00     0.034 A 
ATOM     27  C   UNL     1       7.148   7.053   4.859  1.00  0.00     0.034 A 
ATOM     28  C   UNL     1       8.260   1.932   8.733  1.00  0.00     0.049 A 
ATOM     29  C   UNL     1       7.952   6.865   6.113  1.00  0.00     0.074 A 
ATOM     30  C   UNL     1       9.086   1.868   9.843  1.00  0.00     0.029 A 
ATOM     31  N   UNL     1       8.348   3.227   8.248  1.00  0.00    -0.354 N 
ATOM     32  N   UNL     1       8.157   5.772   6.806  1.00  0.00    -0.248 NA
ATOM     33  C   UNL     1       8.639   8.052   6.639  1.00  0.00     0.031 C 
ATOM     34  C   UNL     1       9.639   3.135  10.052  1.00  0.00     0.029 A 
ATOM     35  C   UNL     1       9.199   3.977   9.044  1.00  0.00     0.049 A 
ATOM     36  H   UNL     1       7.875   3.565   7.453  1.00  0.00     0.167 HD
ATOM     37  C   UNL     1       9.028   6.129   7.828  1.00  0.00     0.074 A 
ATOM     38  C   UNL     1       9.327   7.535   7.648  1.00  0.00     0.031 C 
ATOM     39  C   UNL     1       9.526   5.364   8.830  1.00  0.00     0.034 A 
BRANCH  26  40
ATOM     40  C   UNL     1       7.385  -0.434   8.887  1.00  0.00     0.023 A 
ATOM     41  C   UNL     1       8.015  -1.566   8.331  1.00  0.00     0.012 A 
ATOM     42  C   UNL     1       6.767  -0.542  10.150  1.00  0.00     0.148 A 
ATOM     43  C   UNL     1       8.000  -2.790   9.000  1.00  0.00     0.002 A 
ATOM     44  C   UNL     1       6.797  -1.753  10.833  1.00  0.00     0.091 A 
ATOM     45  F   UNL     1       6.158   0.538  10.658  1.00  0.00    -0.205 F 
ATOM     46  C   UNL     1       7.401  -2.881  10.253  1.00  0.00     0.022 A 
BRANCH  44  47
ATOM     47  S   UNL     1       6.129  -1.950  12.489  1.00  0.00     0.127 S 
ATOM     48  O   UNL     1       4.955  -2.785  12.235  1.00  0.00    -0.237 OA
ATOM     49  O   UNL     1       7.222  -2.632  13.182  1.00  0.00    -0.237 OA
ATOM     50  O   UNL     1       5.848  -0.606  12.972  1.00  0.00    -0.744 OA
ENDBRANCH  44  47
ENDBRANCH  26  40
BRANCH  27  51
ATOM     51  C   UNL     1       7.094   8.372   4.170  1.00  0.00     0.023 A 
ATOM     52  C   UNL     1       8.258   8.893   3.573  1.00  0.00     0.012 A 
ATOM     53  C   UNL     1       5.891   9.098   4.080  1.00  0.00     0.148 A 
ATOM     54  C   UNL     1       8.233  10.130   2.929  1.00  0.00     0.002 A 
ATOM     55  C   UNL     1       5.859  10.299   3.384  1.00  0.00     0.091 A 
ATOM     56  F   UNL     1       4.796   8.588   4.661  1.00  0.00    -0.205 F 
ATOM     57  C   UNL     1       7.033  10.827   2.825  1.00  0.00     0.022 A 
BRANCH  55  58
ATOM     58  S   UNL     1       4.333  11.197   3.083  1.00  0.00     0.127 S 
ATOM     59  O   UNL     1       4.521  12.388   3.908  1.00  0.00    -0.237 OA
ATOM     60  O   UNL     1       4.401  11.429   1.640  1.00  0.00    -0.237 OA
ATOM     61  O   UNL     1       3.261  10.303   3.498  1.00  0.00    -0.744 OA
ENDBRANCH  55  58
ENDBRANCH  27  51
BRANCH  39  62
ATOM     62  C   UNL     1      10.496   6.015   9.781  1.00  0.00     0.023 A 
ATOM     63  C   UNL     1      10.049   6.986  10.699  1.00  0.00     0.012 A 
ATOM     64  C   UNL     1      11.851   5.626   9.793  1.00  0.00     0.148 A 
ATOM     65  C   UNL     1      10.943   7.592  11.581  1.00  0.00     0.002 A 
ATOM     66  C   UNL     1      12.723   6.192  10.712  1.00  0.00     0.091 A 
ATOM     67  F   UNL     1      12.263   4.716   8.898  1.00  0.00    -0.205 F 
ATOM     68  C   UNL     1      12.276   7.187  11.596  1.00  0.00     0.022 A 
BRANCH  66  69
ATOM     69  S   UNL     1      14.431   5.659  10.870  1.00  0.00     0.127 S 
ATOM     70  O   UNL     1      15.152   6.792  10.292  1.00  0.00    -0.237 OA
ATOM     71  O   UNL     1      14.579   5.516  12.318  1.00  0.00    -0.237 OA
ATOM     72  O   UNL     1      14.531   4.410  10.127  1.00  0.00    -0.744 OA
ENDBRANCH  66  69
ENDBRANCH  39  62
ENDBRANCH  13  14
ENDBRANCH   6   8
ENDBRANCH   3   4
ENDBRANCH   2   3
ENDBRANCH   1   2
BRANCH   1  73
ATOM     73  C   UNL     1       4.780  -2.758  -3.484  1.00  0.00     0.002 C 
BRANCH  73  74
ATOM     74  C   UNL     1       6.310  -2.667  -3.542  1.00  0.00     0.021 C 
BRANCH  74  75
ATOM     75  C   UNL     1       7.041  -3.972  -3.238  1.00  0.00     0.116 C 
BRANCH  75  76
ATOM     76  N   UNL     1       6.695  -5.012  -4.192  1.00  0.00    -0.352 N 
ATOM     77  C   UNL     1       7.516  -5.705  -5.040  1.00  0.00     0.251 C 
ATOM     78  H   UNL     1       5.740  -5.250  -4.235  1.00  0.00     0.163 HD
ATOM     79  O   UNL     1       7.056  -6.407  -5.934  1.00  0.00    -0.269 OA
BRANCH  77  80
ATOM     80  C   UNL     1       8.976  -5.599  -4.872  1.00  0.00     0.039 A 
ATOM     81  C   UNL     1       9.752  -5.164  -5.945  1.00  0.00     0.016 A 
ATOM     82  C   UNL     1       9.574  -5.956  -3.662  1.00  0.00     0.016 A 
ATOM     83  C   UNL     1      11.133  -5.030  -5.786  1.00  0.00     0.027 A 
ATOM     84  C   UNL     1      10.959  -5.854  -3.522  1.00  0.00     0.027 A 
ATOM     85  C   UNL     1      11.755  -5.381  -4.578  1.00  0.00     0.052 A 
BRANCH  85  86
ATOM     86  N   UNL     1      13.159  -5.279  -4.429  1.00  0.00    -0.245 N 
ATOM     87  C   UNL     1      13.914  -6.170  -3.703  1.00  0.00     0.240 C 
ATOM     88  C   UNL     1      13.936  -4.289  -4.996  1.00  0.00     0.292 C 
ATOM     89  O   UNL     1      13.547  -7.136  -3.051  1.00  0.00    -0.274 OA
ATOM     90  C   UNL     1      15.359  -5.859  -3.928  1.00  0.00     0.176 C 
ATOM     91  C   UNL     1      15.354  -4.432  -4.441  1.00  0.00     0.284 C 
ATOM     92  O   UNL     1      13.584  -3.394  -5.756  1.00  0.00    -0.267 OA
BRANCH  91  93
ATOM     93  N   UNL     1      15.678  -3.328  -3.517  1.00  0.00    -0.321 N 
ATOM     94  C   UNL     1      14.851  -3.178  -2.303  1.00  0.00     0.284 C 
ATOM     95  C   UNL     1      17.107  -3.239  -3.150  1.00  0.00     0.284 C 
ATOM     96  H   UNL     1      15.427  -2.541  -4.114  1.00  0.00     0.348 HD
ATOM     97  C   UNL     1      15.201  -4.100  -1.113  1.00  0.00     0.178 C 
ATOM     98  C   UNL     1      17.582  -4.127  -1.976  1.00  0.00     0.178 C 
ATOM     99  N   UNL     1      16.640  -4.086  -0.858  1.00  0.00    -0.360 N 
BRANCH  99 100
ATOM    100  C   UNL     1      17.083  -4.118   0.448  1.00  0.00     0.037 A 
ATOM    101  C   UNL     1      16.622  -5.082   1.357  1.00  0.00     0.029 A 
ATOM    102  C   UNL     1      17.950  -3.123   0.920  1.00  0.00     0.029 A 
ATOM    103  C   UNL     1      17.005  -5.044   2.700  1.00  0.00     0.041 A 
ATOM    104  C   UNL     1      18.321  -3.068   2.263  1.00  0.00     0.041 A 
ATOM    105  C   UNL     1      17.844  -4.030   3.142  1.00  0.00     0.123 A 
ATOM    106  F   UNL     1      18.194  -3.977   4.433  1.00  0.00    -0.207 F 
ENDBRANCH  99 100
ENDBRANCH  91  93
ENDBRANCH  85  86
ENDBRANCH  77  80
ENDBRANCH  75  76
ENDBRANCH  74  75
ENDBRANCH  73  74
ENDBRANCH   1  73
TORSDOF 19
