REMARK SMILES Cc1c(CC(=O)NCCCCCCNC(=O)c2ccc(-c3c4nc(c(-c5cccc(S(=O)(=O)[O-])c5F)c5ccc([nH]5)c(-c5cccc(S(=O)(=O)[O-])c5F)c5nc(c(-c6cccc(S(=O)(=O)[O-])c6F)c6ccc3[nH]6)C=C5)C=C4)cc2)cc(-c2ccccc2)cc1-c1ccccc1
REMARK SMILES IDX 11 1 10 2 9 3 8 4 7 5 5 6 6 7 4 9 3 10 1 11 2 12 89 13 80 14
REMARK SMILES IDX 88 15 81 16 90 17 91 18 95 19 92 20 94 21 93 22 82 23 83 24
REMARK SMILES IDX 87 25 84 26 86 27 85 28 12 29 13 30 14 31 15 32 16 34 17 35
REMARK SMILES IDX 18 36 79 37 19 38 78 39 20 40 21 41 22 42 72 43 23 44 77 45
REMARK SMILES IDX 71 46 73 47 24 48 76 49 70 50 69 51 25 53 57 54 37 55 56 56
REMARK SMILES IDX 38 57 41 58 55 59 74 60 39 61 40 62 54 64 75 65 42 66 26 67
REMARK SMILES IDX 27 68 35 69 28 70 30 71 36 72 29 73 31 74 32 75 33 76 34 77
REMARK SMILES IDX 58 78 59 79 67 80 60 81 62 82 68 83 61 84 63 85 64 86 65 87
REMARK SMILES IDX 66 88 43 89 44 90 52 91 45 92 47 93 53 94 46 95 48 96 49 97
REMARK SMILES IDX 50 98 51 99
REMARK H PARENT 7 8 14 33 73 52 41 63
REMARK Flexibility Score: inf
ROOT
ATOM      1  C   UNL     1       1.674  -1.920   5.812  1.00  0.00     0.002 C 
ENDROOT
BRANCH   1   2
ATOM      2  C   UNL     1       0.392  -1.563   5.042  1.00  0.00     0.002 C 
BRANCH   2   3
ATOM      3  C   UNL     1       0.588  -1.027   3.620  1.00  0.00     0.021 C 
BRANCH   3   4
ATOM      4  C   UNL     1       1.489  -1.890   2.741  1.00  0.00     0.116 C 
BRANCH   4   5
ATOM      5  N   UNL     1       0.827  -3.083   2.261  1.00  0.00    -0.356 N 
ATOM      6  C   UNL     1       0.571  -3.457   0.974  1.00  0.00     0.224 C 
ATOM      7  O   UNL     1       0.040  -4.553   0.777  1.00  0.00    -0.275 OA
ATOM      8  H   UNL     1       0.520  -3.708   2.956  1.00  0.00     0.163 HD
BRANCH   6   9
ATOM      9  C   UNL     1       0.994  -2.565  -0.189  1.00  0.00     0.135 C 
BRANCH   9  10
ATOM     10  C   UNL     1       0.321  -1.203  -0.214  1.00  0.00    -0.035 A 
ATOM     11  C   UNL     1       2.543   0.025  -0.413  1.00  0.00     0.045 C 
ATOM     12  C   UNL     1       1.035   0.025  -0.272  1.00  0.00    -0.040 A 
ATOM     13  C   UNL     1       0.314   1.249  -0.227  1.00  0.00    -0.015 A 
ATOM     14  C   UNL     1      -1.086  -1.186  -0.172  1.00  0.00     0.013 A 
ATOM     15  C   UNL     1      -1.096   1.208  -0.163  1.00  0.00     0.017 A 
ATOM     16  C   UNL     1      -1.813   0.006  -0.152  1.00  0.00    -0.017 A 
BRANCH  13  17
ATOM     17  C   UNL     1       0.966   2.576  -0.217  1.00  0.00    -0.018 A 
ATOM     18  C   UNL     1       0.802   3.443   0.878  1.00  0.00     0.009 A 
ATOM     19  C   UNL     1       1.752   3.017  -1.294  1.00  0.00     0.009 A 
ATOM     20  C   UNL     1       1.415   4.698   0.903  1.00  0.00     0.001 A 
ATOM     21  C   UNL     1       2.380   4.265  -1.263  1.00  0.00     0.001 A 
ATOM     22  C   UNL     1       2.210   5.105  -0.165  1.00  0.00     0.000 A 
ENDBRANCH  13  17
BRANCH  16  23
ATOM     23  C   UNL     1      -3.283  -0.012  -0.148  1.00  0.00    -0.018 A 
ATOM     24  C   UNL     1      -4.001  -0.683   0.854  1.00  0.00     0.009 A 
ATOM     25  C   UNL     1      -4.007   0.618  -1.173  1.00  0.00     0.009 A 
ATOM     26  C   UNL     1      -5.398  -0.731   0.827  1.00  0.00     0.001 A 
ATOM     27  C   UNL     1      -5.402   0.568  -1.204  1.00  0.00     0.001 A 
ATOM     28  C   UNL     1      -6.097  -0.109  -0.205  1.00  0.00     0.000 A 
ENDBRANCH  16  23
ENDBRANCH   9  10
ENDBRANCH   6   9
ENDBRANCH   4   5
ENDBRANCH   3   4
ENDBRANCH   2   3
ENDBRANCH   1   2
BRANCH   1  29
ATOM     29  C   UNL     1       2.829  -0.921   5.708  1.00  0.00     0.021 C 
BRANCH  29  30
ATOM     30  C   UNL     1       2.522   0.443   6.300  1.00  0.00     0.116 C 
BRANCH  30  31
ATOM     31  N   UNL     1       3.055   0.614   7.635  1.00  0.00    -0.352 N 
ATOM     32  C   UNL     1       3.094   1.749   8.420  1.00  0.00     0.251 C 
ATOM     33  H   UNL     1       3.446  -0.193   8.041  1.00  0.00     0.163 HD
ATOM     34  O   UNL     1       3.881   1.780   9.364  1.00  0.00    -0.269 OA
BRANCH  32  35
ATOM     35  C   UNL     1       2.092   2.826   8.219  1.00  0.00     0.039 A 
ATOM     36  C   UNL     1       1.478   3.341   9.370  1.00  0.00     0.014 A 
ATOM     37  C   UNL     1       1.575   3.132   6.963  1.00  0.00     0.014 A 
ATOM     38  C   UNL     1       0.213   3.913   9.281  1.00  0.00     0.010 A 
ATOM     39  C   UNL     1       0.293   3.622   6.874  1.00  0.00     0.010 A 
ATOM     40  C   UNL     1      -0.411   3.931   8.040  1.00  0.00    -0.014 A 
BRANCH  40  41
ATOM     41  C   UNL     1      -1.814   4.230   7.832  1.00  0.00     0.031 A 
ATOM     42  C   UNL     1      -2.243   5.624   7.668  1.00  0.00     0.074 A 
ATOM     43  C   UNL     1      -2.643   3.191   7.598  1.00  0.00     0.049 A 
ATOM     44  N   UNL     1      -3.456   6.034   7.786  1.00  0.00    -0.248 NA
ATOM     45  C   UNL     1      -1.287   6.685   7.384  1.00  0.00     0.031 C 
ATOM     46  C   UNL     1      -3.958   3.216   6.976  1.00  0.00     0.029 A 
ATOM     47  N   UNL     1      -2.510   1.881   8.073  1.00  0.00    -0.354 N 
ATOM     48  C   UNL     1      -3.493   7.334   7.324  1.00  0.00     0.074 A 
ATOM     49  C   UNL     1      -2.108   7.718   7.185  1.00  0.00     0.031 C 
ATOM     50  C   UNL     1      -4.617   2.097   7.323  1.00  0.00     0.029 A 
ATOM     51  C   UNL     1      -3.814   1.430   8.336  1.00  0.00     0.049 A 
ATOM     52  H   UNL     1      -1.673   1.378   8.198  1.00  0.00     0.167 HD
ATOM     53  C   UNL     1      -4.693   7.865   6.952  1.00  0.00     0.034 A 
ATOM     54  C   UNL     1      -4.246   1.081   9.585  1.00  0.00     0.034 A 
ATOM     55  C   UNL     1      -5.782   6.915   7.236  1.00  0.00     0.049 A 
ATOM     56  C   UNL     1      -5.421   1.924  10.049  1.00  0.00     0.074 A 
ATOM     57  C   UNL     1      -6.421   5.972   6.446  1.00  0.00     0.029 A 
ATOM     58  N   UNL     1      -6.124   6.620   8.552  1.00  0.00    -0.354 N 
ATOM     59  N   UNL     1      -5.824   3.008   9.447  1.00  0.00    -0.248 NA
ATOM     60  C   UNL     1      -6.211   1.628  11.241  1.00  0.00     0.031 C 
ATOM     61  C   UNL     1      -7.057   5.038   7.306  1.00  0.00     0.029 A 
ATOM     62  C   UNL     1      -6.843   5.434   8.616  1.00  0.00     0.049 A 
ATOM     63  H   UNL     1      -5.889   7.175   9.330  1.00  0.00     0.167 HD
ATOM     64  C   UNL     1      -6.794   3.621  10.193  1.00  0.00     0.074 A 
ATOM     65  C   UNL     1      -7.056   2.674  11.265  1.00  0.00     0.031 C 
ATOM     66  C   UNL     1      -7.250   4.879   9.905  1.00  0.00     0.034 A 
BRANCH  53  67
ATOM     67  C   UNL     1      -4.867   9.060   6.020  1.00  0.00     0.023 A 
ATOM     68  C   UNL     1      -6.097   9.161   5.328  1.00  0.00     0.012 A 
ATOM     69  C   UNL     1      -3.906  10.049   5.701  1.00  0.00     0.148 A 
ATOM     70  C   UNL     1      -6.321  10.098   4.313  1.00  0.00     0.002 A 
ATOM     71  C   UNL     1      -4.101  10.944   4.642  1.00  0.00     0.091 A 
ATOM     72  F   UNL     1      -2.828  10.204   6.471  1.00  0.00    -0.205 F 
ATOM     73  C   UNL     1      -5.308  10.966   3.941  1.00  0.00     0.022 A 
BRANCH  71  74
ATOM     74  S   UNL     1      -2.808  12.061   4.064  1.00  0.00     0.127 S 
ATOM     75  O   UNL     1      -2.774  11.777   2.627  1.00  0.00    -0.237 OA
ATOM     76  O   UNL     1      -3.348  13.373   4.410  1.00  0.00    -0.237 OA
ATOM     77  O   UNL     1      -1.593  11.676   4.772  1.00  0.00    -0.744 OA
ENDBRANCH  71  74
ENDBRANCH  53  67
BRANCH  54  78
ATOM     78  C   UNL     1      -3.157   0.568  10.474  1.00  0.00     0.023 A 
ATOM     79  C   UNL     1      -2.483  -0.604  10.051  1.00  0.00     0.012 A 
ATOM     80  C   UNL     1      -2.535   1.399  11.422  1.00  0.00     0.148 A 
ATOM     81  C   UNL     1      -1.162  -0.848  10.430  1.00  0.00     0.002 A 
ATOM     82  C   UNL     1      -1.218   1.143  11.803  1.00  0.00     0.091 A 
ATOM     83  F   UNL     1      -3.202   2.467  11.878  1.00  0.00    -0.205 F 
ATOM     84  C   UNL     1      -0.515   0.050  11.272  1.00  0.00     0.022 A 
BRANCH  82  85
ATOM     85  S   UNL     1      -0.333   2.277  12.882  1.00  0.00     0.127 S 
ATOM     86  O   UNL     1      -0.647   1.733  14.199  1.00  0.00    -0.237 OA
ATOM     87  O   UNL     1       1.057   2.102  12.463  1.00  0.00    -0.237 OA
ATOM     88  O   UNL     1      -0.887   3.586  12.569  1.00  0.00    -0.744 OA
ENDBRANCH  82  85
ENDBRANCH  54  78
BRANCH  66  89
ATOM     89  C   UNL     1      -8.127   5.702  10.824  1.00  0.00     0.023 A 
ATOM     90  C   UNL     1      -8.128   5.515  12.220  1.00  0.00     0.012 A 
ATOM     91  C   UNL     1      -8.871   6.802  10.325  1.00  0.00     0.148 A 
ATOM     92  C   UNL     1      -8.889   6.320  13.073  1.00  0.00     0.002 A 
ATOM     93  C   UNL     1      -9.535   7.668  11.190  1.00  0.00     0.091 A 
ATOM     94  F   UNL     1      -8.956   7.005   9.002  1.00  0.00    -0.205 F 
ATOM     95  C   UNL     1      -9.577   7.410  12.561  1.00  0.00     0.022 A 
BRANCH  93  96
ATOM     96  S   UNL     1     -10.221   9.221  10.596  1.00  0.00     0.127 S 
ATOM     97  O   UNL     1     -11.607   8.854  10.313  1.00  0.00    -0.237 OA
ATOM     98  O   UNL     1     -10.050  10.105  11.752  1.00  0.00    -0.237 OA
ATOM     99  O   UNL     1      -9.402   9.582   9.447  1.00  0.00    -0.744 OA
ENDBRANCH  93  96
ENDBRANCH  66  89
ENDBRANCH  40  41
ENDBRANCH  32  35
ENDBRANCH  30  31
ENDBRANCH  29  30
ENDBRANCH   1  29
TORSDOF 19
