REMARK SMILES C[C@@H](C(=O)NCCCCCCNC(=O)c1ccc(-c2c3nc(c(-c4cccc(S(=O)(=O)[O-])c4F)c4ccc([nH]4)c(-c4cccc(S(=O)(=O)[O-])c4F)c4nc(c(-c5cccc(S(=O)(=O)[O-])c5F)c5ccc2[nH]5)C=C4)C=C3)cc1)c1ccc(C[C@@H]2CCC[C@@H]2O)cc1Br
REMARK SMILES IDX 8 1 7 2 6 3 5 4 3 5 4 6 2 8 1 9 78 10 79 11 90 12 80 13
REMARK SMILES IDX 89 14 91 15 81 16 82 17 83 18 84 19 87 20 85 21 86 22 88 23
REMARK SMILES IDX 9 25 10 26 11 27 12 28 13 29 14 31 15 32 16 33 77 34 17 35
REMARK SMILES IDX 76 36 18 37 19 38 20 39 70 40 21 41 75 42 69 43 71 44 22 45
REMARK SMILES IDX 74 46 68 47 67 48 23 50 55 51 35 52 54 53 36 54 39 55 53 56
REMARK SMILES IDX 72 57 37 58 38 59 52 61 73 62 40 63 24 64 25 65 33 66 26 67
REMARK SMILES IDX 28 68 34 69 27 70 29 71 30 72 31 73 32 74 56 75 57 76 65 77
REMARK SMILES IDX 58 78 60 79 66 80 59 81 61 82 62 83 63 84 64 85 41 86 42 87
REMARK SMILES IDX 50 88 43 89 45 90 51 91 44 92 46 93 47 94 48 95 49 96
REMARK H PARENT 5 7 88 24 12 30 71 49 39 60
REMARK Flexibility Score: inf
ROOT
ATOM      1  C   UNL     1      -9.185   3.723  11.796  1.00  0.00     0.002 C 
ENDROOT
BRANCH   1   2
ATOM      2  C   UNL     1     -10.092   2.852  10.915  1.00  0.00     0.021 C 
BRANCH   2   3
ATOM      3  C   UNL     1     -10.327   3.429   9.516  1.00  0.00     0.116 C 
BRANCH   3   4
ATOM      4  N   UNL     1      -9.101   3.374   8.748  1.00  0.00    -0.356 N 
ATOM      5  C   UNL     1      -8.711   2.475   7.801  1.00  0.00     0.227 C 
ATOM      6  O   UNL     1      -7.529   2.516   7.451  1.00  0.00    -0.274 OA
ATOM      7  H   UNL     1      -8.454   4.091   8.938  1.00  0.00     0.163 HD
BRANCH   5   8
ATOM      8  C   UNL     1      -9.735   1.492   7.202  1.00  0.00     0.106 C 
ATOM      9  C   UNL     1     -10.143   0.404   8.207  1.00  0.00     0.023 C 
BRANCH   8  10
ATOM     10  C   UNL     1      -9.194   0.894   5.901  1.00  0.00    -0.022 A 
ATOM     11  C   UNL     1      -8.435  -0.290   5.947  1.00  0.00     0.006 A 
ATOM     12  C   UNL     1      -9.334   1.528   4.655  1.00  0.00     0.022 A 
ATOM     13  C   UNL     1      -7.851  -0.828   4.803  1.00  0.00     0.004 A 
ATOM     14  C   UNL     1      -8.719   1.000   3.511  1.00  0.00     0.019 A 
ATOM     15  Br  UNL     1     -10.310   3.145   4.429  1.00  0.00    -0.051 Br
ATOM     16  C   UNL     1      -7.948  -0.168   3.580  1.00  0.00    -0.047 A 
BRANCH  16  17
ATOM     17  C   UNL     1      -7.200  -0.673   2.375  1.00  0.00     0.041 C 
BRANCH  17  18
ATOM     18  C   UNL     1      -5.676  -0.415   2.310  1.00  0.00     0.022 C 
ATOM     19  C   UNL     1      -4.846  -1.089   3.410  1.00  0.00     0.007 C 
ATOM     20  C   UNL     1      -5.206   1.042   2.388  1.00  0.00     0.117 C 
ATOM     21  C   UNL     1      -4.542  -0.013   4.458  1.00  0.00     0.003 C 
ATOM     22  C   UNL     1      -5.018   1.314   3.874  1.00  0.00     0.032 C 
BRANCH  20  23
ATOM     23  O   UNL     1      -6.086   1.964   1.782  1.00  0.00    -0.393 OA
ATOM     24  H   UNL     1      -6.950   1.922   2.221  1.00  0.00     0.210 HD
ENDBRANCH  20  23
ENDBRANCH  17  18
ENDBRANCH  16  17
ENDBRANCH   8  10
ENDBRANCH   5   8
ENDBRANCH   3   4
ENDBRANCH   2   3
ENDBRANCH   1   2
BRANCH   1  25
ATOM     25  C   UNL     1      -9.685   5.155  12.011  1.00  0.00     0.002 C 
BRANCH  25  26
ATOM     26  C   UNL     1     -11.110   5.258  12.559  1.00  0.00     0.021 C 
BRANCH  26  27
ATOM     27  C   UNL     1     -11.310   4.584  13.912  1.00  0.00     0.116 C 
BRANCH  27  28
ATOM     28  N   UNL     1     -10.517   5.220  14.955  1.00  0.00    -0.352 N 
ATOM     29  C   UNL     1     -10.932   5.760  16.145  1.00  0.00     0.251 C 
ATOM     30  H   UNL     1      -9.549   5.269  14.781  1.00  0.00     0.163 HD
ATOM     31  O   UNL     1     -10.165   6.452  16.811  1.00  0.00    -0.269 OA
BRANCH  29  32
ATOM     32  C   UNL     1     -12.312   5.517  16.615  1.00  0.00     0.039 A 
ATOM     33  C   UNL     1     -13.063   6.588  17.103  1.00  0.00     0.014 A 
ATOM     34  C   UNL     1     -12.864   4.234  16.561  1.00  0.00     0.014 A 
ATOM     35  C   UNL     1     -14.392   6.383  17.480  1.00  0.00     0.010 A 
ATOM     36  C   UNL     1     -14.209   4.048  16.865  1.00  0.00     0.010 A 
ATOM     37  C   UNL     1     -14.986   5.119  17.331  1.00  0.00    -0.014 A 
BRANCH  37  38
ATOM     38  C   UNL     1     -16.423   4.900  17.639  1.00  0.00     0.031 A 
ATOM     39  C   UNL     1     -16.830   3.936  18.720  1.00  0.00     0.074 A 
ATOM     40  C   UNL     1     -17.363   5.502  16.883  1.00  0.00     0.049 A 
ATOM     41  N   UNL     1     -18.030   3.565  19.083  1.00  0.00    -0.248 NA
ATOM     42  C   UNL     1     -15.747   3.282  19.474  1.00  0.00     0.031 C 
ATOM     43  C   UNL     1     -17.095   6.400  15.757  1.00  0.00     0.029 A 
ATOM     44  N   UNL     1     -18.733   5.425  16.926  1.00  0.00    -0.354 N 
ATOM     45  C   UNL     1     -17.849   2.612  20.078  1.00  0.00     0.074 A 
ATOM     46  C   UNL     1     -16.422   2.437  20.240  1.00  0.00     0.031 C 
ATOM     47  C   UNL     1     -18.261   6.792  15.219  1.00  0.00     0.029 A 
ATOM     48  C   UNL     1     -19.357   6.144  15.933  1.00  0.00     0.049 A 
ATOM     49  H   UNL     1     -19.222   4.904  17.603  1.00  0.00     0.167 HD
ATOM     50  C   UNL     1     -18.784   1.959  20.808  1.00  0.00     0.034 A 
ATOM     51  C   UNL     1     -20.663   6.257  15.620  1.00  0.00     0.034 A 
ATOM     52  C   UNL     1     -20.201   2.160  20.667  1.00  0.00     0.049 A 
ATOM     53  C   UNL     1     -21.681   5.537  16.461  1.00  0.00     0.074 A 
ATOM     54  C   UNL     1     -21.225   1.615  21.421  1.00  0.00     0.029 A 
ATOM     55  N   UNL     1     -20.796   2.955  19.699  1.00  0.00    -0.354 N 
ATOM     56  N   UNL     1     -21.493   4.763  17.503  1.00  0.00    -0.248 NA
ATOM     57  C   UNL     1     -23.095   5.729  16.105  1.00  0.00     0.031 C 
ATOM     58  C   UNL     1     -22.441   2.050  20.885  1.00  0.00     0.029 A 
ATOM     59  C   UNL     1     -22.173   2.900  19.823  1.00  0.00     0.049 A 
ATOM     60  H   UNL     1     -20.310   3.481  19.023  1.00  0.00     0.167 HD
ATOM     61  C   UNL     1     -22.761   4.407  17.948  1.00  0.00     0.074 A 
ATOM     62  C   UNL     1     -23.710   5.067  17.075  1.00  0.00     0.031 C 
ATOM     63  C   UNL     1     -23.108   3.598  18.979  1.00  0.00     0.034 A 
BRANCH  50  64
ATOM     64  C   UNL     1     -18.305   0.988  21.857  1.00  0.00     0.023 A 
ATOM     65  C   UNL     1     -17.671   1.472  23.020  1.00  0.00     0.012 A 
ATOM     66  C   UNL     1     -18.539  -0.394  21.723  1.00  0.00     0.148 A 
ATOM     67  C   UNL     1     -17.244   0.593  24.015  1.00  0.00     0.002 A 
ATOM     68  C   UNL     1     -18.155  -1.259  22.741  1.00  0.00     0.091 A 
ATOM     69  F   UNL     1     -19.126  -0.838  20.602  1.00  0.00    -0.205 F 
ATOM     70  C   UNL     1     -17.496  -0.770  23.880  1.00  0.00     0.022 A 
BRANCH  68  71
ATOM     71  S   UNL     1     -18.507  -3.020  22.701  1.00  0.00     0.127 S 
ATOM     72  O   UNL     1     -17.168  -3.585  22.538  1.00  0.00    -0.237 OA
ATOM     73  O   UNL     1     -19.105  -3.242  24.018  1.00  0.00    -0.237 OA
ATOM     74  O   UNL     1     -19.411  -3.226  21.579  1.00  0.00    -0.744 OA
ENDBRANCH  68  71
ENDBRANCH  50  64
BRANCH  51  75
ATOM     75  C   UNL     1     -21.085   7.121  14.481  1.00  0.00     0.023 A 
ATOM     76  C   UNL     1     -21.789   8.314  14.738  1.00  0.00     0.012 A 
ATOM     77  C   UNL     1     -20.778   6.777  13.151  1.00  0.00     0.148 A 
ATOM     78  C   UNL     1     -22.211   9.130  13.688  1.00  0.00     0.002 A 
ATOM     79  C   UNL     1     -21.150   7.624  12.113  1.00  0.00     0.091 A 
ATOM     80  F   UNL     1     -20.116   5.633  12.927  1.00  0.00    -0.205 F 
ATOM     81  C   UNL     1     -21.883   8.791  12.377  1.00  0.00     0.022 A 
BRANCH  79  82
ATOM     82  S   UNL     1     -20.658   7.335  10.410  1.00  0.00     0.127 S 
ATOM     83  O   UNL     1     -21.935   7.007   9.782  1.00  0.00    -0.237 OA
ATOM     84  O   UNL     1     -20.100   8.634  10.034  1.00  0.00    -0.237 OA
ATOM     85  O   UNL     1     -19.682   6.254  10.460  1.00  0.00    -0.744 OA
ENDBRANCH  79  82
ENDBRANCH  51  75
BRANCH  63  86
ATOM     86  C   UNL     1     -24.576   3.405  19.256  1.00  0.00     0.023 A 
ATOM     87  C   UNL     1     -25.365   2.634  18.379  1.00  0.00     0.012 A 
ATOM     88  C   UNL     1     -25.155   3.923  20.432  1.00  0.00     0.148 A 
ATOM     89  C   UNL     1     -26.713   2.409  18.651  1.00  0.00     0.002 A 
ATOM     90  C   UNL     1     -26.485   3.649  20.724  1.00  0.00     0.091 A 
ATOM     91  F   UNL     1     -24.392   4.667  21.245  1.00  0.00    -0.205 F 
ATOM     92  C   UNL     1     -27.270   2.904  19.829  1.00  0.00     0.022 A 
BRANCH  90  93
ATOM     93  S   UNL     1     -27.261   4.160  22.261  1.00  0.00     0.127 S 
ATOM     94  O   UNL     1     -28.207   5.173  21.795  1.00  0.00    -0.237 OA
ATOM     95  O   UNL     1     -27.878   2.916  22.723  1.00  0.00    -0.237 OA
ATOM     96  O   UNL     1     -26.187   4.656  23.111  1.00  0.00    -0.744 OA
ENDBRANCH  90  93
ENDBRANCH  63  86
ENDBRANCH  37  38
ENDBRANCH  29  32
ENDBRANCH  27  28
ENDBRANCH  26  27
ENDBRANCH  25  26
ENDBRANCH   1  25
TORSDOF 20
