REMARK SMILES C=CCN(CC(=O)NCCCCCCNC(=O)c1ccc(-c2c3nc(c(-c4cccc(S(=O)(=O)[O-])c4F)c4ccc([nH]4)c(-c4cccc(S(=O)(=O)[O-])c4F)c4nc(c(-c5cccc(S(=O)(=O)[O-])c5F)c5ccc2[nH]5)C=C4)C=C3)cc1)C(=O)NCC(C)C
REMARK SMILES IDX 11 1 10 2 9 3 8 4 6 5 7 6 5 8 4 9 3 10 2 11 1 12 81 13 82 14
REMARK SMILES IDX 83 15 84 17 85 18 86 19 87 20 12 21 13 22 14 23 15 24 16 25
REMARK SMILES IDX 17 27 18 28 19 29 80 30 20 31 79 32 21 33 22 34 23 35 73 36
REMARK SMILES IDX 24 37 78 38 72 39 74 40 25 41 77 42 71 43 70 44 26 46 58 47
REMARK SMILES IDX 38 48 57 49 39 50 42 51 56 52 75 53 40 54 41 55 55 57 76 58
REMARK SMILES IDX 43 59 27 60 28 61 36 62 29 63 31 64 37 65 30 66 32 67 33 68
REMARK SMILES IDX 34 69 35 70 59 71 60 72 68 73 61 74 63 75 69 76 62 77 64 78
REMARK SMILES IDX 65 79 66 80 67 81 44 82 45 83 53 84 46 85 48 86 54 87 47 88
REMARK SMILES IDX 49 89 50 90 51 91 52 92
REMARK H PARENT 8 7 83 16 15 26 74 45 42 56
REMARK Flexibility Score: inf
ROOT
ATOM      1  C   UNL     1      -5.786  -0.659   1.301  1.00  0.00     0.002 C 
ENDROOT
BRANCH   1   2
ATOM      2  C   UNL     1      -4.414  -0.287   0.724  1.00  0.00     0.021 C 
BRANCH   2   3
ATOM      3  C   UNL     1      -4.428   0.898  -0.237  1.00  0.00     0.116 C 
BRANCH   3   4
ATOM      4  N   UNL     1      -4.727   2.154   0.411  1.00  0.00    -0.355 N 
ATOM      5  C   UNL     1      -3.940   3.257   0.548  1.00  0.00     0.239 C 
ATOM      6  O   UNL     1      -4.518   4.336   0.724  1.00  0.00    -0.273 OA
ATOM      7  H   UNL     1      -5.625   2.223   0.808  1.00  0.00     0.163 HD
BRANCH   5   8
ATOM      8  C   UNL     1      -2.416   3.221   0.334  1.00  0.00     0.221 C 
BRANCH   8   9
ATOM      9  N   UNL     1      -1.701   2.099   0.941  1.00  0.00    -0.312 N 
BRANCH   9  10
ATOM     10  C   UNL     1      -1.078   1.151   0.012  1.00  0.00     0.149 C 
BRANCH  10  11
ATOM     11  C   UNL     1       0.412   1.319  -0.026  1.00  0.00    -0.013 C 
ATOM     12  C   UNL     1       1.261   0.286   0.075  1.00  0.00     0.006 C 
ENDBRANCH  10  11
ENDBRANCH   9  10
BRANCH   9  13
ATOM     13  C   UNL     1      -1.526   1.861   2.273  1.00  0.00     0.318 C 
ATOM     14  O   UNL     1      -0.966   0.837   2.681  1.00  0.00    -0.249 OA
ATOM     15  N   UNL     1      -1.932   2.681   3.255  1.00  0.00    -0.338 N 
ATOM     16  H   UNL     1      -1.676   2.311   4.130  1.00  0.00     0.165 HD
BRANCH  15  17
ATOM     17  C   UNL     1      -2.632   3.946   3.433  1.00  0.00     0.120 C 
BRANCH  17  18
ATOM     18  C   UNL     1      -4.007   3.737   4.095  1.00  0.00     0.002 C 
ATOM     19  C   UNL     1      -3.860   3.332   5.566  1.00  0.00     0.009 C 
ATOM     20  C   UNL     1      -4.856   5.007   4.011  1.00  0.00     0.009 C 
ENDBRANCH  17  18
ENDBRANCH  15  17
ENDBRANCH   9  13
ENDBRANCH   8   9
ENDBRANCH   5   8
ENDBRANCH   3   4
ENDBRANCH   2   3
ENDBRANCH   1   2
BRANCH   1  21
ATOM     21  C   UNL     1      -6.907  -0.860   0.274  1.00  0.00     0.002 C 
BRANCH  21  22
ATOM     22  C   UNL     1      -6.592  -1.829  -0.869  1.00  0.00     0.021 C 
BRANCH  22  23
ATOM     23  C   UNL     1      -6.263  -3.252  -0.432  1.00  0.00     0.116 C 
BRANCH  23  24
ATOM     24  N   UNL     1      -7.398  -3.909   0.201  1.00  0.00    -0.352 N 
ATOM     25  C   UNL     1      -8.044  -5.067  -0.160  1.00  0.00     0.251 C 
ATOM     26  H   UNL     1      -7.755  -3.459   1.000  1.00  0.00     0.163 HD
ATOM     27  O   UNL     1      -9.105  -5.376   0.376  1.00  0.00    -0.269 OA
BRANCH  25  28
ATOM     28  C   UNL     1      -7.466  -5.929  -1.213  1.00  0.00     0.039 A 
ATOM     29  C   UNL     1      -8.288  -6.382  -2.249  1.00  0.00     0.014 A 
ATOM     30  C   UNL     1      -6.111  -6.269  -1.189  1.00  0.00     0.014 A 
ATOM     31  C   UNL     1      -7.732  -7.104  -3.307  1.00  0.00     0.010 A 
ATOM     32  C   UNL     1      -5.547  -6.929  -2.276  1.00  0.00     0.010 A 
ATOM     33  C   UNL     1      -6.348  -7.344  -3.351  1.00  0.00    -0.014 A 
BRANCH  33  34
ATOM     34  C   UNL     1      -5.705  -7.971  -4.534  1.00  0.00     0.031 A 
ATOM     35  C   UNL     1      -4.995  -9.289  -4.407  1.00  0.00     0.074 A 
ATOM     36  C   UNL     1      -5.661  -7.291  -5.697  1.00  0.00     0.049 A 
ATOM     37  N   UNL     1      -4.312  -9.947  -5.308  1.00  0.00    -0.248 NA
ATOM     38  C   UNL     1      -5.039  -9.943  -3.090  1.00  0.00     0.031 C 
ATOM     39  C   UNL     1      -6.256  -5.972  -5.927  1.00  0.00     0.029 A 
ATOM     40  N   UNL     1      -5.067  -7.600  -6.894  1.00  0.00    -0.354 N 
ATOM     41  C   UNL     1      -3.811 -11.069  -4.660  1.00  0.00     0.074 A 
ATOM     42  C   UNL     1      -4.248 -10.989  -3.282  1.00  0.00     0.031 C 
ATOM     43  C   UNL     1      -6.005  -5.591  -7.189  1.00  0.00     0.029 A 
ATOM     44  C   UNL     1      -5.199  -6.615  -7.846  1.00  0.00     0.049 A 
ATOM     45  H   UNL     1      -4.590  -8.446  -7.057  1.00  0.00     0.167 HD
ATOM     46  C   UNL     1      -3.075 -12.086  -5.169  1.00  0.00     0.034 A 
ATOM     47  C   UNL     1      -4.718  -6.539  -9.102  1.00  0.00     0.034 A 
ATOM     48  C   UNL     1      -2.669 -12.175  -6.546  1.00  0.00     0.049 A 
ATOM     49  C   UNL     1      -3.899  -7.678  -9.643  1.00  0.00     0.074 A 
ATOM     50  C   UNL     1      -2.013 -13.212  -7.185  1.00  0.00     0.029 A 
ATOM     51  N   UNL     1      -2.860 -11.180  -7.494  1.00  0.00    -0.354 N 
ATOM     52  N   UNL     1      -3.581  -8.812  -9.066  1.00  0.00    -0.248 NA
ATOM     53  C   UNL     1      -3.392  -7.538 -11.015  1.00  0.00     0.031 C 
ATOM     54  C   UNL     1      -1.775 -12.829  -8.510  1.00  0.00     0.029 A 
ATOM     55  C   UNL     1      -2.308 -11.565  -8.705  1.00  0.00     0.049 A 
ATOM     56  H   UNL     1      -3.320 -10.325  -7.330  1.00  0.00     0.167 HD
ATOM     57  C   UNL     1      -2.865  -9.534 -10.014  1.00  0.00     0.074 A 
ATOM     58  C   UNL     1      -2.811  -8.716 -11.209  1.00  0.00     0.031 C 
ATOM     59  C   UNL     1      -2.293 -10.759  -9.900  1.00  0.00     0.034 A 
BRANCH  46  60
ATOM     60  C   UNL     1      -2.690 -13.203  -4.233  1.00  0.00     0.023 A 
ATOM     61  C   UNL     1      -3.681 -14.087  -3.757  1.00  0.00     0.012 A 
ATOM     62  C   UNL     1      -1.350 -13.399  -3.848  1.00  0.00     0.148 A 
ATOM     63  C   UNL     1      -3.352 -15.117  -2.876  1.00  0.00     0.002 A 
ATOM     64  C   UNL     1      -1.023 -14.456  -3.006  1.00  0.00     0.091 A 
ATOM     65  F   UNL     1      -0.423 -12.537  -4.290  1.00  0.00    -0.205 F 
ATOM     66  C   UNL     1      -2.023 -15.307  -2.509  1.00  0.00     0.022 A 
BRANCH  64  67
ATOM     67  S   UNL     1       0.673 -14.827  -2.542  1.00  0.00     0.127 S 
ATOM     68  O   UNL     1       0.719 -14.327  -1.169  1.00  0.00    -0.237 OA
ATOM     69  O   UNL     1       0.715 -16.286  -2.661  1.00  0.00    -0.237 OA
ATOM     70  O   UNL     1       1.510 -14.120  -3.500  1.00  0.00    -0.744 OA
ENDBRANCH  64  67
ENDBRANCH  46  60
BRANCH  47  71
ATOM     71  C   UNL     1      -5.066  -5.369  -9.958  1.00  0.00     0.023 A 
ATOM     72  C   UNL     1      -5.959  -5.551 -11.031  1.00  0.00     0.012 A 
ATOM     73  C   UNL     1      -4.564  -4.081  -9.691  1.00  0.00     0.148 A 
ATOM     74  C   UNL     1      -6.331  -4.476 -11.837  1.00  0.00     0.002 A 
ATOM     75  C   UNL     1      -4.980  -3.003 -10.465  1.00  0.00     0.091 A 
ATOM     76  F   UNL     1      -3.709  -3.931  -8.669  1.00  0.00    -0.205 F 
ATOM     77  C   UNL     1      -5.851  -3.201 -11.548  1.00  0.00     0.022 A 
BRANCH  75  78
ATOM     78  S   UNL     1      -4.518  -1.308 -10.093  1.00  0.00     0.127 S 
ATOM     79  O   UNL     1      -3.692  -0.962 -11.248  1.00  0.00    -0.237 OA
ATOM     80  O   UNL     1      -5.821  -0.645 -10.046  1.00  0.00    -0.237 OA
ATOM     81  O   UNL     1      -3.821  -1.357  -8.815  1.00  0.00    -0.744 OA
ENDBRANCH  75  78
ENDBRANCH  47  71
BRANCH  59  82
ATOM     82  C   UNL     1      -1.570 -11.308 -11.103  1.00  0.00     0.023 A 
ATOM     83  C   UNL     1      -0.322 -10.770 -11.473  1.00  0.00     0.012 A 
ATOM     84  C   UNL     1      -2.087 -12.409 -11.815  1.00  0.00     0.148 A 
ATOM     85  C   UNL     1       0.389 -11.302 -12.548  1.00  0.00     0.002 A 
ATOM     86  C   UNL     1      -1.351 -12.965 -12.854  1.00  0.00     0.091 A 
ATOM     87  F   UNL     1      -3.285 -12.895 -11.458  1.00  0.00    -0.205 F 
ATOM     88  C   UNL     1      -0.118 -12.406 -13.230  1.00  0.00     0.022 A 
BRANCH  86  89
ATOM     89  S   UNL     1      -1.876 -14.444 -13.729  1.00  0.00     0.127 S 
ATOM     90  O   UNL     1      -2.191 -13.911 -15.053  1.00  0.00    -0.237 OA
ATOM     91  O   UNL     1      -0.674 -15.277 -13.676  1.00  0.00    -0.237 OA
ATOM     92  O   UNL     1      -3.011 -14.971 -12.985  1.00  0.00    -0.744 OA
ENDBRANCH  86  89
ENDBRANCH  59  82
ENDBRANCH  33  34
ENDBRANCH  25  28
ENDBRANCH  23  24
ENDBRANCH  22  23
ENDBRANCH  21  22
ENDBRANCH   1  21
TORSDOF 22
