REMARK SMILES CC(C)c1ccc(NC(=O)C(=O)N/N=C/c2ccccc2C(=O)NCCCCCCNC(=O)c2ccc(-c3c4nc(c(-c5cccc(S(=O)(=O)[O-])c5F)c5ccc([nH]5)c(-c5cccc(S(=O)(=O)[O-])c5F)c5nc(c(-c6cccc(S(=O)(=O)[O-])c6F)c6ccc3[nH]6)C=C5)C=C4)cc2)cc1
REMARK SMILES IDX 26 1 25 2 24 3 22 4 23 5 21 7 16 8 17 9 18 10 20 11 19 12
REMARK SMILES IDX 15 13 14 14 13 15 11 16 12 17 9 19 8 20 10 22 7 23 4 24 5 25
REMARK SMILES IDX 98 26 6 27 97 28 2 29 1 30 3 31 27 32 28 33 29 34 30 35
REMARK SMILES IDX 31 36 32 37 33 39 34 40 35 41 96 42 36 43 95 44 37 45 38 46
REMARK SMILES IDX 39 47 89 48 40 49 94 50 88 51 90 52 41 53 93 54 87 55 86 56
REMARK SMILES IDX 42 58 74 59 54 60 73 61 55 62 58 63 72 64 91 65 56 66 57 67
REMARK SMILES IDX 71 69 92 70 59 71 43 72 44 73 52 74 45 75 47 76 53 77 46 78
REMARK SMILES IDX 48 79 49 80 50 81 51 82 75 83 76 84 84 85 77 86 79 87 85 88
REMARK SMILES IDX 78 89 80 90 81 91 82 92 83 93 60 94 61 95 69 96 62 97 64 98
REMARK SMILES IDX 70 99 63 100 65 101 66 102 67 103 68 104
REMARK H PARENT 24 6 13 18 8 21 31 38 90 57 58 68
REMARK Flexibility Score: inf
ROOT
ATOM      1  C   UNL     1      -6.050   2.832  -1.237  1.00  0.00     0.021 C 
ENDROOT
BRANCH   1   2
ATOM      2  C   UNL     1      -7.140   2.878  -0.163  1.00  0.00     0.116 C 
BRANCH   2   3
ATOM      3  N   UNL     1      -8.251   3.761  -0.411  1.00  0.00    -0.352 N 
ATOM      4  C   UNL     1      -9.577   3.705  -0.057  1.00  0.00     0.251 C 
ATOM      5  O   UNL     1     -10.247   4.675  -0.441  1.00  0.00    -0.269 OA
ATOM      6  H   UNL     1      -8.013   4.559  -0.936  1.00  0.00     0.163 HD
BRANCH   4   7
ATOM      7  C   UNL     1     -10.317   2.618   0.685  1.00  0.00     0.048 A 
ATOM      8  C   UNL     1      -9.884   1.679   1.630  1.00  0.00     0.007 A 
ATOM      9  C   UNL     1     -10.793   0.795   2.265  1.00  0.00     0.010 A 
ATOM     10  C   UNL     1     -12.152   0.824   1.976  1.00  0.00     0.001 A 
ATOM     11  C   UNL     1     -11.714   2.608   0.415  1.00  0.00     0.014 A 
ATOM     12  C   UNL     1     -12.614   1.729   1.038  1.00  0.00     0.001 A 
BRANCH   8  13
ATOM     13  C   UNL     1      -8.510   1.292   1.929  1.00  0.00     0.142 C 
ATOM     14  N   UNL     1      -7.785   1.784   2.886  1.00  0.00    -0.180 NA
BRANCH  14  15
ATOM     15  N   UNL     1      -6.568   1.133   3.092  1.00  0.00    -0.239 N 
ATOM     16  C   UNL     1      -5.948   0.353   2.117  1.00  0.00     0.329 C 
ATOM     17  O   UNL     1      -5.743   0.739   0.972  1.00  0.00    -0.262 OA
ATOM     18  H   UNL     1      -6.127   1.228   3.967  1.00  0.00     0.194 HD
BRANCH  16  19
ATOM     19  C   UNL     1      -5.859  -1.133   2.444  1.00  0.00     0.315 C 
ATOM     20  N   UNL     1      -4.889  -1.976   1.952  1.00  0.00    -0.318 N 
ATOM     21  H   UNL     1      -5.049  -2.912   2.210  1.00  0.00     0.170 HD
ATOM     22  O   UNL     1      -6.795  -1.612   3.089  1.00  0.00    -0.263 OA
BRANCH  20  23
ATOM     23  C   UNL     1      -3.727  -1.834   1.173  1.00  0.00     0.041 A 
ATOM     24  C   UNL     1      -1.314  -1.776  -0.343  1.00  0.00    -0.045 A 
ATOM     25  C   UNL     1      -2.037  -0.614  -0.085  1.00  0.00     0.006 A 
ATOM     26  C   UNL     1      -1.820  -2.979   0.164  1.00  0.00     0.006 A 
ATOM     27  C   UNL     1      -3.213  -0.646   0.679  1.00  0.00     0.026 A 
ATOM     28  C   UNL     1      -3.014  -3.007   0.898  1.00  0.00     0.026 A 
BRANCH  24  29
ATOM     29  C   UNL     1       0.040  -1.751  -1.027  1.00  0.00     0.013 C 
ATOM     30  C   UNL     1       0.195  -0.713  -2.141  1.00  0.00     0.012 C 
ATOM     31  C   UNL     1       1.115  -1.508   0.022  1.00  0.00     0.012 C 
ENDBRANCH  24  29
ENDBRANCH  20  23
ENDBRANCH  16  19
ENDBRANCH  14  15
ENDBRANCH   8  13
ENDBRANCH   4   7
ENDBRANCH   2   3
ENDBRANCH   1   2
BRANCH   1  32
ATOM     32  C   UNL     1      -4.944   3.894  -1.316  1.00  0.00     0.002 C 
BRANCH  32  33
ATOM     33  C   UNL     1      -4.449   4.663  -0.086  1.00  0.00     0.002 C 
BRANCH  33  34
ATOM     34  C   UNL     1      -3.897   3.921   1.137  1.00  0.00     0.021 C 
BRANCH  34  35
ATOM     35  C   UNL     1      -2.739   2.933   0.958  1.00  0.00     0.116 C 
BRANCH  35  36
ATOM     36  N   UNL     1      -1.435   3.542   0.750  1.00  0.00    -0.352 N 
ATOM     37  C   UNL     1      -0.140   3.234   1.117  1.00  0.00     0.251 C 
ATOM     38  H   UNL     1      -1.488   4.371   0.223  1.00  0.00     0.163 HD
ATOM     39  O   UNL     1       0.721   4.005   0.673  1.00  0.00    -0.269 OA
BRANCH  37  40
ATOM     40  C   UNL     1       0.332   2.077   1.964  1.00  0.00     0.039 A 
ATOM     41  C   UNL     1       1.705   2.047   2.307  1.00  0.00     0.014 A 
ATOM     42  C   UNL     1      -0.439   1.009   2.414  1.00  0.00     0.014 A 
ATOM     43  C   UNL     1       2.277   0.996   3.055  1.00  0.00     0.010 A 
ATOM     44  C   UNL     1       0.129  -0.056   3.145  1.00  0.00     0.010 A 
ATOM     45  C   UNL     1       1.492  -0.080   3.473  1.00  0.00    -0.014 A 
BRANCH  45  46
ATOM     46  C   UNL     1       2.009  -1.158   4.365  1.00  0.00     0.031 A 
ATOM     47  C   UNL     1       2.636  -2.421   3.837  1.00  0.00     0.074 A 
ATOM     48  C   UNL     1       1.761  -1.050   5.683  1.00  0.00     0.049 A 
ATOM     49  N   UNL     1       2.825  -3.574   4.429  1.00  0.00    -0.248 NA
ATOM     50  C   UNL     1       3.067  -2.402   2.440  1.00  0.00     0.031 C 
ATOM     51  C   UNL     1       1.124   0.102   6.320  1.00  0.00     0.029 A 
ATOM     52  N   UNL     1       1.962  -1.938   6.707  1.00  0.00    -0.354 N 
ATOM     53  C   UNL     1       3.281  -4.449   3.443  1.00  0.00     0.074 A 
ATOM     54  C   UNL     1       3.329  -3.684   2.214  1.00  0.00     0.031 C 
ATOM     55  C   UNL     1       0.930  -0.172   7.618  1.00  0.00     0.029 A 
ATOM     56  C   UNL     1       1.435  -1.513   7.902  1.00  0.00     0.049 A 
ATOM     57  H   UNL     1       2.436  -2.794   6.598  1.00  0.00     0.167 HD
ATOM     58  C   UNL     1       3.663  -5.748   3.564  1.00  0.00     0.034 A 
ATOM     59  C   UNL     1       1.367  -2.131   9.096  1.00  0.00     0.034 A 
ATOM     60  C   UNL     1       3.823  -6.407   4.840  1.00  0.00     0.049 A 
ATOM     61  C   UNL     1       2.013  -3.476   9.254  1.00  0.00     0.074 A 
ATOM     62  C   UNL     1       4.391  -7.642   5.108  1.00  0.00     0.029 A 
ATOM     63  N   UNL     1       3.476  -5.858   6.065  1.00  0.00    -0.354 N 
ATOM     64  N   UNL     1       2.514  -4.258   8.329  1.00  0.00    -0.248 NA
ATOM     65  C   UNL     1       2.155  -3.991  10.622  1.00  0.00     0.031 C 
ATOM     66  C   UNL     1       4.412  -7.826   6.495  1.00  0.00     0.029 A 
ATOM     67  C   UNL     1       3.856  -6.706   7.092  1.00  0.00     0.049 A 
ATOM     68  H   UNL     1       3.025  -4.991   6.188  1.00  0.00     0.167 HD
ATOM     69  C   UNL     1       3.068  -5.338   9.003  1.00  0.00     0.074 A 
ATOM     70  C   UNL     1       2.853  -5.101  10.417  1.00  0.00     0.031 C 
ATOM     71  C   UNL     1       3.689  -6.432   8.496  1.00  0.00     0.034 A 
BRANCH  58  72
ATOM     72  C   UNL     1       4.058  -6.528   2.324  1.00  0.00     0.023 A 
ATOM     73  C   UNL     1       5.220  -6.172   1.610  1.00  0.00     0.012 A 
ATOM     74  C   UNL     1       3.354  -7.692   1.936  1.00  0.00     0.148 A 
ATOM     75  C   UNL     1       5.646  -6.920   0.511  1.00  0.00     0.002 A 
ATOM     76  C   UNL     1       3.819  -8.467   0.874  1.00  0.00     0.091 A 
ATOM     77  F   UNL     1       2.247  -8.029   2.614  1.00  0.00    -0.205 F 
ATOM     78  C   UNL     1       4.955  -8.073   0.152  1.00  0.00     0.022 A 
BRANCH  76  79
ATOM     79  S   UNL     1       3.068 -10.038   0.415  1.00  0.00     0.127 S 
ATOM     80  O   UNL     1       2.380  -9.681  -0.830  1.00  0.00    -0.237 OA
ATOM     81  O   UNL     1       4.242 -10.899   0.228  1.00  0.00    -0.237 OA
ATOM     82  O   UNL     1       2.213 -10.414   1.520  1.00  0.00    -0.744 OA
ENDBRANCH  76  79
ENDBRANCH  58  72
BRANCH  59  83
ATOM     83  C   UNL     1       0.785  -1.389  10.244  1.00  0.00     0.023 A 
ATOM     84  C   UNL     1       1.653  -0.784  11.172  1.00  0.00     0.012 A 
ATOM     85  C   UNL     1      -0.600  -1.154  10.337  1.00  0.00     0.148 A 
ATOM     86  C   UNL     1       1.152   0.037  12.181  1.00  0.00     0.002 A 
ATOM     87  C   UNL     1      -1.088  -0.292  11.312  1.00  0.00     0.091 A 
ATOM     88  F   UNL     1      -1.408  -1.744   9.444  1.00  0.00    -0.205 F 
ATOM     89  C   UNL     1      -0.215   0.296  12.242  1.00  0.00     0.022 A 
BRANCH  87  90
ATOM     90  S   UNL     1      -2.810   0.222  11.352  1.00  0.00     0.127 S 
ATOM     91  O   UNL     1      -3.341  -0.594  12.440  1.00  0.00    -0.237 OA
ATOM     92  O   UNL     1      -2.699   1.651  11.649  1.00  0.00    -0.237 OA
ATOM     93  O   UNL     1      -3.329  -0.069  10.022  1.00  0.00    -0.744 OA
ENDBRANCH  87  90
ENDBRANCH  59  83
BRANCH  71  94
ATOM     94  C   UNL     1       4.214  -7.446   9.476  1.00  0.00     0.023 A 
ATOM     95  C   UNL     1       3.314  -8.306  10.135  1.00  0.00     0.012 A 
ATOM     96  C   UNL     1       5.598  -7.587   9.700  1.00  0.00     0.148 A 
ATOM     97  C   UNL     1       3.781  -9.270  11.028  1.00  0.00     0.002 A 
ATOM     98  C   UNL     1       6.059  -8.575  10.562  1.00  0.00     0.091 A 
ATOM     99  F   UNL     1       6.437  -6.745   9.078  1.00  0.00    -0.205 F 
ATOM    100  C   UNL     1       5.151  -9.410  11.234  1.00  0.00     0.022 A 
BRANCH  98 101
ATOM    101  S   UNL     1       7.809  -8.880  10.827  1.00  0.00     0.127 S 
ATOM    102  O   UNL     1       8.019  -8.286  12.146  1.00  0.00    -0.237 OA
ATOM    103  O   UNL     1       7.881 -10.341  10.798  1.00  0.00    -0.237 OA
ATOM    104  O   UNL     1       8.499  -8.222   9.725  1.00  0.00    -0.744 OA
ENDBRANCH  98 101
ENDBRANCH  71  94
ENDBRANCH  45  46
ENDBRANCH  37  40
ENDBRANCH  35  36
ENDBRANCH  34  35
ENDBRANCH  33  34
ENDBRANCH  32  33
ENDBRANCH   1  32
TORSDOF 21
