REMARK SMILES CSc1ccc(C[C@H]([NH3+])C(=O)NCCCCCCNC(=O)c2ccc(-c3c4nc(c(-c5cccc(S(=O)(=O)[O-])c5F)c5ccc([nH]5)c(-c5cccc(S(=O)(=O)[O-])c5F)c5nc(c(-c6cccc(S(=O)(=O)[O-])c6F)c6ccc3[nH]6)C=C5)C=C4)cc2)cc1
REMARK SMILES IDX 15 1 14 2 13 3 12 4 10 5 11 6 8 8 7 9 6 10 3 11 4 12 86 13
REMARK SMILES IDX 5 14 85 15 2 16 1 17 9 18 16 22 17 23 18 24 19 25 20 26
REMARK SMILES IDX 21 28 22 29 23 30 84 31 24 32 83 33 25 34 26 35 27 36 77 37
REMARK SMILES IDX 28 38 82 39 76 40 78 41 29 42 81 43 75 44 74 45 30 47 62 48
REMARK SMILES IDX 42 49 61 50 43 51 46 52 60 53 79 54 44 55 45 56 59 58 80 59
REMARK SMILES IDX 47 60 31 61 32 62 40 63 33 64 35 65 41 66 34 67 36 68 37 69
REMARK SMILES IDX 38 70 39 71 63 72 64 73 72 74 65 75 67 76 73 77 66 78 68 79
REMARK SMILES IDX 69 80 70 81 71 82 48 83 49 84 57 85 50 86 52 87 58 88 51 89
REMARK SMILES IDX 53 90 54 91 55 92 56 93
REMARK H PARENT 12 7 9 19 9 20 9 21 19 27 78 46 46 57
REMARK Flexibility Score: inf
ROOT
ATOM      1  C   UNL     1       3.464   8.747  -7.085  1.00  0.00     0.002 C 
ENDROOT
BRANCH   1   2
ATOM      2  C   UNL     1       2.918   7.484  -6.409  1.00  0.00     0.021 C 
BRANCH   2   3
ATOM      3  C   UNL     1       3.783   6.947  -5.271  1.00  0.00     0.116 C 
BRANCH   3   4
ATOM      4  N   UNL     1       3.829   7.880  -4.159  1.00  0.00    -0.351 N 
ATOM      5  C   UNL     1       3.622   7.665  -2.830  1.00  0.00     0.278 C 
ATOM      6  O   UNL     1       3.609   8.652  -2.086  1.00  0.00    -0.268 OA
ATOM      7  H   UNL     1       4.041   8.810  -4.403  1.00  0.00     0.163 HD
BRANCH   5   8
ATOM      8  C   UNL     1       3.422   6.246  -2.259  1.00  0.00     0.275 C 
BRANCH   8   9
ATOM      9  C   UNL     1       4.632   5.317  -2.487  1.00  0.00     0.111 C 
BRANCH   9  10
ATOM     10  C   UNL     1       5.865   5.666  -1.677  1.00  0.00    -0.041 A 
ATOM     11  C   UNL     1       8.186   6.268  -0.194  1.00  0.00     0.007 A 
ATOM     12  C   UNL     1       7.715   7.162  -1.153  1.00  0.00     0.015 A 
ATOM     13  C   UNL     1       7.514   5.061   0.008  1.00  0.00     0.015 A 
ATOM     14  C   UNL     1       6.571   6.858  -1.896  1.00  0.00     0.005 A 
ATOM     15  C   UNL     1       6.360   4.765  -0.725  1.00  0.00     0.005 A 
BRANCH  11  16
ATOM     16  S   UNL     1       9.642   6.657   0.756  1.00  0.00    -0.130 SA
ATOM     17  C   UNL     1       8.835   7.507   2.135  1.00  0.00     0.091 C 
ENDBRANCH  11  16
ENDBRANCH   9  10
ENDBRANCH   8   9
BRANCH   8  18
ATOM     18  N   UNL     1       2.169   5.673  -2.807  1.00  0.00    -0.347 N 
ATOM     19  H   UNL     1       2.246   5.594  -3.821  1.00  0.00     0.345 HD
ATOM     20  H   UNL     1       1.385   6.283  -2.573  1.00  0.00     0.345 HD
ATOM     21  H   UNL     1       2.013   4.749  -2.405  1.00  0.00     0.345 HD
ENDBRANCH   8  18
ENDBRANCH   5   8
ENDBRANCH   3   4
ENDBRANCH   2   3
ENDBRANCH   1   2
BRANCH   1  22
ATOM     22  C   UNL     1       4.867   8.617  -7.685  1.00  0.00     0.002 C 
BRANCH  22  23
ATOM     23  C   UNL     1       5.049   7.470  -8.681  1.00  0.00     0.021 C 
BRANCH  23  24
ATOM     24  C   UNL     1       4.074   7.476  -9.854  1.00  0.00     0.116 C 
BRANCH  24  25
ATOM     25  N   UNL     1       4.213   8.660 -10.690  1.00  0.00    -0.352 N 
ATOM     26  C   UNL     1       4.263   8.737 -12.061  1.00  0.00     0.251 C 
ATOM     27  H   UNL     1       4.280   9.517 -10.210  1.00  0.00     0.163 HD
ATOM     28  O   UNL     1       4.532   9.800 -12.615  1.00  0.00    -0.269 OA
BRANCH  26  29
ATOM     29  C   UNL     1       4.015   7.521 -12.862  1.00  0.00     0.039 A 
ATOM     30  C   UNL     1       4.921   7.169 -13.866  1.00  0.00     0.014 A 
ATOM     31  C   UNL     1       2.904   6.716 -12.597  1.00  0.00     0.014 A 
ATOM     32  C   UNL     1       4.747   5.971 -14.565  1.00  0.00     0.010 A 
ATOM     33  C   UNL     1       2.770   5.494 -13.248  1.00  0.00     0.010 A 
ATOM     34  C   UNL     1       3.688   5.110 -14.239  1.00  0.00    -0.014 A 
BRANCH  34  35
ATOM     35  C   UNL     1       3.505   3.798 -14.910  1.00  0.00     0.031 A 
ATOM     36  C   UNL     1       2.262   3.543 -15.718  1.00  0.00     0.074 A 
ATOM     37  C   UNL     1       4.389   2.804 -14.694  1.00  0.00     0.049 A 
ATOM     38  N   UNL     1       1.837   2.427 -16.250  1.00  0.00    -0.248 NA
ATOM     39  C   UNL     1       1.361   4.689 -15.928  1.00  0.00     0.031 C 
ATOM     40  C   UNL     1       5.602   2.911 -13.880  1.00  0.00     0.029 A 
ATOM     41  N   UNL     1       4.383   1.495 -15.108  1.00  0.00    -0.354 N 
ATOM     42  C   UNL     1       0.602   2.723 -16.815  1.00  0.00     0.074 A 
ATOM     43  C   UNL     1       0.334   4.118 -16.541  1.00  0.00     0.031 C 
ATOM     44  C   UNL     1       6.215   1.717 -13.845  1.00  0.00     0.029 A 
ATOM     45  C   UNL     1       5.424   0.751 -14.602  1.00  0.00     0.049 A 
ATOM     46  H   UNL     1       3.697   1.123 -15.709  1.00  0.00     0.167 HD
ATOM     47  C   UNL     1      -0.223   1.914 -17.520  1.00  0.00     0.034 A 
ATOM     48  C   UNL     1       5.700  -0.563 -14.719  1.00  0.00     0.034 A 
ATOM     49  C   UNL     1       0.074   0.543 -17.835  1.00  0.00     0.049 A 
ATOM     50  C   UNL     1       4.787  -1.431 -15.543  1.00  0.00     0.074 A 
ATOM     51  C   UNL     1      -0.660  -0.340 -18.607  1.00  0.00     0.029 A 
ATOM     52  N   UNL     1       1.196  -0.143 -17.397  1.00  0.00    -0.354 N 
ATOM     53  N   UNL     1       3.691  -1.101 -16.182  1.00  0.00    -0.248 NA
ATOM     54  C   UNL     1       5.165  -2.844 -15.694  1.00  0.00     0.031 C 
ATOM     55  C   UNL     1       0.013  -1.565 -18.626  1.00  0.00     0.029 A 
ATOM     56  C   UNL     1       1.177  -1.438 -17.885  1.00  0.00     0.049 A 
ATOM     57  H   UNL     1       1.901   0.234 -16.824  1.00  0.00     0.167 HD
ATOM     58  C   UNL     1       3.276  -2.248 -16.848  1.00  0.00     0.074 A 
ATOM     59  C   UNL     1       4.243  -3.282 -16.541  1.00  0.00     0.031 C 
ATOM     60  C   UNL     1       2.188  -2.432 -17.634  1.00  0.00     0.034 A 
BRANCH  47  61
ATOM     61  C   UNL     1      -1.502   2.505 -18.051  1.00  0.00     0.023 A 
ATOM     62  C   UNL     1      -1.451   3.421 -19.121  1.00  0.00     0.012 A 
ATOM     63  C   UNL     1      -2.753   2.111 -17.537  1.00  0.00     0.148 A 
ATOM     64  C   UNL     1      -2.621   3.961 -19.651  1.00  0.00     0.002 A 
ATOM     65  C   UNL     1      -3.918   2.620 -18.100  1.00  0.00     0.091 A 
ATOM     66  F   UNL     1      -2.781   1.256 -16.505  1.00  0.00    -0.205 F 
ATOM     67  C   UNL     1      -3.854   3.553 -19.149  1.00  0.00     0.022 A 
BRANCH  65  68
ATOM     68  S   UNL     1      -5.555   2.096 -17.577  1.00  0.00     0.127 S 
ATOM     69  O   UNL     1      -6.030   3.281 -16.865  1.00  0.00    -0.237 OA
ATOM     70  O   UNL     1      -6.222   1.844 -18.855  1.00  0.00    -0.237 OA
ATOM     71  O   UNL     1      -5.353   0.911 -16.756  1.00  0.00    -0.744 OA
ENDBRANCH  65  68
ENDBRANCH  47  61
BRANCH  48  72
ATOM     72  C   UNL     1       6.932  -1.125 -14.096  1.00  0.00     0.023 A 
ATOM     73  C   UNL     1       7.997  -1.531 -14.923  1.00  0.00     0.012 A 
ATOM     74  C   UNL     1       7.067  -1.238 -12.699  1.00  0.00     0.148 A 
ATOM     75  C   UNL     1       9.161  -2.070 -14.374  1.00  0.00     0.002 A 
ATOM     76  C   UNL     1       8.251  -1.725 -12.155  1.00  0.00     0.091 A 
ATOM     77  F   UNL     1       6.038  -0.858 -11.928  1.00  0.00    -0.205 F 
ATOM     78  C   UNL     1       9.292  -2.157 -12.991  1.00  0.00     0.022 A 
BRANCH  76  79
ATOM     79  S   UNL     1       8.555  -1.754 -10.384  1.00  0.00     0.127 S 
ATOM     80  O   UNL     1       8.457  -3.180 -10.086  1.00  0.00    -0.237 OA
ATOM     81  O   UNL     1       9.905  -1.197 -10.299  1.00  0.00    -0.237 OA
ATOM     82  O   UNL     1       7.523  -0.909  -9.797  1.00  0.00    -0.744 OA
ENDBRANCH  76  79
ENDBRANCH  48  72
BRANCH  60  83
ATOM     83  C   UNL     1       2.002  -3.777 -18.284  1.00  0.00     0.023 A 
ATOM     84  C   UNL     1       1.560  -4.872 -17.518  1.00  0.00     0.012 A 
ATOM     85  C   UNL     1       2.161  -3.920 -19.676  1.00  0.00     0.148 A 
ATOM     86  C   UNL     1       1.296  -6.099 -18.128  1.00  0.00     0.002 A 
ATOM     87  C   UNL     1       1.852  -5.131 -20.283  1.00  0.00     0.091 A 
ATOM     88  F   UNL     1       2.601  -2.868 -20.381  1.00  0.00    -0.205 F 
ATOM     89  C   UNL     1       1.428  -6.224 -19.510  1.00  0.00     0.022 A 
BRANCH  87  90
ATOM     90  S   UNL     1       1.896  -5.354 -22.065  1.00  0.00     0.127 S 
ATOM     91  O   UNL     1       3.058  -6.226 -22.227  1.00  0.00    -0.237 OA
ATOM     92  O   UNL     1       0.609  -5.999 -22.328  1.00  0.00    -0.237 OA
ATOM     93  O   UNL     1       2.032  -4.021 -22.635  1.00  0.00    -0.744 OA
ENDBRANCH  87  90
ENDBRANCH  60  83
ENDBRANCH  34  35
ENDBRANCH  26  29
ENDBRANCH  24  25
ENDBRANCH  23  24
ENDBRANCH  22  23
ENDBRANCH   1  22
TORSDOF 20
