REMARK SMILES CC(C)[C@H]1CC[C@@H](C)C/C1=C(\F)C(=O)NCCCCCCNC(=O)c1ccc(-c2c3nc(c(-c4cccc(S(=O)(=O)[O-])c4F)c4ccc([nH]4)c(-c4cccc(S(=O)(=O)[O-])c4F)c4nc(c(-c5cccc(S(=O)(=O)[O-])c5F)c5ccc2[nH]5)C=C4)C=C3)cc1
REMARK SMILES IDX 19 1 18 2 17 3 16 4 15 5 13 6 14 7 11 9 4 10 5 11 10 12 6 13
REMARK SMILES IDX 9 14 7 15 12 16 8 17 2 18 1 19 3 20 20 21 21 22 22 23 23 24
REMARK SMILES IDX 24 26 25 27 26 28 87 29 27 30 86 31 28 32 29 33 30 34 80 35
REMARK SMILES IDX 31 36 85 37 79 38 81 39 32 40 84 41 78 42 77 43 33 45 65 46
REMARK SMILES IDX 45 47 64 48 46 49 49 50 63 51 82 52 47 53 48 54 62 56 83 57
REMARK SMILES IDX 50 58 34 59 35 60 43 61 36 62 38 63 44 64 37 65 39 66 40 67
REMARK SMILES IDX 41 68 42 69 66 70 67 71 75 72 68 73 70 74 76 75 69 76 71 77
REMARK SMILES IDX 72 78 73 79 74 80 51 81 52 82 60 83 53 84 55 85 61 86 54 87
REMARK SMILES IDX 56 88 57 89 58 90 59 91
REMARK H PARENT 15 8 22 25 81 44 49 55
REMARK Flexibility Score: inf
ROOT
ATOM      1  C   UNL     1      -5.469   6.523  -2.219  1.00  0.00     0.002 C 
ENDROOT
BRANCH   1   2
ATOM      2  C   UNL     1      -6.027   5.097  -2.179  1.00  0.00     0.002 C 
BRANCH   2   3
ATOM      3  C   UNL     1      -5.539   4.190  -3.321  1.00  0.00     0.021 C 
BRANCH   3   4
ATOM      4  C   UNL     1      -4.017   4.028  -3.357  1.00  0.00     0.116 C 
BRANCH   4   5
ATOM      5  N   UNL     1      -3.602   3.373  -2.131  1.00  0.00    -0.350 N 
ATOM      6  C   UNL     1      -3.380   2.045  -1.930  1.00  0.00     0.279 C 
ATOM      7  O   UNL     1      -3.720   1.537  -0.865  1.00  0.00    -0.267 OA
ATOM      8  H   UNL     1      -3.463   3.959  -1.352  1.00  0.00     0.163 HD
BRANCH   6   9
ATOM      9  C   UNL     1      -2.643   1.294  -2.973  1.00  0.00     0.187 C 
ATOM     10  C   UNL     1      -0.913  -0.022  -1.498  1.00  0.00     0.021 C 
ATOM     11  C   UNL     1      -1.403  -1.477  -1.272  1.00  0.00     0.009 C 
ATOM     12  C   UNL     1      -1.627   0.431  -2.780  1.00  0.00    -0.025 C 
ATOM     13  C   UNL     1      -1.086  -2.391  -2.466  1.00  0.00     0.004 C 
ATOM     14  C   UNL     1      -1.149  -0.373  -3.982  1.00  0.00     0.038 C 
ATOM     15  C   UNL     1      -1.567  -1.843  -3.819  1.00  0.00    -0.010 C 
ATOM     16  F   UNL     1      -3.131   1.452  -4.224  1.00  0.00    -0.201 F 
ATOM     17  C   UNL     1      -3.081  -2.026  -3.993  1.00  0.00     0.008 C 
BRANCH  10  18
ATOM     18  C   UNL     1      -0.941   0.817  -0.178  1.00  0.00    -0.010 C 
ATOM     19  C   UNL     1       0.009   0.242   0.891  1.00  0.00     0.008 C 
ATOM     20  C   UNL     1      -0.527   2.283  -0.372  1.00  0.00     0.008 C 
ENDBRANCH  10  18
ENDBRANCH   6   9
ENDBRANCH   4   5
ENDBRANCH   3   4
ENDBRANCH   2   3
ENDBRANCH   1   2
BRANCH   1  21
ATOM     21  C   UNL     1      -5.718   7.259  -3.536  1.00  0.00     0.021 C 
BRANCH  21  22
ATOM     22  C   UNL     1      -7.183   7.315  -3.949  1.00  0.00     0.116 C 
BRANCH  22  23
ATOM     23  N   UNL     1      -7.988   8.069  -3.001  1.00  0.00    -0.352 N 
ATOM     24  C   UNL     1      -8.886   9.079  -3.256  1.00  0.00     0.251 C 
ATOM     25  H   UNL     1      -7.876   7.824  -2.054  1.00  0.00     0.163 HD
ATOM     26  O   UNL     1      -9.351   9.744  -2.346  1.00  0.00    -0.269 OA
BRANCH  24  27
ATOM     27  C   UNL     1      -9.257   9.358  -4.661  1.00  0.00     0.039 A 
ATOM     28  C   UNL     1      -9.193  10.672  -5.129  1.00  0.00     0.014 A 
ATOM     29  C   UNL     1      -9.623   8.316  -5.516  1.00  0.00     0.014 A 
ATOM     30  C   UNL     1      -9.440  10.932  -6.478  1.00  0.00     0.010 A 
ATOM     31  C   UNL     1      -9.796   8.568  -6.872  1.00  0.00     0.010 A 
ATOM     32  C   UNL     1      -9.710   9.878  -7.367  1.00  0.00    -0.014 A 
BRANCH  32  33
ATOM     33  C   UNL     1      -9.890  10.120  -8.821  1.00  0.00     0.031 A 
ATOM     34  C   UNL     1     -11.201   9.796  -9.483  1.00  0.00     0.074 A 
ATOM     35  C   UNL     1      -8.843  10.538  -9.560  1.00  0.00     0.049 A 
ATOM     36  N   UNL     1     -11.524   9.867 -10.748  1.00  0.00    -0.248 NA
ATOM     37  C   UNL     1     -12.283   9.304  -8.615  1.00  0.00     0.031 C 
ATOM     38  C   UNL     1      -7.499  10.812  -9.046  1.00  0.00     0.029 A 
ATOM     39  N   UNL     1      -8.736  10.775 -10.908  1.00  0.00    -0.354 N 
ATOM     40  C   UNL     1     -12.828   9.395 -10.834  1.00  0.00     0.074 A 
ATOM     41  C   UNL     1     -13.227   9.010  -9.498  1.00  0.00     0.031 C 
ATOM     42  C   UNL     1      -6.705  11.179 -10.064  1.00  0.00     0.029 A 
ATOM     43  C   UNL     1      -7.469  11.134 -11.306  1.00  0.00     0.049 A 
ATOM     44  H   UNL     1      -9.495  10.696 -11.531  1.00  0.00     0.167 HD
ATOM     45  C   UNL     1     -13.631   9.314 -11.921  1.00  0.00     0.034 A 
ATOM     46  C   UNL     1      -6.975  11.386 -12.534  1.00  0.00     0.034 A 
ATOM     47  C   UNL     1     -13.243   9.735 -13.241  1.00  0.00     0.049 A 
ATOM     48  C   UNL     1      -7.897  11.316 -13.722  1.00  0.00     0.074 A 
ATOM     49  C   UNL     1     -14.014   9.779 -14.389  1.00  0.00     0.029 A 
ATOM     50  N   UNL     1     -11.976  10.172 -13.592  1.00  0.00    -0.354 N 
ATOM     51  N   UNL     1      -9.174  11.022 -13.758  1.00  0.00    -0.248 NA
ATOM     52  C   UNL     1      -7.320  11.645 -15.033  1.00  0.00     0.031 C 
ATOM     53  C   UNL     1     -13.203  10.216 -15.441  1.00  0.00     0.029 A 
ATOM     54  C   UNL     1     -11.937  10.475 -14.942  1.00  0.00     0.049 A 
ATOM     55  H   UNL     1     -11.215  10.255 -12.972  1.00  0.00     0.167 HD
ATOM     56  C   UNL     1      -9.561  11.165 -15.086  1.00  0.00     0.074 A 
ATOM     57  C   UNL     1      -8.387  11.591 -15.819  1.00  0.00     0.031 C 
ATOM     58  C   UNL     1     -10.775  10.949 -15.649  1.00  0.00     0.034 A 
BRANCH  45  59
ATOM     59  C   UNL     1     -15.030   8.793 -11.722  1.00  0.00     0.023 A 
ATOM     60  C   UNL     1     -15.976   9.582 -11.034  1.00  0.00     0.012 A 
ATOM     61  C   UNL     1     -15.428   7.556 -12.264  1.00  0.00     0.148 A 
ATOM     62  C   UNL     1     -17.284   9.133 -10.858  1.00  0.00     0.002 A 
ATOM     63  C   UNL     1     -16.746   7.135 -12.126  1.00  0.00     0.091 A 
ATOM     64  F   UNL     1     -14.511   6.810 -12.897  1.00  0.00    -0.205 F 
ATOM     65  C   UNL     1     -17.671   7.916 -11.413  1.00  0.00     0.022 A 
BRANCH  63  66
ATOM     66  S   UNL     1     -17.365   5.623 -12.871  1.00  0.00     0.127 S 
ATOM     67  O   UNL     1     -17.583   4.782 -11.695  1.00  0.00    -0.237 OA
ATOM     68  O   UNL     1     -18.589   6.083 -13.527  1.00  0.00    -0.237 OA
ATOM     69  O   UNL     1     -16.323   5.167 -13.781  1.00  0.00    -0.744 OA
ENDBRANCH  63  66
ENDBRANCH  45  59
BRANCH  46  70
ATOM     70  C   UNL     1      -5.547  11.782 -12.697  1.00  0.00     0.023 A 
ATOM     71  C   UNL     1      -5.234  13.102 -13.074  1.00  0.00     0.012 A 
ATOM     72  C   UNL     1      -4.501  10.870 -12.455  1.00  0.00     0.148 A 
ATOM     73  C   UNL     1      -3.907  13.498 -13.242  1.00  0.00     0.002 A 
ATOM     74  C   UNL     1      -3.180  11.287 -12.569  1.00  0.00     0.091 A 
ATOM     75  F   UNL     1      -4.820   9.616 -12.107  1.00  0.00    -0.205 F 
ATOM     76  C   UNL     1      -2.881  12.595 -12.980  1.00  0.00     0.022 A 
BRANCH  74  77
ATOM     77  S   UNL     1      -1.796  10.232 -12.124  1.00  0.00     0.127 S 
ATOM     78  O   UNL     1      -1.199   9.956 -13.428  1.00  0.00    -0.237 OA
ATOM     79  O   UNL     1      -1.010  11.115 -11.260  1.00  0.00    -0.237 OA
ATOM     80  O   UNL     1      -2.378   9.087 -11.438  1.00  0.00    -0.744 OA
ENDBRANCH  74  77
ENDBRANCH  46  70
BRANCH  58  81
ATOM     81  C   UNL     1     -10.918  11.204 -17.127  1.00  0.00     0.023 A 
ATOM     82  C   UNL     1     -10.337  10.315 -18.053  1.00  0.00     0.012 A 
ATOM     83  C   UNL     1     -11.699  12.279 -17.597  1.00  0.00     0.148 A 
ATOM     84  C   UNL     1     -10.507  10.508 -19.423  1.00  0.00     0.002 A 
ATOM     85  C   UNL     1     -11.906  12.436 -18.962  1.00  0.00     0.091 A 
ATOM     86  F   UNL     1     -12.229  13.123 -16.700  1.00  0.00    -0.205 F 
ATOM     87  C   UNL     1     -11.301  11.559 -19.877  1.00  0.00     0.022 A 
BRANCH  85  88
ATOM     88  S   UNL     1     -12.991  13.700 -19.634  1.00  0.00     0.127 S 
ATOM     89  O   UNL     1     -12.035  14.606 -20.268  1.00  0.00    -0.237 OA
ATOM     90  O   UNL     1     -13.817  12.933 -20.567  1.00  0.00    -0.237 OA
ATOM     91  O   UNL     1     -13.716  14.254 -18.499  1.00  0.00    -0.744 OA
ENDBRANCH  85  88
ENDBRANCH  58  81
ENDBRANCH  32  33
ENDBRANCH  24  27
ENDBRANCH  22  23
ENDBRANCH  21  22
ENDBRANCH   1  21
TORSDOF 17
