REMARK SMILES [NH3+]CCOCC(=O)Nc1ccc(C(=O)NCCCCCCNC(=O)c2ccc(-c3c4nc(c(-c5cccc(S(=O)(=O)[O-])c5F)c5ccc([nH]5)c(-c5cccc(S(=O)(=O)[O-])c5F)c5nc(c(-c6cccc(S(=O)(=O)[O-])c6F)c6ccc3[nH]6)C=C5)C=C4)cc2)c(Cl)c1
REMARK SMILES IDX 17 1 16 2 15 3 13 4 14 5 12 7 9 8 10 9 90 10 11 11 88 12
REMARK SMILES IDX 89 13 8 14 6 15 7 16 5 18 4 19 3 20 2 21 1 22 18 26 19 27
REMARK SMILES IDX 20 28 21 29 22 30 23 31 24 33 25 34 26 35 87 36 27 37 86 38
REMARK SMILES IDX 28 39 29 40 30 41 80 42 31 43 85 44 79 45 81 46 32 47 84 48
REMARK SMILES IDX 78 49 77 50 33 52 65 53 45 54 64 55 46 56 49 57 63 58 82 59
REMARK SMILES IDX 47 60 48 61 62 63 83 64 50 65 34 66 35 67 43 68 36 69 38 70
REMARK SMILES IDX 44 71 37 72 39 73 40 74 41 75 42 76 66 77 67 78 75 79 68 80
REMARK SMILES IDX 70 81 76 82 69 83 71 84 72 85 73 86 74 87 51 88 52 89 60 90
REMARK SMILES IDX 53 91 55 92 61 93 54 94 56 95 57 96 58 97 59 98
REMARK H PARENT 15 6 8 17 1 23 1 24 1 25 22 32 81 51 49 62
REMARK Flexibility Score: inf
ROOT
ATOM      1  C   UNL     1       1.215  10.396  -2.439  1.00  0.00     0.021 C 
ENDROOT
BRANCH   1   2
ATOM      2  C   UNL     1       1.726  10.044  -1.036  1.00  0.00     0.116 C 
BRANCH   2   3
ATOM      3  N   UNL     1       0.661   9.390  -0.313  1.00  0.00    -0.352 N 
ATOM      4  C   UNL     1       0.370   8.081  -0.068  1.00  0.00     0.252 C 
ATOM      5  O   UNL     1      -0.739   7.861   0.430  1.00  0.00    -0.269 OA
ATOM      6  H   UNL     1       0.013  10.017   0.083  1.00  0.00     0.163 HD
BRANCH   4   7
ATOM      7  C   UNL     1       1.307   6.932  -0.226  1.00  0.00     0.058 A 
ATOM      8  C   UNL     1       2.699   4.475  -0.291  1.00  0.00     0.042 A 
ATOM      9  C   UNL     1       1.796   4.730   0.731  1.00  0.00     0.027 A 
ATOM     10  C   UNL     1       2.984   5.463  -1.222  1.00  0.00     0.047 A 
ATOM     11  C   UNL     1       1.136   5.956   0.779  1.00  0.00     0.017 A 
ATOM     12  C   UNL     1       2.217   6.641  -1.254  1.00  0.00     0.055 A 
ATOM     13  Cl  UNL     1       2.325   7.465  -2.763  1.00  0.00    -0.083 Cl
BRANCH   8  14
ATOM     14  N   UNL     1       3.254   3.208  -0.489  1.00  0.00    -0.324 N 
ATOM     15  C   UNL     1       2.552   2.042  -0.668  1.00  0.00     0.250 C 
ATOM     16  O   UNL     1       3.160   0.976  -0.799  1.00  0.00    -0.272 OA
ATOM     17  H   UNL     1       4.237   3.146  -0.501  1.00  0.00     0.170 HD
BRANCH  15  18
ATOM     18  C   UNL     1       1.009   2.086  -0.765  1.00  0.00     0.260 C 
BRANCH  18  19
ATOM     19  O   UNL     1       0.223   2.104   0.411  1.00  0.00    -0.366 OA
BRANCH  19  20
ATOM     20  C   UNL     1       0.713   1.313   1.492  1.00  0.00     0.222 C 
BRANCH  20  21
ATOM     21  C   UNL     1       0.339  -0.171   1.404  1.00  0.00     0.287 C 
BRANCH  21  22
ATOM     22  N   UNL     1       0.974  -0.916   0.318  1.00  0.00    -0.356 N 
ATOM     23  H   UNL     1       0.663  -1.887   0.344  1.00  0.00     0.344 HD
ATOM     24  H   UNL     1       1.988  -0.880   0.428  1.00  0.00     0.344 HD
ATOM     25  H   UNL     1       0.715  -0.500  -0.577  1.00  0.00     0.344 HD
ENDBRANCH  21  22
ENDBRANCH  20  21
ENDBRANCH  19  20
ENDBRANCH  18  19
ENDBRANCH  15  18
ENDBRANCH   8  14
ENDBRANCH   4   7
ENDBRANCH   2   3
ENDBRANCH   1   2
BRANCH   1  26
ATOM     26  C   UNL     1       0.586  11.787  -2.529  1.00  0.00     0.002 C 
BRANCH  26  27
ATOM     27  C   UNL     1       1.568  12.929  -2.252  1.00  0.00     0.002 C 
BRANCH  27  28
ATOM     28  C   UNL     1       2.851  12.881  -3.088  1.00  0.00     0.021 C 
BRANCH  28  29
ATOM     29  C   UNL     1       2.611  12.925  -4.593  1.00  0.00     0.116 C 
BRANCH  29  30
ATOM     30  N   UNL     1       1.935  14.156  -4.978  1.00  0.00    -0.352 N 
ATOM     31  C   UNL     1       2.388  15.167  -5.780  1.00  0.00     0.251 C 
ATOM     32  H   UNL     1       1.029  14.277  -4.611  1.00  0.00     0.163 HD
ATOM     33  O   UNL     1       1.833  16.269  -5.761  1.00  0.00    -0.269 OA
BRANCH  31  34
ATOM     34  C   UNL     1       3.539  14.929  -6.670  1.00  0.00     0.039 A 
ATOM     35  C   UNL     1       4.539  15.897  -6.773  1.00  0.00     0.014 A 
ATOM     36  C   UNL     1       3.617  13.746  -7.412  1.00  0.00     0.014 A 
ATOM     37  C   UNL     1       5.645  15.657  -7.589  1.00  0.00     0.010 A 
ATOM     38  C   UNL     1       4.755  13.477  -8.164  1.00  0.00     0.010 A 
ATOM     39  C   UNL     1       5.773  14.435  -8.271  1.00  0.00    -0.014 A 
BRANCH  39  40
ATOM     40  C   UNL     1       6.968  14.136  -9.098  1.00  0.00     0.031 A 
ATOM     41  C   UNL     1       6.824  13.903 -10.577  1.00  0.00     0.074 A 
ATOM     42  C   UNL     1       8.166  13.987  -8.500  1.00  0.00     0.049 A 
ATOM     43  N   UNL     1       7.738  13.572 -11.451  1.00  0.00    -0.248 NA
ATOM     44  C   UNL     1       5.471  14.030 -11.145  1.00  0.00     0.031 C 
ATOM     45  C   UNL     1       8.414  14.110  -7.061  1.00  0.00     0.029 A 
ATOM     46  N   UNL     1       9.394  13.671  -9.022  1.00  0.00    -0.354 N 
ATOM     47  C   UNL     1       7.070  13.417 -12.659  1.00  0.00     0.074 A 
ATOM     48  C   UNL     1       5.667  13.655 -12.401  1.00  0.00     0.031 C 
ATOM     49  C   UNL     1       9.713  13.876  -6.818  1.00  0.00     0.029 A 
ATOM     50  C   UNL     1      10.383  13.554  -8.073  1.00  0.00     0.049 A 
ATOM     51  H   UNL     1       9.553  13.541  -9.985  1.00  0.00     0.167 HD
ATOM     52  C   UNL     1       7.581  13.130 -13.880  1.00  0.00     0.034 A 
ATOM     53  C   UNL     1      11.680  13.214  -8.200  1.00  0.00     0.034 A 
ATOM     54  C   UNL     1       8.982  12.932 -14.136  1.00  0.00     0.049 A 
ATOM     55  C   UNL     1      12.229  12.932  -9.572  1.00  0.00     0.074 A 
ATOM     56  C   UNL     1       9.613  12.726 -15.350  1.00  0.00     0.029 A 
ATOM     57  N   UNL     1       9.968  12.902 -13.162  1.00  0.00    -0.354 N 
ATOM     58  N   UNL     1      11.610  12.949 -10.727  1.00  0.00    -0.248 NA
ATOM     59  C   UNL     1      13.662  12.620  -9.663  1.00  0.00     0.031 C 
ATOM     60  C   UNL     1      10.978  12.540 -15.105  1.00  0.00     0.029 A 
ATOM     61  C   UNL     1      11.201  12.667 -13.744  1.00  0.00     0.049 A 
ATOM     62  H   UNL     1       9.813  13.030 -12.198  1.00  0.00     0.167 HD
ATOM     63  C   UNL     1      12.582  12.686 -11.685  1.00  0.00     0.074 A 
ATOM     64  C   UNL     1      13.836  12.535 -10.975  1.00  0.00     0.031 C 
ATOM     65  C   UNL     1      12.448  12.567 -13.029  1.00  0.00     0.034 A 
BRANCH  52  66
ATOM     66  C   UNL     1       6.625  13.059 -15.043  1.00  0.00     0.023 A 
ATOM     67  C   UNL     1       6.021  14.239 -15.523  1.00  0.00     0.012 A 
ATOM     68  C   UNL     1       6.370  11.837 -15.696  1.00  0.00     0.148 A 
ATOM     69  C   UNL     1       5.150  14.200 -16.611  1.00  0.00     0.002 A 
ATOM     70  C   UNL     1       5.538  11.814 -16.810  1.00  0.00     0.091 A 
ATOM     71  F   UNL     1       6.936  10.723 -15.214  1.00  0.00    -0.205 F 
ATOM     72  C   UNL     1       4.918  12.991 -17.260  1.00  0.00     0.022 A 
BRANCH  70  73
ATOM     73  S   UNL     1       5.239  10.323 -17.766  1.00  0.00     0.127 S 
ATOM     74  O   UNL     1       3.838  10.046 -17.450  1.00  0.00    -0.237 OA
ATOM     75  O   UNL     1       5.476  10.784 -19.135  1.00  0.00    -0.237 OA
ATOM     76  O   UNL     1       6.194   9.336 -17.282  1.00  0.00    -0.744 OA
ENDBRANCH  70  73
ENDBRANCH  52  66
BRANCH  53  77
ATOM     77  C   UNL     1      12.560  13.179  -6.998  1.00  0.00     0.023 A 
ATOM     78  C   UNL     1      13.565  14.154  -6.846  1.00  0.00     0.012 A 
ATOM     79  C   UNL     1      12.392  12.205  -5.995  1.00  0.00     0.148 A 
ATOM     80  C   UNL     1      14.408  14.140  -5.735  1.00  0.00     0.002 A 
ATOM     81  C   UNL     1      13.197  12.230  -4.863  1.00  0.00     0.091 A 
ATOM     82  F   UNL     1      11.435  11.280  -6.162  1.00  0.00    -0.205 F 
ATOM     83  C   UNL     1      14.219  13.185  -4.739  1.00  0.00     0.022 A 
BRANCH  81  84
ATOM     84  S   UNL     1      12.939  11.124  -3.471  1.00  0.00     0.127 S 
ATOM     85  O   UNL     1      14.113  10.259  -3.554  1.00  0.00    -0.237 OA
ATOM     86  O   UNL     1      12.935  12.055  -2.342  1.00  0.00    -0.237 OA
ATOM     87  O   UNL     1      11.658  10.474  -3.716  1.00  0.00    -0.744 OA
ENDBRANCH  81  84
ENDBRANCH  53  77
BRANCH  65  88
ATOM     88  C   UNL     1      13.692  12.297 -13.834  1.00  0.00     0.023 A 
ATOM     89  C   UNL     1      14.305  11.030 -13.778  1.00  0.00     0.012 A 
ATOM     90  C   UNL     1      14.207  13.277 -14.705  1.00  0.00     0.148 A 
ATOM     91  C   UNL     1      15.432  10.753 -14.552  1.00  0.00     0.002 A 
ATOM     92  C   UNL     1      15.298  12.978 -15.512  1.00  0.00     0.091 A 
ATOM     93  F   UNL     1      13.620  14.482 -14.730  1.00  0.00    -0.205 F 
ATOM     94  C   UNL     1      15.920  11.721 -15.427  1.00  0.00     0.022 A 
BRANCH  92  95
ATOM     95  S   UNL     1      15.934  14.125 -16.738  1.00  0.00     0.127 S 
ATOM     96  O   UNL     1      17.213  14.514 -16.147  1.00  0.00    -0.237 OA
ATOM     97  O   UNL     1      16.044  13.278 -17.926  1.00  0.00    -0.237 OA
ATOM     98  O   UNL     1      14.946  15.190 -16.844  1.00  0.00    -0.744 OA
ENDBRANCH  92  95
ENDBRANCH  65  88
ENDBRANCH  39  40
ENDBRANCH  31  34
ENDBRANCH  29  30
ENDBRANCH  28  29
ENDBRANCH  27  28
ENDBRANCH  26  27
ENDBRANCH   1  26
TORSDOF 22
