REMARK SMILES CC(C)[C@@H](C(=O)NCCCCCCNC(=O)c1ccc(-c2c3nc(c(-c4cccc(S(=O)(=O)[O-])c4F)c4ccc([nH]4)c(-c4cccc(S(=O)(=O)[O-])c4F)c4nc(c(-c5cccc(S(=O)(=O)[O-])c5F)c5ccc2[nH]5)C=C4)C=C3)cc1)N1C(=O)c2cccc([N+](=O)[O-])c2C1=O
REMARK SMILES IDX 11 1 10 2 9 3 8 4 7 5 5 6 6 7 4 9 2 10 1 11 3 12 80 13 81 14
REMARK SMILES IDX 92 15 82 16 83 17 91 18 93 19 84 20 87 21 85 22 86 23 88 24
REMARK SMILES IDX 89 25 90 26 12 27 13 28 14 29 15 30 16 32 17 33 18 34 79 35
REMARK SMILES IDX 19 36 78 37 20 38 21 39 22 40 72 41 23 42 77 43 71 44 73 45
REMARK SMILES IDX 24 46 76 47 70 48 69 49 25 51 57 52 37 53 56 54 38 55 41 56
REMARK SMILES IDX 55 57 74 58 39 59 40 60 54 62 75 63 42 64 26 65 27 66 35 67
REMARK SMILES IDX 28 68 30 69 36 70 29 71 31 72 32 73 33 74 34 75 58 76 59 77
REMARK SMILES IDX 67 78 60 79 62 80 68 81 61 82 63 83 64 84 65 85 66 86 43 87
REMARK SMILES IDX 44 88 52 89 45 90 47 91 53 92 46 93 48 94 49 95 50 96 51 97
REMARK H PARENT 7 8 14 31 73 50 41 61
REMARK Flexibility Score: inf
ROOT
ATOM      1  C   UNL     1      -0.627  -3.744  -2.992  1.00  0.00     0.002 C 
ENDROOT
BRANCH   1   2
ATOM      2  C   UNL     1      -0.009  -3.637  -1.597  1.00  0.00     0.002 C 
BRANCH   2   3
ATOM      3  C   UNL     1       0.385  -2.218  -1.173  1.00  0.00     0.021 C 
BRANCH   3   4
ATOM      4  C   UNL     1      -0.798  -1.263  -0.979  1.00  0.00     0.116 C 
BRANCH   4   5
ATOM      5  N   UNL     1      -1.417  -1.512   0.302  1.00  0.00    -0.354 N 
ATOM      6  C   UNL     1      -1.443  -0.835   1.476  1.00  0.00     0.243 C 
ATOM      7  O   UNL     1      -2.075  -1.426   2.368  1.00  0.00    -0.273 OA
ATOM      8  H   UNL     1      -1.930  -2.352   0.328  1.00  0.00     0.163 HD
BRANCH   6   9
ATOM      9  C   UNL     1      -0.897   0.619   1.692  1.00  0.00     0.185 C 
BRANCH   9  10
ATOM     10  C   UNL     1       0.611   1.025   1.587  1.00  0.00     0.015 C 
ATOM     11  C   UNL     1       1.452   0.550   0.418  1.00  0.00     0.010 C 
ATOM     12  C   UNL     1       0.741   2.559   1.660  1.00  0.00     0.010 C 
ENDBRANCH   9  10
BRANCH   9  13
ATOM     13  N   UNL     1      -1.334   0.907   3.090  1.00  0.00    -0.261 N 
ATOM     14  C   UNL     1      -0.671   0.405   4.179  1.00  0.00     0.262 C 
ATOM     15  C   UNL     1      -2.469   1.576   3.470  1.00  0.00     0.269 C 
ATOM     16  O   UNL     1       0.275  -0.348   4.260  1.00  0.00    -0.269 OA
ATOM     17  C   UNL     1      -1.342   0.927   5.350  1.00  0.00     0.060 A 
ATOM     18  C   UNL     1      -2.510   1.549   4.945  1.00  0.00     0.130 A 
ATOM     19  O   UNL     1      -3.250   2.186   2.764  1.00  0.00    -0.268 OA
ATOM     20  C   UNL     1      -0.910   0.848   6.663  1.00  0.00     0.015 A 
ATOM     21  C   UNL     1      -3.361   2.034   5.916  1.00  0.00     0.282 A 
ATOM     22  C   UNL     1      -1.722   1.416   7.636  1.00  0.00     0.008 A 
ATOM     23  C   UNL     1      -2.956   1.983   7.272  1.00  0.00     0.086 A 
BRANCH  21  24
ATOM     24  N   UNL     1      -4.704   2.505   5.615  1.00  0.00     0.063 N 
ATOM     25  O   UNL     1      -5.202   3.320   6.407  1.00  0.00    -0.258 OA
ATOM     26  O   UNL     1      -5.303   1.989   4.668  1.00  0.00    -0.258 OA
ENDBRANCH  21  24
ENDBRANCH   9  13
ENDBRANCH   6   9
ENDBRANCH   4   5
ENDBRANCH   3   4
ENDBRANCH   2   3
ENDBRANCH   1   2
BRANCH   1  27
ATOM     27  C   UNL     1       0.214  -3.136  -4.116  1.00  0.00     0.021 C 
BRANCH  27  28
ATOM     28  C   UNL     1       1.628  -3.696  -4.220  1.00  0.00     0.116 C 
BRANCH  28  29
ATOM     29  N   UNL     1       1.626  -5.119  -4.535  1.00  0.00    -0.352 N 
ATOM     30  C   UNL     1       2.152  -5.753  -5.634  1.00  0.00     0.251 C 
ATOM     31  H   UNL     1       1.190  -5.702  -3.873  1.00  0.00     0.163 HD
ATOM     32  O   UNL     1       1.873  -6.924  -5.873  1.00  0.00    -0.269 OA
BRANCH  30  33
ATOM     33  C   UNL     1       3.052  -5.000  -6.530  1.00  0.00     0.039 A 
ATOM     34  C   UNL     1       2.831  -5.024  -7.909  1.00  0.00     0.014 A 
ATOM     35  C   UNL     1       4.097  -4.246  -5.991  1.00  0.00     0.014 A 
ATOM     36  C   UNL     1       3.627  -4.238  -8.746  1.00  0.00     0.010 A 
ATOM     37  C   UNL     1       4.832  -3.405  -6.816  1.00  0.00     0.010 A 
ATOM     38  C   UNL     1       4.613  -3.400  -8.203  1.00  0.00    -0.014 A 
BRANCH  38  39
ATOM     39  C   UNL     1       5.453  -2.518  -9.052  1.00  0.00     0.031 A 
ATOM     40  C   UNL     1       6.945  -2.713  -9.073  1.00  0.00     0.074 A 
ATOM     41  C   UNL     1       4.895  -1.482  -9.709  1.00  0.00     0.049 A 
ATOM     42  N   UNL     1       7.867  -1.971  -9.626  1.00  0.00    -0.248 NA
ATOM     43  C   UNL     1       7.470  -3.881  -8.345  1.00  0.00     0.031 C 
ATOM     44  C   UNL     1       3.467  -1.157  -9.724  1.00  0.00     0.029 A 
ATOM     45  N   UNL     1       5.469  -0.488 -10.463  1.00  0.00    -0.354 N 
ATOM     46  C   UNL     1       9.080  -2.554  -9.277  1.00  0.00     0.074 A 
ATOM     47  C   UNL     1       8.778  -3.690  -8.436  1.00  0.00     0.031 C 
ATOM     48  C   UNL     1       3.278  -0.041 -10.446  1.00  0.00     0.029 A 
ATOM     49  C   UNL     1       4.571   0.454 -10.908  1.00  0.00     0.049 A 
ATOM     50  H   UNL     1       6.432  -0.454 -10.666  1.00  0.00     0.167 HD
ATOM     51  C   UNL     1      10.332  -2.191  -9.643  1.00  0.00     0.034 A 
ATOM     52  C   UNL     1       4.770   1.599 -11.591  1.00  0.00     0.034 A 
ATOM     53  C   UNL     1      10.623  -1.081 -10.508  1.00  0.00     0.049 A 
ATOM     54  C   UNL     1       6.171   1.977 -11.994  1.00  0.00     0.074 A 
ATOM     55  C   UNL     1      11.850  -0.674 -10.999  1.00  0.00     0.029 A 
ATOM     56  N   UNL     1       9.678  -0.196 -11.003  1.00  0.00    -0.354 N 
ATOM     57  N   UNL     1       7.295   1.345 -11.759  1.00  0.00    -0.248 NA
ATOM     58  C   UNL     1       6.330   3.208 -12.782  1.00  0.00     0.031 C 
ATOM     59  C   UNL     1      11.652   0.481 -11.761  1.00  0.00     0.029 A 
ATOM     60  C   UNL     1      10.295   0.763 -11.786  1.00  0.00     0.049 A 
ATOM     61  H   UNL     1       8.711  -0.243 -10.823  1.00  0.00     0.167 HD
ATOM     62  C   UNL     1       8.285   2.071 -12.413  1.00  0.00     0.074 A 
ATOM     63  C   UNL     1       7.627   3.188 -13.056  1.00  0.00     0.031 C 
ATOM     64  C   UNL     1       9.618   1.834 -12.472  1.00  0.00     0.034 A 
BRANCH  51  65
ATOM     65  C   UNL     1      11.479  -3.024  -9.134  1.00  0.00     0.023 A 
ATOM     66  C   UNL     1      11.654  -4.342  -9.607  1.00  0.00     0.012 A 
ATOM     67  C   UNL     1      12.412  -2.489  -8.225  1.00  0.00     0.148 A 
ATOM     68  C   UNL     1      12.711  -5.127  -9.150  1.00  0.00     0.002 A 
ATOM     69  C   UNL     1      13.493  -3.259  -7.814  1.00  0.00     0.091 A 
ATOM     70  F   UNL     1      12.221  -1.241  -7.772  1.00  0.00    -0.205 F 
ATOM     71  C   UNL     1      13.636  -4.582  -8.263  1.00  0.00     0.022 A 
BRANCH  69  72
ATOM     72  S   UNL     1      14.785  -2.623  -6.741  1.00  0.00     0.127 S 
ATOM     73  O   UNL     1      14.549  -3.382  -5.514  1.00  0.00    -0.237 OA
ATOM     74  O   UNL     1      15.999  -2.998  -7.467  1.00  0.00    -0.237 OA
ATOM     75  O   UNL     1      14.555  -1.188  -6.640  1.00  0.00    -0.744 OA
ENDBRANCH  69  72
ENDBRANCH  51  65
BRANCH  52  76
ATOM     76  C   UNL     1       3.610   2.449 -11.982  1.00  0.00     0.023 A 
ATOM     77  C   UNL     1       3.250   2.547 -13.341  1.00  0.00     0.012 A 
ATOM     78  C   UNL     1       2.855   3.148 -11.021  1.00  0.00     0.148 A 
ATOM     79  C   UNL     1       2.184   3.354 -13.739  1.00  0.00     0.002 A 
ATOM     80  C   UNL     1       1.760   3.907 -11.418  1.00  0.00     0.091 A 
ATOM     81  F   UNL     1       3.216   3.047  -9.734  1.00  0.00    -0.205 F 
ATOM     82  C   UNL     1       1.434   4.027 -12.778  1.00  0.00     0.022 A 
BRANCH  80  83
ATOM     83  S   UNL     1       0.661   4.707 -10.244  1.00  0.00     0.127 S 
ATOM     84  O   UNL     1       0.921   6.120 -10.506  1.00  0.00    -0.237 OA
ATOM     85  O   UNL     1      -0.649   4.228 -10.685  1.00  0.00    -0.237 OA
ATOM     86  O   UNL     1       1.068   4.225  -8.931  1.00  0.00    -0.744 OA
ENDBRANCH  80  83
ENDBRANCH  52  76
BRANCH  64  87
ATOM     87  C   UNL     1      10.463   2.749 -13.318  1.00  0.00     0.023 A 
ATOM     88  C   UNL     1      10.744   4.060 -12.889  1.00  0.00     0.012 A 
ATOM     89  C   UNL     1      11.066   2.260 -14.495  1.00  0.00     0.148 A 
ATOM     90  C   UNL     1      11.594   4.879 -13.632  1.00  0.00     0.002 A 
ATOM     91  C   UNL     1      11.954   3.062 -15.200  1.00  0.00     0.091 A 
ATOM     92  F   UNL     1      10.770   1.014 -14.894  1.00  0.00    -0.205 F 
ATOM     93  C   UNL     1      12.210   4.376 -14.777  1.00  0.00     0.022 A 
BRANCH  91  94
ATOM     94  S   UNL     1      12.873   2.466 -16.623  1.00  0.00     0.127 S 
ATOM     95  O   UNL     1      12.287   3.254 -17.706  1.00  0.00    -0.237 OA
ATOM     96  O   UNL     1      14.246   2.830 -16.276  1.00  0.00    -0.237 OA
ATOM     97  O   UNL     1      12.624   1.032 -16.694  1.00  0.00    -0.744 OA
ENDBRANCH  91  94
ENDBRANCH  64  87
ENDBRANCH  38  39
ENDBRANCH  30  33
ENDBRANCH  28  29
ENDBRANCH  27  28
ENDBRANCH   1  27
TORSDOF 19
