REMARK SMILES C[C@@H]1CN(C(=O)Nc2ccc(O)c(C(=O)NCCCCCCNC(=O)c3ccc(-c4c5nc(c(-c6cccc(S(=O)(=O)[O-])c6F)c6ccc([nH]6)c(-c6cccc(S(=O)(=O)[O-])c6F)c6nc(c(-c7cccc(S(=O)(=O)[O-])c7F)c7ccc4[nH]7)C=C6)C=C5)cc3)c2)C[C@@H]1C
REMARK SMILES IDX 20 1 19 2 18 3 17 4 16 5 14 6 15 7 13 9 8 10 9 11 89 12
REMARK SMILES IDX 10 13 11 14 7 15 5 16 6 17 4 19 1 20 2 21 3 22 91 23 90 24
REMARK SMILES IDX 92 25 12 26 21 28 22 29 23 30 24 31 25 33 26 34 27 35 88 36
REMARK SMILES IDX 28 37 87 38 29 39 30 40 31 41 81 42 32 43 86 44 80 45 82 46
REMARK SMILES IDX 33 47 85 48 79 49 78 50 34 52 66 53 46 54 65 55 47 56 50 57
REMARK SMILES IDX 64 58 83 59 48 60 49 61 63 63 84 64 51 65 35 66 36 67 44 68
REMARK SMILES IDX 37 69 39 70 45 71 38 72 40 73 41 74 42 75 43 76 67 77 68 78
REMARK SMILES IDX 76 79 69 80 71 81 77 82 70 83 72 84 73 85 74 86 75 87 52 88
REMARK SMILES IDX 53 89 61 90 54 91 56 92 62 93 55 94 57 95 58 96 59 97 60 98
REMARK H PARENT 16 8 7 18 12 27 23 32 82 51 50 62
REMARK Flexibility Score: inf
ROOT
ATOM      1  C   UNL     1       5.199  -0.918  -8.818  1.00  0.00     0.002 C 
ENDROOT
BRANCH   1   2
ATOM      2  C   UNL     1       4.563   0.474  -8.874  1.00  0.00     0.002 C 
BRANCH   2   3
ATOM      3  C   UNL     1       3.514   0.748  -7.793  1.00  0.00     0.021 C 
BRANCH   3   4
ATOM      4  C   UNL     1       4.077   0.811  -6.369  1.00  0.00     0.116 C 
BRANCH   4   5
ATOM      5  N   UNL     1       4.623   2.126  -6.108  1.00  0.00    -0.352 N 
ATOM      6  C   UNL     1       4.099   3.234  -5.500  1.00  0.00     0.255 C 
ATOM      7  O   UNL     1       4.819   4.239  -5.475  1.00  0.00    -0.269 OA
ATOM      8  H   UNL     1       5.547   2.245  -6.427  1.00  0.00     0.163 HD
BRANCH   6   9
ATOM      9  C   UNL     1       2.787   3.297  -4.790  1.00  0.00     0.083 A 
ATOM     10  C   UNL     1       1.664   4.283  -2.851  1.00  0.00     0.043 A 
ATOM     11  C   UNL     1       0.455   3.736  -3.262  1.00  0.00     0.030 A 
ATOM     12  C   UNL     1       2.798   4.125  -3.648  1.00  0.00     0.044 A 
ATOM     13  C   UNL     1       0.413   2.920  -4.388  1.00  0.00     0.049 A 
ATOM     14  C   UNL     1       1.575   2.686  -5.136  1.00  0.00     0.128 A 
BRANCH  10  15
ATOM     15  N   UNL     1       1.787   5.014  -1.667  1.00  0.00    -0.308 N 
ATOM     16  C   UNL     1       1.159   4.887  -0.465  1.00  0.00     0.321 C 
ATOM     17  O   UNL     1       1.085   5.891   0.249  1.00  0.00    -0.248 OA
ATOM     18  H   UNL     1       2.441   5.749  -1.709  1.00  0.00     0.171 HD
BRANCH  16  19
ATOM     19  N   UNL     1       0.777   3.648  -0.011  1.00  0.00    -0.324 N 
ATOM     20  C   UNL     1       1.164  -0.046   0.295  1.00  0.00     0.010 C 
ATOM     21  C   UNL     1       0.547   1.333   0.440  1.00  0.00     0.010 C 
ATOM     22  C   UNL     1       1.080   2.334  -0.578  1.00  0.00     0.125 C 
ATOM     23  C   UNL     1       0.742   2.074   1.769  1.00  0.00     0.010 C 
ATOM     24  C   UNL     1       0.310   3.494   1.366  1.00  0.00     0.125 C 
ATOM     25  C   UNL     1       2.179   2.071   2.303  1.00  0.00     0.010 C 
ENDBRANCH  16  19
ENDBRANCH  10  15
BRANCH  14  26
ATOM     26  O   UNL     1       1.440   1.879  -6.224  1.00  0.00    -0.507 OA
ATOM     27  H   UNL     1       0.610   1.490  -6.418  1.00  0.00     0.293 HD
ENDBRANCH  14  26
ENDBRANCH   6   9
ENDBRANCH   4   5
ENDBRANCH   3   4
ENDBRANCH   2   3
ENDBRANCH   1   2
BRANCH   1  28
ATOM     28  C   UNL     1       4.211  -2.088  -8.818  1.00  0.00     0.021 C 
BRANCH  28  29
ATOM     29  C   UNL     1       3.286  -2.142 -10.032  1.00  0.00     0.116 C 
BRANCH  29  30
ATOM     30  N   UNL     1       4.029  -2.355 -11.264  1.00  0.00    -0.352 N 
ATOM     31  C   UNL     1       3.927  -3.378 -12.174  1.00  0.00     0.251 C 
ATOM     32  H   UNL     1       4.700  -1.667 -11.476  1.00  0.00     0.163 HD
ATOM     33  O   UNL     1       4.796  -3.529 -13.027  1.00  0.00    -0.269 OA
BRANCH  31  34
ATOM     34  C   UNL     1       2.772  -4.300 -12.122  1.00  0.00     0.039 A 
ATOM     35  C   UNL     1       2.990  -5.673 -12.265  1.00  0.00     0.014 A 
ATOM     36  C   UNL     1       1.473  -3.808 -11.962  1.00  0.00     0.014 A 
ATOM     37  C   UNL     1       1.910  -6.557 -12.199  1.00  0.00     0.010 A 
ATOM     38  C   UNL     1       0.407  -4.694 -11.832  1.00  0.00     0.010 A 
ATOM     39  C   UNL     1       0.612  -6.077 -11.958  1.00  0.00    -0.014 A 
BRANCH  39  40
ATOM     40  C   UNL     1      -0.544  -7.002 -11.835  1.00  0.00     0.031 A 
ATOM     41  C   UNL     1      -1.667  -6.946 -12.837  1.00  0.00     0.074 A 
ATOM     42  C   UNL     1      -0.623  -7.832 -10.777  1.00  0.00     0.049 A 
ATOM     43  N   UNL     1      -2.789  -7.618 -12.856  1.00  0.00    -0.248 NA
ATOM     44  C   UNL     1      -1.522  -5.993 -13.951  1.00  0.00     0.031 C 
ATOM     45  C   UNL     1       0.366  -7.927  -9.700  1.00  0.00     0.029 A 
ATOM     46  N   UNL     1      -1.592  -8.735 -10.415  1.00  0.00    -0.354 N 
ATOM     47  C   UNL     1      -3.494  -7.151 -13.959  1.00  0.00     0.074 A 
ATOM     48  C   UNL     1      -2.690  -6.114 -14.566  1.00  0.00     0.031 C 
ATOM     49  C   UNL     1      -0.048  -8.834  -8.800  1.00  0.00     0.029 A 
ATOM     50  C   UNL     1      -1.341  -9.366  -9.219  1.00  0.00     0.049 A 
ATOM     51  H   UNL     1      -2.391  -8.913 -10.961  1.00  0.00     0.167 HD
ATOM     52  C   UNL     1      -4.688  -7.570 -14.443  1.00  0.00     0.034 A 
ATOM     53  C   UNL     1      -2.073 -10.267  -8.534  1.00  0.00     0.034 A 
ATOM     54  C   UNL     1      -5.462  -8.635 -13.865  1.00  0.00     0.049 A 
ATOM     55  C   UNL     1      -3.377 -10.742  -9.118  1.00  0.00     0.074 A 
ATOM     56  C   UNL     1      -6.649  -9.181 -14.321  1.00  0.00     0.029 A 
ATOM     57  N   UNL     1      -5.126  -9.319 -12.708  1.00  0.00    -0.354 N 
ATOM     58  N   UNL     1      -3.954 -10.392 -10.242  1.00  0.00    -0.248 NA
ATOM     59  C   UNL     1      -4.112 -11.764  -8.359  1.00  0.00     0.031 C 
ATOM     60  C   UNL     1      -7.036 -10.190 -13.433  1.00  0.00     0.029 A 
ATOM     61  C   UNL     1      -6.081 -10.283 -12.434  1.00  0.00     0.049 A 
ATOM     62  H   UNL     1      -4.325  -9.146 -12.161  1.00  0.00     0.167 HD
ATOM     63  C   UNL     1      -5.096 -11.179 -10.345  1.00  0.00     0.074 A 
ATOM     64  C   UNL     1      -5.117 -12.039  -9.180  1.00  0.00     0.031 C 
ATOM     65  C   UNL     1      -6.052 -11.177 -11.306  1.00  0.00     0.034 A 
BRANCH  52  66
ATOM     66  C   UNL     1      -5.202  -6.926 -15.704  1.00  0.00     0.023 A 
ATOM     67  C   UNL     1      -4.586  -7.233 -16.934  1.00  0.00     0.012 A 
ATOM     68  C   UNL     1      -6.333  -6.088 -15.687  1.00  0.00     0.148 A 
ATOM     69  C   UNL     1      -5.071  -6.696 -18.126  1.00  0.00     0.002 A 
ATOM     70  C   UNL     1      -6.837  -5.589 -16.884  1.00  0.00     0.091 A 
ATOM     71  F   UNL     1      -6.894  -5.793 -14.505  1.00  0.00    -0.205 F 
ATOM     72  C   UNL     1      -6.201  -5.885 -18.102  1.00  0.00     0.022 A 
BRANCH  70  73
ATOM     73  S   UNL     1      -8.331  -4.596 -16.974  1.00  0.00     0.127 S 
ATOM     74  O   UNL     1      -7.797  -3.296 -17.376  1.00  0.00    -0.237 OA
ATOM     75  O   UNL     1      -9.098  -5.288 -18.009  1.00  0.00    -0.237 OA
ATOM     76  O   UNL     1      -8.924  -4.640 -15.643  1.00  0.00    -0.744 OA
ENDBRANCH  70  73
ENDBRANCH  52  66
BRANCH  53  77
ATOM     77  C   UNL     1      -1.563 -10.831  -7.252  1.00  0.00     0.023 A 
ATOM     78  C   UNL     1      -1.170 -12.183  -7.201  1.00  0.00     0.012 A 
ATOM     79  C   UNL     1      -1.459 -10.043  -6.090  1.00  0.00     0.148 A 
ATOM     80  C   UNL     1      -0.724 -12.751  -6.007  1.00  0.00     0.002 A 
ATOM     81  C   UNL     1      -0.960 -10.600  -4.917  1.00  0.00     0.091 A 
ATOM     82  F   UNL     1      -1.852  -8.763  -6.150  1.00  0.00    -0.205 F 
ATOM     83  C   UNL     1      -0.610 -11.958  -4.868  1.00  0.00     0.022 A 
BRANCH  81  84
ATOM     84  S   UNL     1      -0.658  -9.612  -3.448  1.00  0.00     0.127 S 
ATOM     85  O   UNL     1      -1.803  -9.959  -2.611  1.00  0.00    -0.237 OA
ATOM     86  O   UNL     1       0.627 -10.134  -2.982  1.00  0.00    -0.237 OA
ATOM     87  O   UNL     1      -0.603  -8.232  -3.916  1.00  0.00    -0.744 OA
ENDBRANCH  81  84
ENDBRANCH  53  77
BRANCH  65  88
ATOM     88  C   UNL     1      -7.183 -12.161 -11.168  1.00  0.00     0.023 A 
ATOM     89  C   UNL     1      -8.180 -11.948 -10.197  1.00  0.00     0.012 A 
ATOM     90  C   UNL     1      -7.297 -13.252 -12.052  1.00  0.00     0.148 A 
ATOM     91  C   UNL     1      -9.258 -12.825 -10.085  1.00  0.00     0.002 A 
ATOM     92  C   UNL     1      -8.399 -14.095 -11.966  1.00  0.00     0.091 A 
ATOM     93  F   UNL     1      -6.327 -13.447 -12.957  1.00  0.00    -0.205 F 
ATOM     94  C   UNL     1      -9.374 -13.889 -10.976  1.00  0.00     0.022 A 
BRANCH  92  95
ATOM     95  S   UNL     1      -8.679 -15.433 -13.130  1.00  0.00     0.127 S 
ATOM     96  O   UNL     1      -8.364 -16.606 -12.317  1.00  0.00    -0.237 OA
ATOM     97  O   UNL     1     -10.098 -15.276 -13.451  1.00  0.00    -0.237 OA
ATOM     98  O   UNL     1      -7.778 -15.186 -14.248  1.00  0.00    -0.744 OA
ENDBRANCH  92  95
ENDBRANCH  65  88
ENDBRANCH  39  40
ENDBRANCH  31  34
ENDBRANCH  29  30
ENDBRANCH  28  29
ENDBRANCH   1  28
TORSDOF 19
