REMARK SMILES O=C(NCCCCCCNC(=O)c1cc(S(=O)(=O)NCc2ccncc2)c(Cl)cc1Cl)c1ccc(-c2c3nc(c(-c4cccc(S(=O)(=O)[O-])c4F)c4ccc([nH]4)c(-c4cccc(S(=O)(=O)[O-])c4F)c4nc(c(-c5cccc(S(=O)(=O)[O-])c5F)c5ccc2[nH]5)C=C4)C=C3)cc1
REMARK SMILES IDX 7 1 6 2 5 3 4 4 3 5 1 6 2 7 32 9 33 10 94 11 34 12 93 13
REMARK SMILES IDX 35 14 36 15 37 16 87 17 38 18 92 19 86 20 88 21 39 22 91 23
REMARK SMILES IDX 85 24 84 25 40 27 72 28 52 29 71 30 53 31 56 32 70 33 89 34
REMARK SMILES IDX 54 35 55 36 69 38 90 39 57 40 41 41 42 42 50 43 43 44 45 45
REMARK SMILES IDX 51 46 44 47 46 48 47 49 48 50 49 51 73 52 74 53 82 54 75 55
REMARK SMILES IDX 77 56 83 57 76 58 78 59 79 60 80 61 81 62 58 63 59 64 67 65
REMARK SMILES IDX 60 66 62 67 68 68 61 69 63 70 64 71 65 72 66 73 8 74 9 75
REMARK SMILES IDX 10 76 11 77 12 79 13 80 14 81 30 82 15 83 29 84 31 85 27 86
REMARK SMILES IDX 28 87 16 88 17 89 18 90 19 91 20 93 21 94 22 95 26 96 23 97
REMARK SMILES IDX 25 98 24 99
REMARK H PARENT 3 8 88 26 56 37 10 78 19 92
REMARK Flexibility Score: inf
ROOT
ATOM      1  C   UNL     1       4.828  -4.163   1.569  1.00  0.00     0.002 C 
ENDROOT
BRANCH   1   2
ATOM      2  C   UNL     1       4.282  -3.096   2.520  1.00  0.00     0.002 C 
BRANCH   2   3
ATOM      3  C   UNL     1       4.730  -1.660   2.242  1.00  0.00     0.021 C 
BRANCH   3   4
ATOM      4  C   UNL     1       4.485  -1.156   0.824  1.00  0.00     0.116 C 
BRANCH   4   5
ATOM      5  N   UNL     1       3.076  -1.116   0.477  1.00  0.00    -0.352 N 
ATOM      6  O   UNL     1       1.120  -0.194  -0.145  1.00  0.00    -0.269 OA
ATOM      7  C   UNL     1       2.339  -0.083  -0.052  1.00  0.00     0.251 C 
ATOM      8  H   UNL     1       2.576  -1.948   0.643  1.00  0.00     0.163 HD
BRANCH   7   9
ATOM      9  C   UNL     1       3.009   1.167  -0.477  1.00  0.00     0.039 A 
ATOM     10  C   UNL     1       4.178   1.137  -1.245  1.00  0.00     0.014 A 
ATOM     11  C   UNL     1       2.445   2.392  -0.111  1.00  0.00     0.014 A 
ATOM     12  C   UNL     1       4.845   2.324  -1.542  1.00  0.00     0.010 A 
ATOM     13  C   UNL     1       3.082   3.585  -0.465  1.00  0.00     0.010 A 
ATOM     14  C   UNL     1       4.303   3.560  -1.156  1.00  0.00    -0.014 A 
BRANCH  14  15
ATOM     15  C   UNL     1       4.990   4.822  -1.528  1.00  0.00     0.031 A 
ATOM     16  C   UNL     1       5.576   5.725  -0.478  1.00  0.00     0.074 A 
ATOM     17  C   UNL     1       5.059   5.168  -2.828  1.00  0.00     0.049 A 
ATOM     18  N   UNL     1       6.192   6.870  -0.628  1.00  0.00    -0.248 NA
ATOM     19  C   UNL     1       5.446   5.294   0.923  1.00  0.00     0.031 C 
ATOM     20  C   UNL     1       4.487   4.397  -3.934  1.00  0.00     0.029 A 
ATOM     21  N   UNL     1       5.623   6.259  -3.439  1.00  0.00    -0.354 N 
ATOM     22  C   UNL     1       6.490   7.315   0.654  1.00  0.00     0.074 A 
ATOM     23  C   UNL     1       5.980   6.320   1.573  1.00  0.00     0.031 C 
ATOM     24  C   UNL     1       4.734   5.034  -5.088  1.00  0.00     0.029 A 
ATOM     25  C   UNL     1       5.447   6.275  -4.803  1.00  0.00     0.049 A 
ATOM     26  H   UNL     1       6.106   6.963  -2.949  1.00  0.00     0.167 HD
ATOM     27  C   UNL     1       7.146   8.439   1.030  1.00  0.00     0.034 A 
ATOM     28  C   UNL     1       5.809   7.190  -5.723  1.00  0.00     0.034 A 
ATOM     29  C   UNL     1       7.692   9.403   0.111  1.00  0.00     0.049 A 
ATOM     30  C   UNL     1       6.565   8.410  -5.282  1.00  0.00     0.074 A 
ATOM     31  C   UNL     1       8.432  10.539   0.394  1.00  0.00     0.029 A 
ATOM     32  N   UNL     1       7.556   9.349  -1.268  1.00  0.00    -0.354 N 
ATOM     33  N   UNL     1       6.956   8.745  -4.076  1.00  0.00    -0.248 NA
ATOM     34  C   UNL     1       6.959   9.364  -6.329  1.00  0.00     0.031 C 
ATOM     35  C   UNL     1       8.738  11.175  -0.815  1.00  0.00     0.029 A 
ATOM     36  C   UNL     1       8.194  10.432  -1.850  1.00  0.00     0.049 A 
ATOM     37  H   UNL     1       7.077   8.645  -1.760  1.00  0.00     0.167 HD
ATOM     38  C   UNL     1       7.661   9.934  -4.220  1.00  0.00     0.074 A 
ATOM     39  C   UNL     1       7.663  10.249  -5.635  1.00  0.00     0.031 C 
ATOM     40  C   UNL     1       8.236  10.704  -3.264  1.00  0.00     0.034 A 
BRANCH  27  41
ATOM     41  C   UNL     1       7.362   8.665   2.503  1.00  0.00     0.023 A 
ATOM     42  C   UNL     1       8.347   7.917   3.179  1.00  0.00     0.012 A 
ATOM     43  C   UNL     1       6.642   9.651   3.204  1.00  0.00     0.148 A 
ATOM     44  C   UNL     1       8.595   8.129   4.534  1.00  0.00     0.002 A 
ATOM     45  C   UNL     1       6.918   9.881   4.548  1.00  0.00     0.091 A 
ATOM     46  F   UNL     1       5.690  10.336   2.554  1.00  0.00    -0.205 F 
ATOM     47  C   UNL     1       7.888   9.116   5.216  1.00  0.00     0.022 A 
BRANCH  45  48
ATOM     48  S   UNL     1       6.103  11.182   5.483  1.00  0.00     0.127 S 
ATOM     49  O   UNL     1       5.076  10.431   6.202  1.00  0.00    -0.237 OA
ATOM     50  O   UNL     1       7.186  11.692   6.325  1.00  0.00    -0.237 OA
ATOM     51  O   UNL     1       5.617  12.131   4.491  1.00  0.00    -0.744 OA
ENDBRANCH  45  48
ENDBRANCH  27  41
BRANCH  28  52
ATOM     52  C   UNL     1       5.509   6.937  -7.159  1.00  0.00     0.023 A 
ATOM     53  C   UNL     1       6.560   6.602  -8.033  1.00  0.00     0.012 A 
ATOM     54  C   UNL     1       4.186   6.948  -7.644  1.00  0.00     0.148 A 
ATOM     55  C   UNL     1       6.301   6.295  -9.369  1.00  0.00     0.002 A 
ATOM     56  C   UNL     1       3.930   6.587  -8.962  1.00  0.00     0.091 A 
ATOM     57  F   UNL     1       3.202   7.288  -6.800  1.00  0.00    -0.205 F 
ATOM     58  C   UNL     1       4.987   6.273  -9.829  1.00  0.00     0.022 A 
BRANCH  56  59
ATOM     59  S   UNL     1       2.259   6.393  -9.592  1.00  0.00     0.127 S 
ATOM     60  O   UNL     1       2.107   7.591 -10.413  1.00  0.00    -0.237 OA
ATOM     61  O   UNL     1       2.359   5.140 -10.343  1.00  0.00    -0.237 OA
ATOM     62  O   UNL     1       1.406   6.314  -8.414  1.00  0.00    -0.744 OA
ENDBRANCH  56  59
ENDBRANCH  28  52
BRANCH  40  63
ATOM     63  C   UNL     1       8.935  11.960  -3.711  1.00  0.00     0.023 A 
ATOM     64  C   UNL     1       8.169  13.084  -4.077  1.00  0.00     0.012 A 
ATOM     65  C   UNL     1      10.340  12.053  -3.694  1.00  0.00     0.148 A 
ATOM     66  C   UNL     1       8.792  14.277  -4.441  1.00  0.00     0.002 A 
ATOM     67  C   UNL     1      10.953  13.257  -4.020  1.00  0.00     0.091 A 
ATOM     68  F   UNL     1      11.051  10.964  -3.366  1.00  0.00    -0.205 F 
ATOM     69  C   UNL     1      10.182  14.367  -4.401  1.00  0.00     0.022 A 
BRANCH  67  70
ATOM     70  S   UNL     1      12.733  13.481  -3.913  1.00  0.00     0.127 S 
ATOM     71  O   UNL     1      13.132  13.380  -5.315  1.00  0.00    -0.237 OA
ATOM     72  O   UNL     1      12.848  14.824  -3.341  1.00  0.00    -0.237 OA
ATOM     73  O   UNL     1      13.213  12.417  -3.042  1.00  0.00    -0.744 OA
ENDBRANCH  67  70
ENDBRANCH  40  63
ENDBRANCH  14  15
ENDBRANCH   7   9
ENDBRANCH   4   5
ENDBRANCH   3   4
ENDBRANCH   2   3
ENDBRANCH   1   2
BRANCH   1  74
ATOM     74  C   UNL     1       6.351  -4.200   1.397  1.00  0.00     0.021 C 
BRANCH  74  75
ATOM     75  C   UNL     1       7.161  -4.327   2.685  1.00  0.00     0.116 C 
BRANCH  75  76
ATOM     76  N   UNL     1       6.833  -5.534   3.423  1.00  0.00    -0.352 N 
ATOM     77  C   UNL     1       7.643  -6.518   3.924  1.00  0.00     0.252 C 
ATOM     78  H   UNL     1       5.872  -5.667   3.589  1.00  0.00     0.163 HD
ATOM     79  O   UNL     1       7.147  -7.488   4.489  1.00  0.00    -0.269 OA
BRANCH  77  80
ATOM     80  C   UNL     1       9.114  -6.398   3.853  1.00  0.00     0.059 A 
ATOM     81  C   UNL     1       9.728  -5.251   4.374  1.00  0.00     0.038 A 
ATOM     82  C   UNL     1       9.912  -7.449   3.396  1.00  0.00     0.055 A 
ATOM     83  C   UNL     1      11.131  -5.144   4.434  1.00  0.00     0.101 A 
ATOM     84  C   UNL     1      11.305  -7.363   3.511  1.00  0.00     0.043 A 
ATOM     85  Cl  UNL     1       9.262  -8.863   2.647  1.00  0.00    -0.083 Cl
ATOM     86  C   UNL     1      11.920  -6.226   4.057  1.00  0.00     0.062 A 
ATOM     87  Cl  UNL     1      13.629  -6.316   4.271  1.00  0.00    -0.083 Cl
BRANCH  83  88
ATOM     88  S   UNL     1      11.753  -3.572   4.968  1.00  0.00     0.242 S 
ATOM     89  O   UNL     1      10.827  -2.583   4.464  1.00  0.00    -0.207 OA
ATOM     90  O   UNL     1      12.019  -3.703   6.383  1.00  0.00    -0.207 OA
BRANCH  88  91
ATOM     91  N   UNL     1      13.214  -3.302   4.236  1.00  0.00    -0.207 NA
ATOM     92  H   UNL     1      13.825  -4.053   4.557  1.00  0.00     0.141 HD
BRANCH  91  93
ATOM     93  C   UNL     1      13.411  -3.226   2.801  1.00  0.00     0.134 C 
BRANCH  93  94
ATOM     94  C   UNL     1      12.909  -1.982   2.131  1.00  0.00    -0.030 A 
ATOM     95  C   UNL     1      13.347  -0.713   2.521  1.00  0.00     0.025 A 
ATOM     96  C   UNL     1      12.026  -2.077   1.049  1.00  0.00     0.025 A 
ATOM     97  C   UNL     1      12.890   0.391   1.817  1.00  0.00     0.111 A 
ATOM     98  C   UNL     1      11.628  -0.915   0.409  1.00  0.00     0.111 A 
ATOM     99  N   UNL     1      12.047   0.314   0.766  1.00  0.00    -0.265 NA
ENDBRANCH  93  94
ENDBRANCH  91  93
ENDBRANCH  88  91
ENDBRANCH  83  88
ENDBRANCH  77  80
ENDBRANCH  75  76
ENDBRANCH  74  75
ENDBRANCH   1  74
TORSDOF 20
