REMARK SMILES CCCc1sc(C(=O)NCCC(=O)NCCCCCCNC(=O)c2ccc(-c3c4nc(c(-c5cccc(S(=O)(=O)[O-])c5F)c5ccc([nH]5)c(-c5cccc(S(=O)(=O)[O-])c5F)c5nc(c(-c6cccc(S(=O)(=O)[O-])c6F)c6ccc3[nH]6)C=C5)C=C4)cc2)cc1CC
REMARK SMILES IDX 16 1 15 2 14 3 12 4 13 5 11 7 10 8 9 9 7 10 8 11 6 13 4 14
REMARK SMILES IDX 5 15 88 16 87 17 3 18 2 19 1 20 89 21 90 22 17 23 18 24
REMARK SMILES IDX 19 25 20 26 21 27 22 28 23 30 24 31 25 32 86 33 26 34 85 35
REMARK SMILES IDX 27 36 28 37 29 38 79 39 30 40 84 41 78 42 80 43 31 44 83 45
REMARK SMILES IDX 77 46 76 47 32 49 64 50 44 51 63 52 45 53 48 54 62 55 81 56
REMARK SMILES IDX 46 57 47 58 61 60 82 61 49 62 33 63 34 64 42 65 35 66 37 67
REMARK SMILES IDX 43 68 36 69 38 70 39 71 40 72 41 73 65 74 66 75 74 76 67 77
REMARK SMILES IDX 69 78 75 79 68 80 70 81 71 82 72 83 73 84 50 85 51 86 59 87
REMARK SMILES IDX 52 88 54 89 60 90 53 91 55 92 56 93 57 94 58 95
REMARK H PARENT 14 6 9 12 21 29 80 48 48 59
REMARK Flexibility Score: inf
ROOT
ATOM      1  C   UNL     1      -1.404   6.114  -7.147  1.00  0.00     0.021 C 
ENDROOT
BRANCH   1   2
ATOM      2  C   UNL     1      -2.583   5.378  -6.511  1.00  0.00     0.116 C 
BRANCH   2   3
ATOM      3  N   UNL     1      -3.001   4.262  -7.339  1.00  0.00    -0.356 N 
ATOM      4  C   UNL     1      -2.793   2.930  -7.159  1.00  0.00     0.221 C 
ATOM      5  O   UNL     1      -3.150   2.148  -8.042  1.00  0.00    -0.275 OA
ATOM      6  H   UNL     1      -3.508   4.504  -8.148  1.00  0.00     0.163 HD
BRANCH   4   7
ATOM      7  C   UNL     1      -2.131   2.420  -5.896  1.00  0.00     0.121 C 
BRANCH   7   8
ATOM      8  C   UNL     1      -0.609   2.415  -6.007  1.00  0.00     0.126 C 
BRANCH   8   9
ATOM      9  N   UNL     1       0.001   3.626  -5.490  1.00  0.00    -0.351 N 
ATOM     10  C   UNL     1       0.261   4.095  -4.226  1.00  0.00     0.261 C 
ATOM     11  O   UNL     1       0.666   5.263  -4.201  1.00  0.00    -0.268 OA
ATOM     12  H   UNL     1       0.291   4.245  -6.199  1.00  0.00     0.163 HD
BRANCH  10  13
ATOM     13  C   UNL     1       0.108   3.263  -3.042  1.00  0.00     0.092 A 
ATOM     14  C   UNL     1       0.459   2.373  -0.716  1.00  0.00     0.009 A 
ATOM     15  S   UNL     1       0.778   3.838  -1.579  1.00  0.00    -0.135 S 
ATOM     16  C   UNL     1      -0.261   1.481  -1.506  1.00  0.00    -0.034 A 
ATOM     17  C   UNL     1      -0.477   2.037  -2.823  1.00  0.00     0.029 A 
BRANCH  14  18
ATOM     18  C   UNL     1       1.003   2.364   0.701  1.00  0.00     0.047 C 
BRANCH  18  19
ATOM     19  C   UNL     1       1.048   1.049   1.466  1.00  0.00     0.002 C 
ATOM     20  C   UNL     1       2.022   0.033   0.886  1.00  0.00     0.004 C 
ENDBRANCH  18  19
ENDBRANCH  14  18
BRANCH  16  21
ATOM     21  C   UNL     1      -0.717   0.081  -1.178  1.00  0.00     0.033 C 
ATOM     22  C   UNL     1      -2.141  -0.246  -1.608  1.00  0.00     0.009 C 
ENDBRANCH  16  21
ENDBRANCH  10  13
ENDBRANCH   8   9
ENDBRANCH   7   8
ENDBRANCH   4   7
ENDBRANCH   2   3
ENDBRANCH   1   2
BRANCH   1  23
ATOM     23  C   UNL     1      -1.780   7.063  -8.287  1.00  0.00     0.002 C 
BRANCH  23  24
ATOM     24  C   UNL     1      -2.727   8.202  -7.906  1.00  0.00     0.002 C 
BRANCH  24  25
ATOM     25  C   UNL     1      -2.306   9.031  -6.688  1.00  0.00     0.021 C 
BRANCH  25  26
ATOM     26  C   UNL     1      -0.907   9.637  -6.763  1.00  0.00     0.116 C 
BRANCH  26  27
ATOM     27  N   UNL     1      -0.751  10.509  -7.914  1.00  0.00    -0.352 N 
ATOM     28  C   UNL     1      -0.360  11.821  -7.974  1.00  0.00     0.251 C 
ATOM     29  H   UNL     1      -0.956  10.094  -8.783  1.00  0.00     0.163 HD
ATOM     30  O   UNL     1      -0.484  12.440  -9.028  1.00  0.00    -0.269 OA
BRANCH  28  31
ATOM     31  C   UNL     1       0.203  12.496  -6.783  1.00  0.00     0.039 A 
ATOM     32  C   UNL     1      -0.171  13.818  -6.523  1.00  0.00     0.014 A 
ATOM     33  C   UNL     1       1.135  11.860  -5.958  1.00  0.00     0.014 A 
ATOM     34  C   UNL     1       0.372  14.492  -5.427  1.00  0.00     0.010 A 
ATOM     35  C   UNL     1       1.623  12.509  -4.825  1.00  0.00     0.010 A 
ATOM     36  C   UNL     1       1.268  13.841  -4.563  1.00  0.00    -0.014 A 
BRANCH  36  37
ATOM     37  C   UNL     1       1.865  14.554  -3.406  1.00  0.00     0.031 A 
ATOM     38  C   UNL     1       3.347  14.822  -3.365  1.00  0.00     0.074 A 
ATOM     39  C   UNL     1       1.086  14.914  -2.368  1.00  0.00     0.049 A 
ATOM     40  N   UNL     1       4.050  15.431  -2.445  1.00  0.00    -0.248 NA
ATOM     41  C   UNL     1       4.150  14.317  -4.492  1.00  0.00     0.031 C 
ATOM     42  C   UNL     1      -0.346  14.636  -2.249  1.00  0.00     0.029 A 
ATOM     43  N   UNL     1       1.394  15.575  -1.205  1.00  0.00    -0.354 N 
ATOM     44  C   UNL     1       5.374  15.352  -2.862  1.00  0.00     0.074 A 
ATOM     45  C   UNL     1       5.382  14.605  -4.100  1.00  0.00     0.031 C 
ATOM     46  C   UNL     1      -0.794  15.129  -1.083  1.00  0.00     0.029 A 
ATOM     47  C   UNL     1       0.318  15.745  -0.366  1.00  0.00     0.049 A 
ATOM     48  H   UNL     1       2.299  15.898  -0.992  1.00  0.00     0.167 HD
ATOM     49  C   UNL     1       6.481  15.882  -2.287  1.00  0.00     0.034 A 
ATOM     50  C   UNL     1       0.236  16.341   0.840  1.00  0.00     0.034 A 
ATOM     51  C   UNL     1       6.462  16.670  -1.084  1.00  0.00     0.049 A 
ATOM     52  C   UNL     1       1.464  16.994   1.416  1.00  0.00     0.074 A 
ATOM     53  C   UNL     1       7.513  17.320  -0.463  1.00  0.00     0.029 A 
ATOM     54  N   UNL     1       5.331  16.920  -0.322  1.00  0.00    -0.354 N 
ATOM     55  N   UNL     1       2.677  17.051   0.923  1.00  0.00    -0.248 NA
ATOM     56  C   UNL     1       1.300  17.710   2.689  1.00  0.00     0.031 C 
ATOM     57  C   UNL     1       7.018  17.958   0.680  1.00  0.00     0.029 A 
ATOM     58  C   UNL     1       5.656  17.719   0.760  1.00  0.00     0.049 A 
ATOM     59  H   UNL     1       4.429  16.578  -0.521  1.00  0.00     0.167 HD
ATOM     60  C   UNL     1       3.410  17.842   1.801  1.00  0.00     0.074 A 
ATOM     61  C   UNL     1       2.497  18.259   2.846  1.00  0.00     0.031 C 
ATOM     62  C   UNL     1       4.722  18.181   1.755  1.00  0.00     0.034 A 
BRANCH  49  63
ATOM     63  C   UNL     1       7.798  15.684  -2.992  1.00  0.00     0.023 A 
ATOM     64  C   UNL     1       8.049  16.378  -4.194  1.00  0.00     0.012 A 
ATOM     65  C   UNL     1       8.803  14.860  -2.449  1.00  0.00     0.148 A 
ATOM     66  C   UNL     1       9.263  16.227  -4.864  1.00  0.00     0.002 A 
ATOM     67  C   UNL     1      10.027  14.749  -3.099  1.00  0.00     0.091 A 
ATOM     68  F   UNL     1       8.540  14.191  -1.317  1.00  0.00    -0.205 F 
ATOM     69  C   UNL     1      10.254  15.422  -4.312  1.00  0.00     0.022 A 
BRANCH  67  70
ATOM     70  S   UNL     1      11.397  13.800  -2.428  1.00  0.00     0.127 S 
ATOM     71  O   UNL     1      11.415  12.638  -3.316  1.00  0.00    -0.237 OA
ATOM     72  O   UNL     1      12.525  14.716  -2.604  1.00  0.00    -0.237 OA
ATOM     73  O   UNL     1      11.052  13.525  -1.041  1.00  0.00    -0.744 OA
ENDBRANCH  67  70
ENDBRANCH  49  63
BRANCH  50  74
ATOM     74  C   UNL     1      -1.080  16.438   1.533  1.00  0.00     0.023 A 
ATOM     75  C   UNL     1      -1.724  17.688   1.616  1.00  0.00     0.012 A 
ATOM     76  C   UNL     1      -1.711  15.304   2.080  1.00  0.00     0.148 A 
ATOM     77  C   UNL     1      -2.954  17.815   2.260  1.00  0.00     0.002 A 
ATOM     78  C   UNL     1      -2.962  15.428   2.675  1.00  0.00     0.091 A 
ATOM     79  F   UNL     1      -1.078  14.124   2.002  1.00  0.00    -0.205 F 
ATOM     80  C   UNL     1      -3.578  16.684   2.781  1.00  0.00     0.022 A 
BRANCH  78  81
ATOM     81  S   UNL     1      -3.894  14.006   3.256  1.00  0.00     0.127 S 
ATOM     82  O   UNL     1      -3.769  14.137   4.705  1.00  0.00    -0.237 OA
ATOM     83  O   UNL     1      -5.231  14.281   2.725  1.00  0.00    -0.237 OA
ATOM     84  O   UNL     1      -3.245  12.845   2.663  1.00  0.00    -0.744 OA
ENDBRANCH  78  81
ENDBRANCH  50  74
BRANCH  62  85
ATOM     85  C   UNL     1       5.247  19.085   2.839  1.00  0.00     0.023 A 
ATOM     86  C   UNL     1       5.426  18.584   4.144  1.00  0.00     0.012 A 
ATOM     87  C   UNL     1       5.622  20.411   2.550  1.00  0.00     0.148 A 
ATOM     88  C   UNL     1       5.934  19.401   5.153  1.00  0.00     0.002 A 
ATOM     89  C   UNL     1       6.173  21.205   3.550  1.00  0.00     0.091 A 
ATOM     90  F   UNL     1       5.424  20.879   1.309  1.00  0.00    -0.205 F 
ATOM     91  C   UNL     1       6.318  20.706   4.854  1.00  0.00     0.022 A 
BRANCH  89  92
ATOM     92  S   UNL     1       6.779  22.864   3.219  1.00  0.00     0.127 S 
ATOM     93  O   UNL     1       5.672  23.689   3.697  1.00  0.00    -0.237 OA
ATOM     94  O   UNL     1       7.987  22.929   4.043  1.00  0.00    -0.237 OA
ATOM     95  O   UNL     1       7.031  22.912   1.785  1.00  0.00    -0.744 OA
ENDBRANCH  89  92
ENDBRANCH  62  85
ENDBRANCH  36  37
ENDBRANCH  28  31
ENDBRANCH  26  27
ENDBRANCH  25  26
ENDBRANCH  24  25
ENDBRANCH  23  24
ENDBRANCH   1  23
TORSDOF 22
