REMARK SMILES Cc1ccc(C)c(-n2nc(C)c(/C=C(/C#N)C(=O)NCCCCCCNC(=O)c3ccc(-c4c5nc(c(-c6cccc(S(=O)(=O)[O-])c6F)c6ccc([nH]6)c(-c6cccc(S(=O)(=O)[O-])c6F)c6nc(c(-c7cccc(S(=O)(=O)[O-])c7F)c7ccc4[nH]7)C=C6)C=C5)cc3)c2Cl)c1
REMARK SMILES IDX 23 1 22 2 21 3 20 4 19 5 17 6 18 7 14 9 13 10 12 11 8 12
REMARK SMILES IDX 9 13 92 14 10 15 93 16 11 17 7 18 1 19 2 20 3 21 94 22 4 23
REMARK SMILES IDX 5 24 6 25 15 26 16 27 24 28 25 29 26 30 27 31 28 33 29 34
REMARK SMILES IDX 30 35 91 36 31 37 90 38 32 39 33 40 34 41 84 42 35 43 89 44
REMARK SMILES IDX 83 45 85 46 36 47 88 48 82 49 81 50 37 52 69 53 49 54 68 55
REMARK SMILES IDX 50 56 53 57 67 58 86 59 51 60 52 61 66 63 87 64 54 65 38 66
REMARK SMILES IDX 39 67 47 68 40 69 42 70 48 71 41 72 43 73 44 74 45 75 46 76
REMARK SMILES IDX 70 77 71 78 79 79 72 80 74 81 80 82 73 83 75 84 76 85 77 86
REMARK SMILES IDX 78 87 55 88 56 89 64 90 57 91 59 92 65 93 58 94 60 95 61 96
REMARK SMILES IDX 62 97 63 98
REMARK H PARENT 19 8 26 32 85 51 53 62
REMARK Flexibility Score: inf
ROOT
ATOM      1  C   UNL     1      -6.915  11.092   1.196  1.00  0.00     0.002 C 
ENDROOT
BRANCH   1   2
ATOM      2  C   UNL     1      -7.167   9.852   0.324  1.00  0.00     0.002 C 
BRANCH   2   3
ATOM      3  C   UNL     1      -6.133   9.593  -0.776  1.00  0.00     0.021 C 
BRANCH   3   4
ATOM      4  C   UNL     1      -4.774   9.193  -0.194  1.00  0.00     0.116 C 
BRANCH   4   5
ATOM      5  N   UNL     1      -4.779   7.762   0.084  1.00  0.00    -0.351 N 
ATOM      6  C   UNL     1      -4.266   6.694  -0.598  1.00  0.00     0.261 C 
ATOM      7  O   UNL     1      -4.819   5.610  -0.422  1.00  0.00    -0.268 OA
ATOM      8  H   UNL     1      -5.240   7.519   0.919  1.00  0.00     0.163 HD
BRANCH   6   9
ATOM      9  C   UNL     1      -3.024   6.816  -1.421  1.00  0.00     0.117 C 
ATOM     10  C   UNL     1      -2.033   5.905  -1.387  1.00  0.00     0.038 C 
BRANCH  10  11
ATOM     11  C   UNL     1      -1.899   4.690  -0.615  1.00  0.00     0.036 A 
ATOM     12  N   UNL     1      -1.335   2.574  -0.157  1.00  0.00    -0.221 N 
ATOM     13  N   UNL     1      -2.054   2.975   0.917  1.00  0.00    -0.171 NA
ATOM     14  C   UNL     1      -1.167   3.604  -1.053  1.00  0.00     0.140 A 
ATOM     15  C   UNL     1      -2.379   4.253   0.663  1.00  0.00     0.069 A 
ATOM     16  Cl  UNL     1      -0.289   3.366  -2.505  1.00  0.00    -0.061 Cl
ATOM     17  C   UNL     1      -3.132   4.953   1.739  1.00  0.00     0.069 C 
BRANCH  12  18
ATOM     18  C   UNL     1      -0.705   1.305  -0.110  1.00  0.00     0.069 A 
ATOM     19  C   UNL     1       2.881   0.011  -0.034  1.00  0.00     0.044 C 
ATOM     20  C   UNL     1       1.383   0.053  -0.026  1.00  0.00    -0.049 A 
ATOM     21  C   UNL     1       0.646  -1.128   0.100  1.00  0.00     0.004 A 
ATOM     22  C   UNL     1       0.700   1.268  -0.145  1.00  0.00     0.032 A 
ATOM     23  C   UNL     1      -0.751  -1.093   0.135  1.00  0.00     0.006 A 
ATOM     24  C   UNL     1      -1.451   0.122   0.045  1.00  0.00    -0.025 A 
ATOM     25  C   UNL     1      -2.955   0.056   0.039  1.00  0.00     0.047 C 
ENDBRANCH  12  18
ENDBRANCH  10  11
BRANCH   9  26
ATOM     26  C   UNL     1      -3.058   7.979  -2.401  1.00  0.00     0.105 C 
ATOM     27  N   UNL     1      -3.086   8.943  -3.213  1.00  0.00    -0.192 NA
ENDBRANCH   9  26
ENDBRANCH   6   9
ENDBRANCH   4   5
ENDBRANCH   3   4
ENDBRANCH   2   3
ENDBRANCH   1   2
BRANCH   1  28
ATOM     28  C   UNL     1      -6.419  12.395   0.542  1.00  0.00     0.021 C 
BRANCH  28  29
ATOM     29  C   UNL     1      -7.402  13.250  -0.266  1.00  0.00     0.116 C 
BRANCH  29  30
ATOM     30  N   UNL     1      -8.658  13.486   0.433  1.00  0.00    -0.352 N 
ATOM     31  C   UNL     1      -9.985  13.303   0.104  1.00  0.00     0.251 C 
ATOM     32  H   UNL     1      -8.533  13.856   1.337  1.00  0.00     0.163 HD
ATOM     33  O   UNL     1     -10.830  13.818   0.823  1.00  0.00    -0.269 OA
BRANCH  31  34
ATOM     34  C   UNL     1     -10.414  12.500  -1.069  1.00  0.00     0.039 A 
ATOM     35  C   UNL     1     -11.732  12.594  -1.540  1.00  0.00     0.014 A 
ATOM     36  C   UNL     1      -9.550  11.605  -1.682  1.00  0.00     0.014 A 
ATOM     37  C   UNL     1     -12.144  11.799  -2.612  1.00  0.00     0.010 A 
ATOM     38  C   UNL     1      -9.912  10.891  -2.794  1.00  0.00     0.010 A 
ATOM     39  C   UNL     1     -11.225  10.938  -3.222  1.00  0.00    -0.014 A 
BRANCH  39  40
ATOM     40  C   UNL     1     -11.563  10.150  -4.394  1.00  0.00     0.031 A 
ATOM     41  C   UNL     1     -11.861  10.950  -5.603  1.00  0.00     0.074 A 
ATOM     42  C   UNL     1     -11.326   8.826  -4.495  1.00  0.00     0.049 A 
ATOM     43  N   UNL     1     -13.012  11.142  -6.152  1.00  0.00    -0.248 NA
ATOM     44  C   UNL     1     -10.772  11.746  -6.188  1.00  0.00     0.031 C 
ATOM     45  C   UNL     1     -10.620   7.962  -3.541  1.00  0.00     0.029 A 
ATOM     46  N   UNL     1     -11.535   8.003  -5.559  1.00  0.00    -0.354 N 
ATOM     47  C   UNL     1     -12.747  11.876  -7.305  1.00  0.00     0.074 A 
ATOM     48  C   UNL     1     -11.425  12.419  -7.137  1.00  0.00     0.031 C 
ATOM     49  C   UNL     1     -10.254   6.819  -4.162  1.00  0.00     0.029 A 
ATOM     50  C   UNL     1     -10.840   6.802  -5.490  1.00  0.00     0.049 A 
ATOM     51  H   UNL     1     -12.125   8.238  -6.311  1.00  0.00     0.167 HD
ATOM     52  C   UNL     1     -13.518  11.737  -8.419  1.00  0.00     0.034 A 
ATOM     53  C   UNL     1     -10.726   5.879  -6.473  1.00  0.00     0.034 A 
ATOM     54  C   UNL     1     -14.717  10.983  -8.132  1.00  0.00     0.049 A 
ATOM     55  C   UNL     1     -11.820   6.134  -7.439  1.00  0.00     0.074 A 
ATOM     56  C   UNL     1     -15.766  11.098  -7.243  1.00  0.00     0.029 A 
ATOM     57  N   UNL     1     -14.745   9.688  -8.592  1.00  0.00    -0.354 N 
ATOM     58  N   UNL     1     -13.085   5.944  -7.183  1.00  0.00    -0.248 NA
ATOM     59  C   UNL     1     -11.538   6.947  -8.612  1.00  0.00     0.031 C 
ATOM     60  C   UNL     1     -16.103   9.759  -6.888  1.00  0.00     0.029 A 
ATOM     61  C   UNL     1     -15.277   8.895  -7.612  1.00  0.00     0.049 A 
ATOM     62  H   UNL     1     -14.436   9.383  -9.476  1.00  0.00     0.167 HD
ATOM     63  C   UNL     1     -13.735   6.959  -7.871  1.00  0.00     0.074 A 
ATOM     64  C   UNL     1     -12.759   7.435  -8.844  1.00  0.00     0.031 C 
ATOM     65  C   UNL     1     -14.885   7.518  -7.385  1.00  0.00     0.034 A 
BRANCH  52  66
ATOM     66  C   UNL     1     -13.052  11.931  -9.848  1.00  0.00     0.023 A 
ATOM     67  C   UNL     1     -14.045  11.870 -10.854  1.00  0.00     0.012 A 
ATOM     68  C   UNL     1     -11.708  11.910 -10.286  1.00  0.00     0.148 A 
ATOM     69  C   UNL     1     -13.722  11.728 -12.207  1.00  0.00     0.002 A 
ATOM     70  C   UNL     1     -11.391  11.867 -11.640  1.00  0.00     0.091 A 
ATOM     71  F   UNL     1     -10.711  11.789  -9.407  1.00  0.00    -0.205 F 
ATOM     72  C   UNL     1     -12.392  11.737 -12.603  1.00  0.00     0.022 A 
BRANCH  70  73
ATOM     73  S   UNL     1      -9.687  11.960 -12.204  1.00  0.00     0.127 S 
ATOM     74  O   UNL     1      -9.409  10.565 -12.530  1.00  0.00    -0.237 OA
ATOM     75  O   UNL     1      -9.798  12.856 -13.355  1.00  0.00    -0.237 OA
ATOM     76  O   UNL     1      -8.941  12.523 -11.084  1.00  0.00    -0.744 OA
ENDBRANCH  70  73
ENDBRANCH  52  66
BRANCH  53  77
ATOM     77  C   UNL     1      -9.682   4.863  -6.731  1.00  0.00     0.023 A 
ATOM     78  C   UNL     1      -9.995   3.749  -7.535  1.00  0.00     0.012 A 
ATOM     79  C   UNL     1      -8.324   5.098  -6.419  1.00  0.00     0.148 A 
ATOM     80  C   UNL     1      -8.991   2.923  -8.051  1.00  0.00     0.002 A 
ATOM     81  C   UNL     1      -7.328   4.266  -6.924  1.00  0.00     0.091 A 
ATOM     82  F   UNL     1      -8.001   6.189  -5.711  1.00  0.00    -0.205 F 
ATOM     83  C   UNL     1      -7.657   3.185  -7.753  1.00  0.00     0.022 A 
BRANCH  81  84
ATOM     84  S   UNL     1      -5.583   4.552  -6.588  1.00  0.00     0.127 S 
ATOM     85  O   UNL     1      -5.083   3.194  -6.368  1.00  0.00    -0.237 OA
ATOM     86  O   UNL     1      -5.135   5.173  -7.830  1.00  0.00    -0.237 OA
ATOM     87  O   UNL     1      -5.546   5.398  -5.401  1.00  0.00    -0.744 OA
ENDBRANCH  81  84
ENDBRANCH  53  77
BRANCH  65  88
ATOM     88  C   UNL     1     -15.652   6.777  -6.316  1.00  0.00     0.023 A 
ATOM     89  C   UNL     1     -15.089   6.457  -5.063  1.00  0.00     0.012 A 
ATOM     90  C   UNL     1     -17.027   6.553  -6.516  1.00  0.00     0.148 A 
ATOM     91  C   UNL     1     -15.872   5.901  -4.047  1.00  0.00     0.002 A 
ATOM     92  C   UNL     1     -17.813   6.053  -5.484  1.00  0.00     0.091 A 
ATOM     93  F   UNL     1     -17.555   6.856  -7.712  1.00  0.00    -0.205 F 
ATOM     94  C   UNL     1     -17.237   5.715  -4.251  1.00  0.00     0.022 A 
BRANCH  92  95
ATOM     95  S   UNL     1     -19.597   5.936  -5.649  1.00  0.00     0.127 S 
ATOM     96  O   UNL     1     -19.783   4.528  -5.990  1.00  0.00    -0.237 OA
ATOM     97  O   UNL     1     -20.068   6.308  -4.313  1.00  0.00    -0.237 OA
ATOM     98  O   UNL     1     -19.958   6.893  -6.688  1.00  0.00    -0.744 OA
ENDBRANCH  92  95
ENDBRANCH  65  88
ENDBRANCH  39  40
ENDBRANCH  31  34
ENDBRANCH  29  30
ENDBRANCH  28  29
ENDBRANCH   1  28
TORSDOF 19
