REMARK SMILES O=C(NCCCCCCNC(=O)[C@H](CO)NC(=O)[C@H](CS)NC(=O)[C@H](Cc1c[nH]c2ccccc12)NC(=O)c1ccc(F)cc1)c1ccc(-c2c3nc(c(-c4cccc(S(=O)(=O)[O-])c4F)c4ccc([nH]4)c(-c4cccc(S(=O)(=O)[O-])c4F)c4nc(c(-c5cccc(S(=O)(=O)[O-])c5F)c5ccc2[nH]5)C=C4)C=C3)cc1
REMARK SMILES IDX 8 1 7 2 6 3 5 4 4 5 3 6 1 7 2 8 46 10 47 11 108 12 48 13
REMARK SMILES IDX 107 14 49 15 50 16 51 17 101 18 52 19 106 20 100 21 102 22
REMARK SMILES IDX 53 23 105 24 99 25 98 26 54 28 86 29 66 30 85 31 67 32 70 33
REMARK SMILES IDX 84 34 103 35 68 36 69 37 83 39 104 40 71 41 55 42 56 43
REMARK SMILES IDX 64 44 57 45 59 46 65 47 58 48 60 49 61 50 62 51 63 52 87 53
REMARK SMILES IDX 88 54 96 55 89 56 91 57 97 58 90 59 92 60 93 61 94 62 95 63
REMARK SMILES IDX 72 64 73 65 81 66 74 67 76 68 82 69 75 70 77 71 78 72 79 73
REMARK SMILES IDX 80 74 9 75 10 76 11 77 12 79 13 80 16 81 17 82 18 84 19 85
REMARK SMILES IDX 22 86 23 87 24 89 25 90 36 91 37 92 38 94 39 95 40 96 45 97
REMARK SMILES IDX 41 98 44 99 42 100 43 101 26 102 27 103 28 104 35 105 29 106
REMARK SMILES IDX 30 107 34 108 31 110 33 111 32 112 20 113 21 114 14 116
REMARK SMILES IDX 15 117
REMARK H PARENT 3 9 102 27 70 38 10 78 16 83 22 88 36 93 29 109 21 115 15 118
REMARK Flexibility Score: inf
ROOT
ATOM      1  C   UNL     1      14.439  -8.353   1.643  1.00  0.00     0.021 C 
ENDROOT
BRANCH   1   2
ATOM      2  C   UNL     1      15.270  -8.857   2.825  1.00  0.00     0.002 C 
BRANCH   2   3
ATOM      3  C   UNL     1      16.753  -9.112   2.541  1.00  0.00     0.002 C 
BRANCH   3   4
ATOM      4  C   UNL     1      17.512  -7.966   1.872  1.00  0.00     0.021 C 
BRANCH   4   5
ATOM      5  C   UNL     1      17.398  -6.614   2.563  1.00  0.00     0.116 C 
BRANCH   5   6
ATOM      6  N   UNL     1      17.903  -6.630   3.925  1.00  0.00    -0.352 N 
ATOM      7  O   UNL     1      19.218  -6.030   5.652  1.00  0.00    -0.269 OA
ATOM      8  C   UNL     1      18.805  -5.783   4.527  1.00  0.00     0.251 C 
ATOM      9  H   UNL     1      17.549  -7.347   4.498  1.00  0.00     0.163 HD
BRANCH   8  10
ATOM     10  C   UNL     1      19.295  -4.597   3.788  1.00  0.00     0.039 A 
ATOM     11  C   UNL     1      18.407  -3.779   3.086  1.00  0.00     0.014 A 
ATOM     12  C   UNL     1      20.663  -4.316   3.782  1.00  0.00     0.014 A 
ATOM     13  C   UNL     1      18.902  -2.782   2.253  1.00  0.00     0.010 A 
ATOM     14  C   UNL     1      21.150  -3.253   3.014  1.00  0.00     0.010 A 
ATOM     15  C   UNL     1      20.278  -2.502   2.210  1.00  0.00    -0.014 A 
BRANCH  15  16
ATOM     16  C   UNL     1      20.765  -1.386   1.357  1.00  0.00     0.031 A 
ATOM     17  C   UNL     1      21.692  -1.633   0.198  1.00  0.00     0.074 A 
ATOM     18  C   UNL     1      20.338  -0.136   1.627  1.00  0.00     0.049 A 
ATOM     19  N   UNL     1      22.160  -0.774  -0.671  1.00  0.00    -0.248 NA
ATOM     20  C   UNL     1      22.160  -3.012  -0.018  1.00  0.00     0.031 C 
ATOM     21  C   UNL     1      19.474   0.229   2.752  1.00  0.00     0.029 A 
ATOM     22  N   UNL     1      20.558   1.053   0.979  1.00  0.00    -0.354 N 
ATOM     23  C   UNL     1      23.003  -1.494  -1.509  1.00  0.00     0.074 A 
ATOM     24  C   UNL     1      22.991  -2.863  -1.043  1.00  0.00     0.031 C 
ATOM     25  C   UNL     1      19.205   1.541   2.693  1.00  0.00     0.029 A 
ATOM     26  C   UNL     1      19.919   2.122   1.562  1.00  0.00     0.049 A 
ATOM     27  H   UNL     1      21.120   1.133   0.174  1.00  0.00     0.167 HD
ATOM     28  C   UNL     1      23.706  -1.055  -2.580  1.00  0.00     0.034 A 
ATOM     29  C   UNL     1      19.910   3.429   1.232  1.00  0.00     0.034 A 
ATOM     30  C   UNL     1      23.673   0.297  -3.069  1.00  0.00     0.049 A 
ATOM     31  C   UNL     1      20.677   3.878   0.022  1.00  0.00     0.074 A 
ATOM     32  C   UNL     1      24.293   0.816  -4.193  1.00  0.00     0.029 A 
ATOM     33  N   UNL     1      22.991   1.344  -2.470  1.00  0.00    -0.354 N 
ATOM     34  N   UNL     1      21.361   3.155  -0.831  1.00  0.00    -0.248 NA
ATOM     35  C   UNL     1      20.657   5.315  -0.286  1.00  0.00     0.031 C 
ATOM     36  C   UNL     1      24.001   2.180  -4.262  1.00  0.00     0.029 A 
ATOM     37  C   UNL     1      23.184   2.508  -3.193  1.00  0.00     0.049 A 
ATOM     38  H   UNL     1      22.449   1.270  -1.651  1.00  0.00     0.167 HD
ATOM     39  C   UNL     1      21.843   4.044  -1.783  1.00  0.00     0.074 A 
ATOM     40  C   UNL     1      21.346   5.356  -1.421  1.00  0.00     0.031 C 
ATOM     41  C   UNL     1      22.644   3.798  -2.848  1.00  0.00     0.034 A 
BRANCH  28  42
ATOM     42  C   UNL     1      24.536  -2.049  -3.350  1.00  0.00     0.023 A 
ATOM     43  C   UNL     1      23.897  -2.951  -4.223  1.00  0.00     0.012 A 
ATOM     44  C   UNL     1      25.944  -2.001  -3.312  1.00  0.00     0.148 A 
ATOM     45  C   UNL     1      24.645  -3.799  -5.039  1.00  0.00     0.002 A 
ATOM     46  C   UNL     1      26.683  -2.823  -4.156  1.00  0.00     0.091 A 
ATOM     47  F   UNL     1      26.531  -1.144  -2.464  1.00  0.00    -0.205 F 
ATOM     48  C   UNL     1      26.036  -3.726  -5.015  1.00  0.00     0.022 A 
BRANCH  46  49
ATOM     49  S   UNL     1      28.476  -2.751  -4.261  1.00  0.00     0.127 S 
ATOM     50  O   UNL     1      28.854  -4.051  -3.707  1.00  0.00    -0.237 OA
ATOM     51  O   UNL     1      28.693  -2.615  -5.701  1.00  0.00    -0.237 OA
ATOM     52  O   UNL     1      28.881  -1.598  -3.470  1.00  0.00    -0.744 OA
ENDBRANCH  46  49
ENDBRANCH  28  42
BRANCH  29  53
ATOM     53  C   UNL     1      19.099   4.382   2.040  1.00  0.00     0.023 A 
ATOM     54  C   UNL     1      17.940   4.951   1.481  1.00  0.00     0.012 A 
ATOM     55  C   UNL     1      19.424   4.662   3.382  1.00  0.00     0.148 A 
ATOM     56  C   UNL     1      17.125   5.791   2.241  1.00  0.00     0.002 A 
ATOM     57  C   UNL     1      18.575   5.447   4.151  1.00  0.00     0.091 A 
ATOM     58  F   UNL     1      20.544   4.127   3.890  1.00  0.00    -0.205 F 
ATOM     59  C   UNL     1      17.432   6.026   3.579  1.00  0.00     0.022 A 
BRANCH  57  60
ATOM     60  S   UNL     1      18.813   5.661   5.919  1.00  0.00     0.127 S 
ATOM     61  O   UNL     1      19.316   7.030   5.990  1.00  0.00    -0.237 OA
ATOM     62  O   UNL     1      17.456   5.475   6.435  1.00  0.00    -0.237 OA
ATOM     63  O   UNL     1      19.748   4.616   6.314  1.00  0.00    -0.744 OA
ENDBRANCH  57  60
ENDBRANCH  29  53
BRANCH  41  64
ATOM     64  C   UNL     1      23.044   4.962  -3.713  1.00  0.00     0.023 A 
ATOM     65  C   UNL     1      24.025   5.861  -3.249  1.00  0.00     0.012 A 
ATOM     66  C   UNL     1      22.546   5.093  -5.024  1.00  0.00     0.148 A 
ATOM     67  C   UNL     1      24.495   6.881  -4.074  1.00  0.00     0.002 A 
ATOM     68  C   UNL     1      23.052   6.084  -5.856  1.00  0.00     0.091 A 
ATOM     69  F   UNL     1      21.603   4.234  -5.437  1.00  0.00    -0.205 F 
ATOM     70  C   UNL     1      24.021   6.984  -5.380  1.00  0.00     0.022 A 
BRANCH  68  71
ATOM     71  S   UNL     1      22.575   6.234  -7.581  1.00  0.00     0.127 S 
ATOM     72  O   UNL     1      21.807   7.478  -7.570  1.00  0.00    -0.237 OA
ATOM     73  O   UNL     1      23.871   6.323  -8.254  1.00  0.00    -0.237 OA
ATOM     74  O   UNL     1      21.810   5.035  -7.894  1.00  0.00    -0.744 OA
ENDBRANCH  68  71
ENDBRANCH  41  64
ENDBRANCH  15  16
ENDBRANCH   8  10
ENDBRANCH   5   6
ENDBRANCH   4   5
ENDBRANCH   3   4
ENDBRANCH   2   3
ENDBRANCH   1   2
BRANCH   1  75
ATOM     75  C   UNL     1      14.516  -9.207   0.384  1.00  0.00     0.116 C 
BRANCH  75  76
ATOM     76  N   UNL     1      13.917 -10.519   0.563  1.00  0.00    -0.354 N 
ATOM     77  C   UNL     1      13.095 -11.207  -0.284  1.00  0.00     0.244 C 
ATOM     78  H   UNL     1      14.134 -10.973   1.409  1.00  0.00     0.163 HD
ATOM     79  O   UNL     1      12.796 -12.370  -0.000  1.00  0.00    -0.273 OA
BRANCH  77  80
ATOM     80  C   UNL     1      12.472 -10.490  -1.492  1.00  0.00     0.197 C 
BRANCH  80  81
ATOM     81  N   UNL     1      12.375 -11.427  -2.609  1.00  0.00    -0.340 N 
ATOM     82  C   UNL     1      13.019 -11.524  -3.796  1.00  0.00     0.244 C 
ATOM     83  H   UNL     1      11.702 -12.132  -2.470  1.00  0.00     0.164 HD
ATOM     84  O   UNL     1      12.706 -12.497  -4.495  1.00  0.00    -0.273 OA
BRANCH  82  85
ATOM     85  C   UNL     1      14.202 -10.628  -4.247  1.00  0.00     0.181 C 
BRANCH  85  86
ATOM     86  N   UNL     1      14.326  -9.259  -3.733  1.00  0.00    -0.342 N 
ATOM     87  C   UNL     1      14.173  -7.994  -4.202  1.00  0.00     0.243 C 
ATOM     88  H   UNL     1      14.593  -9.257  -2.786  1.00  0.00     0.164 HD
ATOM     89  O   UNL     1      14.459  -7.138  -3.355  1.00  0.00    -0.273 OA
BRANCH  87  90
ATOM     90  C   UNL     1      13.876  -7.593  -5.684  1.00  0.00     0.176 C 
BRANCH  90  91
ATOM     91  N   UNL     1      13.608  -8.714  -6.590  1.00  0.00    -0.340 N 
ATOM     92  C   UNL     1      14.395  -9.350  -7.511  1.00  0.00     0.251 C 
ATOM     93  H   UNL     1      12.695  -9.075  -6.524  1.00  0.00     0.164 HD
ATOM     94  O   UNL     1      13.862 -10.187  -8.239  1.00  0.00    -0.269 OA
BRANCH  92  95
ATOM     95  C   UNL     1      15.853  -9.100  -7.650  1.00  0.00     0.040 A 
ATOM     96  C   UNL     1      16.701  -8.814  -6.572  1.00  0.00     0.017 A 
ATOM     97  C   UNL     1      16.411  -9.276  -8.926  1.00  0.00     0.017 A 
ATOM     98  C   UNL     1      18.075  -8.663  -6.772  1.00  0.00     0.040 A 
ATOM     99  C   UNL     1      17.786  -9.134  -9.123  1.00  0.00     0.040 A 
ATOM    100  C   UNL     1      18.604  -8.824  -8.045  1.00  0.00     0.123 A 
ATOM    101  F   UNL     1      19.924  -8.701  -8.230  1.00  0.00    -0.207 F 
ENDBRANCH  92  95
ENDBRANCH  90  91
BRANCH  90 102
ATOM    102  C   UNL     1      12.778  -6.521  -5.910  1.00  0.00     0.072 C 
BRANCH 102 103
ATOM    103  C   UNL     1      12.475  -5.591  -4.787  1.00  0.00    -0.020 A 
ATOM    104  C   UNL     1      13.069  -4.373  -4.521  1.00  0.00     0.087 A 
ATOM    105  C   UNL     1      11.495  -5.808  -3.766  1.00  0.00     0.003 A 
ATOM    106  N   UNL     1      12.539  -3.885  -3.354  1.00  0.00    -0.361 N 
ATOM    107  C   UNL     1      11.584  -4.746  -2.868  1.00  0.00     0.046 A 
ATOM    108  C   UNL     1      10.562  -6.833  -3.514  1.00  0.00     0.010 A 
ATOM    109  H   UNL     1      12.805  -3.039  -2.926  1.00  0.00     0.166 HD
ATOM    110  C   UNL     1      10.807  -4.675  -1.705  1.00  0.00     0.026 A 
ATOM    111  C   UNL     1       9.767  -6.768  -2.367  1.00  0.00     0.001 A 
ATOM    112  C   UNL     1       9.900  -5.712  -1.470  1.00  0.00     0.002 A 
ENDBRANCH 102 103
ENDBRANCH  90 102
ENDBRANCH  87  90
ENDBRANCH  85  86
BRANCH  85 113
ATOM    113  C   UNL     1      15.514 -11.418  -4.035  1.00  0.00     0.101 C 
BRANCH 113 114
ATOM    114  S   UNL     1      16.187 -11.314  -2.339  1.00  0.00    -0.177 SA
ATOM    115  H   UNL     1      16.502 -10.022  -2.055  1.00  0.00     0.102 HD
ENDBRANCH 113 114
ENDBRANCH  85 113
ENDBRANCH  82  85
ENDBRANCH  80  81
BRANCH  80 116
ATOM    116  C   UNL     1      11.085  -9.996  -1.065  1.00  0.00     0.191 C 
BRANCH 116 117
ATOM    117  O   UNL     1      11.162  -8.807  -0.284  1.00  0.00    -0.394 OA
ATOM    118  H   UNL     1      11.668  -8.984   0.525  1.00  0.00     0.210 HD
ENDBRANCH 116 117
ENDBRANCH  80 116
ENDBRANCH  77  80
ENDBRANCH  75  76
ENDBRANCH   1  75
TORSDOF 28
