REMARK SMILES O=C(Cn1c(=O)n(Cc2cccnc2)c(=O)c2sccc21)NCCCCCCNC(=O)c1ccc(-c2c3nc(c(-c4cccc(S(=O)(=O)[O-])c4F)c4ccc([nH]4)c(-c4cccc(S(=O)(=O)[O-])c4F)c4nc(c(-c5cccc(S(=O)(=O)[O-])c5F)c5ccc2[nH]5)C=C4)C=C3)cc1
REMARK SMILES IDX 25 1 24 2 23 3 22 4 1 5 2 6 3 8 4 9 5 10 21 11 6 12 7 13
REMARK SMILES IDX 17 14 20 15 15 16 18 17 19 18 16 19 8 20 9 21 10 22 14 23
REMARK SMILES IDX 11 24 13 25 12 26 26 27 27 28 28 29 29 30 30 31 31 33 32 34
REMARK SMILES IDX 33 35 94 36 34 37 93 38 35 39 36 40 37 41 87 42 38 43 92 44
REMARK SMILES IDX 86 45 88 46 39 47 91 48 85 49 84 50 40 52 72 53 52 54 71 55
REMARK SMILES IDX 53 56 56 57 70 58 89 59 54 60 55 61 69 63 90 64 57 65 41 66
REMARK SMILES IDX 42 67 50 68 43 69 45 70 51 71 44 72 46 73 47 74 48 75 49 76
REMARK SMILES IDX 73 77 74 78 82 79 75 80 77 81 83 82 76 83 78 84 79 85 80 86
REMARK SMILES IDX 81 87 58 88 59 89 67 90 60 91 62 92 68 93 61 94 63 95 64 96
REMARK SMILES IDX 65 97 66 98
REMARK H PARENT 22 7 29 32 88 51 56 62
REMARK Flexibility Score: inf
ROOT
ATOM      1  C   UNL     1       4.091   2.587  -2.656  1.00  0.00     0.002 C 
ENDROOT
BRANCH   1   2
ATOM      2  C   UNL     1       2.595   2.512  -2.317  1.00  0.00     0.021 C 
BRANCH   2   3
ATOM      3  C   UNL     1       2.067   1.108  -2.024  1.00  0.00     0.116 C 
BRANCH   3   4
ATOM      4  N   UNL     1       2.761   0.511  -0.903  1.00  0.00    -0.355 N 
ATOM      5  O   UNL     1       0.924  -0.378   0.168  1.00  0.00    -0.273 OA
ATOM      6  C   UNL     1       2.128  -0.142   0.132  1.00  0.00     0.240 C 
ATOM      7  H   UNL     1       3.744   0.575  -0.878  1.00  0.00     0.163 HD
BRANCH   6   8
ATOM      8  C   UNL     1       3.084  -0.617   1.225  1.00  0.00     0.227 C 
BRANCH   8   9
ATOM      9  N   UNL     1       3.800  -1.805   0.749  1.00  0.00    -0.283 N 
ATOM     10  C   UNL     1       5.002  -1.613   0.052  1.00  0.00     0.332 A 
ATOM     11  C   UNL     1       3.269  -3.086   0.896  1.00  0.00     0.070 A 
ATOM     12  O   UNL     1       5.443  -0.475  -0.142  1.00  0.00    -0.247 OA
ATOM     13  N   UNL     1       5.642  -2.746  -0.463  1.00  0.00    -0.254 N 
ATOM     14  C   UNL     1       3.883  -4.145   0.288  1.00  0.00     0.116 A 
ATOM     15  C   UNL     1       2.096  -3.497   1.594  1.00  0.00     0.039 A 
ATOM     16  C   UNL     1       5.054  -4.014  -0.528  1.00  0.00     0.274 A 
ATOM     17  S   UNL     1       3.113  -5.628   0.580  1.00  0.00    -0.136 S 
ATOM     18  C   UNL     1       1.907  -4.863   1.524  1.00  0.00     0.068 A 
ATOM     19  O   UNL     1       5.491  -4.913  -1.241  1.00  0.00    -0.268 OA
BRANCH  13  20
ATOM     20  C   UNL     1       6.916  -2.569  -1.156  1.00  0.00     0.168 C 
BRANCH  20  21
ATOM     21  C   UNL     1       8.108  -3.064  -0.365  1.00  0.00    -0.010 A 
ATOM     22  C   UNL     1       8.997  -2.180   0.255  1.00  0.00     0.009 A 
ATOM     23  C   UNL     1       8.395  -4.424  -0.250  1.00  0.00     0.116 A 
ATOM     24  C   UNL     1      10.104  -2.676   0.944  1.00  0.00     0.020 A 
ATOM     25  N   UNL     1       9.452  -4.934   0.425  1.00  0.00    -0.264 NA
ATOM     26  C   UNL     1      10.284  -4.047   1.005  1.00  0.00     0.111 A 
ENDBRANCH  20  21
ENDBRANCH  13  20
ENDBRANCH   8   9
ENDBRANCH   6   8
ENDBRANCH   3   4
ENDBRANCH   2   3
ENDBRANCH   1   2
BRANCH   1  27
ATOM     27  C   UNL     1       4.561   1.722  -3.834  1.00  0.00     0.002 C 
BRANCH  27  28
ATOM     28  C   UNL     1       3.862   1.967  -5.178  1.00  0.00     0.021 C 
BRANCH  28  29
ATOM     29  C   UNL     1       4.057   3.370  -5.740  1.00  0.00     0.116 C 
BRANCH  29  30
ATOM     30  N   UNL     1       5.448   3.639  -6.107  1.00  0.00    -0.352 N 
ATOM     31  C   UNL     1       5.995   4.820  -6.565  1.00  0.00     0.251 C 
ATOM     32  H   UNL     1       6.071   2.882  -6.017  1.00  0.00     0.163 HD
ATOM     33  O   UNL     1       7.061   4.822  -7.173  1.00  0.00    -0.269 OA
BRANCH  31  34
ATOM     34  C   UNL     1       5.279   6.082  -6.310  1.00  0.00     0.039 A 
ATOM     35  C   UNL     1       5.177   7.068  -7.297  1.00  0.00     0.014 A 
ATOM     36  C   UNL     1       4.685   6.259  -5.063  1.00  0.00     0.014 A 
ATOM     37  C   UNL     1       4.398   8.195  -7.045  1.00  0.00     0.010 A 
ATOM     38  C   UNL     1       3.809   7.298  -4.867  1.00  0.00     0.010 A 
ATOM     39  C   UNL     1       3.699   8.295  -5.833  1.00  0.00    -0.014 A 
BRANCH  39  40
ATOM     40  C   UNL     1       2.762   9.390  -5.601  1.00  0.00     0.031 A 
ATOM     41  C   UNL     1       1.668   9.509  -6.605  1.00  0.00     0.074 A 
ATOM     42  C   UNL     1       2.737  10.097  -4.450  1.00  0.00     0.049 A 
ATOM     43  N   UNL     1       1.468  10.467  -7.449  1.00  0.00    -0.248 NA
ATOM     44  C   UNL     1       0.756   8.367  -6.774  1.00  0.00     0.031 C 
ATOM     45  C   UNL     1       3.526   9.867  -3.232  1.00  0.00     0.029 A 
ATOM     46  N   UNL     1       1.884  11.087  -4.071  1.00  0.00    -0.354 N 
ATOM     47  C   UNL     1       0.274  10.156  -8.101  1.00  0.00     0.074 A 
ATOM     48  C   UNL     1      -0.003   8.779  -7.791  1.00  0.00     0.031 C 
ATOM     49  C   UNL     1       2.942  10.499  -2.191  1.00  0.00     0.029 A 
ATOM     50  C   UNL     1       1.867  11.325  -2.700  1.00  0.00     0.049 A 
ATOM     51  H   UNL     1       1.329  11.590  -4.710  1.00  0.00     0.167 HD
ATOM     52  C   UNL     1      -0.514  11.127  -8.643  1.00  0.00     0.034 A 
ATOM     53  C   UNL     1       1.002  12.123  -2.032  1.00  0.00     0.034 A 
ATOM     54  C   UNL     1       0.191  12.381  -8.724  1.00  0.00     0.049 A 
ATOM     55  C   UNL     1       0.432  13.059  -3.023  1.00  0.00     0.074 A 
ATOM     56  C   UNL     1       1.312  12.848  -9.377  1.00  0.00     0.029 A 
ATOM     57  N   UNL     1      -0.087  13.287  -7.731  1.00  0.00    -0.354 N 
ATOM     58  N   UNL     1       1.125  13.977  -3.635  1.00  0.00    -0.248 NA
ATOM     59  C   UNL     1      -0.859  12.748  -3.611  1.00  0.00     0.031 C 
ATOM     60  C   UNL     1       1.900  13.786  -8.478  1.00  0.00     0.029 A 
ATOM     61  C   UNL     1       1.084  13.879  -7.347  1.00  0.00     0.049 A 
ATOM     62  H   UNL     1      -0.978  13.477  -7.359  1.00  0.00     0.167 HD
ATOM     63  C   UNL     1       0.578  14.025  -4.908  1.00  0.00     0.074 A 
ATOM     64  C   UNL     1      -0.723  13.375  -4.782  1.00  0.00     0.031 C 
ATOM     65  C   UNL     1       1.355  14.319  -5.992  1.00  0.00     0.034 A 
BRANCH  52  66
ATOM     66  C   UNL     1      -2.027  11.085  -8.762  1.00  0.00     0.023 A 
ATOM     67  C   UNL     1      -2.649  12.160  -9.442  1.00  0.00     0.012 A 
ATOM     68  C   UNL     1      -2.877  10.223  -8.034  1.00  0.00     0.148 A 
ATOM     69  C   UNL     1      -4.026  12.397  -9.355  1.00  0.00     0.002 A 
ATOM     70  C   UNL     1      -4.257  10.411  -8.021  1.00  0.00     0.091 A 
ATOM     71  F   UNL     1      -2.360   9.289  -7.233  1.00  0.00    -0.205 F 
ATOM     72  C   UNL     1      -4.833  11.516  -8.650  1.00  0.00     0.022 A 
BRANCH  70  73
ATOM     73  S   UNL     1      -5.357   9.262  -7.183  1.00  0.00     0.127 S 
ATOM     74  O   UNL     1      -5.759  10.039  -6.014  1.00  0.00    -0.237 OA
ATOM     75  O   UNL     1      -6.404   9.066  -8.187  1.00  0.00    -0.237 OA
ATOM     76  O   UNL     1      -4.554   8.074  -6.921  1.00  0.00    -0.744 OA
ENDBRANCH  70  73
ENDBRANCH  52  66
BRANCH  53  77
ATOM     77  C   UNL     1       0.452  12.026  -0.662  1.00  0.00     0.023 A 
ATOM     78  C   UNL     1      -0.116  13.174  -0.072  1.00  0.00     0.012 A 
ATOM     79  C   UNL     1       0.184  10.770  -0.077  1.00  0.00     0.148 A 
ATOM     80  C   UNL     1      -0.980  13.069   1.023  1.00  0.00     0.002 A 
ATOM     81  C   UNL     1      -0.679  10.671   1.011  1.00  0.00     0.091 A 
ATOM     82  F   UNL     1       0.693   9.670  -0.649  1.00  0.00    -0.205 F 
ATOM     83  C   UNL     1      -1.275  11.818   1.553  1.00  0.00     0.022 A 
BRANCH  81  84
ATOM     84  S   UNL     1      -1.151   9.088   1.721  1.00  0.00     0.127 S 
ATOM     85  O   UNL     1      -0.992   9.337   3.155  1.00  0.00    -0.237 OA
ATOM     86  O   UNL     1      -2.534   8.959   1.272  1.00  0.00    -0.237 OA
ATOM     87  O   UNL     1      -0.214   8.114   1.176  1.00  0.00    -0.744 OA
ENDBRANCH  81  84
ENDBRANCH  53  77
BRANCH  65  88
ATOM     88  C   UNL     1       2.724  14.907  -5.748  1.00  0.00     0.023 A 
ATOM     89  C   UNL     1       3.746  14.199  -5.082  1.00  0.00     0.012 A 
ATOM     90  C   UNL     1       3.039  16.127  -6.369  1.00  0.00     0.148 A 
ATOM     91  C   UNL     1       5.048  14.703  -5.026  1.00  0.00     0.002 A 
ATOM     92  C   UNL     1       4.347  16.597  -6.360  1.00  0.00     0.091 A 
ATOM     93  F   UNL     1       2.056  16.792  -6.995  1.00  0.00    -0.205 F 
ATOM     94  C   UNL     1       5.353  15.894  -5.681  1.00  0.00     0.022 A 
BRANCH  92  95
ATOM     95  S   UNL     1       4.829  18.041  -7.311  1.00  0.00     0.127 S 
ATOM     96  O   UNL     1       4.998  19.051  -6.268  1.00  0.00    -0.237 OA
ATOM     97  O   UNL     1       6.073  17.600  -7.944  1.00  0.00    -0.237 OA
ATOM     98  O   UNL     1       3.740  18.284  -8.249  1.00  0.00    -0.744 OA
ENDBRANCH  92  95
ENDBRANCH  65  88
ENDBRANCH  39  40
ENDBRANCH  31  34
ENDBRANCH  29  30
ENDBRANCH  28  29
ENDBRANCH  27  28
ENDBRANCH   1  27
TORSDOF 19
