REMARK SMILES O=C(C[C@@H]1COc2ccccc2N1Cc1ccccc1)NCCCCCCNC(=O)c1ccc(-c2c3nc(c(-c4cccc(S(=O)(=O)[O-])c4F)c4ccc([nH]4)c(-c4cccc(S(=O)(=O)[O-])c4F)c4nc(c(-c5cccc(S(=O)(=O)[O-])c5F)c5ccc2[nH]5)C=C4)C=C3)cc1
REMARK SMILES IDX 24 1 23 2 22 3 21 4 1 5 2 6 3 8 4 9 5 10 13 11 6 12 12 13
REMARK SMILES IDX 7 14 11 15 8 16 10 17 9 18 14 19 15 20 16 21 20 22 17 23
REMARK SMILES IDX 19 24 18 25 25 26 26 27 27 28 28 29 29 30 30 32 31 33 32 34
REMARK SMILES IDX 93 35 33 36 92 37 34 38 35 39 36 40 86 41 37 42 91 43 85 44
REMARK SMILES IDX 87 45 38 46 90 47 84 48 83 49 39 51 71 52 51 53 70 54 52 55
REMARK SMILES IDX 55 56 69 57 88 58 53 59 54 60 68 62 89 63 56 64 40 65 41 66
REMARK SMILES IDX 49 67 42 68 44 69 50 70 43 71 45 72 46 73 47 74 48 75 72 76
REMARK SMILES IDX 73 77 81 78 74 79 76 80 82 81 75 82 77 83 78 84 79 85 80 86
REMARK SMILES IDX 57 87 58 88 66 89 59 90 61 91 67 92 60 93 62 94 63 95 64 96
REMARK SMILES IDX 65 97
REMARK H PARENT 21 7 28 31 87 50 55 61
REMARK Flexibility Score: inf
ROOT
ATOM      1  C   UNL     1       4.112   3.335  -1.588  1.00  0.00     0.002 C 
ENDROOT
BRANCH   1   2
ATOM      2  C   UNL     1       2.609   3.220  -1.292  1.00  0.00     0.021 C 
BRANCH   2   3
ATOM      3  C   UNL     1       2.030   1.810  -1.405  1.00  0.00     0.116 C 
BRANCH   3   4
ATOM      4  N   UNL     1       2.735   0.882  -0.545  1.00  0.00    -0.356 N 
ATOM      5  O   UNL     1       0.888  -0.161   0.333  1.00  0.00    -0.275 OA
ATOM      6  C   UNL     1       2.105  -0.082   0.209  1.00  0.00     0.222 C 
ATOM      7  H   UNL     1       3.716   0.944  -0.496  1.00  0.00     0.163 HD
BRANCH   6   8
ATOM      8  C   UNL     1       3.059  -0.972   0.986  1.00  0.00     0.128 C 
BRANCH   8   9
ATOM      9  C   UNL     1       3.847  -2.058   0.231  1.00  0.00     0.129 C 
ATOM     10  C   UNL     1       4.604  -1.633  -1.036  1.00  0.00     0.255 C 
ATOM     11  N   UNL     1       3.005  -3.222  -0.081  1.00  0.00    -0.357 N 
ATOM     12  O   UNL     1       3.767  -1.310  -2.147  1.00  0.00    -0.489 OA
ATOM     13  C   UNL     1       2.243  -3.019  -1.251  1.00  0.00     0.080 A 
ATOM     14  C   UNL     1       2.646  -2.104  -2.247  1.00  0.00     0.142 A 
ATOM     15  C   UNL     1       1.024  -3.682  -1.440  1.00  0.00     0.030 A 
ATOM     16  C   UNL     1       1.876  -1.903  -3.397  1.00  0.00     0.048 A 
ATOM     17  C   UNL     1       0.261  -3.497  -2.596  1.00  0.00     0.002 A 
ATOM     18  C   UNL     1       0.690  -2.611  -3.578  1.00  0.00     0.004 A 
BRANCH  11  19
ATOM     19  C   UNL     1       3.586  -4.562   0.105  1.00  0.00     0.152 C 
BRANCH  19  20
ATOM     20  C   UNL     1       2.650  -5.516   0.811  1.00  0.00    -0.029 A 
ATOM     21  C   UNL     1       2.470  -5.450   2.200  1.00  0.00     0.005 A 
ATOM     22  C   UNL     1       1.913  -6.458   0.078  1.00  0.00     0.005 A 
ATOM     23  C   UNL     1       1.547  -6.285   2.834  1.00  0.00     0.000 A 
ATOM     24  C   UNL     1       0.967  -7.266   0.707  1.00  0.00     0.000 A 
ATOM     25  C   UNL     1       0.783  -7.178   2.084  1.00  0.00     0.000 A 
ENDBRANCH  19  20
ENDBRANCH  11  19
ENDBRANCH   8   9
ENDBRANCH   6   8
ENDBRANCH   3   4
ENDBRANCH   2   3
ENDBRANCH   1   2
BRANCH   1  26
ATOM     26  C   UNL     1       4.543   2.910  -2.995  1.00  0.00     0.002 C 
BRANCH  26  27
ATOM     27  C   UNL     1       3.895   3.691  -4.140  1.00  0.00     0.021 C 
BRANCH  27  28
ATOM     28  C   UNL     1       4.050   5.208  -4.065  1.00  0.00     0.116 C 
BRANCH  28  29
ATOM     29  N   UNL     1       5.440   5.638  -4.125  1.00  0.00    -0.352 N 
ATOM     30  C   UNL     1       6.014   6.609  -4.911  1.00  0.00     0.251 C 
ATOM     31  H   UNL     1       6.055   5.169  -3.516  1.00  0.00     0.163 HD
ATOM     32  O   UNL     1       7.235   6.746  -4.928  1.00  0.00    -0.269 OA
BRANCH  30  33
ATOM     33  C   UNL     1       5.160   7.466  -5.762  1.00  0.00     0.039 A 
ATOM     34  C   UNL     1       5.505   7.645  -7.104  1.00  0.00     0.014 A 
ATOM     35  C   UNL     1       4.008   8.067  -5.247  1.00  0.00     0.014 A 
ATOM     36  C   UNL     1       4.652   8.360  -7.949  1.00  0.00     0.010 A 
ATOM     37  C   UNL     1       3.125   8.718  -6.105  1.00  0.00     0.010 A 
ATOM     38  C   UNL     1       3.432   8.863  -7.467  1.00  0.00    -0.014 A 
BRANCH  38  39
ATOM     39  C   UNL     1       2.441   9.491  -8.380  1.00  0.00     0.031 A 
ATOM     40  C   UNL     1       2.030  10.925  -8.197  1.00  0.00     0.074 A 
ATOM     41  C   UNL     1       1.829   8.732  -9.310  1.00  0.00     0.049 A 
ATOM     42  N   UNL     1       1.129  11.614  -8.850  1.00  0.00    -0.248 NA
ATOM     43  C   UNL     1       2.699  11.677  -7.124  1.00  0.00     0.031 C 
ATOM     44  C   UNL     1       2.071   7.304  -9.527  1.00  0.00     0.029 A 
ATOM     45  N   UNL     1       0.848   9.044 -10.220  1.00  0.00    -0.354 N 
ATOM     46  C   UNL     1       1.101  12.867  -8.252  1.00  0.00     0.074 A 
ATOM     47  C   UNL     1       2.050  12.832  -7.159  1.00  0.00     0.031 C 
ATOM     48  C   UNL     1       1.255   6.862 -10.496  1.00  0.00     0.029 A 
ATOM     49  C   UNL     1       0.409   7.962 -10.947  1.00  0.00     0.049 A 
ATOM     50  H   UNL     1       0.494   9.954 -10.340  1.00  0.00     0.167 HD
ATOM     51  C   UNL     1       0.374  13.958  -8.596  1.00  0.00     0.034 A 
ATOM     52  C   UNL     1      -0.578   7.857 -11.858  1.00  0.00     0.034 A 
ATOM     53  C   UNL     1      -0.552  13.997  -9.696  1.00  0.00     0.049 A 
ATOM     54  C   UNL     1      -1.355   9.085 -12.243  1.00  0.00     0.074 A 
ATOM     55  C   UNL     1      -1.268  15.077 -10.181  1.00  0.00     0.029 A 
ATOM     56  N   UNL     1      -0.908  12.903 -10.471  1.00  0.00    -0.354 N 
ATOM     57  N   UNL     1      -1.244  10.308 -11.784  1.00  0.00    -0.248 NA
ATOM     58  C   UNL     1      -2.369   8.929 -13.296  1.00  0.00     0.031 C 
ATOM     59  C   UNL     1      -2.079  14.630 -11.230  1.00  0.00     0.029 A 
ATOM     60  C   UNL     1      -1.847  13.277 -11.419  1.00  0.00     0.049 A 
ATOM     61  H   UNL     1      -0.547  11.994 -10.364  1.00  0.00     0.167 HD
ATOM     62  C   UNL     1      -2.155  11.071 -12.505  1.00  0.00     0.074 A 
ATOM     63  C   UNL     1      -2.791  10.177 -13.451  1.00  0.00     0.031 C 
ATOM     64  C   UNL     1      -2.449  12.389 -12.382  1.00  0.00     0.034 A 
BRANCH  51  65
ATOM     65  C   UNL     1       0.593  15.218  -7.796  1.00  0.00     0.023 A 
ATOM     66  C   UNL     1       1.816  15.912  -7.914  1.00  0.00     0.012 A 
ATOM     67  C   UNL     1      -0.415  15.736  -6.960  1.00  0.00     0.148 A 
ATOM     68  C   UNL     1       2.050  17.073  -7.178  1.00  0.00     0.002 A 
ATOM     69  C   UNL     1      -0.192  16.921  -6.266  1.00  0.00     0.091 A 
ATOM     70  F   UNL     1      -1.564  15.056  -6.843  1.00  0.00    -0.205 F 
ATOM     71  C   UNL     1       1.044  17.582  -6.363  1.00  0.00     0.022 A 
BRANCH  69  72
ATOM     72  S   UNL     1      -1.453  17.700  -5.252  1.00  0.00     0.127 S 
ATOM     73  O   UNL     1      -0.966  17.414  -3.903  1.00  0.00    -0.237 OA
ATOM     74  O   UNL     1      -1.349  19.104  -5.652  1.00  0.00    -0.237 OA
ATOM     75  O   UNL     1      -2.709  17.059  -5.615  1.00  0.00    -0.744 OA
ENDBRANCH  69  72
ENDBRANCH  51  65
BRANCH  52  76
ATOM     76  C   UNL     1      -0.851   6.538 -12.494  1.00  0.00     0.023 A 
ATOM     77  C   UNL     1      -0.505   6.329 -13.843  1.00  0.00     0.012 A 
ATOM     78  C   UNL     1      -1.397   5.472 -11.751  1.00  0.00     0.148 A 
ATOM     79  C   UNL     1      -0.718   5.090 -14.447  1.00  0.00     0.002 A 
ATOM     80  C   UNL     1      -1.552   4.224 -12.342  1.00  0.00     0.091 A 
ATOM     81  F   UNL     1      -1.728   5.696 -10.472  1.00  0.00    -0.205 F 
ATOM     82  C   UNL     1      -1.229   4.035 -13.694  1.00  0.00     0.022 A 
BRANCH  80  83
ATOM     83  S   UNL     1      -2.067   2.775 -11.414  1.00  0.00     0.127 S 
ATOM     84  O   UNL     1      -3.384   2.506 -11.986  1.00  0.00    -0.237 OA
ATOM     85  O   UNL     1      -1.030   1.807 -11.771  1.00  0.00    -0.237 OA
ATOM     86  O   UNL     1      -2.056   3.178 -10.014  1.00  0.00    -0.744 OA
ENDBRANCH  80  83
ENDBRANCH  52  76
BRANCH  64  87
ATOM     87  C   UNL     1      -3.497  12.961 -13.303  1.00  0.00     0.023 A 
ATOM     88  C   UNL     1      -4.854  12.638 -13.104  1.00  0.00     0.012 A 
ATOM     89  C   UNL     1      -3.145  13.876 -14.315  1.00  0.00     0.148 A 
ATOM     90  C   UNL     1      -5.842  13.193 -13.917  1.00  0.00     0.002 A 
ATOM     91  C   UNL     1      -4.140  14.463 -15.089  1.00  0.00     0.091 A 
ATOM     92  F   UNL     1      -1.847  14.158 -14.500  1.00  0.00    -0.205 F 
ATOM     93  C   UNL     1      -5.487  14.114 -14.900  1.00  0.00     0.022 A 
BRANCH  91  94
ATOM     94  S   UNL     1      -3.789  15.727 -16.316  1.00  0.00     0.127 S 
ATOM     95  O   UNL     1      -4.065  15.016 -17.564  1.00  0.00    -0.237 OA
ATOM     96  O   UNL     1      -4.764  16.765 -15.978  1.00  0.00    -0.237 OA
ATOM     97  O   UNL     1      -2.399  16.113 -16.113  1.00  0.00    -0.744 OA
ENDBRANCH  91  94
ENDBRANCH  64  87
ENDBRANCH  38  39
ENDBRANCH  30  33
ENDBRANCH  28  29
ENDBRANCH  27  28
ENDBRANCH  26  27
ENDBRANCH   1  26
TORSDOF 19
