REMARK SMILES CC(C)[C@@H](C[NH+](C)C)C(=O)NCCCCCCNC(=O)c1ccc(-c2c3nc(c(-c4cccc(S(=O)(=O)[O-])c4F)c4ccc([nH]4)c(-c4cccc(S(=O)(=O)[O-])c4F)c4nc(c(-c5cccc(S(=O)(=O)[O-])c5F)c5ccc2[nH]5)C=C4)C=C3)cc1
REMARK SMILES IDX 15 1 14 2 13 3 12 4 11 5 9 6 10 7 4 9 2 10 1 11 3 12 5 13
REMARK SMILES IDX 6 14 7 15 8 16 16 18 17 19 18 20 19 21 20 23 21 24 22 25
REMARK SMILES IDX 83 26 23 27 82 28 24 29 25 30 26 31 76 32 27 33 81 34 75 35
REMARK SMILES IDX 77 36 28 37 80 38 74 39 73 40 29 42 61 43 41 44 60 45 42 46
REMARK SMILES IDX 45 47 59 48 78 49 43 50 44 51 58 53 79 54 46 55 30 56 31 57
REMARK SMILES IDX 39 58 32 59 34 60 40 61 33 62 35 63 36 64 37 65 38 66 62 67
REMARK SMILES IDX 63 68 71 69 64 70 66 71 72 72 65 73 67 74 68 75 69 76 70 77
REMARK SMILES IDX 47 78 48 79 56 80 49 81 51 82 57 83 50 84 52 85 53 86 54 87
REMARK SMILES IDX 55 88
REMARK H PARENT 11 8 6 17 18 22 77 41 45 52
REMARK Flexibility Score: inf
ROOT
ATOM      1  C   UNL     1      -0.439   3.409   6.326  1.00  0.00     0.002 C 
ENDROOT
BRANCH   1   2
ATOM      2  C   UNL     1       0.250   4.089   5.138  1.00  0.00     0.002 C 
BRANCH   2   3
ATOM      3  C   UNL     1       0.805   3.156   4.063  1.00  0.00     0.021 C 
BRANCH   3   4
ATOM      4  C   UNL     1      -0.193   2.157   3.493  1.00  0.00     0.116 C 
BRANCH   4   5
ATOM      5  N   UNL     1      -1.095   2.740   2.526  1.00  0.00    -0.356 N 
ATOM      6  C   UNL     1      -1.508   2.237   1.331  1.00  0.00     0.229 C 
ATOM      7  O   UNL     1      -2.417   2.841   0.748  1.00  0.00    -0.275 OA
ATOM      8  H   UNL     1      -1.461   3.622   2.764  1.00  0.00     0.163 HD
BRANCH   6   9
ATOM      9  C   UNL     1      -0.871   1.001   0.678  1.00  0.00     0.136 C 
BRANCH   9  10
ATOM     10  C   UNL     1       0.632   1.167   0.331  1.00  0.00     0.001 C 
ATOM     11  C   UNL     1       1.152   0.008  -0.529  1.00  0.00     0.008 C 
ATOM     12  C   UNL     1       0.889   2.479  -0.429  1.00  0.00     0.008 C 
ENDBRANCH   9  10
BRANCH   9  13
ATOM     13  C   UNL     1      -1.362  -0.322   1.336  1.00  0.00     0.275 C 
BRANCH  13  14
ATOM     14  N   UNL     1      -0.893  -0.695   2.683  1.00  0.00    -0.339 N 
ATOM     15  C   UNL     1      -1.853  -1.601   3.329  1.00  0.00     0.332 C 
ATOM     16  C   UNL     1       0.422  -1.341   2.689  1.00  0.00     0.332 C 
ATOM     17  H   UNL     1      -0.812   0.183   3.197  1.00  0.00     0.347 HD
ENDBRANCH  13  14
ENDBRANCH   9  13
ENDBRANCH   6   9
ENDBRANCH   4   5
ENDBRANCH   3   4
ENDBRANCH   2   3
ENDBRANCH   1   2
BRANCH   1  18
ATOM     18  C   UNL     1       0.340   2.280   7.010  1.00  0.00     0.021 C 
BRANCH  18  19
ATOM     19  C   UNL     1       1.746   2.632   7.490  1.00  0.00     0.116 C 
BRANCH  19  20
ATOM     20  N   UNL     1       1.762   3.776   8.384  1.00  0.00    -0.352 N 
ATOM     21  C   UNL     1       2.329   3.921   9.625  1.00  0.00     0.251 C 
ATOM     22  H   UNL     1       1.293   4.573   8.047  1.00  0.00     0.163 HD
ATOM     23  O   UNL     1       2.095   4.936  10.279  1.00  0.00    -0.269 OA
BRANCH  21  24
ATOM     24  C   UNL     1       3.199   2.866  10.191  1.00  0.00     0.039 A 
ATOM     25  C   UNL     1       3.045   2.530  11.539  1.00  0.00     0.014 A 
ATOM     26  C   UNL     1       4.181   2.233   9.423  1.00  0.00     0.014 A 
ATOM     27  C   UNL     1       3.837   1.526  12.102  1.00  0.00     0.010 A 
ATOM     28  C   UNL     1       4.928   1.188   9.969  1.00  0.00     0.010 A 
ATOM     29  C   UNL     1       4.766   0.826  11.315  1.00  0.00    -0.014 A 
BRANCH  29  30
ATOM     30  C   UNL     1       5.540  -0.308  11.883  1.00  0.00     0.031 A 
ATOM     31  C   UNL     1       7.037  -0.235  12.014  1.00  0.00     0.074 A 
ATOM     32  C   UNL     1       4.892  -1.441  12.222  1.00  0.00     0.049 A 
ATOM     33  N   UNL     1       7.866  -1.129  12.489  1.00  0.00    -0.248 NA
ATOM     34  C   UNL     1       7.692   0.990  11.527  1.00  0.00     0.031 C 
ATOM     35  C   UNL     1       3.455  -1.672  12.058  1.00  0.00     0.029 A 
ATOM     36  N   UNL     1       5.359  -2.617  12.753  1.00  0.00    -0.354 N 
ATOM     37  C   UNL     1       9.138  -0.591  12.335  1.00  0.00     0.074 A 
ATOM     38  C   UNL     1       8.975   0.695  11.691  1.00  0.00     0.031 C 
ATOM     39  C   UNL     1       3.157  -2.909  12.486  1.00  0.00     0.029 A 
ATOM     40  C   UNL     1       4.380  -3.566  12.936  1.00  0.00     0.049 A 
ATOM     41  H   UNL     1       6.304  -2.768  12.981  1.00  0.00     0.167 HD
ATOM     42  C   UNL     1      10.331  -1.105  12.721  1.00  0.00     0.034 A 
ATOM     43  C   UNL     1       4.456  -4.823  13.415  1.00  0.00     0.034 A 
ATOM     44  C   UNL     1      10.487  -2.364  13.399  1.00  0.00     0.049 A 
ATOM     45  C   UNL     1       5.784  -5.346  13.890  1.00  0.00     0.074 A 
ATOM     46  C   UNL     1      11.642  -2.927  13.916  1.00  0.00     0.029 A 
ATOM     47  N   UNL     1       9.461  -3.262  13.650  1.00  0.00    -0.354 N 
ATOM     48  N   UNL     1       6.950  -4.748  13.900  1.00  0.00    -0.248 NA
ATOM     49  C   UNL     1       5.798  -6.701  14.460  1.00  0.00     0.031 C 
ATOM     50  C   UNL     1      11.316  -4.173  14.464  1.00  0.00     0.029 A 
ATOM     51  C   UNL     1       9.955  -4.379  14.304  1.00  0.00     0.049 A 
ATOM     52  H   UNL     1       8.519  -3.126  13.399  1.00  0.00     0.167 HD
ATOM     53  C   UNL     1       7.832  -5.641  14.497  1.00  0.00     0.074 A 
ATOM     54  C   UNL     1       7.056  -6.808  14.866  1.00  0.00     0.031 C 
ATOM     55  C   UNL     1       9.166  -5.516  14.704  1.00  0.00     0.034 A 
BRANCH  42  56
ATOM     56  C   UNL     1      11.564  -0.272  12.476  1.00  0.00     0.023 A 
ATOM     57  C   UNL     1      11.785   0.881  13.257  1.00  0.00     0.012 A 
ATOM     58  C   UNL     1      12.530  -0.658  11.526  1.00  0.00     0.148 A 
ATOM     59  C   UNL     1      12.930   1.656  13.074  1.00  0.00     0.002 A 
ATOM     60  C   UNL     1      13.689   0.097  11.378  1.00  0.00     0.091 A 
ATOM     61  F   UNL     1      12.294  -1.744  10.777  1.00  0.00    -0.205 F 
ATOM     62  C   UNL     1      13.885   1.258  12.144  1.00  0.00     0.022 A 
BRANCH  60  63
ATOM     63  S   UNL     1      15.013  -0.374  10.259  1.00  0.00     0.127 S 
ATOM     64  O   UNL     1      14.868   0.621   9.196  1.00  0.00    -0.237 OA
ATOM     65  O   UNL     1      16.203  -0.198  11.097  1.00  0.00    -0.237 OA
ATOM     66  O   UNL     1      14.743  -1.748   9.873  1.00  0.00    -0.744 OA
ENDBRANCH  60  63
ENDBRANCH  42  56
BRANCH  43  67
ATOM     67  C   UNL     1       3.219  -5.643  13.542  1.00  0.00     0.023 A 
ATOM     68  C   UNL     1       2.699  -5.913  14.823  1.00  0.00     0.012 A 
ATOM     69  C   UNL     1       2.535  -6.122  12.408  1.00  0.00     0.148 A 
ATOM     70  C   UNL     1       1.537  -6.671  14.974  1.00  0.00     0.002 A 
ATOM     71  C   UNL     1       1.348  -6.829  12.563  1.00  0.00     0.091 A 
ATOM     72  F   UNL     1       3.054  -5.867  11.198  1.00  0.00    -0.205 F 
ATOM     73  C   UNL     1       0.856  -7.119  13.845  1.00  0.00     0.022 A 
BRANCH  71  74
ATOM     74  S   UNL     1       0.337  -7.323  11.162  1.00  0.00     0.127 S 
ATOM     75  O   UNL     1       0.580  -8.762  11.110  1.00  0.00    -0.237 OA
ATOM     76  O   UNL     1      -1.004  -6.939  11.604  1.00  0.00    -0.237 OA
ATOM     77  O   UNL     1       0.836  -6.553  10.031  1.00  0.00    -0.744 OA
ENDBRANCH  71  74
ENDBRANCH  43  67
BRANCH  55  78
ATOM     78  C   UNL     1       9.875  -6.668  15.368  1.00  0.00     0.023 A 
ATOM     79  C   UNL     1      10.080  -7.864  14.651  1.00  0.00     0.012 A 
ATOM     80  C   UNL     1      10.379  -6.553  16.678  1.00  0.00     0.148 A 
ATOM     81  C   UNL     1      10.742  -8.941  15.241  1.00  0.00     0.002 A 
ATOM     82  C   UNL     1      11.079  -7.614  17.243  1.00  0.00     0.091 A 
ATOM     83  F   UNL     1      10.156  -5.417  17.354  1.00  0.00    -0.205 F 
ATOM     84  C   UNL     1      11.250  -8.812  16.531  1.00  0.00     0.022 A 
BRANCH  82  85
ATOM     85  S   UNL     1      11.845  -7.499  18.864  1.00  0.00     0.127 S 
ATOM     86  O   UNL     1      10.900  -8.243  19.695  1.00  0.00    -0.237 OA
ATOM     87  O   UNL     1      13.129  -8.168  18.653  1.00  0.00    -0.237 OA
ATOM     88  O   UNL     1      11.951  -6.074  19.151  1.00  0.00    -0.744 OA
ENDBRANCH  82  85
ENDBRANCH  55  78
ENDBRANCH  29  30
ENDBRANCH  21  24
ENDBRANCH  19  20
ENDBRANCH  18  19
ENDBRANCH   1  18
TORSDOF 19
