REMARK SMILES CCc1noc(C)c1C(=O)Nc1cc(Cl)ccc1C(=O)NCCCCCCNC(=O)c1ccc(-c2c3nc(c(-c4cccc(S(=O)(=O)[O-])c4F)c4ccc([nH]4)c(-c4cccc(S(=O)(=O)[O-])c4F)c4nc(c(-c5cccc(S(=O)(=O)[O-])c5F)c5ccc2[nH]5)C=C4)C=C3)cc1
REMARK SMILES IDX 24 1 23 2 22 3 21 4 19 5 20 6 18 8 12 9 13 10 14 11 17 12
REMARK SMILES IDX 15 13 16 14 11 15 9 16 10 17 8 19 3 20 4 21 5 22 6 23 7 24
REMARK SMILES IDX 2 25 1 26 25 27 26 28 27 29 28 30 29 31 30 33 31 34 32 35
REMARK SMILES IDX 93 36 33 37 92 38 34 39 35 40 36 41 86 42 37 43 91 44 85 45
REMARK SMILES IDX 87 46 38 47 90 48 84 49 83 50 39 52 71 53 51 54 70 55 52 56
REMARK SMILES IDX 55 57 69 58 88 59 53 60 54 61 68 63 89 64 56 65 40 66 41 67
REMARK SMILES IDX 49 68 42 69 44 70 50 71 43 72 45 73 46 74 47 75 48 76 72 77
REMARK SMILES IDX 73 78 81 79 74 80 76 81 82 82 75 83 77 84 78 85 79 86 80 87
REMARK SMILES IDX 57 88 58 89 66 90 59 91 61 92 67 93 60 94 62 95 63 96 64 97
REMARK SMILES IDX 65 98
REMARK H PARENT 21 7 11 18 28 32 87 51 55 62
REMARK Flexibility Score: inf
ROOT
ATOM      1  C   UNL     1      -0.421  -3.094  -3.850  1.00  0.00     0.002 C 
ENDROOT
BRANCH   1   2
ATOM      2  C   UNL     1      -0.408  -1.562  -3.820  1.00  0.00     0.021 C 
BRANCH   2   3
ATOM      3  C   UNL     1       0.912  -0.862  -4.132  1.00  0.00     0.116 C 
BRANCH   3   4
ATOM      4  N   UNL     1       1.498  -1.183  -5.413  1.00  0.00    -0.352 N 
ATOM      5  C   UNL     1       2.431  -0.544  -6.192  1.00  0.00     0.253 C 
ATOM      6  O   UNL     1       2.740  -1.110  -7.245  1.00  0.00    -0.269 OA
ATOM      7  H   UNL     1       1.165  -2.024  -5.802  1.00  0.00     0.163 HD
BRANCH   5   8
ATOM      8  C   UNL     1       3.059   0.790  -5.913  1.00  0.00     0.063 A 
ATOM      9  C   UNL     1       3.408   1.356  -4.670  1.00  0.00     0.055 A 
ATOM     10  C   UNL     1       4.089   2.588  -4.616  1.00  0.00     0.047 A 
ATOM     11  C   UNL     1       4.379   3.290  -5.783  1.00  0.00     0.043 A 
ATOM     12  C   UNL     1       3.349   1.542  -7.075  1.00  0.00     0.017 A 
ATOM     13  Cl  UNL     1       5.211   4.792  -5.698  1.00  0.00    -0.084 Cl
ATOM     14  C   UNL     1       3.994   2.781  -7.014  1.00  0.00     0.021 A 
BRANCH   9  15
ATOM     15  N   UNL     1       3.254   0.671  -3.470  1.00  0.00    -0.321 N 
ATOM     16  C   UNL     1       2.872   1.100  -2.213  1.00  0.00     0.261 C 
ATOM     17  O   UNL     1       3.335   0.458  -1.281  1.00  0.00    -0.269 OA
ATOM     18  H   UNL     1       3.454  -0.291  -3.526  1.00  0.00     0.170 HD
BRANCH  16  19
ATOM     19  C   UNL     1       1.808   2.092  -1.991  1.00  0.00     0.105 A 
ATOM     20  C   UNL     1       1.094   2.226  -0.737  1.00  0.00     0.096 A 
ATOM     21  N   UNL     1       0.173   3.192  -0.795  1.00  0.00    -0.084 NA
ATOM     22  O   UNL     1       0.217   3.679  -2.063  1.00  0.00    -0.361 OA
ATOM     23  C   UNL     1       1.143   3.008  -2.800  1.00  0.00     0.146 A 
ATOM     24  C   UNL     1       1.123   3.463  -4.203  1.00  0.00     0.092 C 
BRANCH  20  25
ATOM     25  C   UNL     1       1.188   1.454   0.545  1.00  0.00     0.057 C 
ATOM     26  C   UNL     1       0.903  -0.037   0.401  1.00  0.00     0.011 C 
ENDBRANCH  20  25
ENDBRANCH  16  19
ENDBRANCH   9  15
ENDBRANCH   5   8
ENDBRANCH   3   4
ENDBRANCH   2   3
ENDBRANCH   1   2
BRANCH   1  27
ATOM     27  C   UNL     1       0.729  -3.849  -3.179  1.00  0.00     0.002 C 
BRANCH  27  28
ATOM     28  C   UNL     1       1.067  -3.516  -1.724  1.00  0.00     0.021 C 
BRANCH  28  29
ATOM     29  C   UNL     1      -0.081  -3.490  -0.720  1.00  0.00     0.116 C 
BRANCH  29  30
ATOM     30  N   UNL     1      -0.817  -4.737  -0.641  1.00  0.00    -0.352 N 
ATOM     31  C   UNL     1      -1.280  -5.430   0.452  1.00  0.00     0.251 C 
ATOM     32  H   UNL     1      -1.018  -5.154  -1.510  1.00  0.00     0.163 HD
ATOM     33  O   UNL     1      -1.834  -6.513   0.269  1.00  0.00    -0.269 OA
BRANCH  31  34
ATOM     34  C   UNL     1      -1.103  -4.926   1.840  1.00  0.00     0.039 A 
ATOM     35  C   UNL     1      -0.827  -5.859   2.847  1.00  0.00     0.014 A 
ATOM     36  C   UNL     1      -1.254  -3.579   2.182  1.00  0.00     0.014 A 
ATOM     37  C   UNL     1      -0.657  -5.442   4.173  1.00  0.00     0.010 A 
ATOM     38  C   UNL     1      -1.024  -3.155   3.495  1.00  0.00     0.010 A 
ATOM     39  C   UNL     1      -0.734  -4.082   4.507  1.00  0.00    -0.014 A 
BRANCH  39  40
ATOM     40  C   UNL     1      -0.515  -3.627   5.907  1.00  0.00     0.031 A 
ATOM     41  C   UNL     1      -1.640  -3.021   6.704  1.00  0.00     0.074 A 
ATOM     42  C   UNL     1       0.716  -3.707   6.451  1.00  0.00     0.049 A 
ATOM     43  N   UNL     1      -1.632  -2.577   7.935  1.00  0.00    -0.248 NA
ATOM     44  C   UNL     1      -2.937  -2.874   6.024  1.00  0.00     0.031 C 
ATOM     45  C   UNL     1       1.913  -4.195   5.764  1.00  0.00     0.029 A 
ATOM     46  N   UNL     1       1.169  -3.359   7.700  1.00  0.00    -0.354 N 
ATOM     47  C   UNL     1      -2.905  -2.071   8.168  1.00  0.00     0.074 A 
ATOM     48  C   UNL     1      -3.654  -2.237   6.941  1.00  0.00     0.031 C 
ATOM     49  C   UNL     1       2.961  -4.120   6.600  1.00  0.00     0.029 A 
ATOM     50  C   UNL     1       2.516  -3.571   7.879  1.00  0.00     0.049 A 
ATOM     51  H   UNL     1       0.584  -2.993   8.402  1.00  0.00     0.167 HD
ATOM     52  C   UNL     1      -3.419  -1.547   9.307  1.00  0.00     0.034 A 
ATOM     53  C   UNL     1       3.304  -3.360   8.952  1.00  0.00     0.034 A 
ATOM     54  C   UNL     1      -2.699  -1.437  10.547  1.00  0.00     0.049 A 
ATOM     55  C   UNL     1       2.690  -2.849  10.228  1.00  0.00     0.074 A 
ATOM     56  C   UNL     1      -3.164  -1.005  11.778  1.00  0.00     0.029 A 
ATOM     57  N   UNL     1      -1.363  -1.762  10.718  1.00  0.00    -0.354 N 
ATOM     58  N   UNL     1       1.440  -2.544  10.478  1.00  0.00    -0.248 NA
ATOM     59  C   UNL     1       3.587  -2.695  11.383  1.00  0.00     0.031 C 
ATOM     60  C   UNL     1      -2.108  -1.072  12.694  1.00  0.00     0.029 A 
ATOM     61  C   UNL     1      -0.986  -1.543  12.033  1.00  0.00     0.049 A 
ATOM     62  H   UNL     1      -0.769  -2.099  10.009  1.00  0.00     0.167 HD
ATOM     63  C   UNL     1       1.394  -2.192  11.822  1.00  0.00     0.074 A 
ATOM     64  C   UNL     1       2.738  -2.345  12.341  1.00  0.00     0.031 C 
ATOM     65  C   UNL     1       0.339  -1.760  12.555  1.00  0.00     0.034 A 
BRANCH  52  66
ATOM     66  C   UNL     1      -4.865  -1.126   9.289  1.00  0.00     0.023 A 
ATOM     67  C   UNL     1      -5.866  -2.118   9.323  1.00  0.00     0.012 A 
ATOM     68  C   UNL     1      -5.235   0.232   9.297  1.00  0.00     0.148 A 
ATOM     69  C   UNL     1      -7.215  -1.766   9.336  1.00  0.00     0.002 A 
ATOM     70  C   UNL     1      -6.582   0.576   9.345  1.00  0.00     0.091 A 
ATOM     71  F   UNL     1      -4.271   1.161   9.239  1.00  0.00    -0.205 F 
ATOM     72  C   UNL     1      -7.572  -0.420   9.357  1.00  0.00     0.022 A 
BRANCH  70  73
ATOM     73  S   UNL     1      -7.135   2.283   9.443  1.00  0.00     0.127 S 
ATOM     74  O   UNL     1      -7.543   2.542   8.064  1.00  0.00    -0.237 OA
ATOM     75  O   UNL     1      -8.240   2.202  10.400  1.00  0.00    -0.237 OA
ATOM     76  O   UNL     1      -5.985   3.042   9.916  1.00  0.00    -0.744 OA
ENDBRANCH  70  73
ENDBRANCH  52  66
BRANCH  53  77
ATOM     77  C   UNL     1       4.745  -3.732   8.895  1.00  0.00     0.023 A 
ATOM     78  C   UNL     1       5.186  -4.871   9.596  1.00  0.00     0.012 A 
ATOM     79  C   UNL     1       5.668  -2.998   8.127  1.00  0.00     0.148 A 
ATOM     80  C   UNL     1       6.525  -5.260   9.553  1.00  0.00     0.002 A 
ATOM     81  C   UNL     1       6.992  -3.419   8.048  1.00  0.00     0.091 A 
ATOM     82  F   UNL     1       5.236  -1.905   7.483  1.00  0.00    -0.205 F 
ATOM     83  C   UNL     1       7.425  -4.542   8.770  1.00  0.00     0.022 A 
BRANCH  81  84
ATOM     84  S   UNL     1       8.179  -2.622   6.960  1.00  0.00     0.127 S 
ATOM     85  O   UNL     1       8.923  -1.780   7.892  1.00  0.00    -0.237 OA
ATOM     86  O   UNL     1       8.928  -3.763   6.429  1.00  0.00    -0.237 OA
ATOM     87  O   UNL     1       7.376  -1.925   5.964  1.00  0.00    -0.744 OA
ENDBRANCH  81  84
ENDBRANCH  53  77
BRANCH  65  88
ATOM     88  C   UNL     1       0.582  -1.433  14.004  1.00  0.00     0.023 A 
ATOM     89  C   UNL     1       1.248  -0.238  14.340  1.00  0.00     0.012 A 
ATOM     90  C   UNL     1       0.093  -2.264  15.030  1.00  0.00     0.148 A 
ATOM     91  C   UNL     1       1.447   0.112  15.675  1.00  0.00     0.002 A 
ATOM     92  C   UNL     1       0.262  -1.889  16.360  1.00  0.00     0.091 A 
ATOM     93  F   UNL     1      -0.517  -3.411  14.695  1.00  0.00    -0.205 F 
ATOM     94  C   UNL     1       0.944  -0.707  16.684  1.00  0.00     0.022 A 
BRANCH  92  95
ATOM     95  S   UNL     1      -0.434  -2.854  17.707  1.00  0.00     0.127 S 
ATOM     96  O   UNL     1       0.702  -3.684  18.102  1.00  0.00    -0.237 OA
ATOM     97  O   UNL     1      -0.804  -1.825  18.681  1.00  0.00    -0.237 OA
ATOM     98  O   UNL     1      -1.569  -3.562  17.130  1.00  0.00    -0.744 OA
ENDBRANCH  92  95
ENDBRANCH  65  88
ENDBRANCH  39  40
ENDBRANCH  31  34
ENDBRANCH  29  30
ENDBRANCH  28  29
ENDBRANCH  27  28
ENDBRANCH   1  27
TORSDOF 19
