REMARK SMILES CCCCCCNC(=O)Oc1cccc(-c2ccc([C@@H](C)C(=O)NCCCCCCNC(=O)c3ccc(-c4c5nc(c(-c6cccc(S(=O)(=O)[O-])c6F)c6ccc([nH]6)c(-c6cccc(S(=O)(=O)[O-])c6F)c6nc(c(-c7cccc(S(=O)(=O)[O-])c7F)c7ccc4[nH]7)C=C6)C=C5)cc3)cc2Cl)c1
REMARK SMILES IDX 22 1 23 2 24 3 20 5 21 6 19 7 16 8 17 9 98 10 18 11 97 12
REMARK SMILES IDX 99 13 15 14 11 15 12 16 100 17 13 18 14 19 10 20 8 21 7 22
REMARK SMILES IDX 9 24 6 25 5 26 4 27 3 28 2 29 1 30 25 31 26 32 27 33 28 34
REMARK SMILES IDX 29 35 30 36 31 37 32 38 33 40 34 41 35 42 96 43 36 44 95 45
REMARK SMILES IDX 37 46 38 47 39 48 89 49 40 50 94 51 88 52 90 53 41 54 93 55
REMARK SMILES IDX 87 56 86 57 42 59 74 60 54 61 73 62 55 63 58 64 72 65 91 66
REMARK SMILES IDX 56 67 57 68 71 70 92 71 59 72 43 73 44 74 52 75 45 76 47 77
REMARK SMILES IDX 53 78 46 79 48 80 49 81 50 82 51 83 75 84 76 85 84 86 77 87
REMARK SMILES IDX 79 88 85 89 78 90 80 91 81 92 82 93 83 94 60 95 61 96 69 97
REMARK SMILES IDX 62 98 64 99 70 100 63 101 65 102 66 103 67 104 68 105
REMARK H PARENT 24 4 7 23 31 39 90 58 58 69
REMARK Flexibility Score: inf
ROOT
ATOM      1  C   UNL     1      -2.983  -0.927 -14.217  1.00  0.00     0.227 C 
ATOM      2  O   UNL     1      -2.046  -1.732 -14.138  1.00  0.00    -0.274 OA
ATOM      3  N   UNL     1      -2.714   0.254 -14.837  1.00  0.00    -0.356 N 
ATOM      4  H   UNL     1      -1.812   0.308 -15.228  1.00  0.00     0.163 HD
ENDROOT
BRANCH   1   5
ATOM      5  C   UNL     1      -4.361  -1.300 -13.646  1.00  0.00     0.105 C 
ATOM      6  C   UNL     1      -5.481  -1.324 -14.685  1.00  0.00     0.023 C 
BRANCH   5   7
ATOM      7  C   UNL     1      -4.688  -0.605 -12.334  1.00  0.00    -0.034 A 
ATOM      8  C   UNL     1      -5.051   0.732  -9.824  1.00  0.00     0.000 A 
ATOM      9  C   UNL     1      -5.420   1.322 -11.046  1.00  0.00     0.010 A 
ATOM     10  C   UNL     1      -4.570  -0.591  -9.885  1.00  0.00     0.049 A 
ATOM     11  C   UNL     1      -5.284   0.653 -12.266  1.00  0.00     0.005 A 
ATOM     12  C   UNL     1      -4.360  -1.229 -11.120  1.00  0.00     0.025 A 
ATOM     13  Cl  UNL     1      -4.256  -1.545  -8.471  1.00  0.00    -0.084 Cl
BRANCH   8  14
ATOM     14  C   UNL     1      -5.161   1.540  -8.587  1.00  0.00    -0.013 A 
ATOM     15  C   UNL     1      -4.218   2.396  -6.513  1.00  0.00     0.133 A 
ATOM     16  C   UNL     1      -5.342   3.182  -6.285  1.00  0.00     0.047 A 
ATOM     17  C   UNL     1      -4.117   1.591  -7.649  1.00  0.00     0.056 A 
ATOM     18  C   UNL     1      -6.378   3.166  -7.211  1.00  0.00     0.004 A 
ATOM     19  C   UNL     1      -6.293   2.344  -8.341  1.00  0.00     0.009 A 
BRANCH  15  20
ATOM     20  O   UNL     1      -3.261   2.345  -5.487  1.00  0.00    -0.410 OA
BRANCH  20  21
ATOM     21  C   UNL     1      -1.917   2.457  -5.803  1.00  0.00     0.412 C 
ATOM     22  N   UNL     1      -1.100   2.215  -4.732  1.00  0.00    -0.321 N 
ATOM     23  H   UNL     1      -0.132   2.323  -4.881  1.00  0.00     0.167 HD
ATOM     24  O   UNL     1      -1.449   2.741  -6.898  1.00  0.00    -0.224 OA
BRANCH  22  25
ATOM     25  C   UNL     1      -1.514   1.816  -3.403  1.00  0.00     0.119 C 
BRANCH  25  26
ATOM     26  C   UNL     1      -0.915   0.467  -3.003  1.00  0.00     0.021 C 
BRANCH  26  27
ATOM     27  C   UNL     1       0.615   0.450  -2.897  1.00  0.00     0.002 C 
BRANCH  27  28
ATOM     28  C   UNL     1       1.217   1.454  -1.907  1.00  0.00    -0.000 C 
BRANCH  28  29
ATOM     29  C   UNL     1       0.735   1.317  -0.461  1.00  0.00    -0.003 C 
ATOM     30  C   UNL     1       1.105  -0.016   0.171  1.00  0.00     0.004 C 
ENDBRANCH  28  29
ENDBRANCH  27  28
ENDBRANCH  26  27
ENDBRANCH  25  26
ENDBRANCH  22  25
ENDBRANCH  20  21
ENDBRANCH  15  20
ENDBRANCH   8  14
ENDBRANCH   5   7
ENDBRANCH   1   5
BRANCH   3  31
ATOM     31  C   UNL     1      -3.516   1.445 -15.027  1.00  0.00     0.116 C 
BRANCH  31  32
ATOM     32  C   UNL     1      -3.117   2.552 -14.048  1.00  0.00     0.021 C 
BRANCH  32  33
ATOM     33  C   UNL     1      -2.002   3.463 -14.571  1.00  0.00     0.002 C 
BRANCH  33  34
ATOM     34  C   UNL     1      -2.355   4.254 -15.837  1.00  0.00     0.002 C 
BRANCH  34  35
ATOM     35  C   UNL     1      -3.620   5.112 -15.742  1.00  0.00     0.021 C 
BRANCH  35  36
ATOM     36  C   UNL     1      -3.579   6.185 -14.657  1.00  0.00     0.116 C 
BRANCH  36  37
ATOM     37  N   UNL     1      -2.498   7.134 -14.883  1.00  0.00    -0.352 N 
ATOM     38  C   UNL     1      -2.556   8.486 -15.105  1.00  0.00     0.251 C 
ATOM     39  H   UNL     1      -1.592   6.748 -14.876  1.00  0.00     0.163 HD
ATOM     40  O   UNL     1      -1.568   9.080 -15.528  1.00  0.00    -0.269 OA
BRANCH  38  41
ATOM     41  C   UNL     1      -3.807   9.226 -14.836  1.00  0.00     0.039 A 
ATOM     42  C   UNL     1      -4.232  10.196 -15.747  1.00  0.00     0.014 A 
ATOM     43  C   UNL     1      -4.542   8.983 -13.672  1.00  0.00     0.014 A 
ATOM     44  C   UNL     1      -5.424  10.886 -15.515  1.00  0.00     0.010 A 
ATOM     45  C   UNL     1      -5.766   9.617 -13.482  1.00  0.00     0.010 A 
ATOM     46  C   UNL     1      -6.214  10.584 -14.394  1.00  0.00    -0.014 A 
BRANCH  46  47
ATOM     47  C   UNL     1      -7.518  11.258 -14.168  1.00  0.00     0.031 A 
ATOM     48  C   UNL     1      -7.736  12.108 -12.947  1.00  0.00     0.074 A 
ATOM     49  C   UNL     1      -8.538  11.025 -15.016  1.00  0.00     0.049 A 
ATOM     50  N   UNL     1      -8.816  12.737 -12.563  1.00  0.00    -0.248 NA
ATOM     51  C   UNL     1      -6.601  12.246 -12.020  1.00  0.00     0.031 C 
ATOM     52  C   UNL     1      -8.479  10.144 -16.184  1.00  0.00     0.029 A 
ATOM     53  N   UNL     1      -9.831  11.483 -15.009  1.00  0.00    -0.354 N 
ATOM     54  C   UNL     1      -8.508  13.308 -11.334  1.00  0.00     0.074 A 
ATOM     55  C   UNL     1      -7.149  12.923 -11.021  1.00  0.00     0.031 C 
ATOM     56  C   UNL     1      -9.681  10.125 -16.780  1.00  0.00     0.029 A 
ATOM     57  C   UNL     1     -10.603  10.966 -16.023  1.00  0.00     0.049 A 
ATOM     58  H   UNL     1     -10.174  12.121 -14.342  1.00  0.00     0.167 HD
ATOM     59  C   UNL     1      -9.275  14.103 -10.550  1.00  0.00     0.034 A 
ATOM     60  C   UNL     1     -11.908  11.140 -16.307  1.00  0.00     0.034 A 
ATOM     61  C   UNL     1     -10.613  14.512 -10.885  1.00  0.00     0.049 A 
ATOM     62  C   UNL     1     -12.726  12.069 -15.455  1.00  0.00     0.074 A 
ATOM     63  C   UNL     1     -11.433  15.403 -10.216  1.00  0.00     0.029 A 
ATOM     64  N   UNL     1     -11.335  14.044 -11.972  1.00  0.00    -0.354 N 
ATOM     65  N   UNL     1     -12.363  12.748 -14.393  1.00  0.00    -0.248 NA
ATOM     66  C   UNL     1     -14.121  12.290 -15.861  1.00  0.00     0.031 C 
ATOM     67  C   UNL     1     -12.664  15.447 -10.881  1.00  0.00     0.029 A 
ATOM     68  C   UNL     1     -12.598  14.610 -11.984  1.00  0.00     0.049 A 
ATOM     69  H   UNL     1     -10.998  13.402 -12.639  1.00  0.00     0.167 HD
ATOM     70  C   UNL     1     -13.472  13.496 -14.019  1.00  0.00     0.074 A 
ATOM     71  C   UNL     1     -14.515  13.203 -14.983  1.00  0.00     0.031 C 
ATOM     72  C   UNL     1     -13.617  14.340 -12.967  1.00  0.00     0.034 A 
BRANCH  59  73
ATOM     73  C   UNL     1      -8.666  14.610  -9.267  1.00  0.00     0.023 A 
ATOM     74  C   UNL     1      -7.616  15.551  -9.313  1.00  0.00     0.012 A 
ATOM     75  C   UNL     1      -9.150  14.180  -8.016  1.00  0.00     0.148 A 
ATOM     76  C   UNL     1      -7.025  16.018  -8.139  1.00  0.00     0.002 A 
ATOM     77  C   UNL     1      -8.588  14.687  -6.849  1.00  0.00     0.091 A 
ATOM     78  F   UNL     1     -10.133  13.269  -7.987  1.00  0.00    -0.205 F 
ATOM     79  C   UNL     1      -7.517  15.593  -6.909  1.00  0.00     0.022 A 
BRANCH  77  80
ATOM     80  S   UNL     1      -9.209  14.263  -5.217  1.00  0.00     0.127 S 
ATOM     81  O   UNL     1      -8.173  13.353  -4.734  1.00  0.00    -0.237 OA
ATOM     82  O   UNL     1      -9.236  15.565  -4.549  1.00  0.00    -0.237 OA
ATOM     83  O   UNL     1     -10.520  13.667  -5.432  1.00  0.00    -0.744 OA
ENDBRANCH  77  80
ENDBRANCH  59  73
BRANCH  60  84
ATOM     84  C   UNL     1     -12.493  10.458 -17.495  1.00  0.00     0.023 A 
ATOM     85  C   UNL     1     -12.816  11.212 -18.639  1.00  0.00     0.012 A 
ATOM     86  C   UNL     1     -12.661   9.060 -17.521  1.00  0.00     0.148 A 
ATOM     87  C   UNL     1     -13.315  10.587 -19.783  1.00  0.00     0.002 A 
ATOM     88  C   UNL     1     -13.104   8.438 -18.682  1.00  0.00     0.091 A 
ATOM     89  F   UNL     1     -12.351   8.364 -16.418  1.00  0.00    -0.205 F 
ATOM     90  C   UNL     1     -13.447   9.201 -19.809  1.00  0.00     0.022 A 
BRANCH  88  91
ATOM     91  S   UNL     1     -13.170   6.651 -18.856  1.00  0.00     0.127 S 
ATOM     92  O   UNL     1     -14.606   6.416 -18.985  1.00  0.00    -0.237 OA
ATOM     93  O   UNL     1     -12.398   6.442 -20.081  1.00  0.00    -0.237 OA
ATOM     94  O   UNL     1     -12.550   6.112 -17.653  1.00  0.00    -0.744 OA
ENDBRANCH  88  91
ENDBRANCH  60  84
BRANCH  72  95
ATOM     95  C   UNL     1     -14.946  15.033 -12.805  1.00  0.00     0.023 A 
ATOM     96  C   UNL     1     -16.074  14.301 -12.385  1.00  0.00     0.012 A 
ATOM     97  C   UNL     1     -15.058  16.424 -12.999  1.00  0.00     0.148 A 
ATOM     98  C   UNL     1     -17.300  14.936 -12.191  1.00  0.00     0.002 A 
ATOM     99  C   UNL     1     -16.270  17.059 -12.755  1.00  0.00     0.091 A 
ATOM    100  F   UNL     1     -13.979  17.101 -13.418  1.00  0.00    -0.205 F 
ATOM    101  C   UNL     1     -17.395  16.315 -12.364  1.00  0.00     0.022 A 
BRANCH  99 102
ATOM    102  S   UNL     1     -16.460  18.842 -12.857  1.00  0.00     0.127 S 
ATOM    103  O   UNL     1     -17.260  18.988 -14.072  1.00  0.00    -0.237 OA
ATOM    104  O   UNL     1     -17.174  19.149 -11.617  1.00  0.00    -0.237 OA
ATOM    105  O   UNL     1     -15.111  19.387 -12.927  1.00  0.00    -0.744 OA
ENDBRANCH  99 102
ENDBRANCH  72  95
ENDBRANCH  46  47
ENDBRANCH  38  41
ENDBRANCH  36  37
ENDBRANCH  35  36
ENDBRANCH  34  35
ENDBRANCH  33  34
ENDBRANCH  32  33
ENDBRANCH  31  32
ENDBRANCH   3  31
TORSDOF 25
