REMARK SMILES O=C(CC[N@@H+]1CCC[C@@]2(CCC(=O)N(CCc3ccccc3)C2)C1)NCCCCCCNC(=O)c1ccc(-c2c3nc(c(-c4cccc(S(=O)(=O)[O-])c4F)c4ccc([nH]4)c(-c4cccc(S(=O)(=O)[O-])c4F)c4nc(c(-c5cccc(S(=O)(=O)[O-])c5F)c5ccc2[nH]5)C=C4)C=C3)cc1
REMARK SMILES IDX 27 1 26 2 25 3 1 4 2 5 3 7 4 8 5 9 6 10 24 11 7 13 9 14 8 15
REMARK SMILES IDX 10 16 23 17 11 18 14 19 12 20 13 21 15 22 16 23 17 24 18 25
REMARK SMILES IDX 22 26 19 27 21 28 20 29 28 30 29 31 30 32 31 33 32 34 33 35
REMARK SMILES IDX 34 37 35 38 36 39 97 40 37 41 96 42 38 43 39 44 40 45 90 46
REMARK SMILES IDX 41 47 95 48 89 49 91 50 42 51 94 52 88 53 87 54 43 56 75 57
REMARK SMILES IDX 55 58 74 59 56 60 59 61 73 62 92 63 57 64 58 65 72 67 93 68
REMARK SMILES IDX 60 69 44 70 45 71 53 72 46 73 48 74 54 75 47 76 49 77 50 78
REMARK SMILES IDX 51 79 52 80 76 81 77 82 85 83 78 84 80 85 86 86 79 87 81 88
REMARK SMILES IDX 82 89 83 90 84 91 61 92 62 93 70 94 63 95 65 96 71 97 64 98
REMARK SMILES IDX 66 99 67 100 68 101 69 102
REMARK H PARENT 25 6 5 12 32 36 91 55 59 66
REMARK Flexibility Score: inf
ROOT
ATOM      1  C   UNL     1       1.806  -2.761   1.888  1.00  0.00     0.021 C 
ENDROOT
BRANCH   1   2
ATOM      2  C   UNL     1       1.539  -1.257   2.028  1.00  0.00     0.116 C 
BRANCH   2   3
ATOM      3  N   UNL     1       2.337  -0.451   1.118  1.00  0.00    -0.356 N 
ATOM      4  O   UNL     1       0.671  -0.139  -0.418  1.00  0.00    -0.275 OA
ATOM      5  C   UNL     1       1.837   0.030  -0.065  1.00  0.00     0.225 C 
ATOM      6  H   UNL     1       3.268  -0.242   1.360  1.00  0.00     0.163 HD
BRANCH   5   7
ATOM      7  C   UNL     1       2.833   0.674  -1.010  1.00  0.00     0.161 C 
BRANCH   7   8
ATOM      8  C   UNL     1       3.843   1.678  -0.444  1.00  0.00     0.272 C 
BRANCH   8   9
ATOM      9  N   UNL     1       5.020   1.198   0.320  1.00  0.00    -0.334 N 
ATOM     10  C   UNL     1       6.088   2.224   0.271  1.00  0.00     0.262 C 
ATOM     11  C   UNL     1       5.553  -0.095  -0.121  1.00  0.00     0.271 C 
ATOM     12  H   UNL     1       4.693   1.046   1.274  1.00  0.00     0.348 HD
ATOM     13  C   UNL     1       7.360   1.848   1.044  1.00  0.00     0.062 C 
ATOM     14  C   UNL     1       6.696  -0.580   0.813  1.00  0.00     0.038 C 
ATOM     15  C   UNL     1       7.848   0.436   0.713  1.00  0.00     0.020 C 
ATOM     16  C   UNL     1       6.184  -0.704   2.257  1.00  0.00     0.024 C 
ATOM     17  C   UNL     1       7.123  -1.976   0.331  1.00  0.00     0.132 C 
ATOM     18  C   UNL     1       7.166  -1.403   3.175  1.00  0.00     0.101 C 
ATOM     19  N   UNL     1       7.925  -2.755   1.260  1.00  0.00    -0.342 N 
ATOM     20  C   UNL     1       7.703  -2.704   2.627  1.00  0.00     0.222 C 
ATOM     21  O   UNL     1       8.034  -3.609   3.390  1.00  0.00    -0.275 OA
BRANCH  19  22
ATOM     22  C   UNL     1       8.748  -3.850   0.727  1.00  0.00     0.124 C 
BRANCH  22  23
ATOM     23  C   UNL     1       8.056  -5.218   0.568  1.00  0.00     0.057 C 
BRANCH  23  24
ATOM     24  C   UNL     1       7.198  -5.503  -0.649  1.00  0.00    -0.046 A 
ATOM     25  C   UNL     1       6.545  -6.747  -0.706  1.00  0.00     0.004 A 
ATOM     26  C   UNL     1       7.040  -4.634  -1.733  1.00  0.00     0.004 A 
ATOM     27  C   UNL     1       5.725  -7.087  -1.785  1.00  0.00     0.000 A 
ATOM     28  C   UNL     1       6.194  -4.958  -2.799  1.00  0.00     0.000 A 
ATOM     29  C   UNL     1       5.534  -6.183  -2.823  1.00  0.00     0.000 A 
ENDBRANCH  23  24
ENDBRANCH  22  23
ENDBRANCH  19  22
ENDBRANCH   8   9
ENDBRANCH   7   8
ENDBRANCH   5   7
ENDBRANCH   2   3
ENDBRANCH   1   2
BRANCH   1  30
ATOM     30  C   UNL     1       3.245  -3.206   2.167  1.00  0.00     0.002 C 
BRANCH  30  31
ATOM     31  C   UNL     1       3.803  -2.807   3.537  1.00  0.00     0.002 C 
BRANCH  31  32
ATOM     32  C   UNL     1       3.259  -3.567   4.733  1.00  0.00     0.021 C 
BRANCH  32  33
ATOM     33  C   UNL     1       3.723  -5.016   4.803  1.00  0.00     0.116 C 
BRANCH  33  34
ATOM     34  N   UNL     1       5.167  -5.183   4.959  1.00  0.00    -0.352 N 
ATOM     35  C   UNL     1       5.852  -6.038   5.796  1.00  0.00     0.251 C 
ATOM     36  H   UNL     1       5.726  -4.606   4.390  1.00  0.00     0.163 HD
ATOM     37  O   UNL     1       7.074  -6.024   5.855  1.00  0.00    -0.269 OA
BRANCH  35  38
ATOM     38  C   UNL     1       5.092  -6.958   6.667  1.00  0.00     0.039 A 
ATOM     39  C   UNL     1       5.440  -7.045   8.018  1.00  0.00     0.014 A 
ATOM     40  C   UNL     1       4.011  -7.684   6.167  1.00  0.00     0.014 A 
ATOM     41  C   UNL     1       4.645  -7.796   8.884  1.00  0.00     0.010 A 
ATOM     42  C   UNL     1       3.163  -8.340   7.047  1.00  0.00     0.010 A 
ATOM     43  C   UNL     1       3.475  -8.412   8.413  1.00  0.00    -0.014 A 
BRANCH  43  44
ATOM     44  C   UNL     1       2.565  -9.154   9.320  1.00  0.00     0.031 A 
ATOM     45  C   UNL     1       2.294 -10.613   9.068  1.00  0.00     0.074 A 
ATOM     46  C   UNL     1       1.910  -8.497  10.298  1.00  0.00     0.049 A 
ATOM     47  N   UNL     1       1.449 -11.411   9.665  1.00  0.00    -0.248 NA
ATOM     48  C   UNL     1       3.041 -11.250   7.968  1.00  0.00     0.031 C 
ATOM     49  C   UNL     1       2.015  -7.062  10.578  1.00  0.00     0.029 A 
ATOM     50  N   UNL     1       1.003  -8.947  11.224  1.00  0.00    -0.354 N 
ATOM     51  C   UNL     1       1.530 -12.622   8.989  1.00  0.00     0.074 A 
ATOM     52  C   UNL     1       2.468 -12.442   7.904  1.00  0.00     0.031 C 
ATOM     53  C   UNL     1       1.209  -6.752  11.607  1.00  0.00     0.029 A 
ATOM     54  C   UNL     1       0.517  -7.958  12.049  1.00  0.00     0.049 A 
ATOM     55  H   UNL     1       0.726  -9.889  11.292  1.00  0.00     0.167 HD
ATOM     56  C   UNL     1       0.916 -13.795   9.272  1.00  0.00     0.034 A 
ATOM     57  C   UNL     1      -0.382  -8.022  13.050  1.00  0.00     0.034 A 
ATOM     58  C   UNL     1       0.044 -13.987  10.397  1.00  0.00     0.049 A 
ATOM     59  C   UNL     1      -0.964  -9.363  13.413  1.00  0.00     0.074 A 
ATOM     60  C   UNL     1      -0.589 -15.145  10.810  1.00  0.00     0.029 A 
ATOM     61  N   UNL     1      -0.296 -12.997  11.305  1.00  0.00    -0.354 N 
ATOM     62  N   UNL     1      -0.772 -10.527  12.840  1.00  0.00    -0.248 NA
ATOM     63  C   UNL     1      -1.844  -9.411  14.589  1.00  0.00     0.031 C 
ATOM     64  C   UNL     1      -1.300 -14.858  11.980  1.00  0.00     0.029 A 
ATOM     65  C   UNL     1      -1.105 -13.523  12.296  1.00  0.00     0.049 A 
ATOM     66  H   UNL     1      -0.004 -12.058  11.253  1.00  0.00     0.167 HD
ATOM     67  C   UNL     1      -1.471 -11.450  13.608  1.00  0.00     0.074 A 
ATOM     68  C   UNL     1      -2.073 -10.713  14.701  1.00  0.00     0.031 C 
ATOM     69  C   UNL     1      -1.621 -12.784  13.418  1.00  0.00     0.034 A 
BRANCH  56  70
ATOM     70  C   UNL     1       1.246 -14.980   8.403  1.00  0.00     0.023 A 
ATOM     71  C   UNL     1       2.523 -15.571   8.509  1.00  0.00     0.012 A 
ATOM     72  C   UNL     1       0.300 -15.533   7.519  1.00  0.00     0.148 A 
ATOM     73  C   UNL     1       2.867 -16.670   7.724  1.00  0.00     0.002 A 
ATOM     74  C   UNL     1       0.636 -16.657   6.771  1.00  0.00     0.091 A 
ATOM     75  F   UNL     1      -0.900 -14.945   7.416  1.00  0.00    -0.205 F 
ATOM     76  C   UNL     1       1.921 -17.218   6.863  1.00  0.00     0.022 A 
BRANCH  74  77
ATOM     77  S   UNL     1      -0.531 -17.487   5.686  1.00  0.00     0.127 S 
ATOM     78  O   UNL     1       0.009 -17.162   4.367  1.00  0.00    -0.237 OA
ATOM     79  O   UNL     1      -0.376 -18.887   6.081  1.00  0.00    -0.237 OA
ATOM     80  O   UNL     1      -1.836 -16.913   5.985  1.00  0.00    -0.744 OA
ENDBRANCH  74  77
ENDBRANCH  56  70
BRANCH  57  81
ATOM     81  C   UNL     1      -0.708  -6.804  13.846  1.00  0.00     0.023 A 
ATOM     82  C   UNL     1      -0.245  -6.705  15.173  1.00  0.00     0.012 A 
ATOM     83  C   UNL     1      -1.454  -5.742  13.301  1.00  0.00     0.148 A 
ATOM     84  C   UNL     1      -0.553  -5.592  15.956  1.00  0.00     0.002 A 
ATOM     85  C   UNL     1      -1.713  -4.612  14.070  1.00  0.00     0.091 A 
ATOM     86  F   UNL     1      -1.900  -5.854  12.042  1.00  0.00    -0.205 F 
ATOM     87  C   UNL     1      -1.279  -4.542  15.403  1.00  0.00     0.022 A 
BRANCH  85  88
ATOM     88  S   UNL     1      -2.529  -3.165  13.383  1.00  0.00     0.127 S 
ATOM     89  O   UNL     1      -3.904  -3.352  13.836  1.00  0.00    -0.237 OA
ATOM     90  O   UNL     1      -1.812  -2.065  14.030  1.00  0.00    -0.237 OA
ATOM     91  O   UNL     1      -2.307  -3.253  11.945  1.00  0.00    -0.744 OA
ENDBRANCH  85  88
ENDBRANCH  57  81
BRANCH  69  92
ATOM     92  C   UNL     1      -2.421 -13.547  14.438  1.00  0.00     0.023 A 
ATOM     93  C   UNL     1      -3.824 -13.428  14.456  1.00  0.00     0.012 A 
ATOM     94  C   UNL     1      -1.788 -14.440  15.324  1.00  0.00     0.148 A 
ATOM     95  C   UNL     1      -4.584 -14.165  15.363  1.00  0.00     0.002 A 
ATOM     96  C   UNL     1      -2.555 -15.203  16.195  1.00  0.00     0.091 A 
ATOM     97  F   UNL     1      -0.449 -14.521  15.307  1.00  0.00    -0.205 F 
ATOM     98  C   UNL     1      -3.952 -15.060  16.223  1.00  0.00     0.022 A 
BRANCH  96  99
ATOM     99  S   UNL     1      -1.822 -16.443  17.269  1.00  0.00     0.127 S 
ATOM    100  O   UNL     1      -1.768 -15.738  18.548  1.00  0.00    -0.237 OA
ATOM    101  O   UNL     1      -2.803 -17.529  17.212  1.00  0.00    -0.237 OA
ATOM    102  O   UNL     1      -0.534 -16.769  16.671  1.00  0.00    -0.744 OA
ENDBRANCH  96  99
ENDBRANCH  69  92
ENDBRANCH  43  44
ENDBRANCH  35  38
ENDBRANCH  33  34
ENDBRANCH  32  33
ENDBRANCH  31  32
ENDBRANCH  30  31
ENDBRANCH   1  30
TORSDOF 21
