REMARK SMILES O=C(Cn1nc(-c2ccco2)ccc1=O)N[C@@H](C(=O)NCCCCCCNC(=O)c1ccc(-c2c3nc(c(-c4cccc(S(=O)(=O)[O-])c4F)c4ccc([nH]4)c(-c4cccc(S(=O)(=O)[O-])c4F)c4nc(c(-c5cccc(S(=O)(=O)[O-])c5F)c5ccc2[nH]5)C=C4)C=C3)cc1)c1ccccc1
REMARK SMILES IDX 23 1 22 2 21 3 20 4 18 5 19 6 17 8 16 9 1 10 2 11 3 13 4 14
REMARK SMILES IDX 5 15 14 16 6 17 13 18 15 19 12 20 7 21 8 22 11 23 9 24 10 25
REMARK SMILES IDX 93 26 94 27 98 28 95 29 97 30 96 31 24 32 25 33 26 34 27 35
REMARK SMILES IDX 28 36 29 38 30 39 31 40 92 41 32 42 91 43 33 44 34 45 35 46
REMARK SMILES IDX 85 47 36 48 90 49 84 50 86 51 37 52 89 53 83 54 82 55 38 57
REMARK SMILES IDX 70 58 50 59 69 60 51 61 54 62 68 63 87 64 52 65 53 66 67 68
REMARK SMILES IDX 88 69 55 70 39 71 40 72 48 73 41 74 43 75 49 76 42 77 44 78
REMARK SMILES IDX 45 79 46 80 47 81 71 82 72 83 80 84 73 85 75 86 81 87 74 88
REMARK SMILES IDX 76 89 77 90 78 91 79 92 56 93 57 94 65 95 58 96 60 97 66 98
REMARK SMILES IDX 59 99 61 100 62 101 63 102 64 103
REMARK H PARENT 20 7 16 12 27 37 86 56 54 67
REMARK Flexibility Score: inf
ROOT
ATOM      1  C   UNL     1       2.989  -2.538   4.296  1.00  0.00     0.002 C 
ENDROOT
BRANCH   1   2
ATOM      2  C   UNL     1       2.505  -1.909   2.980  1.00  0.00     0.021 C 
BRANCH   2   3
ATOM      3  C   UNL     1       1.514  -0.757   3.170  1.00  0.00     0.116 C 
BRANCH   3   4
ATOM      4  N   UNL     1       2.167   0.353   3.836  1.00  0.00    -0.354 N 
ATOM      5  C   UNL     1       2.651   1.510   3.291  1.00  0.00     0.247 C 
ATOM      6  O   UNL     1       3.491   2.127   3.952  1.00  0.00    -0.272 OA
ATOM      7  H   UNL     1       2.278   0.261   4.809  1.00  0.00     0.163 HD
BRANCH   5   8
ATOM      8  C   UNL     1       2.169   1.962   1.882  1.00  0.00     0.202 C 
BRANCH   8   9
ATOM      9  N   UNL     1       2.928   1.184   0.906  1.00  0.00    -0.339 N 
ATOM     10  O   UNL     1       1.102   0.455  -0.268  1.00  0.00    -0.273 OA
ATOM     11  C   UNL     1       2.317   0.442  -0.083  1.00  0.00     0.242 C 
ATOM     12  H   UNL     1       3.911   1.189   0.956  1.00  0.00     0.164 HD
BRANCH  11  13
ATOM     13  C   UNL     1       3.259  -0.434  -0.905  1.00  0.00     0.248 C 
BRANCH  13  14
ATOM     14  N   UNL     1       3.941   0.219  -2.013  1.00  0.00    -0.220 N 
ATOM     15  N   UNL     1       4.088   1.591  -1.977  1.00  0.00    -0.166 NA
ATOM     16  C   UNL     1       4.461  -0.586  -3.019  1.00  0.00     0.267 A 
ATOM     17  C   UNL     1       4.594   2.168  -3.024  1.00  0.00     0.126 A 
ATOM     18  C   UNL     1       5.033   0.119  -4.184  1.00  0.00     0.076 A 
ATOM     19  O   UNL     1       4.473  -1.813  -3.000  1.00  0.00    -0.268 OA
ATOM     20  C   UNL     1       5.074   1.452  -4.221  1.00  0.00     0.040 A 
BRANCH  17  21
ATOM     21  C   UNL     1       4.726   3.600  -3.031  1.00  0.00     0.154 A 
ATOM     22  C   UNL     1       5.509   4.456  -2.282  1.00  0.00     0.052 A 
ATOM     23  O   UNL     1       3.956   4.320  -3.900  1.00  0.00    -0.463 OA
ATOM     24  C   UNL     1       5.191   5.769  -2.710  1.00  0.00     0.043 A 
ATOM     25  C   UNL     1       4.219   5.633  -3.672  1.00  0.00     0.196 A 
ENDBRANCH  17  21
ENDBRANCH  13  14
ENDBRANCH  11  13
ENDBRANCH   8   9
BRANCH   8  26
ATOM     26  C   UNL     1       2.298   3.473   1.697  1.00  0.00    -0.016 A 
ATOM     27  C   UNL     1       1.740   4.337   2.660  1.00  0.00     0.006 A 
ATOM     28  C   UNL     1       2.921   4.053   0.584  1.00  0.00     0.006 A 
ATOM     29  C   UNL     1       1.850   5.724   2.541  1.00  0.00     0.000 A 
ATOM     30  C   UNL     1       3.026   5.441   0.463  1.00  0.00     0.000 A 
ATOM     31  C   UNL     1       2.500   6.276   1.443  1.00  0.00     0.000 A 
ENDBRANCH   8  26
ENDBRANCH   5   8
ENDBRANCH   3   4
ENDBRANCH   2   3
ENDBRANCH   1   2
BRANCH   1  32
ATOM     32  C   UNL     1       1.881  -3.086   5.204  1.00  0.00     0.002 C 
BRANCH  32  33
ATOM     33  C   UNL     1       0.942  -4.090   4.537  1.00  0.00     0.021 C 
BRANCH  33  34
ATOM     34  C   UNL     1       1.632  -5.340   4.005  1.00  0.00     0.116 C 
BRANCH  34  35
ATOM     35  N   UNL     1       2.150  -6.187   5.069  1.00  0.00    -0.352 N 
ATOM     36  C   UNL     1       1.999  -7.551   5.224  1.00  0.00     0.251 C 
ATOM     37  H   UNL     1       2.675  -5.730   5.766  1.00  0.00     0.163 HD
ATOM     38  O   UNL     1       2.369  -8.111   6.237  1.00  0.00    -0.269 OA
BRANCH  36  39
ATOM     39  C   UNL     1       1.334  -8.300   4.134  1.00  0.00     0.039 A 
ATOM     40  C   UNL     1       1.782  -8.154   2.819  1.00  0.00     0.014 A 
ATOM     41  C   UNL     1       0.197  -9.056   4.421  1.00  0.00     0.014 A 
ATOM     42  C   UNL     1       0.992  -8.621   1.775  1.00  0.00     0.010 A 
ATOM     43  C   UNL     1      -0.554  -9.589   3.370  1.00  0.00     0.010 A 
ATOM     44  C   UNL     1      -0.195  -9.326   2.038  1.00  0.00    -0.014 A 
BRANCH  44  45
ATOM     45  C   UNL     1      -1.055  -9.757   0.906  1.00  0.00     0.031 A 
ATOM     46  C   UNL     1      -2.440  -9.192   0.730  1.00  0.00     0.074 A 
ATOM     47  C   UNL     1      -0.568 -10.634   0.008  1.00  0.00     0.049 A 
ATOM     48  N   UNL     1      -3.322  -9.458  -0.201  1.00  0.00    -0.248 NA
ATOM     49  C   UNL     1      -2.902  -8.205   1.721  1.00  0.00     0.031 C 
ATOM     50  C   UNL     1       0.753 -11.262   0.076  1.00  0.00     0.029 A 
ATOM     51  N   UNL     1      -1.120 -11.143  -1.140  1.00  0.00    -0.354 N 
ATOM     52  C   UNL     1      -4.452  -8.714   0.117  1.00  0.00     0.074 A 
ATOM     53  C   UNL     1      -4.148  -7.979   1.325  1.00  0.00     0.031 C 
ATOM     54  C   UNL     1       0.924 -12.043  -1.000  1.00  0.00     0.029 A 
ATOM     55  C   UNL     1      -0.292 -12.013  -1.807  1.00  0.00     0.049 A 
ATOM     56  H   UNL     1      -2.022 -10.908  -1.455  1.00  0.00     0.167 HD
ATOM     57  C   UNL     1      -5.628  -8.636  -0.548  1.00  0.00     0.034 A 
ATOM     58  C   UNL     1      -0.488 -12.719  -2.937  1.00  0.00     0.034 A 
ATOM     59  C   UNL     1      -5.907  -9.311  -1.786  1.00  0.00     0.049 A 
ATOM     60  C   UNL     1      -1.791 -12.593  -3.668  1.00  0.00     0.074 A 
ATOM     61  C   UNL     1      -7.054  -9.243  -2.559  1.00  0.00     0.029 A 
ATOM     62  N   UNL     1      -5.034 -10.166  -2.438  1.00  0.00    -0.354 N 
ATOM     63  N   UNL     1      -2.818 -11.828  -3.388  1.00  0.00    -0.248 NA
ATOM     64  C   UNL     1      -1.962 -13.416  -4.873  1.00  0.00     0.031 C 
ATOM     65  C   UNL     1      -6.874 -10.060  -3.679  1.00  0.00     0.029 A 
ATOM     66  C   UNL     1      -5.616 -10.634  -3.603  1.00  0.00     0.049 A 
ATOM     67  H   UNL     1      -4.134 -10.405  -2.119  1.00  0.00     0.167 HD
ATOM     68  C   UNL     1      -3.755 -12.072  -4.383  1.00  0.00     0.074 A 
ATOM     69  C   UNL     1      -3.165 -13.037  -5.288  1.00  0.00     0.031 C 
ATOM     70  C   UNL     1      -5.002 -11.560  -4.517  1.00  0.00     0.034 A 
BRANCH  57  71
ATOM     71  C   UNL     1      -6.703  -7.745   0.011  1.00  0.00     0.023 A 
ATOM     72  C   UNL     1      -6.649  -6.361  -0.244  1.00  0.00     0.012 A 
ATOM     73  C   UNL     1      -7.817  -8.287   0.681  1.00  0.00     0.148 A 
ATOM     74  C   UNL     1      -7.688  -5.526   0.165  1.00  0.00     0.002 A 
ATOM     75  C   UNL     1      -8.861  -7.452   1.063  1.00  0.00     0.091 A 
ATOM     76  F   UNL     1      -7.837  -9.606   0.920  1.00  0.00    -0.205 F 
ATOM     77  C   UNL     1      -8.796  -6.072   0.808  1.00  0.00     0.022 A 
BRANCH  75  78
ATOM     78  S   UNL     1     -10.358  -8.059   1.849  1.00  0.00     0.127 S 
ATOM     79  O   UNL     1     -10.272  -7.433   3.168  1.00  0.00    -0.237 OA
ATOM     80  O   UNL     1     -11.402  -7.513   0.982  1.00  0.00    -0.237 OA
ATOM     81  O   UNL     1     -10.256  -9.512   1.846  1.00  0.00    -0.744 OA
ENDBRANCH  75  78
ENDBRANCH  57  71
BRANCH  58  82
ATOM     82  C   UNL     1       0.613 -13.575  -3.454  1.00  0.00     0.023 A 
ATOM     83  C   UNL     1       1.351 -13.145  -4.572  1.00  0.00     0.012 A 
ATOM     84  C   UNL     1       0.987 -14.758  -2.789  1.00  0.00     0.148 A 
ATOM     85  C   UNL     1       2.445 -13.884  -5.023  1.00  0.00     0.002 A 
ATOM     86  C   UNL     1       2.105 -15.464  -3.215  1.00  0.00     0.091 A 
ATOM     87  F   UNL     1       0.260 -15.148  -1.733  1.00  0.00    -0.205 F 
ATOM     88  C   UNL     1       2.830 -15.034  -4.337  1.00  0.00     0.022 A 
BRANCH  86  89
ATOM     89  S   UNL     1       2.749 -16.883  -2.322  1.00  0.00     0.127 S 
ATOM     90  O   UNL     1       2.504 -17.967  -3.269  1.00  0.00    -0.237 OA
ATOM     91  O   UNL     1       4.155 -16.518  -2.152  1.00  0.00    -0.237 OA
ATOM     92  O   UNL     1       1.989 -16.948  -1.081  1.00  0.00    -0.744 OA
ENDBRANCH  86  89
ENDBRANCH  58  82
BRANCH  70  93
ATOM     93  C   UNL     1      -5.830 -12.030  -5.679  1.00  0.00     0.023 A 
ATOM     94  C   UNL     1      -6.486 -13.272  -5.593  1.00  0.00     0.012 A 
ATOM     95  C   UNL     1      -6.048 -11.201  -6.797  1.00  0.00     0.148 A 
ATOM     96  C   UNL     1      -7.343 -13.690  -6.609  1.00  0.00     0.002 A 
ATOM     97  C   UNL     1      -6.928 -11.611  -7.792  1.00  0.00     0.091 A 
ATOM     98  F   UNL     1      -5.401 -10.029  -6.859  1.00  0.00    -0.205 F 
ATOM     99  C   UNL     1      -7.573 -12.856  -7.701  1.00  0.00     0.022 A 
BRANCH  97 100
ATOM    100  S   UNL     1      -7.342 -10.577  -9.200  1.00  0.00     0.127 S 
ATOM    101  O   UNL     1      -6.684 -11.288 -10.295  1.00  0.00    -0.237 OA
ATOM    102  O   UNL     1      -8.804 -10.647  -9.219  1.00  0.00    -0.237 OA
ATOM    103  O   UNL     1      -6.804  -9.256  -8.903  1.00  0.00    -0.744 OA
ENDBRANCH  97 100
ENDBRANCH  70  93
ENDBRANCH  44  45
ENDBRANCH  36  39
ENDBRANCH  34  35
ENDBRANCH  33  34
ENDBRANCH  32  33
ENDBRANCH   1  32
TORSDOF 21
