REMARK SMILES C[C@@]12CCC[C@](C)(C(=O)NCCCCCCNC(=O)c3ccc(-c4c5nc(c(-c6cccc(S(=O)(=O)[O-])c6F)c6ccc([nH]6)c(-c6cccc(S(=O)(=O)[O-])c6F)c6nc(c(-c7cccc(S(=O)(=O)[O-])c7F)c7ccc4[nH]7)C=C6)C=C5)cc3)[C@H]1CC[C@@]13C=C(CO)[C@@H](CC[C@@H]12)C3
REMARK SMILES IDX 14 1 13 2 12 3 11 4 10 5 8 6 9 7 6 9 1 10 2 11 3 12 83 13
REMARK SMILES IDX 94 14 4 15 84 16 86 17 93 18 5 19 7 20 85 21 87 22 95 23
REMARK SMILES IDX 92 24 88 25 91 26 89 27 90 28 15 30 16 31 17 32 18 33 19 35
REMARK SMILES IDX 20 36 21 37 82 38 22 39 81 40 23 41 24 42 25 43 75 44 26 45
REMARK SMILES IDX 80 46 74 47 76 48 27 49 79 50 73 51 72 52 28 54 60 55 40 56
REMARK SMILES IDX 59 57 41 58 44 59 58 60 77 61 42 62 43 63 57 65 78 66 45 67
REMARK SMILES IDX 29 68 30 69 38 70 31 71 33 72 39 73 32 74 34 75 35 76 36 77
REMARK SMILES IDX 37 78 61 79 62 80 70 81 63 82 65 83 71 84 64 85 66 86 67 87
REMARK SMILES IDX 68 88 69 89 46 90 47 91 55 92 48 93 50 94 56 95 49 96 51 97
REMARK SMILES IDX 52 98 53 99 54 100
REMARK H PARENT 10 8 90 29 17 34 76 53 44 64
REMARK Flexibility Score: inf
ROOT
ATOM      1  C   UNL     1       2.951   6.036  -1.284  1.00  0.00     0.002 C 
ENDROOT
BRANCH   1   2
ATOM      2  C   UNL     1       2.893   5.418   0.114  1.00  0.00     0.002 C 
BRANCH   2   3
ATOM      3  C   UNL     1       2.250   4.038   0.146  1.00  0.00     0.021 C 
BRANCH   3   4
ATOM      4  C   UNL     1       3.149   2.955  -0.447  1.00  0.00     0.116 C 
BRANCH   4   5
ATOM      5  N   UNL     1       3.950   2.350   0.604  1.00  0.00    -0.356 N 
ATOM      6  C   UNL     1       3.955   1.101   1.156  1.00  0.00     0.226 C 
ATOM      7  O   UNL     1       4.642   0.962   2.172  1.00  0.00    -0.274 OA
ATOM      8  H   UNL     1       4.618   2.958   0.995  1.00  0.00     0.163 HD
BRANCH   6   9
ATOM      9  C   UNL     1       3.223  -0.097   0.495  1.00  0.00     0.050 C 
ATOM     10  C   UNL     1       1.113  -1.314  -1.406  1.00  0.00     0.012 C 
ATOM     11  C   UNL     1       0.932  -1.367   0.154  1.00  0.00    -0.025 C 
ATOM     12  C   UNL     1       1.587  -2.650   0.722  1.00  0.00     0.007 C 
ATOM     13  C   UNL     1       1.642  -0.144   0.812  1.00  0.00     0.010 C 
ATOM     14  C   UNL     1      -0.619  -1.426   0.380  1.00  0.00     0.005 C 
ATOM     15  C   UNL     1       3.110  -2.689   0.627  1.00  0.00     0.002 C 
ATOM     16  C   UNL     1       0.816   1.142   0.661  1.00  0.00     0.006 C 
ATOM     17  C   UNL     1      -1.396  -0.045   0.351  1.00  0.00    -0.008 C 
ATOM     18  C   UNL     1      -1.361  -2.359   1.331  1.00  0.00     0.006 C 
ATOM     19  C   UNL     1       3.773  -1.413   1.154  1.00  0.00     0.017 C 
ATOM     20  C   UNL     1       3.786  -0.145  -0.958  1.00  0.00     0.022 C 
ATOM     21  C   UNL     1      -0.645   1.034   1.099  1.00  0.00     0.012 C 
ATOM     22  C   UNL     1      -1.746   0.142  -1.096  1.00  0.00    -0.018 C 
ATOM     23  C   UNL     1      -2.867  -0.160   0.843  1.00  0.00     0.019 C 
ATOM     24  C   UNL     1      -2.762  -2.590   0.642  1.00  0.00     0.008 C 
ATOM     25  C   UNL     1      -2.721  -0.754  -1.372  1.00  0.00    -0.045 C 
ATOM     26  C   UNL     1      -3.338  -1.302  -0.060  1.00  0.00     0.018 C 
BRANCH  25  27
ATOM     27  C   UNL     1      -3.082  -1.198  -2.747  1.00  0.00     0.187 C 
BRANCH  27  28
ATOM     28  O   UNL     1      -1.923  -1.745  -3.375  1.00  0.00    -0.392 OA
ATOM     29  H   UNL     1      -1.228  -1.069  -3.416  1.00  0.00     0.211 HD
ENDBRANCH  27  28
ENDBRANCH  25  27
ENDBRANCH   6   9
ENDBRANCH   4   5
ENDBRANCH   3   4
ENDBRANCH   2   3
ENDBRANCH   1   2
BRANCH   1  30
ATOM     30  C   UNL     1       1.597   6.170  -1.990  1.00  0.00     0.021 C 
BRANCH  30  31
ATOM     31  C   UNL     1       0.509   6.840  -1.157  1.00  0.00     0.116 C 
BRANCH  31  32
ATOM     32  N   UNL     1       0.927   8.153  -0.689  1.00  0.00    -0.352 N 
ATOM     33  C   UNL     1       0.416   9.387  -0.999  1.00  0.00     0.251 C 
ATOM     34  H   UNL     1       1.684   8.156  -0.061  1.00  0.00     0.163 HD
ATOM     35  O   UNL     1       1.047  10.402  -0.729  1.00  0.00    -0.269 OA
BRANCH  33  36
ATOM     36  C   UNL     1      -0.899   9.479  -1.663  1.00  0.00     0.039 A 
ATOM     37  C   UNL     1      -1.054  10.341  -2.749  1.00  0.00     0.014 A 
ATOM     38  C   UNL     1      -1.976   8.717  -1.200  1.00  0.00     0.014 A 
ATOM     39  C   UNL     1      -2.285  10.405  -3.404  1.00  0.00     0.010 A 
ATOM     40  C   UNL     1      -3.177   8.726  -1.900  1.00  0.00     0.010 A 
ATOM     41  C   UNL     1      -3.348   9.580  -2.999  1.00  0.00    -0.014 A 
BRANCH  41  42
ATOM     42  C   UNL     1      -4.649   9.598  -3.712  1.00  0.00     0.031 A 
ATOM     43  C   UNL     1      -5.897  10.033  -2.996  1.00  0.00     0.074 A 
ATOM     44  C   UNL     1      -4.717   9.142  -4.978  1.00  0.00     0.049 A 
ATOM     45  N   UNL     1      -7.128  10.075  -3.438  1.00  0.00    -0.248 NA
ATOM     46  C   UNL     1      -5.750  10.447  -1.591  1.00  0.00     0.031 C 
ATOM     47  C   UNL     1      -3.587   8.622  -5.750  1.00  0.00     0.029 A 
ATOM     48  N   UNL     1      -5.786   9.021  -5.829  1.00  0.00    -0.354 N 
ATOM     49  C   UNL     1      -7.903  10.486  -2.360  1.00  0.00     0.074 A 
ATOM     50  C   UNL     1      -7.010  10.638  -1.232  1.00  0.00     0.031 C 
ATOM     51  C   UNL     1      -4.020   8.250  -6.965  1.00  0.00     0.029 A 
ATOM     52  C   UNL     1      -5.460   8.475  -7.047  1.00  0.00     0.049 A 
ATOM     53  H   UNL     1      -6.699   9.300  -5.589  1.00  0.00     0.167 HD
ATOM     54  C   UNL     1      -9.232  10.743  -2.318  1.00  0.00     0.034 A 
ATOM     55  C   UNL     1      -6.235   8.185  -8.110  1.00  0.00     0.034 A 
ATOM     56  C   UNL     1     -10.108  10.620  -3.453  1.00  0.00     0.049 A 
ATOM     57  C   UNL     1      -7.704   8.504  -8.051  1.00  0.00     0.074 A 
ATOM     58  C   UNL     1     -11.451  10.939  -3.542  1.00  0.00     0.029 A 
ATOM     59  N   UNL     1      -9.730  10.130  -4.694  1.00  0.00    -0.354 N 
ATOM     60  N   UNL     1      -8.393   9.042  -7.074  1.00  0.00    -0.248 NA
ATOM     61  C   UNL     1      -8.495   8.211  -9.254  1.00  0.00     0.031 C 
ATOM     62  C   UNL     1     -11.892  10.612  -4.829  1.00  0.00     0.029 A 
ATOM     63  C   UNL     1     -10.816  10.122  -5.552  1.00  0.00     0.049 A 
ATOM     64  H   UNL     1      -8.822   9.831  -4.930  1.00  0.00     0.167 HD
ATOM     65  C   UNL     1      -9.689   9.185  -7.554  1.00  0.00     0.074 A 
ATOM     66  C   UNL     1      -9.684   8.694  -8.917  1.00  0.00     0.031 C 
ATOM     67  C   UNL     1     -10.786   9.670  -6.921  1.00  0.00     0.034 A 
BRANCH  54  68
ATOM     68  C   UNL     1      -9.806  11.223  -1.010  1.00  0.00     0.023 A 
ATOM     69  C   UNL     1      -9.469  12.506  -0.528  1.00  0.00     0.012 A 
ATOM     70  C   UNL     1     -10.697  10.423  -0.269  1.00  0.00     0.148 A 
ATOM     71  C   UNL     1      -9.967  12.964   0.691  1.00  0.00     0.002 A 
ATOM     72  C   UNL     1     -11.229  10.906   0.922  1.00  0.00     0.091 A 
ATOM     73  F   UNL     1     -10.992   9.198  -0.727  1.00  0.00    -0.205 F 
ATOM     74  C   UNL     1     -10.854  12.169   1.410  1.00  0.00     0.022 A 
BRANCH  72  75
ATOM     75  S   UNL     1     -12.442   9.991   1.881  1.00  0.00     0.127 S 
ATOM     76  O   UNL     1     -11.640   9.537   3.015  1.00  0.00    -0.237 OA
ATOM     77  O   UNL     1     -13.426  11.024   2.202  1.00  0.00    -0.237 OA
ATOM     78  O   UNL     1     -12.935   8.940   0.999  1.00  0.00    -0.744 OA
ENDBRANCH  72  75
ENDBRANCH  54  68
BRANCH  55  79
ATOM     79  C   UNL     1      -5.615   7.632  -9.347  1.00  0.00     0.023 A 
ATOM     80  C   UNL     1      -5.518   8.446 -10.492  1.00  0.00     0.012 A 
ATOM     81  C   UNL     1      -5.080   6.330  -9.381  1.00  0.00     0.148 A 
ATOM     82  C   UNL     1      -4.921   7.966 -11.657  1.00  0.00     0.002 A 
ATOM     83  C   UNL     1      -4.438   5.877 -10.528  1.00  0.00     0.091 A 
ATOM     84  F   UNL     1      -5.188   5.570  -8.282  1.00  0.00    -0.205 F 
ATOM     85  C   UNL     1      -4.372   6.686 -11.672  1.00  0.00     0.022 A 
BRANCH  83  86
ATOM     86  S   UNL     1      -3.586   4.296 -10.598  1.00  0.00     0.127 S 
ATOM     87  O   UNL     1      -4.404   3.558 -11.557  1.00  0.00    -0.237 OA
ATOM     88  O   UNL     1      -2.265   4.690 -11.087  1.00  0.00    -0.237 OA
ATOM     89  O   UNL     1      -3.595   3.781  -9.235  1.00  0.00    -0.744 OA
ENDBRANCH  83  86
ENDBRANCH  55  79
BRANCH  67  90
ATOM     90  C   UNL     1     -12.074   9.728  -7.702  1.00  0.00     0.023 A 
ATOM     91  C   UNL     1     -12.767   8.540  -8.005  1.00  0.00     0.012 A 
ATOM     92  C   UNL     1     -12.632  10.968  -8.071  1.00  0.00     0.148 A 
ATOM     93  C   UNL     1     -13.980   8.583  -8.693  1.00  0.00     0.002 A 
ATOM     94  C   UNL     1     -13.866  11.006  -8.710  1.00  0.00     0.091 A 
ATOM     95  F   UNL     1     -11.948  12.087  -7.790  1.00  0.00    -0.205 F 
ATOM     96  C   UNL     1     -14.534   9.814  -9.033  1.00  0.00     0.022 A 
BRANCH  94  97
ATOM     97  S   UNL     1     -14.703  12.547  -9.098  1.00  0.00     0.127 S 
ATOM     98  O   UNL     1     -14.575  12.597 -10.553  1.00  0.00    -0.237 OA
ATOM     99  O   UNL     1     -16.060  12.293  -8.613  1.00  0.00    -0.237 OA
ATOM    100  O   UNL     1     -13.986  13.588  -8.372  1.00  0.00    -0.744 OA
ENDBRANCH  94  97
ENDBRANCH  67  90
ENDBRANCH  41  42
ENDBRANCH  33  36
ENDBRANCH  31  32
ENDBRANCH  30  31
ENDBRANCH   1  30
TORSDOF 18
