REMARK SMILES N#Cc1cccc(-c2ccnc(C(=O)NCCCCCCNC(=O)c3ccc(-c4c5nc(c(-c6cccc(S(=O)(=O)[O-])c6F)c6ccc([nH]6)c(-c6cccc(S(=O)(=O)[O-])c6F)c6nc(c(-c7cccc(S(=O)(=O)[O-])c7F)c7ccc4[nH]7)C=C6)C=C5)cc3)c2)c1F
REMARK SMILES IDX 19 1 18 2 17 3 16 4 15 5 13 6 14 7 12 9 8 10 9 11 88 12
REMARK SMILES IDX 10 13 11 14 7 15 3 16 4 17 89 18 5 19 90 20 6 21 2 22 1 23
REMARK SMILES IDX 20 24 21 25 22 26 23 27 24 29 25 30 26 31 87 32 27 33 86 34
REMARK SMILES IDX 28 35 29 36 30 37 80 38 31 39 85 40 79 41 81 42 32 43 84 44
REMARK SMILES IDX 78 45 77 46 33 48 65 49 45 50 64 51 46 52 49 53 63 54 82 55
REMARK SMILES IDX 47 56 48 57 62 59 83 60 50 61 34 62 35 63 43 64 36 65 38 66
REMARK SMILES IDX 44 67 37 68 39 69 40 70 41 71 42 72 66 73 67 74 75 75 68 76
REMARK SMILES IDX 70 77 76 78 69 79 71 80 72 81 73 82 74 83 51 84 52 85 60 86
REMARK SMILES IDX 53 87 55 88 61 89 54 90 56 91 57 92 58 93 59 94
REMARK H PARENT 15 8 22 28 81 47 49 58
REMARK Flexibility Score: inf
ROOT
ATOM      1  C   UNL     1      -0.813  -3.960  -6.220  1.00  0.00     0.002 C 
ENDROOT
BRANCH   1   2
ATOM      2  C   UNL     1       0.707  -3.909  -6.006  1.00  0.00     0.002 C 
BRANCH   2   3
ATOM      3  C   UNL     1       1.137  -3.277  -4.675  1.00  0.00     0.021 C 
BRANCH   3   4
ATOM      4  C   UNL     1       0.529  -3.994  -3.467  1.00  0.00     0.116 C 
BRANCH   4   5
ATOM      5  N   UNL     1       1.374  -5.096  -3.047  1.00  0.00    -0.351 N 
ATOM      6  C   UNL     1       2.240  -5.338  -2.006  1.00  0.00     0.269 C 
ATOM      7  O   UNL     1       2.773  -6.453  -2.022  1.00  0.00    -0.268 OA
ATOM      8  H   UNL     1       1.313  -5.862  -3.663  1.00  0.00     0.163 HD
BRANCH   6   9
ATOM      9  C   UNL     1       2.556  -4.380  -0.885  1.00  0.00     0.128 A 
ATOM     10  C   UNL     1       2.365  -2.283   0.310  1.00  0.00    -0.012 A 
ATOM     11  C   UNL     1       3.172  -2.808   1.312  1.00  0.00     0.029 A 
ATOM     12  C   UNL     1       2.111  -3.075  -0.818  1.00  0.00     0.043 A 
ATOM     13  C   UNL     1       3.642  -4.102   1.154  1.00  0.00     0.112 A 
ATOM     14  N   UNL     1       3.341  -4.893   0.101  1.00  0.00    -0.251 NA
BRANCH  10  15
ATOM     15  C   UNL     1       1.758  -0.947   0.363  1.00  0.00     0.019 A 
ATOM     16  C   UNL     1      -0.252   0.442   0.204  1.00  0.00     0.088 A 
ATOM     17  C   UNL     1       0.544   1.585   0.115  1.00  0.00     0.022 A 
ATOM     18  C   UNL     1       0.357  -0.806   0.331  1.00  0.00     0.148 A 
ATOM     19  C   UNL     1       1.936   1.469   0.170  1.00  0.00     0.002 A 
ATOM     20  F   UNL     1      -0.411  -1.909   0.371  1.00  0.00    -0.205 F 
ATOM     21  C   UNL     1       2.539   0.213   0.300  1.00  0.00     0.012 A 
BRANCH  16  22
ATOM     22  C   UNL     1      -1.674   0.521   0.130  1.00  0.00     0.102 C 
ATOM     23  N   UNL     1      -2.833   0.553   0.070  1.00  0.00    -0.192 NA
ENDBRANCH  16  22
ENDBRANCH  10  15
ENDBRANCH   6   9
ENDBRANCH   4   5
ENDBRANCH   3   4
ENDBRANCH   2   3
ENDBRANCH   1   2
BRANCH   1  24
ATOM     24  C   UNL     1      -1.522  -2.613  -6.054  1.00  0.00     0.021 C 
BRANCH  24  25
ATOM     25  C   UNL     1      -1.061  -1.555  -7.048  1.00  0.00     0.116 C 
BRANCH  25  26
ATOM     26  N   UNL     1      -1.284  -1.991  -8.419  1.00  0.00    -0.352 N 
ATOM     27  C   UNL     1      -2.061  -1.423  -9.394  1.00  0.00     0.251 C 
ATOM     28  H   UNL     1      -0.808  -2.811  -8.683  1.00  0.00     0.163 HD
ATOM     29  O   UNL     1      -2.365  -2.072 -10.390  1.00  0.00    -0.269 OA
BRANCH  27  30
ATOM     30  C   UNL     1      -2.525  -0.031  -9.238  1.00  0.00     0.039 A 
ATOM     31  C   UNL     1      -3.833   0.289  -9.601  1.00  0.00     0.014 A 
ATOM     32  C   UNL     1      -1.665   0.956  -8.745  1.00  0.00     0.014 A 
ATOM     33  C   UNL     1      -4.293   1.593  -9.426  1.00  0.00     0.010 A 
ATOM     34  C   UNL     1      -2.153   2.233  -8.489  1.00  0.00     0.010 A 
ATOM     35  C   UNL     1      -3.469   2.568  -8.836  1.00  0.00    -0.014 A 
BRANCH  35  36
ATOM     36  C   UNL     1      -3.987   3.930  -8.560  1.00  0.00     0.031 A 
ATOM     37  C   UNL     1      -3.360   5.135  -9.206  1.00  0.00     0.074 A 
ATOM     38  C   UNL     1      -4.997   4.083  -7.679  1.00  0.00     0.049 A 
ATOM     39  N   UNL     1      -3.681   6.396  -9.074  1.00  0.00    -0.248 NA
ATOM     40  C   UNL     1      -2.213   4.902 -10.099  1.00  0.00     0.031 C 
ATOM     41  C   UNL     1      -5.636   2.997  -6.931  1.00  0.00     0.029 A 
ATOM     42  N   UNL     1      -5.651   5.210  -7.251  1.00  0.00    -0.354 N 
ATOM     43  C   UNL     1      -2.763   7.106  -9.838  1.00  0.00     0.074 A 
ATOM     44  C   UNL     1      -1.851   6.139 -10.407  1.00  0.00     0.031 C 
ATOM     45  C   UNL     1      -6.600   3.509  -6.151  1.00  0.00     0.029 A 
ATOM     46  C   UNL     1      -6.617   4.959  -6.304  1.00  0.00     0.049 A 
ATOM     47  H   UNL     1      -5.449   6.112  -7.588  1.00  0.00     0.167 HD
ATOM     48  C   UNL     1      -2.697   8.439 -10.060  1.00  0.00     0.034 A 
ATOM     49  C   UNL     1      -7.413   5.802  -5.620  1.00  0.00     0.034 A 
ATOM     50  C   UNL     1      -3.618   9.395  -9.506  1.00  0.00     0.049 A 
ATOM     51  C   UNL     1      -7.321   7.277  -5.894  1.00  0.00     0.074 A 
ATOM     52  C   UNL     1      -3.685  10.757  -9.741  1.00  0.00     0.029 A 
ATOM     53  N   UNL     1      -4.614   9.099  -8.589  1.00  0.00    -0.354 N 
ATOM     54  N   UNL     1      -6.544   7.913  -6.737  1.00  0.00    -0.248 NA
ATOM     55  C   UNL     1      -8.238   8.150  -5.147  1.00  0.00     0.031 C 
ATOM     56  C   UNL     1      -4.681  11.293  -8.921  1.00  0.00     0.029 A 
ATOM     57  C   UNL     1      -5.282  10.256  -8.227  1.00  0.00     0.049 A 
ATOM     58  H   UNL     1      -4.817   8.198  -8.246  1.00  0.00     0.167 HD
ATOM     59  C   UNL     1      -6.904   9.252  -6.650  1.00  0.00     0.074 A 
ATOM     60  C   UNL     1      -7.986   9.332  -5.691  1.00  0.00     0.031 C 
ATOM     61  C   UNL     1      -6.381  10.321  -7.300  1.00  0.00     0.034 A 
BRANCH  48  62
ATOM     62  C   UNL     1      -1.601   8.955 -10.955  1.00  0.00     0.023 A 
ATOM     63  C   UNL     1      -1.636   8.692 -12.340  1.00  0.00     0.012 A 
ATOM     64  C   UNL     1      -0.581   9.775 -10.433  1.00  0.00     0.148 A 
ATOM     65  C   UNL     1      -0.658   9.214 -13.186  1.00  0.00     0.002 A 
ATOM     66  C   UNL     1       0.360  10.333 -11.289  1.00  0.00     0.091 A 
ATOM     67  F   UNL     1      -0.555   9.998  -9.112  1.00  0.00    -0.205 F 
ATOM     68  C   UNL     1       0.331  10.043 -12.663  1.00  0.00     0.022 A 
BRANCH  66  69
ATOM     69  S   UNL     1       1.623  11.479 -10.727  1.00  0.00     0.127 S 
ATOM     70  O   UNL     1       2.845  10.712 -10.968  1.00  0.00    -0.237 OA
ATOM     71  O   UNL     1       1.428  12.614 -11.629  1.00  0.00    -0.237 OA
ATOM     72  O   UNL     1       1.330  11.752  -9.328  1.00  0.00    -0.744 OA
ENDBRANCH  66  69
ENDBRANCH  48  62
BRANCH  49  73
ATOM     73  C   UNL     1      -8.376   5.276  -4.612  1.00  0.00     0.023 A 
ATOM     74  C   UNL     1      -9.762   5.387  -4.836  1.00  0.00     0.012 A 
ATOM     75  C   UNL     1      -7.918   4.674  -3.425  1.00  0.00     0.148 A 
ATOM     76  C   UNL     1     -10.674   4.951  -3.873  1.00  0.00     0.002 A 
ATOM     77  C   UNL     1      -8.831   4.187  -2.499  1.00  0.00     0.091 A 
ATOM     78  F   UNL     1      -6.595   4.586  -3.230  1.00  0.00    -0.205 F 
ATOM     79  C   UNL     1     -10.209   4.344  -2.710  1.00  0.00     0.022 A 
BRANCH  77  80
ATOM     80  S   UNL     1      -8.323   3.285  -1.034  1.00  0.00     0.127 S 
ATOM     81  O   UNL     1      -8.715   4.205   0.032  1.00  0.00    -0.237 OA
ATOM     82  O   UNL     1      -9.137   2.073  -1.135  1.00  0.00    -0.237 OA
ATOM     83  O   UNL     1      -6.892   3.069  -1.185  1.00  0.00    -0.744 OA
ENDBRANCH  77  80
ENDBRANCH  49  73
BRANCH  61  84
ATOM     84  C   UNL     1      -7.005  11.668  -7.042  1.00  0.00     0.023 A 
ATOM     85  C   UNL     1      -6.852  12.298  -5.791  1.00  0.00     0.012 A 
ATOM     86  C   UNL     1      -7.701  12.334  -8.070  1.00  0.00     0.148 A 
ATOM     87  C   UNL     1      -7.422  13.548  -5.553  1.00  0.00     0.002 A 
ATOM     88  C   UNL     1      -8.214  13.605  -7.846  1.00  0.00     0.091 A 
ATOM     89  F   UNL     1      -7.847  11.713  -9.250  1.00  0.00    -0.205 F 
ATOM     90  C   UNL     1      -8.091  14.206  -6.583  1.00  0.00     0.022 A 
BRANCH  88  91
ATOM     91  S   UNL     1      -9.002  14.569  -9.139  1.00  0.00     0.127 S 
ATOM     92  O   UNL     1     -10.389  14.609  -8.676  1.00  0.00    -0.237 OA
ATOM     93  O   UNL     1      -8.291  15.844  -9.048  1.00  0.00    -0.237 OA
ATOM     94  O   UNL     1      -8.783  13.838 -10.380  1.00  0.00    -0.744 OA
ENDBRANCH  88  91
ENDBRANCH  61  84
ENDBRANCH  35  36
ENDBRANCH  27  30
ENDBRANCH  25  26
ENDBRANCH  24  25
ENDBRANCH   1  24
TORSDOF 18
