REMARK SMILES Cc1cc([N+](=O)[O-])ccc1NC(=O)[C@@H]1[C@@H](C(=O)NCCCCCCNC(=O)c2ccc(-c3c4nc(c(-c5cccc(S(=O)(=O)[O-])c5F)c5ccc([nH]5)c(-c5cccc(S(=O)(=O)[O-])c5F)c5nc(c(-c6cccc(S(=O)(=O)[O-])c6F)c6ccc3[nH]6)C=C5)C=C4)cc2)[C@H]2C=C[C@@H]1C2
REMARK SMILES IDX 21 1 20 2 19 3 18 4 16 5 17 6 15 8 14 9 94 10 91 11 93 12
REMARK SMILES IDX 95 13 92 14 12 15 11 16 13 18 10 19 1 20 2 21 3 22 4 23 9 24
REMARK SMILES IDX 8 25 5 26 6 27 7 28 22 29 23 30 24 31 25 32 26 33 27 35
REMARK SMILES IDX 28 36 29 37 90 38 30 39 89 40 31 41 32 42 33 43 83 44 34 45
REMARK SMILES IDX 88 46 82 47 84 48 35 49 87 50 81 51 80 52 36 54 68 55 48 56
REMARK SMILES IDX 67 57 49 58 52 59 66 60 85 61 50 62 51 63 65 65 86 66 53 67
REMARK SMILES IDX 37 68 38 69 46 70 39 71 41 72 47 73 40 74 42 75 43 76 44 77
REMARK SMILES IDX 45 78 69 79 70 80 78 81 71 82 73 83 79 84 72 85 74 86 75 87
REMARK SMILES IDX 76 88 77 89 54 90 55 91 63 92 56 93 58 94 64 95 57 96 59 97
REMARK SMILES IDX 60 98 61 99 62 100
REMARK H PARENT 18 7 11 17 25 34 84 53 52 64
REMARK Flexibility Score: inf
ROOT
ATOM      1  C   UNL     1      -4.963   9.354  -1.094  1.00  0.00     0.002 C 
ENDROOT
BRANCH   1   2
ATOM      2  C   UNL     1      -3.806   9.117  -0.115  1.00  0.00     0.021 C 
BRANCH   2   3
ATOM      3  C   UNL     1      -3.550   7.680   0.325  1.00  0.00     0.116 C 
BRANCH   3   4
ATOM      4  N   UNL     1      -3.334   6.773  -0.778  1.00  0.00    -0.356 N 
ATOM      5  C   UNL     1      -2.628   5.612  -0.813  1.00  0.00     0.224 C 
ATOM      6  O   UNL     1      -2.618   4.998  -1.884  1.00  0.00    -0.275 OA
ATOM      7  H   UNL     1      -3.760   7.033  -1.626  1.00  0.00     0.163 HD
BRANCH   5   8
ATOM      8  C   UNL     1      -1.822   5.146   0.400  1.00  0.00     0.098 C 
ATOM      9  C   UNL     1      -1.328   3.660   0.194  1.00  0.00     0.099 C 
ATOM     10  C   UNL     1      -1.781   2.967   1.505  1.00  0.00     0.025 C 
ATOM     11  C   UNL     1      -2.605   5.027   1.735  1.00  0.00     0.025 C 
ATOM     12  C   UNL     1      -3.287   2.849   1.440  1.00  0.00    -0.027 C 
ATOM     13  C   UNL     1      -1.677   4.100   2.524  1.00  0.00     0.017 C 
ATOM     14  C   UNL     1      -3.781   4.089   1.568  1.00  0.00    -0.027 C 
BRANCH   9  15
ATOM     15  C   UNL     1       0.157   3.486  -0.055  1.00  0.00     0.228 C 
ATOM     16  N   UNL     1       0.710   2.250  -0.288  1.00  0.00    -0.326 N 
ATOM     17  H   UNL     1       1.683   2.282  -0.431  1.00  0.00     0.169 HD
ATOM     18  O   UNL     1       0.934   4.444  -0.008  1.00  0.00    -0.274 OA
BRANCH  16  19
ATOM     19  C   UNL     1       0.177   0.943  -0.365  1.00  0.00     0.044 A 
ATOM     20  C   UNL     1       2.504  -0.083   0.109  1.00  0.00     0.047 C 
ATOM     21  C   UNL     1       1.011  -0.164  -0.086  1.00  0.00    -0.021 A 
ATOM     22  C   UNL     1       0.442  -1.455   0.011  1.00  0.00     0.091 A 
ATOM     23  C   UNL     1      -0.928  -1.648  -0.187  1.00  0.00     0.269 A 
ATOM     24  C   UNL     1      -1.164   0.690  -0.685  1.00  0.00     0.033 A 
ATOM     25  C   UNL     1      -1.731  -0.582  -0.570  1.00  0.00     0.088 A 
BRANCH  23  26
ATOM     26  N   UNL     1      -1.526  -2.973  -0.001  1.00  0.00     0.062 N 
ATOM     27  O   UNL     1      -0.759  -3.937   0.137  1.00  0.00    -0.258 OA
ATOM     28  O   UNL     1      -2.763  -3.050   0.020  1.00  0.00    -0.258 OA
ENDBRANCH  23  26
ENDBRANCH  16  19
ENDBRANCH   9  15
ENDBRANCH   5   8
ENDBRANCH   3   4
ENDBRANCH   2   3
ENDBRANCH   1   2
BRANCH   1  29
ATOM     29  C   UNL     1      -6.340   8.774  -0.741  1.00  0.00     0.002 C 
BRANCH  29  30
ATOM     30  C   UNL     1      -6.845   8.976   0.686  1.00  0.00     0.021 C 
BRANCH  30  31
ATOM     31  C   UNL     1      -6.854  10.414   1.177  1.00  0.00     0.116 C 
BRANCH  31  32
ATOM     32  N   UNL     1      -8.123  11.107   1.048  1.00  0.00    -0.352 N 
ATOM     33  C   UNL     1      -8.445  12.391   1.461  1.00  0.00     0.251 C 
ATOM     34  H   UNL     1      -8.846  10.601   0.612  1.00  0.00     0.163 HD
ATOM     35  O   UNL     1      -9.624  12.733   1.496  1.00  0.00    -0.269 OA
BRANCH  33  36
ATOM     36  C   UNL     1      -7.355  13.362   1.741  1.00  0.00     0.039 A 
ATOM     37  C   UNL     1      -7.420  14.619   1.128  1.00  0.00     0.014 A 
ATOM     38  C   UNL     1      -6.186  12.965   2.385  1.00  0.00     0.014 A 
ATOM     39  C   UNL     1      -6.252  15.354   0.937  1.00  0.00     0.010 A 
ATOM     40  C   UNL     1      -5.013  13.630   2.105  1.00  0.00     0.010 A 
ATOM     41  C   UNL     1      -5.043  14.792   1.331  1.00  0.00    -0.014 A 
BRANCH  41  42
ATOM     42  C   UNL     1      -3.737  15.332   1.006  1.00  0.00     0.031 A 
ATOM     43  C   UNL     1      -3.094  16.280   1.930  1.00  0.00     0.074 A 
ATOM     44  C   UNL     1      -3.056  14.836  -0.050  1.00  0.00     0.049 A 
ATOM     45  N   UNL     1      -2.190  17.123   1.572  1.00  0.00    -0.248 NA
ATOM     46  C   UNL     1      -3.450  16.361   3.340  1.00  0.00     0.031 C 
ATOM     47  C   UNL     1      -1.626  14.953  -0.302  1.00  0.00     0.029 A 
ATOM     48  N   UNL     1      -3.570  14.277  -1.223  1.00  0.00    -0.354 N 
ATOM     49  C   UNL     1      -1.657  17.663   2.723  1.00  0.00     0.074 A 
ATOM     50  C   UNL     1      -2.530  17.223   3.787  1.00  0.00     0.031 C 
ATOM     51  C   UNL     1      -1.401  14.749  -1.608  1.00  0.00     0.029 A 
ATOM     52  C   UNL     1      -2.696  14.655  -2.258  1.00  0.00     0.049 A 
ATOM     53  H   UNL     1      -4.382  13.728  -1.308  1.00  0.00     0.167 HD
ATOM     54  C   UNL     1      -0.444  18.280   2.665  1.00  0.00     0.034 A 
ATOM     55  C   UNL     1      -3.076  15.343  -3.373  1.00  0.00     0.034 A 
ATOM     56  C   UNL     1       0.102  18.225   1.303  1.00  0.00     0.049 A 
ATOM     57  C   UNL     1      -2.324  16.647  -3.548  1.00  0.00     0.074 A 
ATOM     58  C   UNL     1       0.986  17.349   0.695  1.00  0.00     0.029 A 
ATOM     59  N   UNL     1      -0.470  18.979   0.289  1.00  0.00    -0.354 N 
ATOM     60  N   UNL     1      -1.532  17.158  -2.648  1.00  0.00    -0.248 NA
ATOM     61  C   UNL     1      -2.421  17.494  -4.733  1.00  0.00     0.031 C 
ATOM     62  C   UNL     1       0.921  17.558  -0.704  1.00  0.00     0.029 A 
ATOM     63  C   UNL     1       0.013  18.575  -0.947  1.00  0.00     0.049 A 
ATOM     64  H   UNL     1      -1.127  19.700   0.427  1.00  0.00     0.167 HD
ATOM     65  C   UNL     1      -1.122  18.411  -3.032  1.00  0.00     0.074 A 
ATOM     66  C   UNL     1      -1.648  18.538  -4.381  1.00  0.00     0.031 C 
ATOM     67  C   UNL     1      -0.435  19.231  -2.172  1.00  0.00     0.034 A 
BRANCH  54  68
ATOM     68  C   UNL     1       0.418  18.626   3.866  1.00  0.00     0.023 A 
ATOM     69  C   UNL     1       1.814  18.714   3.650  1.00  0.00     0.012 A 
ATOM     70  C   UNL     1      -0.015  18.828   5.195  1.00  0.00     0.148 A 
ATOM     71  C   UNL     1       2.732  18.869   4.691  1.00  0.00     0.002 A 
ATOM     72  C   UNL     1       0.904  18.919   6.247  1.00  0.00     0.091 A 
ATOM     73  F   UNL     1      -1.315  19.014   5.447  1.00  0.00    -0.205 F 
ATOM     74  C   UNL     1       2.280  18.933   5.997  1.00  0.00     0.022 A 
BRANCH  72  75
ATOM     75  S   UNL     1       0.402  18.929   7.978  1.00  0.00     0.127 S 
ATOM     76  O   UNL     1       1.249  17.879   8.551  1.00  0.00    -0.237 OA
ATOM     77  O   UNL     1       0.748  20.284   8.400  1.00  0.00    -0.237 OA
ATOM     78  O   UNL     1      -1.020  18.609   7.986  1.00  0.00    -0.744 OA
ENDBRANCH  72  75
ENDBRANCH  54  68
BRANCH  55  79
ATOM     79  C   UNL     1      -4.489  15.090  -3.775  1.00  0.00     0.023 A 
ATOM     80  C   UNL     1      -4.802  13.770  -4.180  1.00  0.00     0.012 A 
ATOM     81  C   UNL     1      -5.527  15.938  -3.356  1.00  0.00     0.148 A 
ATOM     82  C   UNL     1      -6.089  13.258  -4.018  1.00  0.00     0.002 A 
ATOM     83  C   UNL     1      -6.810  15.418  -3.194  1.00  0.00     0.091 A 
ATOM     84  F   UNL     1      -5.231  17.203  -3.032  1.00  0.00    -0.205 F 
ATOM     85  C   UNL     1      -7.082  14.071  -3.485  1.00  0.00     0.022 A 
BRANCH  83  86
ATOM     86  S   UNL     1      -8.129  16.396  -2.462  1.00  0.00     0.127 S 
ATOM     87  O   UNL     1      -8.783  16.941  -3.647  1.00  0.00    -0.237 OA
ATOM     88  O   UNL     1      -8.904  15.388  -1.741  1.00  0.00    -0.237 OA
ATOM     89  O   UNL     1      -7.446  17.351  -1.601  1.00  0.00    -0.744 OA
ENDBRANCH  83  86
ENDBRANCH  55  79
BRANCH  67  90
ATOM     90  C   UNL     1      -0.106  20.708  -2.369  1.00  0.00     0.023 A 
ATOM     91  C   UNL     1      -0.674  21.489  -3.391  1.00  0.00     0.012 A 
ATOM     92  C   UNL     1       0.718  21.406  -1.439  1.00  0.00     0.148 A 
ATOM     93  C   UNL     1      -0.421  22.863  -3.513  1.00  0.00     0.002 A 
ATOM     94  C   UNL     1       0.875  22.789  -1.498  1.00  0.00     0.091 A 
ATOM     95  F   UNL     1       1.395  20.732  -0.499  1.00  0.00    -0.205 F 
ATOM     96  C   UNL     1       0.330  23.519  -2.551  1.00  0.00     0.022 A 
BRANCH  94  97
ATOM     97  S   UNL     1       1.653  23.697  -0.151  1.00  0.00     0.127 S 
ATOM     98  O   UNL     1       3.026  23.833  -0.631  1.00  0.00    -0.237 OA
ATOM     99  O   UNL     1       0.887  24.945  -0.134  1.00  0.00    -0.237 OA
ATOM    100  O   UNL     1       1.460  22.865   1.028  1.00  0.00    -0.744 OA
ENDBRANCH  94  97
ENDBRANCH  67  90
ENDBRANCH  41  42
ENDBRANCH  33  36
ENDBRANCH  31  32
ENDBRANCH  30  31
ENDBRANCH  29  30
ENDBRANCH   1  29
TORSDOF 19
