REMARK SMILES Cc1ccccc1NC(=O)NC[C@@H]1CC[C@@H](C(=O)NCCCCCCNC(=O)c2ccc(-c3c4nc(c(-c5cccc(S(=O)(=O)[O-])c5F)c5ccc([nH]5)c(-c5cccc(S(=O)(=O)[O-])c5F)c5nc(c(-c6cccc(S(=O)(=O)[O-])c6F)c6ccc3[nH]6)C=C5)C=C4)cc2)O1
REMARK SMILES IDX 22 1 21 2 20 3 19 4 17 5 18 6 16 8 13 9 14 10 92 11 15 12
REMARK SMILES IDX 12 13 11 14 8 15 9 16 10 18 7 20 1 21 2 22 3 23 4 24 6 25
REMARK SMILES IDX 5 26 23 27 24 28 25 29 26 30 27 31 28 33 29 34 30 35 91 36
REMARK SMILES IDX 31 37 90 38 32 39 33 40 34 41 84 42 35 43 89 44 83 45 85 46
REMARK SMILES IDX 36 47 88 48 82 49 81 50 37 52 69 53 49 54 68 55 50 56 53 57
REMARK SMILES IDX 67 58 86 59 51 60 52 61 66 63 87 64 54 65 38 66 39 67 47 68
REMARK SMILES IDX 40 69 42 70 48 71 41 72 43 73 44 74 45 75 46 76 70 77 71 78
REMARK SMILES IDX 79 79 72 80 74 81 80 82 73 83 75 84 76 85 77 86 78 87 55 88
REMARK SMILES IDX 56 89 64 90 57 91 59 92 65 93 58 94 60 95 61 96 62 97 63 98
REMARK H PARENT 19 7 8 17 11 19 26 32 85 51 53 62
REMARK Flexibility Score: inf
ROOT
ATOM      1  C   UNL     1      -7.494   1.952   6.059  1.00  0.00     0.002 C 
ENDROOT
BRANCH   1   2
ATOM      2  C   UNL     1      -6.935   1.492   4.704  1.00  0.00     0.021 C 
BRANCH   2   3
ATOM      3  C   UNL     1      -7.373   2.346   3.512  1.00  0.00     0.116 C 
BRANCH   3   4
ATOM      4  N   UNL     1      -6.723   3.639   3.520  1.00  0.00    -0.354 N 
ATOM      5  C   UNL     1      -5.724   4.135   2.734  1.00  0.00     0.249 C 
ATOM      6  O   UNL     1      -5.343   5.283   2.978  1.00  0.00    -0.272 OA
ATOM      7  H   UNL     1      -7.056   4.263   4.205  1.00  0.00     0.163 HD
BRANCH   5   8
ATOM      8  C   UNL     1      -5.180   3.319   1.541  1.00  0.00     0.207 C 
ATOM      9  C   UNL     1      -2.938   3.111   0.836  1.00  0.00     0.138 C 
ATOM     10  C   UNL     1      -3.547   1.729   0.893  1.00  0.00     0.037 C 
ATOM     11  O   UNL     1      -4.074   4.001   0.910  1.00  0.00    -0.363 OA
ATOM     12  C   UNL     1      -4.679   1.922   1.866  1.00  0.00     0.045 C 
BRANCH   9  13
ATOM     13  C   UNL     1      -2.148   3.429  -0.443  1.00  0.00     0.149 C 
BRANCH  13  14
ATOM     14  N   UNL     1      -0.773   3.823  -0.197  1.00  0.00    -0.335 N 
ATOM     15  N   UNL     1       0.875   2.060  -0.129  1.00  0.00    -0.308 N 
ATOM     16  C   UNL     1       0.443   3.316  -0.110  1.00  0.00     0.319 C 
ATOM     17  H   UNL     1       1.857   2.075  -0.054  1.00  0.00     0.171 HD
ATOM     18  O   UNL     1       1.338   4.165   0.038  1.00  0.00    -0.249 OA
ATOM     19  H   UNL     1      -0.734   4.794  -0.042  1.00  0.00     0.165 HD
BRANCH  15  20
ATOM     20  C   UNL     1       0.468   0.717  -0.215  1.00  0.00     0.045 A 
ATOM     21  C   UNL     1       2.909  -0.093   0.198  1.00  0.00     0.046 C 
ATOM     22  C   UNL     1       1.428  -0.307  -0.002  1.00  0.00    -0.027 A 
ATOM     23  C   UNL     1       1.022  -1.661   0.017  1.00  0.00     0.005 A 
ATOM     24  C   UNL     1      -0.302  -2.021  -0.195  1.00  0.00     0.000 A 
ATOM     25  C   UNL     1      -0.831   0.313  -0.490  1.00  0.00     0.026 A 
ATOM     26  C   UNL     1      -1.226  -1.031  -0.468  1.00  0.00     0.002 A 
ENDBRANCH  15  20
ENDBRANCH  13  14
ENDBRANCH   9  13
ENDBRANCH   5   8
ENDBRANCH   3   4
ENDBRANCH   2   3
ENDBRANCH   1   2
BRANCH   1  27
ATOM     27  C   UNL     1      -9.016   2.153   6.133  1.00  0.00     0.002 C 
BRANCH  27  28
ATOM     28  C   UNL     1      -9.870   1.026   5.545  1.00  0.00     0.021 C 
BRANCH  28  29
ATOM     29  C   UNL     1      -9.809  -0.274   6.339  1.00  0.00     0.116 C 
BRANCH  29  30
ATOM     30  N   UNL     1     -11.042  -0.567   7.060  1.00  0.00    -0.352 N 
ATOM     31  C   UNL     1     -11.306  -1.614   7.924  1.00  0.00     0.251 C 
ATOM     32  H   UNL     1     -11.784   0.064   6.912  1.00  0.00     0.163 HD
ATOM     33  O   UNL     1     -12.432  -1.755   8.392  1.00  0.00    -0.269 OA
BRANCH  31  34
ATOM     34  C   UNL     1     -10.185  -2.489   8.332  1.00  0.00     0.039 A 
ATOM     35  C   UNL     1      -9.864  -2.566   9.692  1.00  0.00     0.014 A 
ATOM     36  C   UNL     1      -9.328  -3.011   7.365  1.00  0.00     0.014 A 
ATOM     37  C   UNL     1      -8.578  -2.952  10.068  1.00  0.00     0.010 A 
ATOM     38  C   UNL     1      -8.032  -3.316   7.730  1.00  0.00     0.010 A 
ATOM     39  C   UNL     1      -7.638  -3.212   9.072  1.00  0.00    -0.014 A 
BRANCH  39  40
ATOM     40  C   UNL     1      -6.198  -3.244   9.300  1.00  0.00     0.031 A 
ATOM     41  C   UNL     1      -5.451  -4.519   9.285  1.00  0.00     0.074 A 
ATOM     42  C   UNL     1      -5.524  -2.076   9.389  1.00  0.00     0.049 A 
ATOM     43  N   UNL     1      -4.240  -4.655   9.711  1.00  0.00    -0.248 NA
ATOM     44  C   UNL     1      -6.059  -5.772   8.860  1.00  0.00     0.031 C 
ATOM     45  C   UNL     1      -4.091  -1.873   9.201  1.00  0.00     0.029 A 
ATOM     46  N   UNL     1      -5.977  -0.862   9.919  1.00  0.00    -0.354 N 
ATOM     47  C   UNL     1      -3.819  -5.924   9.378  1.00  0.00     0.074 A 
ATOM     48  C   UNL     1      -5.022  -6.606   8.973  1.00  0.00     0.031 C 
ATOM     49  C   UNL     1      -3.727  -0.763   9.856  1.00  0.00     0.029 A 
ATOM     50  C   UNL     1      -4.883  -0.307  10.606  1.00  0.00     0.049 A 
ATOM     51  H   UNL     1      -6.878  -0.475   9.829  1.00  0.00     0.167 HD
ATOM     52  C   UNL     1      -2.481  -6.191   9.359  1.00  0.00     0.034 A 
ATOM     53  C   UNL     1      -4.888   0.022  11.928  1.00  0.00     0.034 A 
ATOM     54  C   UNL     1      -1.720  -5.110  10.006  1.00  0.00     0.049 A 
ATOM     55  C   UNL     1      -3.773  -0.627  12.724  1.00  0.00     0.074 A 
ATOM     56  C   UNL     1      -0.962  -4.054   9.529  1.00  0.00     0.029 A 
ATOM     57  N   UNL     1      -1.877  -4.894  11.372  1.00  0.00    -0.354 N 
ATOM     58  N   UNL     1      -2.962  -1.533  12.252  1.00  0.00    -0.248 NA
ATOM     59  C   UNL     1      -3.514  -0.337  14.133  1.00  0.00     0.031 C 
ATOM     60  C   UNL     1      -0.742  -3.151  10.604  1.00  0.00     0.029 A 
ATOM     61  C   UNL     1      -1.340  -3.671  11.741  1.00  0.00     0.049 A 
ATOM     62  H   UNL     1      -2.310  -5.524  11.992  1.00  0.00     0.167 HD
ATOM     63  C   UNL     1      -2.212  -2.059  13.274  1.00  0.00     0.074 A 
ATOM     64  C   UNL     1      -2.526  -1.207  14.409  1.00  0.00     0.031 C 
ATOM     65  C   UNL     1      -1.466  -3.197  13.116  1.00  0.00     0.034 A 
BRANCH  52  66
ATOM     66  C   UNL     1      -1.798  -7.293   8.549  1.00  0.00     0.023 A 
ATOM     67  C   UNL     1      -0.388  -7.230   8.433  1.00  0.00     0.012 A 
ATOM     68  C   UNL     1      -2.420  -8.314   7.791  1.00  0.00     0.148 A 
ATOM     69  C   UNL     1       0.341  -8.063   7.572  1.00  0.00     0.002 A 
ATOM     70  C   UNL     1      -1.699  -9.142   6.924  1.00  0.00     0.091 A 
ATOM     71  F   UNL     1      -3.729  -8.519   7.883  1.00  0.00    -0.205 F 
ATOM     72  C   UNL     1      -0.317  -9.011   6.802  1.00  0.00     0.022 A 
BRANCH  70  73
ATOM     73  S   UNL     1      -2.502 -10.374   5.877  1.00  0.00     0.127 S 
ATOM     74  O   UNL     1      -2.153  -9.906   4.535  1.00  0.00    -0.237 OA
ATOM     75  O   UNL     1      -1.836 -11.611   6.283  1.00  0.00    -0.237 OA
ATOM     76  O   UNL     1      -3.927 -10.319   6.182  1.00  0.00    -0.744 OA
ENDBRANCH  70  73
ENDBRANCH  52  66
BRANCH  53  77
ATOM     77  C   UNL     1      -6.222   0.402  12.466  1.00  0.00     0.023 A 
ATOM     78  C   UNL     1      -6.791   1.601  11.978  1.00  0.00     0.012 A 
ATOM     79  C   UNL     1      -7.048  -0.522  13.130  1.00  0.00     0.148 A 
ATOM     80  C   UNL     1      -8.164   1.833  12.063  1.00  0.00     0.002 A 
ATOM     81  C   UNL     1      -8.421  -0.289  13.201  1.00  0.00     0.091 A 
ATOM     82  F   UNL     1      -6.497  -1.645  13.607  1.00  0.00    -0.205 F 
ATOM     83  C   UNL     1      -8.982   0.874  12.649  1.00  0.00     0.022 A 
BRANCH  81  84
ATOM     84  S   UNL     1      -9.562  -1.520  13.848  1.00  0.00     0.127 S 
ATOM     85  O   UNL     1      -9.802  -1.016  15.197  1.00  0.00    -0.237 OA
ATOM     86  O   UNL     1     -10.696  -1.400  12.932  1.00  0.00    -0.237 OA
ATOM     87  O   UNL     1      -8.846  -2.782  13.746  1.00  0.00    -0.744 OA
ENDBRANCH  81  84
ENDBRANCH  53  77
BRANCH  65  88
ATOM     88  C   UNL     1      -0.819  -3.988  14.242  1.00  0.00     0.023 A 
ATOM     89  C   UNL     1      -1.268  -3.908  15.576  1.00  0.00     0.012 A 
ATOM     90  C   UNL     1       0.175  -4.963  13.971  1.00  0.00     0.148 A 
ATOM     91  C   UNL     1      -0.724  -4.699  16.596  1.00  0.00     0.002 A 
ATOM     92  C   UNL     1       0.641  -5.819  14.970  1.00  0.00     0.091 A 
ATOM     93  F   UNL     1       0.693  -5.066  12.737  1.00  0.00    -0.205 F 
ATOM     94  C   UNL     1       0.217  -5.671  16.291  1.00  0.00     0.022 A 
BRANCH  92  95
ATOM     95  S   UNL     1       1.678  -7.229  14.549  1.00  0.00     0.127 S 
ATOM     96  O   UNL     1       3.013  -6.638  14.530  1.00  0.00    -0.237 OA
ATOM     97  O   UNL     1       1.439  -8.152  15.661  1.00  0.00    -0.237 OA
ATOM     98  O   UNL     1       1.152  -7.694  13.271  1.00  0.00    -0.744 OA
ENDBRANCH  92  95
ENDBRANCH  65  88
ENDBRANCH  39  40
ENDBRANCH  31  34
ENDBRANCH  29  30
ENDBRANCH  28  29
ENDBRANCH  27  28
ENDBRANCH   1  27
TORSDOF 19
