REMARK SMILES COc1ccc([C@H](C)NC(=O)c2cnn(C)c2C(=O)NCCCCCCNC(=O)c2ccc(-c3c4nc(c(-c5cccc(S(=O)(=O)[O-])c5F)c5ccc([nH]5)c(-c5cccc(S(=O)(=O)[O-])c5F)c5nc(c(-c6cccc(S(=O)(=O)[O-])c6F)c6ccc3[nH]6)C=C5)C=C4)cc2)cc1
REMARK SMILES IDX 23 1 22 2 21 3 20 4 18 5 19 6 17 8 12 9 13 10 14 11 15 12
REMARK SMILES IDX 16 13 10 14 9 15 11 17 7 18 8 19 6 20 3 21 4 22 94 23 5 24
REMARK SMILES IDX 93 25 2 26 1 27 24 28 25 29 26 30 27 31 28 32 29 34 30 35
REMARK SMILES IDX 31 36 92 37 32 38 91 39 33 40 34 41 35 42 85 43 36 44 90 45
REMARK SMILES IDX 84 46 86 47 37 48 89 49 83 50 82 51 38 53 70 54 50 55 69 56
REMARK SMILES IDX 51 57 54 58 68 59 87 60 52 61 53 62 67 64 88 65 55 66 39 67
REMARK SMILES IDX 40 68 48 69 41 70 43 71 49 72 42 73 44 74 45 75 46 76 47 77
REMARK SMILES IDX 71 78 72 79 80 80 73 81 75 82 81 83 74 84 76 85 77 86 78 87
REMARK SMILES IDX 79 88 56 89 57 90 65 91 58 92 60 93 66 94 59 95 61 96 62 97
REMARK SMILES IDX 63 98 64 99
REMARK H PARENT 20 7 9 16 27 33 86 52 54 63
REMARK Flexibility Score: inf
ROOT
ATOM      1  C   UNL     1       6.341  -8.510  -4.203  1.00  0.00     0.002 C 
ENDROOT
BRANCH   1   2
ATOM      2  C   UNL     1       6.435  -7.154  -4.915  1.00  0.00     0.021 C 
BRANCH   2   3
ATOM      3  C   UNL     1       5.871  -7.149  -6.336  1.00  0.00     0.116 C 
BRANCH   3   4
ATOM      4  N   UNL     1       4.446  -6.941  -6.356  1.00  0.00    -0.351 N 
ATOM      5  C   UNL     1       3.608  -5.908  -6.652  1.00  0.00     0.270 C 
ATOM      6  O   UNL     1       2.442  -6.294  -6.799  1.00  0.00    -0.268 OA
ATOM      7  H   UNL     1       3.952  -7.750  -6.087  1.00  0.00     0.163 HD
BRANCH   5   8
ATOM      8  C   UNL     1       3.930  -4.496  -6.788  1.00  0.00     0.138 A 
ATOM      9  C   UNL     1       2.945  -3.494  -6.881  1.00  0.00     0.090 A 
ATOM     10  C   UNL     1       3.611  -2.362  -7.380  1.00  0.00     0.149 A 
ATOM     11  N   UNL     1       4.923  -2.533  -7.417  1.00  0.00    -0.180 NA
ATOM     12  N   UNL     1       5.104  -3.775  -6.919  1.00  0.00    -0.262 N 
ATOM     13  C   UNL     1       6.462  -4.054  -6.526  1.00  0.00     0.174 C 
BRANCH   9  14
ATOM     14  C   UNL     1       1.507  -3.540  -6.701  1.00  0.00     0.255 C 
ATOM     15  N   UNL     1       0.948  -3.987  -5.537  1.00  0.00    -0.345 N 
ATOM     16  H   UNL     1      -0.026  -3.846  -5.492  1.00  0.00     0.164 HD
ATOM     17  O   UNL     1       0.749  -3.031  -7.527  1.00  0.00    -0.269 OA
BRANCH  15  18
ATOM     18  C   UNL     1       1.495  -4.631  -4.346  1.00  0.00     0.109 C 
ATOM     19  C   UNL     1       1.333  -3.723  -3.128  1.00  0.00     0.036 C 
BRANCH  18  20
ATOM     20  C   UNL     1       0.814  -5.975  -4.106  1.00  0.00    -0.026 A 
ATOM     21  C   UNL     1      -0.378  -8.515  -3.831  1.00  0.00     0.118 A 
ATOM     22  C   UNL     1       0.971  -8.337  -3.529  1.00  0.00     0.047 A 
ATOM     23  C   UNL     1      -1.153  -7.418  -4.196  1.00  0.00     0.047 A 
ATOM     24  C   UNL     1       1.566  -7.079  -3.672  1.00  0.00     0.009 A 
ATOM     25  C   UNL     1      -0.563  -6.158  -4.323  1.00  0.00     0.009 A 
BRANCH  21  26
ATOM     26  O   UNL     1      -0.878  -9.783  -3.698  1.00  0.00    -0.497 OA
ATOM     27  C   UNL     1      -1.728 -10.171  -4.777  1.00  0.00     0.278 C 
ENDBRANCH  21  26
ENDBRANCH  18  20
ENDBRANCH  15  18
ENDBRANCH   9  14
ENDBRANCH   5   8
ENDBRANCH   3   4
ENDBRANCH   2   3
ENDBRANCH   1   2
BRANCH   1  28
ATOM     28  C   UNL     1       7.021  -9.682  -4.923  1.00  0.00     0.002 C 
BRANCH  28  29
ATOM     29  C   UNL     1       8.466  -9.431  -5.365  1.00  0.00     0.021 C 
BRANCH  29  30
ATOM     30  C   UNL     1       9.437  -9.151  -4.222  1.00  0.00     0.116 C 
BRANCH  30  31
ATOM     31  N   UNL     1       9.579 -10.303  -3.345  1.00  0.00    -0.352 N 
ATOM     32  C   UNL     1      10.705 -11.024  -3.036  1.00  0.00     0.251 C 
ATOM     33  H   UNL     1       8.749 -10.610  -2.913  1.00  0.00     0.163 HD
ATOM     34  O   UNL     1      10.601 -12.112  -2.477  1.00  0.00    -0.269 OA
BRANCH  32  35
ATOM     35  C   UNL     1      12.040 -10.489  -3.378  1.00  0.00     0.039 A 
ATOM     36  C   UNL     1      12.995 -11.345  -3.933  1.00  0.00     0.014 A 
ATOM     37  C   UNL     1      12.356  -9.151  -3.128  1.00  0.00     0.014 A 
ATOM     38  C   UNL     1      14.254 -10.846  -4.279  1.00  0.00     0.010 A 
ATOM     39  C   UNL     1      13.583  -8.640  -3.538  1.00  0.00     0.010 A 
ATOM     40  C   UNL     1      14.550  -9.485  -4.105  1.00  0.00    -0.014 A 
BRANCH  40  41
ATOM     41  C   UNL     1      15.863  -8.921  -4.506  1.00  0.00     0.031 A 
ATOM     42  C   UNL     1      16.779  -8.325  -3.472  1.00  0.00     0.074 A 
ATOM     43  C   UNL     1      16.189  -8.858  -5.812  1.00  0.00     0.049 A 
ATOM     44  N   UNL     1      17.929  -7.725  -3.636  1.00  0.00    -0.248 NA
ATOM     45  C   UNL     1      16.329  -8.384  -2.071  1.00  0.00     0.031 C 
ATOM     46  C   UNL     1      15.350  -9.328  -6.916  1.00  0.00     0.029 A 
ATOM     47  N   UNL     1      17.300  -8.346  -6.434  1.00  0.00    -0.354 N 
ATOM     48  C   UNL     1      18.320  -7.300  -2.372  1.00  0.00     0.074 A 
ATOM     49  C   UNL     1      17.268  -7.681  -1.455  1.00  0.00     0.031 C 
ATOM     50  C   UNL     1      15.973  -9.080  -8.078  1.00  0.00     0.029 A 
ATOM     51  C   UNL     1      17.242  -8.411  -7.807  1.00  0.00     0.049 A 
ATOM     52  H   UNL     1      18.066  -7.967  -5.944  1.00  0.00     0.167 HD
ATOM     53  C   UNL     1      19.464  -6.676  -2.001  1.00  0.00     0.034 A 
ATOM     54  C   UNL     1      18.108  -7.975  -8.742  1.00  0.00     0.034 A 
ATOM     55  C   UNL     1      20.527  -6.341  -2.910  1.00  0.00     0.049 A 
ATOM     56  C   UNL     1      19.395  -7.330  -8.303  1.00  0.00     0.074 A 
ATOM     57  C   UNL     1      21.766  -5.798  -2.622  1.00  0.00     0.029 A 
ATOM     58  N   UNL     1      20.475  -6.511  -4.285  1.00  0.00    -0.354 N 
ATOM     59  N   UNL     1      19.820  -7.084  -7.087  1.00  0.00    -0.248 NA
ATOM     60  C   UNL     1      20.337  -6.937  -9.360  1.00  0.00     0.031 C 
ATOM     61  C   UNL     1      22.455  -5.617  -3.826  1.00  0.00     0.029 A 
ATOM     62  C   UNL     1      21.655  -6.073  -4.862  1.00  0.00     0.049 A 
ATOM     63  H   UNL     1      19.711  -6.887  -4.779  1.00  0.00     0.167 HD
ATOM     64  C   UNL     1      21.092  -6.541  -7.231  1.00  0.00     0.074 A 
ATOM     65  C   UNL     1      21.374  -6.511  -8.652  1.00  0.00     0.031 C 
ATOM     66  C   UNL     1      21.943  -6.095  -6.274  1.00  0.00     0.034 A 
BRANCH  53  67
ATOM     67  C   UNL     1      19.644  -6.362  -0.538  1.00  0.00     0.023 A 
ATOM     68  C   UNL     1      19.863  -7.411   0.378  1.00  0.00     0.012 A 
ATOM     69  C   UNL     1      19.640  -5.032  -0.075  1.00  0.00     0.148 A 
ATOM     70  C   UNL     1      20.032  -7.147   1.736  1.00  0.00     0.002 A 
ATOM     71  C   UNL     1      19.856  -4.773   1.275  1.00  0.00     0.091 A 
ATOM     72  F   UNL     1      19.409  -4.047  -0.954  1.00  0.00    -0.205 F 
ATOM     73  C   UNL     1      20.038  -5.829   2.183  1.00  0.00     0.022 A 
BRANCH  71  74
ATOM     74  S   UNL     1      19.960  -3.105   1.933  1.00  0.00     0.127 S 
ATOM     75  O   UNL     1      18.685  -2.986   2.639  1.00  0.00    -0.237 OA
ATOM     76  O   UNL     1      21.133  -3.189   2.805  1.00  0.00    -0.237 OA
ATOM     77  O   UNL     1      20.125  -2.230   0.781  1.00  0.00    -0.744 OA
ENDBRANCH  71  74
ENDBRANCH  53  67
BRANCH  54  78
ATOM     78  C   UNL     1      17.812  -8.202 -10.184  1.00  0.00     0.023 A 
ATOM     79  C   UNL     1      18.559  -9.158 -10.900  1.00  0.00     0.012 A 
ATOM     80  C   UNL     1      16.767  -7.519 -10.834  1.00  0.00     0.148 A 
ATOM     81  C   UNL     1      18.287  -9.411 -12.245  1.00  0.00     0.002 A 
ATOM     82  C   UNL     1      16.464  -7.816 -12.157  1.00  0.00     0.091 A 
ATOM     83  F   UNL     1      16.074  -6.608 -10.136  1.00  0.00    -0.205 F 
ATOM     84  C   UNL     1      17.233  -8.749 -12.870  1.00  0.00     0.022 A 
BRANCH  82  85
ATOM     85  S   UNL     1      15.041  -7.116 -13.001  1.00  0.00     0.127 S 
ATOM     86  O   UNL     1      15.676  -6.245 -13.986  1.00  0.00    -0.237 OA
ATOM     87  O   UNL     1      14.402  -8.311 -13.554  1.00  0.00    -0.237 OA
ATOM     88  O   UNL     1      14.263  -6.443 -11.970  1.00  0.00    -0.744 OA
ENDBRANCH  82  85
ENDBRANCH  54  78
BRANCH  66  89
ATOM     89  C   UNL     1      23.280  -5.564  -6.719  1.00  0.00     0.023 A 
ATOM     90  C   UNL     1      23.360  -4.311  -7.358  1.00  0.00     0.012 A 
ATOM     91  C   UNL     1      24.465  -6.270  -6.430  1.00  0.00     0.148 A 
ATOM     92  C   UNL     1      24.595  -3.783  -7.730  1.00  0.00     0.002 A 
ATOM     93  C   UNL     1      25.695  -5.715  -6.759  1.00  0.00     0.091 A 
ATOM     94  F   UNL     1      24.366  -7.469  -5.838  1.00  0.00    -0.205 F 
ATOM     95  C   UNL     1      25.762  -4.477  -7.419  1.00  0.00     0.022 A 
BRANCH  93  96
ATOM     96  S   UNL     1      27.252  -6.492  -6.311  1.00  0.00     0.127 S 
ATOM     97  O   UNL     1      27.727  -6.975  -7.606  1.00  0.00    -0.237 OA
ATOM     98  O   UNL     1      28.013  -5.369  -5.762  1.00  0.00    -0.237 OA
ATOM     99  O   UNL     1      26.919  -7.526  -5.341  1.00  0.00    -0.744 OA
ENDBRANCH  93  96
ENDBRANCH  66  89
ENDBRANCH  40  41
ENDBRANCH  32  35
ENDBRANCH  30  31
ENDBRANCH  29  30
ENDBRANCH  28  29
ENDBRANCH   1  28
TORSDOF 20
