REMARK SMILES CC1(C)[C@H](C(=O)NCCCCCCNC(=O)c2ccc(-c3c4nc(c(-c5cccc(S(=O)(=O)[O-])c5F)c5ccc([nH]5)c(-c5cccc(S(=O)(=O)[O-])c5F)c5nc(c(-c6cccc(S(=O)(=O)[O-])c6F)c6ccc3[nH]6)C=C5)C=C4)cc2)[C@@H]1c1nc2ccc(F)cc2s1
REMARK SMILES IDX 11 1 10 2 9 3 8 4 7 5 5 6 6 7 4 9 1 10 2 11 3 12 80 13 81 14
REMARK SMILES IDX 82 15 90 16 83 17 89 18 84 19 88 20 85 21 86 22 87 23 12 24
REMARK SMILES IDX 13 25 14 26 15 27 16 29 17 30 18 31 79 32 19 33 78 34 20 35
REMARK SMILES IDX 21 36 22 37 72 38 23 39 77 40 71 41 73 42 24 43 76 44 70 45
REMARK SMILES IDX 69 46 25 48 57 49 37 50 56 51 38 52 41 53 55 54 74 55 39 56
REMARK SMILES IDX 40 57 54 59 75 60 42 61 26 62 27 63 35 64 28 65 30 66 36 67
REMARK SMILES IDX 29 68 31 69 32 70 33 71 34 72 58 73 59 74 67 75 60 76 62 77
REMARK SMILES IDX 68 78 61 79 63 80 64 81 65 82 66 83 43 84 44 85 52 86 45 87
REMARK SMILES IDX 47 88 53 89 46 90 48 91 49 92 50 93 51 94
REMARK H PARENT 7 8 14 28 73 47 41 58
REMARK Flexibility Score: inf
ROOT
ATOM      1  C   UNL     1      -1.916   6.086  -1.081  1.00  0.00     0.002 C 
ENDROOT
BRANCH   1   2
ATOM      2  C   UNL     1      -0.962   5.279  -1.968  1.00  0.00     0.002 C 
BRANCH   2   3
ATOM      3  C   UNL     1      -0.247   4.117  -1.278  1.00  0.00     0.021 C 
BRANCH   3   4
ATOM      4  C   UNL     1      -1.175   3.092  -0.637  1.00  0.00     0.116 C 
BRANCH   4   5
ATOM      5  N   UNL     1      -1.626   2.090  -1.564  1.00  0.00    -0.356 N 
ATOM      6  C   UNL     1      -1.618   0.726  -1.547  1.00  0.00     0.224 C 
ATOM      7  O   UNL     1      -2.104   0.191  -2.547  1.00  0.00    -0.275 OA
ATOM      8  H   UNL     1      -2.024   2.467  -2.382  1.00  0.00     0.163 HD
BRANCH   6   9
ATOM      9  C   UNL     1      -1.096  -0.194  -0.499  1.00  0.00     0.095 C 
ATOM     10  C   UNL     1       0.991  -1.495   0.245  1.00  0.00     0.013 C 
ATOM     11  C   UNL     1       0.257  -0.167   0.231  1.00  0.00    -0.013 C 
ATOM     12  C   UNL     1       1.211   0.985   0.059  1.00  0.00     0.013 C 
ATOM     13  C   UNL     1      -1.060  -0.098   0.994  1.00  0.00     0.068 C 
BRANCH  13  14
ATOM     14  C   UNL     1      -1.741   1.016   1.769  1.00  0.00     0.098 A 
ATOM     15  N   UNL     1      -3.054   1.018   1.830  1.00  0.00    -0.241 NA
ATOM     16  S   UNL     1      -0.963   2.197   2.735  1.00  0.00    -0.118 S 
ATOM     17  C   UNL     1      -3.490   2.161   2.472  1.00  0.00     0.082 A 
ATOM     18  C   UNL     1      -2.478   2.990   2.966  1.00  0.00     0.057 A 
ATOM     19  C   UNL     1      -4.835   2.557   2.625  1.00  0.00     0.033 A 
ATOM     20  C   UNL     1      -2.759   4.239   3.542  1.00  0.00     0.060 A 
ATOM     21  C   UNL     1      -5.127   3.799   3.194  1.00  0.00     0.041 A 
ATOM     22  C   UNL     1      -4.097   4.625   3.620  1.00  0.00     0.124 A 
ATOM     23  F   UNL     1      -4.399   5.834   4.111  1.00  0.00    -0.207 F 
ENDBRANCH  13  14
ENDBRANCH   6   9
ENDBRANCH   4   5
ENDBRANCH   3   4
ENDBRANCH   2   3
ENDBRANCH   1   2
BRANCH   1  24
ATOM     24  C   UNL     1      -1.342   6.568   0.255  1.00  0.00     0.021 C 
BRANCH  24  25
ATOM     25  C   UNL     1      -0.073   7.411   0.155  1.00  0.00     0.116 C 
BRANCH  25  26
ATOM     26  N   UNL     1      -0.267   8.605  -0.650  1.00  0.00    -0.352 N 
ATOM     27  C   UNL     1      -0.004   9.918  -0.349  1.00  0.00     0.251 C 
ATOM     28  H   UNL     1      -0.644   8.449  -1.546  1.00  0.00     0.163 HD
ATOM     29  O   UNL     1      -0.404  10.805  -1.097  1.00  0.00    -0.269 OA
BRANCH  27  30
ATOM     30  C   UNL     1       0.750  10.267   0.876  1.00  0.00     0.039 A 
ATOM     31  C   UNL     1       0.308  11.341   1.653  1.00  0.00     0.014 A 
ATOM     32  C   UNL     1       1.903   9.567   1.241  1.00  0.00     0.014 A 
ATOM     33  C   UNL     1       0.997  11.686   2.819  1.00  0.00     0.010 A 
ATOM     34  C   UNL     1       2.550   9.869   2.438  1.00  0.00     0.010 A 
ATOM     35  C   UNL     1       2.111  10.938   3.233  1.00  0.00    -0.014 A 
BRANCH  35  36
ATOM     36  C   UNL     1       2.829  11.264   4.492  1.00  0.00     0.031 A 
ATOM     37  C   UNL     1       4.262  11.722   4.455  1.00  0.00     0.074 A 
ATOM     38  C   UNL     1       2.214  11.072   5.676  1.00  0.00     0.049 A 
ATOM     39  N   UNL     1       5.062  12.009   5.449  1.00  0.00    -0.248 NA
ATOM     40  C   UNL     1       4.889  11.848   3.128  1.00  0.00     0.031 C 
ATOM     41  C   UNL     1       0.855  10.553   5.849  1.00  0.00     0.029 A 
ATOM     42  N   UNL     1       2.660  11.264   6.960  1.00  0.00    -0.354 N 
ATOM     43  C   UNL     1       6.291  12.312   4.875  1.00  0.00     0.074 A 
ATOM     44  C   UNL     1       6.141  12.144   3.446  1.00  0.00     0.031 C 
ATOM     45  C   UNL     1       0.579  10.469   7.160  1.00  0.00     0.029 A 
ATOM     46  C   UNL     1       1.745  10.906   7.922  1.00  0.00     0.049 A 
ATOM     47  H   UNL     1       3.552  11.624   7.172  1.00  0.00     0.167 HD
ATOM     48  C   UNL     1       7.432  12.723   5.478  1.00  0.00     0.034 A 
ATOM     49  C   UNL     1       1.835  10.925   9.266  1.00  0.00     0.034 A 
ATOM     50  C   UNL     1       7.562  12.941   6.894  1.00  0.00     0.049 A 
ATOM     51  C   UNL     1       3.093  11.446   9.908  1.00  0.00     0.074 A 
ATOM     52  C   UNL     1       8.646  13.444   7.591  1.00  0.00     0.029 A 
ATOM     53  N   UNL     1       6.577  12.667   7.830  1.00  0.00    -0.354 N 
ATOM     54  N   UNL     1       4.189  11.886   9.337  1.00  0.00    -0.248 NA
ATOM     55  C   UNL     1       3.112  11.515  11.376  1.00  0.00     0.031 C 
ATOM     56  C   UNL     1       8.322  13.460   8.952  1.00  0.00     0.029 A 
ATOM     57  C   UNL     1       7.028  12.987   9.099  1.00  0.00     0.049 A 
ATOM     58  H   UNL     1       5.688  12.299   7.623  1.00  0.00     0.167 HD
ATOM     59  C   UNL     1       5.011  12.317  10.372  1.00  0.00     0.074 A 
ATOM     60  C   UNL     1       4.277  12.106  11.603  1.00  0.00     0.031 C 
ATOM     61  C   UNL     1       6.266  12.826  10.311  1.00  0.00     0.034 A 
BRANCH  48  62
ATOM     62  C   UNL     1       8.620  13.025   4.601  1.00  0.00     0.023 A 
ATOM     63  C   UNL     1       8.607  14.179   3.791  1.00  0.00     0.012 A 
ATOM     64  C   UNL     1       9.769  12.211   4.625  1.00  0.00     0.148 A 
ATOM     65  C   UNL     1       9.704  14.500   2.993  1.00  0.00     0.002 A 
ATOM     66  C   UNL     1      10.876  12.561   3.860  1.00  0.00     0.091 A 
ATOM     67  F   UNL     1       9.755  11.107   5.385  1.00  0.00    -0.205 F 
ATOM     68  C   UNL     1      10.841  13.698   3.036  1.00  0.00     0.022 A 
BRANCH  66  69
ATOM     69  S   UNL     1      12.416  11.637   3.904  1.00  0.00     0.127 S 
ATOM     70  O   UNL     1      12.410  10.991   2.593  1.00  0.00    -0.237 OA
ATOM     71  O   UNL     1      13.410  12.701   4.055  1.00  0.00    -0.237 OA
ATOM     72  O   UNL     1      12.312  10.739   5.045  1.00  0.00    -0.744 OA
ENDBRANCH  66  69
ENDBRANCH  48  62
BRANCH  49  73
ATOM     73  C   UNL     1       0.670  10.507  10.096  1.00  0.00     0.023 A 
ATOM     74  C   UNL     1      -0.050  11.480  10.816  1.00  0.00     0.012 A 
ATOM     75  C   UNL     1       0.254   9.163  10.153  1.00  0.00     0.148 A 
ATOM     76  C   UNL     1      -1.142  11.118  11.605  1.00  0.00     0.002 A 
ATOM     77  C   UNL     1      -0.868   8.817  10.897  1.00  0.00     0.091 A 
ATOM     78  F   UNL     1       0.959   8.249   9.472  1.00  0.00    -0.205 F 
ATOM     79  C   UNL     1      -1.558   9.790  11.638  1.00  0.00     0.022 A 
BRANCH  77  80
ATOM     80  S   UNL     1      -1.549   7.155  10.889  1.00  0.00     0.127 S 
ATOM     81  O   UNL     1      -1.158   6.664  12.207  1.00  0.00    -0.237 OA
ATOM     82  O   UNL     1      -2.980   7.412  10.726  1.00  0.00    -0.237 OA
ATOM     83  O   UNL     1      -0.930   6.487   9.751  1.00  0.00    -0.744 OA
ENDBRANCH  77  80
ENDBRANCH  49  73
BRANCH  61  84
ATOM     84  C   UNL     1       6.920  13.230  11.606  1.00  0.00     0.023 A 
ATOM     85  C   UNL     1       7.371  12.240  12.501  1.00  0.00     0.012 A 
ATOM     86  C   UNL     1       7.151  14.588  11.903  1.00  0.00     0.148 A 
ATOM     87  C   UNL     1       8.012  12.595  13.687  1.00  0.00     0.002 A 
ATOM     88  C   UNL     1       7.832  14.933  13.063  1.00  0.00     0.091 A 
ATOM     89  F   UNL     1       6.696  15.517  11.049  1.00  0.00    -0.205 F 
ATOM     90  C   UNL     1       8.253  13.940  13.962  1.00  0.00     0.022 A 
BRANCH  88  91
ATOM     91  S   UNL     1       8.270  16.633  13.448  1.00  0.00     0.127 S 
ATOM     92  O   UNL     1       7.295  16.964  14.486  1.00  0.00    -0.237 OA
ATOM     93  O   UNL     1       9.647  16.501  13.925  1.00  0.00    -0.237 OA
ATOM     94  O   UNL     1       8.134  17.370  12.199  1.00  0.00    -0.744 OA
ENDBRANCH  88  91
ENDBRANCH  61  84
ENDBRANCH  35  36
ENDBRANCH  27  30
ENDBRANCH  25  26
ENDBRANCH  24  25
ENDBRANCH   1  24
TORSDOF 17
