REMARK SMILES Cc1ccc([C@@H](C)Nc2ccc(N)cc2C(=O)NCCCCCCNC(=O)c2ccc(-c3c4nc(c(-c5cccc(S(=O)(=O)[O-])c5F)c5ccc([nH]5)c(-c5cccc(S(=O)(=O)[O-])c5F)c5nc(c(-c6cccc(S(=O)(=O)[O-])c6F)c6ccc3[nH]6)C=C5)C=C4)cc2)cc1F
REMARK SMILES IDX 21 1 20 2 19 3 18 4 16 5 17 6 15 8 9 9 10 10 11 11 14 12
REMARK SMILES IDX 12 13 8 14 6 16 7 17 5 18 1 19 2 20 3 21 92 22 4 23 91 24
REMARK SMILES IDX 93 25 13 26 22 29 23 30 24 31 25 32 26 33 27 35 28 36 29 37
REMARK SMILES IDX 90 38 30 39 89 40 31 41 32 42 33 43 83 44 34 45 88 46 82 47
REMARK SMILES IDX 84 48 35 49 87 50 81 51 80 52 36 54 68 55 48 56 67 57 49 58
REMARK SMILES IDX 52 59 66 60 85 61 50 62 51 63 65 65 86 66 53 67 37 68 38 69
REMARK SMILES IDX 46 70 39 71 41 72 47 73 40 74 42 75 43 76 44 77 45 78 69 79
REMARK SMILES IDX 70 80 78 81 71 82 73 83 79 84 72 85 74 86 75 87 76 88 77 89
REMARK SMILES IDX 54 90 55 91 63 92 56 93 58 94 64 95 57 96 59 97 60 98 61 99
REMARK SMILES IDX 62 100
REMARK H PARENT 18 7 8 15 13 27 13 28 25 34 84 53 52 64
REMARK Flexibility Score: inf
ROOT
ATOM      1  C   UNL     1      -1.441   0.553  -0.780  1.00  0.00     0.002 C 
ENDROOT
BRANCH   1   2
ATOM      2  C   UNL     1      -0.537  -1.145   0.284  1.00  0.00     0.021 C 
BRANCH   2   3
ATOM      3  C   UNL     1      -0.765  -2.857   0.421  1.00  0.00     0.116 C 
BRANCH   3   4
ATOM      4  N   UNL     1      -0.963  -3.700  -0.753  1.00  0.00    -0.352 N 
ATOM      5  C   UNL     1      -1.966  -4.585  -1.063  1.00  0.00     0.253 C 
ATOM      6  O   UNL     1      -2.018  -5.080  -2.188  1.00  0.00    -0.269 OA
ATOM      7  H   UNL     1      -0.260  -3.621  -1.438  1.00  0.00     0.163 HD
BRANCH   5   8
ATOM      8  C   UNL     1      -2.878  -5.074  -0.007  1.00  0.00     0.065 A 
ATOM      9  C   UNL     1      -3.482  -4.269   0.965  1.00  0.00     0.048 A 
ATOM     10  C   UNL     1      -3.751  -4.924   2.183  1.00  0.00     0.028 A 
ATOM     11  C   UNL     1      -3.580  -6.310   2.355  1.00  0.00     0.027 A 
ATOM     12  C   UNL     1      -2.862  -6.484   0.106  1.00  0.00     0.041 A 
ATOM     13  C   UNL     1      -3.241  -7.119   1.279  1.00  0.00     0.032 A 
BRANCH   9  14
ATOM     14  N   UNL     1      -3.832  -2.932   0.861  1.00  0.00    -0.378 N 
ATOM     15  H   UNL     1      -4.140  -2.533   1.707  1.00  0.00     0.161 HD
BRANCH  14  16
ATOM     16  C   UNL     1      -3.830  -1.993  -0.276  1.00  0.00     0.106 C 
ATOM     17  C   UNL     1      -4.462  -2.544  -1.548  1.00  0.00     0.036 C 
BRANCH  16  18
ATOM     18  C   UNL     1      -2.527  -1.203  -0.347  1.00  0.00    -0.023 A 
ATOM     19  C   UNL     1       1.858   1.431  -0.028  1.00  0.00     0.047 C 
ATOM     20  C   UNL     1       0.604   0.623  -0.120  1.00  0.00    -0.015 A 
ATOM     21  C   UNL     1      -0.643   0.803   1.169  1.00  0.00     0.007 A 
ATOM     22  C   UNL     1       0.280  -0.449  -1.534  1.00  0.00     0.126 A 
ATOM     23  C   UNL     1      -2.191  -0.120   1.064  1.00  0.00     0.006 A 
ATOM     24  C   UNL     1      -1.291  -1.341  -1.666  1.00  0.00     0.045 A 
ATOM     25  F   UNL     1       1.227  -0.637  -2.461  1.00  0.00    -0.207 F 
ENDBRANCH  16  18
ENDBRANCH  14  16
ENDBRANCH   9  14
BRANCH  13  26
ATOM     26  N   UNL     1      -3.086  -8.488   1.418  1.00  0.00    -0.399 N 
ATOM     27  H   UNL     1      -3.357  -8.932   2.253  1.00  0.00     0.156 HD
ATOM     28  H   UNL     1      -2.705  -9.018   0.680  1.00  0.00     0.156 HD
ENDBRANCH  13  26
ENDBRANCH   5   8
ENDBRANCH   3   4
ENDBRANCH   2   3
ENDBRANCH   1   2
BRANCH   1  29
ATOM     29  C   UNL     1      -2.986   1.255  -1.020  1.00  0.00     0.002 C 
BRANCH  29  30
ATOM     30  C   UNL     1      -3.716   2.170  -0.014  1.00  0.00     0.021 C 
BRANCH  30  31
ATOM     31  C   UNL     1      -2.962   3.357   0.567  1.00  0.00     0.116 C 
BRANCH  31  32
ATOM     32  N   UNL     1      -2.665   4.419  -0.384  1.00  0.00    -0.352 N 
ATOM     33  C   UNL     1      -2.241   5.684  -0.018  1.00  0.00     0.251 C 
ATOM     34  H   UNL     1      -2.773   4.226  -1.343  1.00  0.00     0.163 HD
ATOM     35  O   UNL     1      -2.635   6.710  -0.556  1.00  0.00    -0.269 OA
BRANCH  33  36
ATOM     36  C   UNL     1      -1.209   5.733   1.030  1.00  0.00     0.039 A 
ATOM     37  C   UNL     1      -1.062   6.824   1.895  1.00  0.00     0.014 A 
ATOM     38  C   UNL     1      -0.310   4.667   1.042  1.00  0.00     0.014 A 
ATOM     39  C   UNL     1       0.033   6.854   2.751  1.00  0.00     0.010 A 
ATOM     40  C   UNL     1       0.661   4.614   1.984  1.00  0.00     0.010 A 
ATOM     41  C   UNL     1       0.893   5.757   2.742  1.00  0.00    -0.014 A 
BRANCH  41  42
ATOM     42  C   UNL     1       2.149   5.677   3.451  1.00  0.00     0.031 A 
ATOM     43  C   UNL     1       2.061   5.519   4.903  1.00  0.00     0.074 A 
ATOM     44  C   UNL     1       3.220   5.549   2.630  1.00  0.00     0.049 A 
ATOM     45  N   UNL     1       2.879   6.019   5.755  1.00  0.00    -0.248 NA
ATOM     46  C   UNL     1       0.910   4.871   5.553  1.00  0.00     0.031 C 
ATOM     47  C   UNL     1       4.574   5.080   2.849  1.00  0.00     0.029 A 
ATOM     48  N   UNL     1       3.251   5.997   1.302  1.00  0.00    -0.354 N 
ATOM     49  C   UNL     1       2.662   5.302   6.914  1.00  0.00     0.074 A 
ATOM     50  C   UNL     1       1.296   4.854   6.835  1.00  0.00     0.031 C 
ATOM     51  C   UNL     1       5.361   5.552   1.857  1.00  0.00     0.029 A 
ATOM     52  C   UNL     1       4.552   6.433   1.023  1.00  0.00     0.049 A 
ATOM     53  H   UNL     1       2.491   6.003   0.676  1.00  0.00     0.167 HD
ATOM     54  C   UNL     1       3.745   4.876   7.626  1.00  0.00     0.034 A 
ATOM     55  C   UNL     1       4.730   7.781   0.856  1.00  0.00     0.034 A 
ATOM     56  C   UNL     1       4.965   5.254   6.915  1.00  0.00     0.049 A 
ATOM     57  C   UNL     1       5.378   8.394   2.082  1.00  0.00     0.074 A 
ATOM     58  C   UNL     1       5.843   4.549   6.109  1.00  0.00     0.029 A 
ATOM     59  N   UNL     1       5.205   6.589   6.665  1.00  0.00    -0.354 N 
ATOM     60  N   UNL     1       5.441   7.801   3.245  1.00  0.00    -0.248 NA
ATOM     61  C   UNL     1       5.969   9.726   2.107  1.00  0.00     0.031 C 
ATOM     62  C   UNL     1       6.617   5.492   5.373  1.00  0.00     0.029 A 
ATOM     63  C   UNL     1       6.191   6.759   5.720  1.00  0.00     0.049 A 
ATOM     64  H   UNL     1       4.731   7.329   7.109  1.00  0.00     0.167 HD
ATOM     65  C   UNL     1       6.162   8.567   4.116  1.00  0.00     0.074 A 
ATOM     66  C   UNL     1       6.370   9.810   3.388  1.00  0.00     0.031 C 
ATOM     67  C   UNL     1       6.551   8.114   5.347  1.00  0.00     0.034 A 
BRANCH  54  68
ATOM     68  C   UNL     1       3.745   3.876   8.761  1.00  0.00     0.023 A 
ATOM     69  C   UNL     1       2.592   3.496   9.479  1.00  0.00     0.012 A 
ATOM     70  C   UNL     1       4.958   3.280   9.180  1.00  0.00     0.148 A 
ATOM     71  C   UNL     1       2.629   2.537  10.505  1.00  0.00     0.002 A 
ATOM     72  C   UNL     1       4.994   2.332  10.200  1.00  0.00     0.091 A 
ATOM     73  F   UNL     1       6.117   3.631   8.610  1.00  0.00    -0.205 F 
ATOM     74  C   UNL     1       3.833   1.948  10.865  1.00  0.00     0.022 A 
BRANCH  72  75
ATOM     75  S   UNL     1       6.578   1.614  10.642  1.00  0.00     0.127 S 
ATOM     76  O   UNL     1       6.957   0.901   9.426  1.00  0.00    -0.237 OA
ATOM     77  O   UNL     1       7.379   2.778  11.005  1.00  0.00    -0.237 OA
ATOM     78  O   UNL     1       6.244   0.742  11.770  1.00  0.00    -0.744 OA
ENDBRANCH  72  75
ENDBRANCH  54  68
BRANCH  55  79
ATOM     79  C   UNL     1       3.586   8.379   0.073  1.00  0.00     0.023 A 
ATOM     80  C   UNL     1       2.499   8.957   0.754  1.00  0.00     0.012 A 
ATOM     81  C   UNL     1       3.367   7.867  -1.230  1.00  0.00     0.148 A 
ATOM     82  C   UNL     1       1.207   8.872   0.214  1.00  0.00     0.002 A 
ATOM     83  C   UNL     1       2.070   7.714  -1.719  1.00  0.00     0.091 A 
ATOM     84  F   UNL     1       4.419   7.392  -1.918  1.00  0.00    -0.205 F 
ATOM     85  C   UNL     1       0.981   8.195  -0.987  1.00  0.00     0.022 A 
BRANCH  83  86
ATOM     86  S   UNL     1       1.791   6.654  -3.149  1.00  0.00     0.127 S 
ATOM     87  O   UNL     1       2.218   7.498  -4.260  1.00  0.00    -0.237 OA
ATOM     88  O   UNL     1       2.615   5.481  -2.866  1.00  0.00    -0.237 OA
ATOM     89  O   UNL     1       0.355   6.378  -3.107  1.00  0.00    -0.744 OA
ENDBRANCH  83  86
ENDBRANCH  55  79
BRANCH  67  90
ATOM     90  C   UNL     1       7.273   8.951   6.364  1.00  0.00     0.023 A 
ATOM     91  C   UNL     1       7.045   8.745   7.749  1.00  0.00     0.012 A 
ATOM     92  C   UNL     1       8.187   9.943   6.021  1.00  0.00     0.148 A 
ATOM     93  C   UNL     1       7.579   9.580   8.728  1.00  0.00     0.002 A 
ATOM     94  C   UNL     1       8.632  10.842   6.982  1.00  0.00     0.091 A 
ATOM     95  F   UNL     1       8.659  10.011   4.768  1.00  0.00    -0.205 F 
ATOM     96  C   UNL     1       8.335  10.670   8.337  1.00  0.00     0.022 A 
BRANCH  94  97
ATOM     97  S   UNL     1       9.422  12.338   6.409  1.00  0.00     0.127 S 
ATOM     98  O   UNL     1      10.601  11.855   5.700  1.00  0.00    -0.237 OA
ATOM     99  O   UNL     1       8.373  12.942   5.589  1.00  0.00    -0.237 OA
ATOM    100  O   UNL     1       9.710  13.062   7.647  1.00  0.00    -0.744 OA
ENDBRANCH  94  97
ENDBRANCH  67  90
ENDBRANCH  41  42
ENDBRANCH  33  36
ENDBRANCH  31  32
ENDBRANCH  30  31
ENDBRANCH  29  30
ENDBRANCH   1  29
TORSDOF 20
