REMARK SMILES C[C@H]1[NH2+]CC[C@H]1C(=O)N1CC(C(=O)NCCCCCCNC(=O)c2ccc(-c3c4nc(c(-c5cccc(S(=O)(=O)[O-])c5F)c5ccc([nH]5)c(-c5cccc(S(=O)(=O)[O-])c5F)c5nc(c(-c6cccc(S(=O)(=O)[O-])c6F)c6ccc3[nH]6)C=C5)C=C4)cc2)C1
REMARK SMILES IDX 18 1 17 2 16 3 15 4 14 5 12 6 13 7 11 9 7 10 8 11 9 12 10 13
REMARK SMILES IDX 87 14 6 15 1 16 2 17 3 18 4 19 5 22 19 23 20 24 21 25 22 26
REMARK SMILES IDX 23 28 24 29 25 30 86 31 26 32 85 33 27 34 28 35 29 36 79 37
REMARK SMILES IDX 30 38 84 39 78 40 80 41 31 42 83 43 77 44 76 45 32 47 64 48
REMARK SMILES IDX 44 49 63 50 45 51 48 52 62 53 81 54 46 55 47 56 61 58 82 59
REMARK SMILES IDX 49 60 33 61 34 62 42 63 35 64 37 65 43 66 36 67 38 68 39 69
REMARK SMILES IDX 40 70 41 71 65 72 66 73 74 74 67 75 69 76 75 77 68 78 70 79
REMARK SMILES IDX 71 80 72 81 73 82 50 83 51 84 59 85 52 86 54 87 60 88 53 89
REMARK SMILES IDX 55 90 56 91 57 92 58 93
REMARK H PARENT 14 8 3 20 3 21 21 27 80 46 48 57
REMARK Flexibility Score: inf
ROOT
ATOM      1  C   UNL     1       1.164   0.606   7.592  1.00  0.00     0.002 C 
ENDROOT
BRANCH   1   2
ATOM      2  C   UNL     1       2.282   0.166   6.642  1.00  0.00     0.002 C 
BRANCH   2   3
ATOM      3  C   UNL     1       1.953   0.279   5.149  1.00  0.00     0.021 C 
BRANCH   3   4
ATOM      4  C   UNL     1       1.512   1.671   4.699  1.00  0.00     0.116 C 
BRANCH   4   5
ATOM      5  N   UNL     1       2.573   2.649   4.850  1.00  0.00    -0.356 N 
ATOM      6  C   UNL     1       3.157   3.498   3.943  1.00  0.00     0.226 C 
ATOM      7  O   UNL     1       4.063   4.220   4.389  1.00  0.00    -0.275 OA
ATOM      8  H   UNL     1       2.939   2.714   5.762  1.00  0.00     0.163 HD
BRANCH   6   9
ATOM      9  C   UNL     1       2.735   3.549   2.472  1.00  0.00     0.117 C 
ATOM     10  C   UNL     1       0.960   2.385  -0.032  1.00  0.00     0.231 C 
ATOM     11  O   UNL     1       1.283   3.235  -0.861  1.00  0.00    -0.274 OA
ATOM     12  N   UNL     1       1.378   2.454   1.285  1.00  0.00    -0.341 N 
ATOM     13  C   UNL     1       1.280   3.708   2.065  1.00  0.00     0.134 C 
ATOM     14  C   UNL     1       2.803   2.287   1.637  1.00  0.00     0.134 C 
BRANCH  10  15
ATOM     15  C   UNL     1       0.089   1.192  -0.401  1.00  0.00     0.142 C 
ATOM     16  C   UNL     1       1.812  -0.572   0.468  1.00  0.00     0.076 C 
ATOM     17  C   UNL     1       0.774  -0.163  -0.573  1.00  0.00     0.192 C 
ATOM     18  N   UNL     1      -0.346  -1.118  -0.551  1.00  0.00    -0.343 N 
ATOM     19  C   UNL     1      -1.452  -0.532   0.210  1.00  0.00     0.261 C 
ATOM     20  H   UNL     1      -0.047  -1.987  -0.107  1.00  0.00     0.346 HD
ATOM     21  H   UNL     1      -0.649  -1.318  -1.504  1.00  0.00     0.346 HD
ATOM     22  C   UNL     1      -1.051   0.893   0.559  1.00  0.00     0.081 C 
ENDBRANCH  10  15
ENDBRANCH   6   9
ENDBRANCH   4   5
ENDBRANCH   3   4
ENDBRANCH   2   3
ENDBRANCH   1   2
BRANCH   1  23
ATOM     23  C   UNL     1      -0.181  -0.093   7.383  1.00  0.00     0.021 C 
BRANCH  23  24
ATOM     24  C   UNL     1      -0.137  -1.611   7.516  1.00  0.00     0.116 C 
BRANCH  24  25
ATOM     25  N   UNL     1       0.243  -2.036   8.855  1.00  0.00    -0.352 N 
ATOM     26  C   UNL     1      -0.403  -2.901   9.703  1.00  0.00     0.251 C 
ATOM     27  H   UNL     1       1.079  -1.648   9.201  1.00  0.00     0.163 HD
ATOM     28  O   UNL     1      -0.041  -3.002  10.873  1.00  0.00    -0.269 OA
BRANCH  26  29
ATOM     29  C   UNL     1      -1.545  -3.698   9.207  1.00  0.00     0.039 A 
ATOM     30  C   UNL     1      -2.704  -3.782   9.982  1.00  0.00     0.014 A 
ATOM     31  C   UNL     1      -1.473  -4.354   7.975  1.00  0.00     0.014 A 
ATOM     32  C   UNL     1      -3.813  -4.477   9.495  1.00  0.00     0.010 A 
ATOM     33  C   UNL     1      -2.604  -4.978   7.458  1.00  0.00     0.010 A 
ATOM     34  C   UNL     1      -3.783  -5.055   8.215  1.00  0.00    -0.014 A 
BRANCH  34  35
ATOM     35  C   UNL     1      -4.970  -5.744   7.645  1.00  0.00     0.031 A 
ATOM     36  C   UNL     1      -4.896  -7.205   7.293  1.00  0.00     0.074 A 
ATOM     37  C   UNL     1      -6.081  -5.037   7.358  1.00  0.00     0.049 A 
ATOM     38  N   UNL     1      -5.790  -7.959   6.709  1.00  0.00    -0.248 NA
ATOM     39  C   UNL     1      -3.640  -7.906   7.612  1.00  0.00     0.031 C 
ATOM     40  C   UNL     1      -6.253  -3.601   7.586  1.00  0.00     0.029 A 
ATOM     41  N   UNL     1      -7.265  -5.424   6.781  1.00  0.00    -0.354 N 
ATOM     42  C   UNL     1      -5.195  -9.205   6.553  1.00  0.00     0.074 A 
ATOM     43  C   UNL     1      -3.850  -9.099   7.076  1.00  0.00     0.031 C 
ATOM     44  C   UNL     1      -7.468  -3.228   7.154  1.00  0.00     0.029 A 
ATOM     45  C   UNL     1      -8.148  -4.387   6.584  1.00  0.00     0.049 A 
ATOM     46  H   UNL     1      -7.464  -6.356   6.531  1.00  0.00     0.167 HD
ATOM     47  C   UNL     1      -5.725 -10.343   6.046  1.00  0.00     0.034 A 
ATOM     48  C   UNL     1      -9.360  -4.367   5.995  1.00  0.00     0.034 A 
ATOM     49  C   UNL     1      -7.075 -10.455   5.564  1.00  0.00     0.049 A 
ATOM     50  C   UNL     1      -9.938  -5.651   5.464  1.00  0.00     0.074 A 
ATOM     51  C   UNL     1      -7.735 -11.585   5.113  1.00  0.00     0.029 A 
ATOM     52  N   UNL     1      -7.969  -9.401   5.458  1.00  0.00    -0.354 N 
ATOM     53  N   UNL     1      -9.414  -6.853   5.462  1.00  0.00    -0.248 NA
ATOM     54  C   UNL     1     -11.289  -5.585   4.886  1.00  0.00     0.031 C 
ATOM     55  C   UNL     1      -9.016 -11.207   4.701  1.00  0.00     0.029 A 
ATOM     56  C   UNL     1      -9.169  -9.850   4.937  1.00  0.00     0.049 A 
ATOM     57  H   UNL     1      -7.778  -8.470   5.716  1.00  0.00     0.167 HD
ATOM     58  C   UNL     1     -10.385  -7.691   4.925  1.00  0.00     0.074 A 
ATOM     59  C   UNL     1     -11.534  -6.862   4.625  1.00  0.00     0.031 C 
ATOM     60  C   UNL     1     -10.326  -9.026   4.694  1.00  0.00     0.034 A 
BRANCH  47  61
ATOM     61  C   UNL     1      -4.856 -11.573   6.019  1.00  0.00     0.023 A 
ATOM     62  C   UNL     1      -4.515 -12.217   7.226  1.00  0.00     0.012 A 
ATOM     63  C   UNL     1      -4.427 -12.127   4.797  1.00  0.00     0.148 A 
ATOM     64  C   UNL     1      -3.731 -13.370   7.221  1.00  0.00     0.002 A 
ATOM     65  C   UNL     1      -3.687 -13.304   4.797  1.00  0.00     0.091 A 
ATOM     66  F   UNL     1      -4.743 -11.491   3.660  1.00  0.00    -0.205 F 
ATOM     67  C   UNL     1      -3.327 -13.918   6.007  1.00  0.00     0.022 A 
BRANCH  65  68
ATOM     68  S   UNL     1      -3.189 -14.135   3.285  1.00  0.00     0.127 S 
ATOM     69  O   UNL     1      -1.741 -13.930   3.299  1.00  0.00    -0.237 OA
ATOM     70  O   UNL     1      -3.612 -15.513   3.539  1.00  0.00    -0.237 OA
ATOM     71  O   UNL     1      -3.902 -13.469   2.204  1.00  0.00    -0.744 OA
ENDBRANCH  65  68
ENDBRANCH  47  61
BRANCH  48  72
ATOM     72  C   UNL     1     -10.130  -3.093   5.919  1.00  0.00     0.023 A 
ATOM     73  C   UNL     1     -11.298  -2.940   6.692  1.00  0.00     0.012 A 
ATOM     74  C   UNL     1      -9.702  -2.028   5.103  1.00  0.00     0.148 A 
ATOM     75  C   UNL     1     -12.045  -1.763   6.627  1.00  0.00     0.002 A 
ATOM     76  C   UNL     1     -10.418  -0.837   5.088  1.00  0.00     0.091 A 
ATOM     77  F   UNL     1      -8.593  -2.197   4.369  1.00  0.00    -0.205 F 
ATOM     78  C   UNL     1     -11.601  -0.709   5.833  1.00  0.00     0.022 A 
BRANCH  76  79
ATOM     79  S   UNL     1      -9.850   0.617   4.200  1.00  0.00     0.127 S 
ATOM     80  O   UNL     1     -10.843   0.726   3.135  1.00  0.00    -0.237 OA
ATOM     81  O   UNL     1      -9.934   1.651   5.232  1.00  0.00    -0.237 OA
ATOM     82  O   UNL     1      -8.492   0.311   3.769  1.00  0.00    -0.744 OA
ENDBRANCH  76  79
ENDBRANCH  48  72
BRANCH  60  83
ATOM     83  C   UNL     1     -11.553  -9.700   4.140  1.00  0.00     0.023 A 
ATOM     84  C   UNL     1     -11.931  -9.494   2.799  1.00  0.00     0.012 A 
ATOM     85  C   UNL     1     -12.281 -10.611   4.931  1.00  0.00     0.148 A 
ATOM     86  C   UNL     1     -13.032 -10.162   2.263  1.00  0.00     0.002 A 
ATOM     87  C   UNL     1     -13.343 -11.313   4.376  1.00  0.00     0.091 A 
ATOM     88  F   UNL     1     -11.915 -10.780   6.211  1.00  0.00    -0.205 F 
ATOM     89  C   UNL     1     -13.728 -11.080   3.046  1.00  0.00     0.022 A 
BRANCH  87  90
ATOM     90  S   UNL     1     -14.232 -12.588   5.275  1.00  0.00     0.127 S 
ATOM     91  O   UNL     1     -15.535 -11.957   5.476  1.00  0.00    -0.237 OA
ATOM     92  O   UNL     1     -14.231 -13.697   4.320  1.00  0.00    -0.237 OA
ATOM     93  O   UNL     1     -13.466 -12.835   6.490  1.00  0.00    -0.744 OA
ENDBRANCH  87  90
ENDBRANCH  60  83
ENDBRANCH  34  35
ENDBRANCH  26  29
ENDBRANCH  24  25
ENDBRANCH  23  24
ENDBRANCH   1  23
TORSDOF 17
