REMARK SMILES CCN1C[C@]2(C(=O)NCCCCCCNC(=O)c3ccc(-c4c5nc(c(-c6cccc(S(=O)(=O)[O-])c6F)c6ccc([nH]6)c(-c6cccc(S(=O)(=O)[O-])c6F)c6nc(c(-c7cccc(S(=O)(=O)[O-])c7F)c7ccc4[nH]7)C=C6)C=C5)cc3)CN(c3ccc(-c4ccccc4)nn3)C[C@H]2C1=O
REMARK SMILES IDX 12 1 11 2 10 3 9 4 8 5 6 6 7 7 5 9 3 10 4 11 97 12 96 13
REMARK SMILES IDX 98 14 81 15 95 16 82 17 2 18 1 19 83 20 84 21 94 22 85 23
REMARK SMILES IDX 93 24 86 25 87 26 88 27 92 28 89 29 91 30 90 31 13 32 14 33
REMARK SMILES IDX 15 34 16 35 17 37 18 38 19 39 80 40 20 41 79 42 21 43 22 44
REMARK SMILES IDX 23 45 73 46 24 47 78 48 72 49 74 50 25 51 77 52 71 53 70 54
REMARK SMILES IDX 26 56 58 57 38 58 57 59 39 60 42 61 56 62 75 63 40 64 41 65
REMARK SMILES IDX 55 67 76 68 43 69 27 70 28 71 36 72 29 73 31 74 37 75 30 76
REMARK SMILES IDX 32 77 33 78 34 79 35 80 59 81 60 82 68 83 61 84 63 85 69 86
REMARK SMILES IDX 62 87 64 88 65 89 66 90 67 91 44 92 45 93 53 94 46 95 48 96
REMARK SMILES IDX 54 97 47 98 49 99 50 100 51 101 52 102
REMARK H PARENT 8 8 15 36 74 55 42 66
REMARK Flexibility Score: inf
ROOT
ATOM      1  C   UNL     1      -3.907   7.701   0.469  1.00  0.00     0.002 C 
ENDROOT
BRANCH   1   2
ATOM      2  C   UNL     1      -2.442   8.000   0.139  1.00  0.00     0.002 C 
BRANCH   2   3
ATOM      3  C   UNL     1      -1.448   7.430   1.153  1.00  0.00     0.021 C 
BRANCH   3   4
ATOM      4  C   UNL     1      -1.464   5.901   1.225  1.00  0.00     0.116 C 
BRANCH   4   5
ATOM      5  N   UNL     1      -0.752   5.365   0.083  1.00  0.00    -0.355 N 
ATOM      6  C   UNL     1       0.555   4.951   0.086  1.00  0.00     0.230 C 
ATOM      7  O   UNL     1       1.190   4.994  -0.969  1.00  0.00    -0.274 OA
ATOM      8  H   UNL     1      -1.247   5.292  -0.765  1.00  0.00     0.163 HD
BRANCH   6   9
ATOM      9  C   UNL     1       1.086   4.393   1.416  1.00  0.00     0.097 C 
ATOM     10  N   UNL     1       1.206   1.957   1.621  1.00  0.00    -0.341 N 
ATOM     11  C   UNL     1       1.295   3.009   0.628  1.00  0.00     0.139 C 
ATOM     12  C   UNL     1       1.550   2.454   2.853  1.00  0.00     0.228 C 
ATOM     13  C   UNL     1       2.003   3.839   2.550  1.00  0.00     0.117 C 
ATOM     14  O   UNL     1       1.557   1.887   3.925  1.00  0.00    -0.274 OA
ATOM     15  C   UNL     1       1.905   5.788   1.566  1.00  0.00     0.137 C 
ATOM     16  C   UNL     1       1.849   4.775   3.723  1.00  0.00     0.133 C 
ATOM     17  N   UNL     1       1.858   6.033   3.020  1.00  0.00    -0.353 N 
BRANCH  10  18
ATOM     18  C   UNL     1       0.635   0.641   1.392  1.00  0.00     0.116 C 
ATOM     19  C   UNL     1       1.074  -0.001   0.089  1.00  0.00     0.027 C 
ENDBRANCH  10  18
BRANCH  17  20
ATOM     20  C   UNL     1       1.361   7.205   3.529  1.00  0.00     0.151 A 
ATOM     21  C   UNL     1       0.227   7.249   4.330  1.00  0.00     0.051 A 
ATOM     22  N   UNL     1       1.944   8.369   3.199  1.00  0.00    -0.132 NA
ATOM     23  C   UNL     1      -0.277   8.469   4.799  1.00  0.00     0.035 A 
ATOM     24  N   UNL     1       1.477   9.585   3.704  1.00  0.00    -0.148 NA
ATOM     25  C   UNL     1       0.390   9.646   4.503  1.00  0.00     0.093 A 
BRANCH  25  26
ATOM     26  C   UNL     1      -0.004  10.984   5.001  1.00  0.00     0.002 A 
ATOM     27  C   UNL     1       0.508  12.153   4.402  1.00  0.00     0.010 A 
ATOM     28  C   UNL     1      -0.864  11.163   6.104  1.00  0.00     0.010 A 
ATOM     29  C   UNL     1       0.188  13.429   4.880  1.00  0.00     0.001 A 
ATOM     30  C   UNL     1      -1.186  12.439   6.585  1.00  0.00     0.001 A 
ATOM     31  C   UNL     1      -0.658  13.571   5.974  1.00  0.00     0.000 A 
ENDBRANCH  25  26
ENDBRANCH  17  20
ENDBRANCH   6   9
ENDBRANCH   4   5
ENDBRANCH   3   4
ENDBRANCH   2   3
ENDBRANCH   1   2
BRANCH   1  32
ATOM     32  C   UNL     1      -4.329   8.089   1.890  1.00  0.00     0.021 C 
BRANCH  32  33
ATOM     33  C   UNL     1      -4.071   9.553   2.237  1.00  0.00     0.116 C 
BRANCH  33  34
ATOM     34  N   UNL     1      -4.797  10.438   1.343  1.00  0.00    -0.352 N 
ATOM     35  C   UNL     1      -5.794  11.332   1.633  1.00  0.00     0.251 C 
ATOM     36  H   UNL     1      -4.535  10.389   0.395  1.00  0.00     0.163 HD
ATOM     37  O   UNL     1      -6.499  11.775   0.732  1.00  0.00    -0.269 OA
BRANCH  35  38
ATOM     38  C   UNL     1      -6.014  11.756   3.031  1.00  0.00     0.039 A 
ATOM     39  C   UNL     1      -7.324  11.895   3.494  1.00  0.00     0.014 A 
ATOM     40  C   UNL     1      -4.934  12.050   3.870  1.00  0.00     0.014 A 
ATOM     41  C   UNL     1      -7.549  12.302   4.809  1.00  0.00     0.010 A 
ATOM     42  C   UNL     1      -5.161  12.373   5.204  1.00  0.00     0.010 A 
ATOM     43  C   UNL     1      -6.470  12.525   5.682  1.00  0.00    -0.014 A 
BRANCH  43  44
ATOM     44  C   UNL     1      -6.709  12.924   7.092  1.00  0.00     0.031 A 
ATOM     45  C   UNL     1      -6.222  14.253   7.604  1.00  0.00     0.074 A 
ATOM     46  C   UNL     1      -7.329  12.066   7.925  1.00  0.00     0.049 A 
ATOM     47  N   UNL     1      -6.358  14.773   8.797  1.00  0.00    -0.248 NA
ATOM     48  C   UNL     1      -5.464  15.099   6.668  1.00  0.00     0.031 C 
ATOM     49  C   UNL     1      -7.774  10.716   7.570  1.00  0.00     0.029 A 
ATOM     50  N   UNL     1      -7.680  12.194   9.245  1.00  0.00    -0.354 N 
ATOM     51  C   UNL     1      -5.684  15.988   8.763  1.00  0.00     0.074 A 
ATOM     52  C   UNL     1      -5.103  16.110   7.444  1.00  0.00     0.031 C 
ATOM     53  C   UNL     1      -8.353  10.148   8.639  1.00  0.00     0.029 A 
ATOM     54  C   UNL     1      -8.293  11.076   9.763  1.00  0.00     0.049 A 
ATOM     55  H   UNL     1      -7.510  13.008   9.772  1.00  0.00     0.167 HD
ATOM     56  C   UNL     1      -5.579  16.929   9.731  1.00  0.00     0.034 A 
ATOM     57  C   UNL     1      -8.750  10.825  11.005  1.00  0.00     0.034 A 
ATOM     58  C   UNL     1      -6.183  16.817  11.032  1.00  0.00     0.049 A 
ATOM     59  C   UNL     1      -8.654  11.903  12.050  1.00  0.00     0.074 A 
ATOM     60  C   UNL     1      -6.205  17.750  12.053  1.00  0.00     0.029 A 
ATOM     61  N   UNL     1      -6.856  15.699  11.499  1.00  0.00    -0.354 N 
ATOM     62  N   UNL     1      -8.149  13.109  11.948  1.00  0.00    -0.248 NA
ATOM     63  C   UNL     1      -9.229  11.601  13.368  1.00  0.00     0.031 C 
ATOM     64  C   UNL     1      -6.856  17.181  13.152  1.00  0.00     0.029 A 
ATOM     65  C   UNL     1      -7.284  15.912  12.799  1.00  0.00     0.049 A 
ATOM     66  H   UNL     1      -7.008  14.874  10.982  1.00  0.00     0.167 HD
ATOM     67  C   UNL     1      -8.381  13.722  13.174  1.00  0.00     0.074 A 
ATOM     68  C   UNL     1      -9.093  12.762  13.992  1.00  0.00     0.031 C 
ATOM     69  C   UNL     1      -8.027  14.964  13.589  1.00  0.00     0.034 A 
BRANCH  56  70
ATOM     70  C   UNL     1      -4.808  18.184   9.409  1.00  0.00     0.023 A 
ATOM     71  C   UNL     1      -5.332  19.116   8.490  1.00  0.00     0.012 A 
ATOM     72  C   UNL     1      -3.593  18.469  10.063  1.00  0.00     0.148 A 
ATOM     73  C   UNL     1      -4.643  20.293   8.199  1.00  0.00     0.002 A 
ATOM     74  C   UNL     1      -2.938  19.668   9.806  1.00  0.00     0.091 A 
ATOM     75  F   UNL     1      -3.098  17.562  10.917  1.00  0.00    -0.205 F 
ATOM     76  C   UNL     1      -3.454  20.574   8.865  1.00  0.00     0.022 A 
BRANCH  74  77
ATOM     77  S   UNL     1      -1.444  20.160  10.673  1.00  0.00     0.127 S 
ATOM     78  O   UNL     1      -0.449  20.094   9.603  1.00  0.00    -0.237 OA
ATOM     79  O   UNL     1      -1.778  21.515  11.112  1.00  0.00    -0.237 OA
ATOM     80  O   UNL     1      -1.266  19.197  11.749  1.00  0.00    -0.744 OA
ENDBRANCH  74  77
ENDBRANCH  56  70
BRANCH  57  81
ATOM     81  C   UNL     1      -9.387   9.514  11.314  1.00  0.00     0.023 A 
ATOM     82  C   UNL     1     -10.768   9.454  11.585  1.00  0.00     0.012 A 
ATOM     83  C   UNL     1      -8.633   8.326  11.323  1.00  0.00     0.148 A 
ATOM     84  C   UNL     1     -11.378   8.239  11.900  1.00  0.00     0.002 A 
ATOM     85  C   UNL     1      -9.257   7.111  11.577  1.00  0.00     0.091 A 
ATOM     86  F   UNL     1      -7.319   8.407  11.070  1.00  0.00    -0.205 F 
ATOM     87  C   UNL     1     -10.625   7.067  11.887  1.00  0.00     0.022 A 
BRANCH  85  88
ATOM     88  S   UNL     1      -8.395   5.542  11.444  1.00  0.00     0.127 S 
ATOM     89  O   UNL     1      -8.345   5.109  12.838  1.00  0.00    -0.237 OA
ATOM     90  O   UNL     1      -9.301   4.773  10.590  1.00  0.00    -0.237 OA
ATOM     91  O   UNL     1      -7.109   5.849  10.831  1.00  0.00    -0.744 OA
ENDBRANCH  85  88
ENDBRANCH  57  81
BRANCH  69  92
ATOM     92  C   UNL     1      -8.447  15.378  14.977  1.00  0.00     0.023 A 
ATOM     93  C   UNL     1      -7.856  14.778  16.107  1.00  0.00     0.012 A 
ATOM     94  C   UNL     1      -9.403  16.396  15.158  1.00  0.00     0.148 A 
ATOM     95  C   UNL     1      -8.248  15.148  17.393  1.00  0.00     0.002 A 
ATOM     96  C   UNL     1      -9.747  16.800  16.442  1.00  0.00     0.091 A 
ATOM     97  F   UNL     1      -9.969  16.945  14.073  1.00  0.00    -0.205 F 
ATOM     98  C   UNL     1      -9.184  16.165  17.561  1.00  0.00     0.022 A 
BRANCH  96  99
ATOM     99  S   UNL     1     -10.867  18.170  16.750  1.00  0.00     0.127 S 
ATOM    100  O   UNL     1     -12.066  17.475  17.215  1.00  0.00    -0.237 OA
ATOM    101  O   UNL     1     -10.158  18.923  17.786  1.00  0.00    -0.237 OA
ATOM    102  O   UNL     1     -11.001  18.872  15.481  1.00  0.00    -0.744 OA
ENDBRANCH  96  99
ENDBRANCH  69  92
ENDBRANCH  43  44
ENDBRANCH  35  38
ENDBRANCH  33  34
ENDBRANCH  32  33
ENDBRANCH   1  32
TORSDOF 19
