REMARK SMILES Cc1ccccc1/[NH+]=C1\S[C@@H](CC(=O)Nc2ccc(C(=O)NCCCCCCNC(=O)c3ccc(-c4c5nc(c(-c6cccc(S(=O)(=O)[O-])c6F)c6ccc([nH]6)c(-c6cccc(S(=O)(=O)[O-])c6F)c6nc(c(-c7cccc(S(=O)(=O)[O-])c7F)c7ccc4[nH]7)C=C6)C=C5)cc3)cc2)C(=O)N1C
REMARK SMILES IDX 25 1 24 2 23 3 22 4 20 5 21 6 19 8 16 9 17 10 96 11 18 12
REMARK SMILES IDX 95 13 15 14 13 15 14 16 12 18 11 19 8 20 9 21 10 23 99 24
REMARK SMILES IDX 97 25 100 26 98 27 7 28 1 29 2 30 3 31 4 32 6 33 5 34 26 35
REMARK SMILES IDX 27 36 28 37 29 38 30 39 31 41 32 42 33 43 94 44 34 45 93 46
REMARK SMILES IDX 35 47 36 48 37 49 87 50 38 51 92 52 86 53 88 54 39 55 91 56
REMARK SMILES IDX 85 57 84 58 40 60 72 61 52 62 71 63 53 64 56 65 70 66 89 67
REMARK SMILES IDX 54 68 55 69 69 71 90 72 57 73 41 74 42 75 50 76 43 77 45 78
REMARK SMILES IDX 51 79 44 80 46 81 47 82 48 83 49 84 73 85 74 86 82 87 75 88
REMARK SMILES IDX 77 89 83 90 76 91 78 92 79 93 80 94 81 95 58 96 59 97 67 98
REMARK SMILES IDX 60 99 62 100 68 101 61 102 63 103 64 104 65 105 66 106
REMARK H PARENT 22 7 15 17 8 22 29 40 88 59 56 70
REMARK Flexibility Score: inf
ROOT
ATOM      1  C   UNL     1       1.138   6.972  -3.281  1.00  0.00     0.002 C 
ENDROOT
BRANCH   1   2
ATOM      2  C   UNL     1       2.092   6.303  -2.278  1.00  0.00     0.021 C 
BRANCH   2   3
ATOM      3  C   UNL     1       3.137   5.373  -2.903  1.00  0.00     0.116 C 
BRANCH   3   4
ATOM      4  N   UNL     1       4.227   6.120  -3.517  1.00  0.00    -0.352 N 
ATOM      5  C   UNL     1       5.572   6.187  -3.240  1.00  0.00     0.251 C 
ATOM      6  O   UNL     1       6.313   6.755  -4.043  1.00  0.00    -0.269 OA
ATOM      7  H   UNL     1       3.947   6.683  -4.274  1.00  0.00     0.163 HD
BRANCH   5   8
ATOM      8  C   UNL     1       6.175   5.562  -2.035  1.00  0.00     0.039 A 
ATOM      9  C   UNL     1       7.327   4.192   0.118  1.00  0.00     0.041 A 
ATOM     10  C   UNL     1       6.090   4.819   0.250  1.00  0.00     0.027 A 
ATOM     11  C   UNL     1       8.080   4.403  -1.028  1.00  0.00     0.027 A 
ATOM     12  C   UNL     1       5.512   5.504  -0.815  1.00  0.00     0.016 A 
ATOM     13  C   UNL     1       7.494   5.075  -2.111  1.00  0.00     0.016 A 
BRANCH   9  14
ATOM     14  N   UNL     1       7.785   3.331   1.123  1.00  0.00    -0.326 N 
ATOM     15  C   UNL     1       7.124   2.208   1.578  1.00  0.00     0.226 C 
ATOM     16  O   UNL     1       7.482   1.642   2.611  1.00  0.00    -0.275 OA
ATOM     17  H   UNL     1       8.650   3.545   1.540  1.00  0.00     0.169 HD
BRANCH  15  18
ATOM     18  C   UNL     1       6.109   1.564   0.645  1.00  0.00     0.128 C 
BRANCH  18  19
ATOM     19  C   UNL     1       4.670   1.542   1.113  1.00  0.00     0.183 C 
ATOM     20  N   UNL     1       1.033   1.873   0.570  1.00  0.00    -0.234 N 
ATOM     21  C   UNL     1       2.293   2.093   0.499  1.00  0.00     0.319 C 
ATOM     22  H   UNL     1       0.515   2.572   1.030  1.00  0.00     0.313 HD
ATOM     23  S   UNL     1       3.560   1.241  -0.318  1.00  0.00    -0.022 SA
ATOM     24  N   UNL     1       2.861   3.108   1.211  1.00  0.00    -0.193 N 
ATOM     25  C   UNL     1       4.102   2.807   1.731  1.00  0.00     0.324 C 
ATOM     26  C   UNL     1       2.138   4.292   1.631  1.00  0.00     0.301 C 
ATOM     27  O   UNL     1       4.633   3.404   2.659  1.00  0.00    -0.245 OA
BRANCH  20  28
ATOM     28  C   UNL     1       0.274   0.793   0.097  1.00  0.00     0.128 A 
ATOM     29  C   UNL     1       1.859  -1.165   0.703  1.00  0.00     0.049 C 
ATOM     30  C   UNL     1       0.566  -0.585   0.208  1.00  0.00    -0.004 A 
ATOM     31  C   UNL     1      -0.425  -1.533  -0.133  1.00  0.00     0.008 A 
ATOM     32  C   UNL     1      -1.712  -1.143  -0.487  1.00  0.00     0.001 A 
ATOM     33  C   UNL     1      -1.033   1.154  -0.280  1.00  0.00     0.052 A 
ATOM     34  C   UNL     1      -2.021   0.205  -0.552  1.00  0.00     0.004 A 
ENDBRANCH  20  28
ENDBRANCH  18  19
ENDBRANCH  15  18
ENDBRANCH   9  14
ENDBRANCH   5   8
ENDBRANCH   3   4
ENDBRANCH   2   3
ENDBRANCH   1   2
BRANCH   1  35
ATOM     35  C   UNL     1       0.334   6.032  -4.197  1.00  0.00     0.002 C 
BRANCH  35  36
ATOM     36  C   UNL     1      -0.389   4.879  -3.500  1.00  0.00     0.021 C 
BRANCH  36  37
ATOM     37  C   UNL     1      -1.594   5.314  -2.676  1.00  0.00     0.116 C 
BRANCH  37  38
ATOM     38  N   UNL     1      -2.836   5.327  -3.433  1.00  0.00    -0.352 N 
ATOM     39  C   UNL     1      -4.130   5.645  -3.046  1.00  0.00     0.251 C 
ATOM     40  H   UNL     1      -2.743   5.066  -4.378  1.00  0.00     0.163 HD
ATOM     41  O   UNL     1      -5.043   5.403  -3.812  1.00  0.00    -0.269 OA
BRANCH  39  42
ATOM     42  C   UNL     1      -4.367   6.397  -1.783  1.00  0.00     0.039 A 
ATOM     43  C   UNL     1      -5.322   7.426  -1.803  1.00  0.00     0.014 A 
ATOM     44  C   UNL     1      -3.533   6.252  -0.682  1.00  0.00     0.014 A 
ATOM     45  C   UNL     1      -5.256   8.451  -0.859  1.00  0.00     0.010 A 
ATOM     46  C   UNL     1      -3.395   7.308   0.189  1.00  0.00     0.010 A 
ATOM     47  C   UNL     1      -4.211   8.436   0.054  1.00  0.00    -0.014 A 
BRANCH  47  48
ATOM     48  C   UNL     1      -3.818   9.544   0.903  1.00  0.00     0.031 A 
ATOM     49  C   UNL     1      -4.154   9.524   2.337  1.00  0.00     0.074 A 
ATOM     50  C   UNL     1      -2.898  10.414   0.430  1.00  0.00     0.049 A 
ATOM     51  N   UNL     1      -3.926  10.516   3.124  1.00  0.00    -0.248 NA
ATOM     52  C   UNL     1      -4.820   8.404   2.992  1.00  0.00     0.031 C 
ATOM     53  C   UNL     1      -1.964  11.220   1.208  1.00  0.00     0.029 A 
ATOM     54  N   UNL     1      -2.772  10.911  -0.871  1.00  0.00    -0.354 N 
ATOM     55  C   UNL     1      -4.125  10.074   4.410  1.00  0.00     0.074 A 
ATOM     56  C   UNL     1      -4.817   8.818   4.264  1.00  0.00     0.031 C 
ATOM     57  C   UNL     1      -1.575  12.266   0.467  1.00  0.00     0.029 A 
ATOM     58  C   UNL     1      -2.391  12.259  -0.732  1.00  0.00     0.049 A 
ATOM     59  H   UNL     1      -2.921  10.420  -1.711  1.00  0.00     0.167 HD
ATOM     60  C   UNL     1      -3.546  10.774   5.423  1.00  0.00     0.034 A 
ATOM     61  C   UNL     1      -3.123  13.315  -1.194  1.00  0.00     0.034 A 
ATOM     62  C   UNL     1      -2.974  12.038   4.929  1.00  0.00     0.049 A 
ATOM     63  C   UNL     1      -3.478  14.335  -0.123  1.00  0.00     0.074 A 
ATOM     64  C   UNL     1      -1.689  12.504   4.712  1.00  0.00     0.029 A 
ATOM     65  N   UNL     1      -3.826  12.980   4.371  1.00  0.00    -0.354 N 
ATOM     66  N   UNL     1      -3.155  14.243   1.137  1.00  0.00    -0.248 NA
ATOM     67  C   UNL     1      -4.307  15.508  -0.386  1.00  0.00     0.031 C 
ATOM     68  C   UNL     1      -1.780  13.742   4.011  1.00  0.00     0.029 A 
ATOM     69  C   UNL     1      -3.118  14.043   3.835  1.00  0.00     0.049 A 
ATOM     70  H   UNL     1      -4.807  12.903   4.358  1.00  0.00     0.167 HD
ATOM     71  C   UNL     1      -3.845  15.182   1.872  1.00  0.00     0.074 A 
ATOM     72  C   UNL     1      -4.509  15.983   0.856  1.00  0.00     0.031 C 
ATOM     73  C   UNL     1      -3.862  15.153   3.246  1.00  0.00     0.034 A 
BRANCH  60  74
ATOM     74  C   UNL     1      -3.315  10.300   6.850  1.00  0.00     0.023 A 
ATOM     75  C   UNL     1      -2.662  11.205   7.720  1.00  0.00     0.012 A 
ATOM     76  C   UNL     1      -3.583   9.018   7.386  1.00  0.00     0.148 A 
ATOM     77  C   UNL     1      -2.252  10.852   9.011  1.00  0.00     0.002 A 
ATOM     78  C   UNL     1      -3.214   8.677   8.692  1.00  0.00     0.091 A 
ATOM     79  F   UNL     1      -4.135   8.072   6.629  1.00  0.00    -0.205 F 
ATOM     80  C   UNL     1      -2.530   9.586   9.500  1.00  0.00     0.022 A 
BRANCH  78  81
ATOM     81  S   UNL     1      -3.566   7.058   9.405  1.00  0.00     0.127 S 
ATOM     82  O   UNL     1      -2.228   6.474   9.510  1.00  0.00    -0.237 OA
ATOM     83  O   UNL     1      -4.181   7.402  10.687  1.00  0.00    -0.237 OA
ATOM     84  O   UNL     1      -4.460   6.381   8.472  1.00  0.00    -0.744 OA
ENDBRANCH  78  81
ENDBRANCH  60  74
BRANCH  61  85
ATOM     85  C   UNL     1      -3.973  12.974  -2.372  1.00  0.00     0.023 A 
ATOM     86  C   UNL     1      -3.302  12.627  -3.569  1.00  0.00     0.012 A 
ATOM     87  C   UNL     1      -5.317  12.595  -2.210  1.00  0.00     0.148 A 
ATOM     88  C   UNL     1      -3.914  11.811  -4.521  1.00  0.00     0.002 A 
ATOM     89  C   UNL     1      -5.918  11.774  -3.162  1.00  0.00     0.091 A 
ATOM     90  F   UNL     1      -5.954  12.960  -1.090  1.00  0.00    -0.205 F 
ATOM     91  C   UNL     1      -5.209  11.355  -4.300  1.00  0.00     0.022 A 
BRANCH  89  92
ATOM     92  S   UNL     1      -7.557  11.077  -2.907  1.00  0.00     0.127 S 
ATOM     93  O   UNL     1      -8.385  11.984  -3.696  1.00  0.00    -0.237 OA
ATOM     94  O   UNL     1      -7.410   9.731  -3.460  1.00  0.00    -0.237 OA
ATOM     95  O   UNL     1      -7.755  11.108  -1.466  1.00  0.00    -0.744 OA
ENDBRANCH  89  92
ENDBRANCH  61  85
BRANCH  73  96
ATOM     96  C   UNL     1      -4.646  16.079   4.184  1.00  0.00     0.023 A 
ATOM     97  C   UNL     1      -5.199  17.303   3.768  1.00  0.00     0.012 A 
ATOM     98  C   UNL     1      -4.836  15.762   5.562  1.00  0.00     0.148 A 
ATOM     99  C   UNL     1      -5.995  18.094   4.612  1.00  0.00     0.002 A 
ATOM    100  C   UNL     1      -5.643  16.535   6.395  1.00  0.00     0.091 A 
ATOM    101  F   UNL     1      -4.176  14.739   6.118  1.00  0.00    -0.205 F 
ATOM    102  C   UNL     1      -6.243  17.695   5.917  1.00  0.00     0.022 A 
BRANCH 100 103
ATOM    103  S   UNL     1      -5.970  16.049   8.098  1.00  0.00     0.127 S 
ATOM    104  O   UNL     1      -5.005  16.866   8.831  1.00  0.00    -0.237 OA
ATOM    105  O   UNL     1      -7.367  16.453   8.272  1.00  0.00    -0.237 OA
ATOM    106  O   UNL     1      -5.755  14.610   8.139  1.00  0.00    -0.744 OA
ENDBRANCH 100 103
ENDBRANCH  73  96
ENDBRANCH  47  48
ENDBRANCH  39  42
ENDBRANCH  37  38
ENDBRANCH  36  37
ENDBRANCH  35  36
ENDBRANCH   1  35
TORSDOF 20
