REMARK SMILES Cc1ccc(C)c(N2C(=O)S[C@H](CC(=O)Nc3ccc(C(=O)NCCCCCCNC(=O)c4ccc(-c5c6nc(c(-c7cccc(S(=O)(=O)[O-])c7F)c7ccc([nH]7)c(-c7cccc(S(=O)(=O)[O-])c7F)c7nc(c(-c8cccc(S(=O)(=O)[O-])c8F)c8ccc5[nH]8)C=C7)C=C6)cc4)c(O)c3)C2=O)c1
REMARK SMILES IDX 26 1 25 2 24 3 23 4 21 5 22 6 20 8 17 9 18 10 98 11 19 12
REMARK SMILES IDX 96 13 16 14 14 15 15 16 13 18 12 19 8 20 9 21 99 22 10 23
REMARK SMILES IDX 11 24 100 25 7 26 1 27 2 28 3 29 101 30 4 31 5 32 6 33 97 34
REMARK SMILES IDX 27 36 28 37 29 38 30 39 31 40 32 42 33 43 34 44 95 45 35 46
REMARK SMILES IDX 94 47 36 48 37 49 38 50 88 51 39 52 93 53 87 54 89 55 40 56
REMARK SMILES IDX 92 57 86 58 85 59 41 61 73 62 53 63 72 64 54 65 57 66 71 67
REMARK SMILES IDX 90 68 55 69 56 70 70 72 91 73 58 74 42 75 43 76 51 77 44 78
REMARK SMILES IDX 46 79 52 80 45 81 47 82 48 83 49 84 50 85 74 86 75 87 83 88
REMARK SMILES IDX 76 89 78 90 84 91 77 92 79 93 80 94 81 95 82 96 59 97 60 98
REMARK SMILES IDX 68 99 61 100 63 101 69 102 62 103 64 104 65 105 66 106
REMARK SMILES IDX 67 107
REMARK H PARENT 23 7 16 17 97 35 30 41 89 60 57 71
REMARK Flexibility Score: inf
ROOT
ATOM      1  C   UNL     1       4.920   7.054  -4.311  1.00  0.00     0.002 C 
ENDROOT
BRANCH   1   2
ATOM      2  C   UNL     1       4.256   7.214  -2.937  1.00  0.00     0.021 C 
BRANCH   2   3
ATOM      3  C   UNL     1       2.741   7.332  -2.875  1.00  0.00     0.116 C 
BRANCH   3   4
ATOM      4  N   UNL     1       2.008   6.341  -3.632  1.00  0.00    -0.352 N 
ATOM      5  C   UNL     1       0.668   6.041  -3.640  1.00  0.00     0.255 C 
ATOM      6  O   UNL     1       0.285   5.223  -4.481  1.00  0.00    -0.269 OA
ATOM      7  H   UNL     1       2.558   5.794  -4.238  1.00  0.00     0.163 HD
BRANCH   5   8
ATOM      8  C   UNL     1      -0.311   6.581  -2.648  1.00  0.00     0.081 A 
ATOM      9  C   UNL     1      -2.023   7.100  -0.470  1.00  0.00     0.044 A 
ATOM     10  C   UNL     1      -2.282   6.064  -1.356  1.00  0.00     0.027 A 
ATOM     11  C   UNL     1      -1.068   8.037  -0.830  1.00  0.00     0.073 A 
ATOM     12  C   UNL     1      -1.401   5.751  -2.384  1.00  0.00     0.020 A 
ATOM     13  C   UNL     1      -0.274   7.804  -1.965  1.00  0.00     0.130 A 
BRANCH   9  14
ATOM     14  N   UNL     1      -2.780   7.222   0.707  1.00  0.00    -0.326 N 
ATOM     15  C   UNL     1      -3.316   6.181   1.443  1.00  0.00     0.226 C 
ATOM     16  O   UNL     1      -4.354   6.337   2.090  1.00  0.00    -0.275 OA
ATOM     17  H   UNL     1      -2.944   8.134   1.040  1.00  0.00     0.169 HD
BRANCH  15  18
ATOM     18  C   UNL     1      -2.488   4.905   1.570  1.00  0.00     0.125 C 
BRANCH  18  19
ATOM     19  C   UNL     1      -3.245   3.592   1.421  1.00  0.00     0.156 C 
ATOM     20  N   UNL     1      -1.700   2.030   0.462  1.00  0.00    -0.240 N 
ATOM     21  C   UNL     1      -2.322   2.453  -0.682  1.00  0.00     0.293 C 
ATOM     22  C   UNL     1      -2.311   2.408   1.652  1.00  0.00     0.248 C 
ATOM     23  O   UNL     1      -2.020   2.235  -1.853  1.00  0.00    -0.261 OA
ATOM     24  S   UNL     1      -3.831   3.263  -0.273  1.00  0.00    -0.050 SA
ATOM     25  O   UNL     1      -2.242   1.817   2.726  1.00  0.00    -0.273 OA
BRANCH  20  26
ATOM     26  C   UNL     1      -0.863   0.889   0.391  1.00  0.00     0.056 A 
ATOM     27  C   UNL     1       2.870   0.104   0.117  1.00  0.00     0.044 C 
ATOM     28  C   UNL     1       1.377  -0.048   0.185  1.00  0.00    -0.049 A 
ATOM     29  C   UNL     1       0.818  -1.325   0.072  1.00  0.00     0.004 A 
ATOM     30  C   UNL     1       0.531   1.059   0.361  1.00  0.00     0.030 A 
ATOM     31  C   UNL     1      -0.564  -1.498   0.106  1.00  0.00     0.006 A 
ATOM     32  C   UNL     1      -1.422  -0.398   0.248  1.00  0.00    -0.027 A 
ATOM     33  C   UNL     1      -2.901  -0.669   0.241  1.00  0.00     0.046 C 
ENDBRANCH  20  26
ENDBRANCH  18  19
ENDBRANCH  15  18
ENDBRANCH   9  14
BRANCH  13  34
ATOM     34  O   UNL     1       0.416   8.893  -2.424  1.00  0.00    -0.507 OA
ATOM     35  H   UNL     1       0.967   8.815  -3.177  1.00  0.00     0.293 HD
ENDBRANCH  13  34
ENDBRANCH   5   8
ENDBRANCH   3   4
ENDBRANCH   2   3
ENDBRANCH   1   2
BRANCH   1  36
ATOM     36  C   UNL     1       4.391   7.799  -5.546  1.00  0.00     0.002 C 
BRANCH  36  37
ATOM     37  C   UNL     1       4.172   9.316  -5.545  1.00  0.00     0.021 C 
BRANCH  37  38
ATOM     38  C   UNL     1       5.290  10.205  -5.023  1.00  0.00     0.116 C 
BRANCH  38  39
ATOM     39  N   UNL     1       6.592   9.998  -5.676  1.00  0.00    -0.352 N 
ATOM     40  C   UNL     1       7.900  10.110  -5.225  1.00  0.00     0.251 C 
ATOM     41  H   UNL     1       6.521   9.726  -6.620  1.00  0.00     0.163 HD
ATOM     42  O   UNL     1       8.816  10.162  -6.043  1.00  0.00    -0.269 OA
BRANCH  40  43
ATOM     43  C   UNL     1       8.218  10.146  -3.781  1.00  0.00     0.039 A 
ATOM     44  C   UNL     1       9.508  10.220  -3.249  1.00  0.00     0.014 A 
ATOM     45  C   UNL     1       7.187   9.902  -2.906  1.00  0.00     0.014 A 
ATOM     46  C   UNL     1       9.688   9.914  -1.890  1.00  0.00     0.010 A 
ATOM     47  C   UNL     1       7.335  10.101  -1.579  1.00  0.00     0.010 A 
ATOM     48  C   UNL     1       8.563   9.762  -1.080  1.00  0.00    -0.014 A 
BRANCH  48  49
ATOM     49  C   UNL     1       8.547   9.400   0.321  1.00  0.00     0.031 A 
ATOM     50  C   UNL     1       8.823  10.535   1.216  1.00  0.00     0.074 A 
ATOM     51  C   UNL     1       7.948   8.277   0.777  1.00  0.00     0.049 A 
ATOM     52  N   UNL     1       9.958  10.843   1.750  1.00  0.00    -0.248 NA
ATOM     53  C   UNL     1       7.796  11.584   1.334  1.00  0.00     0.031 C 
ATOM     54  C   UNL     1       7.188   7.270   0.022  1.00  0.00     0.029 A 
ATOM     55  N   UNL     1       7.780   7.876   2.067  1.00  0.00    -0.354 N 
ATOM     56  C   UNL     1       9.679  11.980   2.497  1.00  0.00     0.074 A 
ATOM     57  C   UNL     1       8.507  12.556   1.904  1.00  0.00     0.031 C 
ATOM     58  C   UNL     1       6.482   6.500   0.885  1.00  0.00     0.029 A 
ATOM     59  C   UNL     1       6.835   6.872   2.244  1.00  0.00     0.049 A 
ATOM     60  H   UNL     1       8.287   8.266   2.815  1.00  0.00     0.167 HD
ATOM     61  C   UNL     1      10.179  12.136   3.754  1.00  0.00     0.034 A 
ATOM     62  C   UNL     1       6.347   6.435   3.433  1.00  0.00     0.034 A 
ATOM     63  C   UNL     1      11.178  11.126   4.037  1.00  0.00     0.049 A 
ATOM     64  C   UNL     1       7.300   6.874   4.482  1.00  0.00     0.074 A 
ATOM     65  C   UNL     1      12.344  10.697   3.434  1.00  0.00     0.029 A 
ATOM     66  N   UNL     1      10.795  10.114   4.886  1.00  0.00    -0.354 N 
ATOM     67  N   UNL     1       8.516   6.418   4.595  1.00  0.00    -0.248 NA
ATOM     68  C   UNL     1       7.036   8.123   5.179  1.00  0.00     0.031 C 
ATOM     69  C   UNL     1      12.366   9.283   3.626  1.00  0.00     0.029 A 
ATOM     70  C   UNL     1      11.248   8.926   4.382  1.00  0.00     0.049 A 
ATOM     71  H   UNL     1      10.280  10.226   5.718  1.00  0.00     0.167 HD
ATOM     72  C   UNL     1       9.267   7.525   4.968  1.00  0.00     0.074 A 
ATOM     73  C   UNL     1       8.290   8.496   5.451  1.00  0.00     0.031 C 
ATOM     74  C   UNL     1      10.565   7.659   4.562  1.00  0.00     0.034 A 
BRANCH  61  75
ATOM     75  C   UNL     1       9.504  12.896   4.885  1.00  0.00     0.023 A 
ATOM     76  C   UNL     1      10.250  13.025   6.078  1.00  0.00     0.012 A 
ATOM     77  C   UNL     1       8.137  13.257   4.956  1.00  0.00     0.148 A 
ATOM     78  C   UNL     1       9.654  13.399   7.287  1.00  0.00     0.002 A 
ATOM     79  C   UNL     1       7.564  13.700   6.143  1.00  0.00     0.091 A 
ATOM     80  F   UNL     1       7.320  13.061   3.922  1.00  0.00    -0.205 F 
ATOM     81  C   UNL     1       8.308  13.738   7.320  1.00  0.00     0.022 A 
BRANCH  79  82
ATOM     82  S   UNL     1       5.833  14.186   6.222  1.00  0.00     0.127 S 
ATOM     83  O   UNL     1       5.242  13.037   6.900  1.00  0.00    -0.237 OA
ATOM     84  O   UNL     1       5.902  15.412   7.017  1.00  0.00    -0.237 OA
ATOM     85  O   UNL     1       5.419  14.396   4.839  1.00  0.00    -0.744 OA
ENDBRANCH  79  82
ENDBRANCH  61  75
BRANCH  62  86
ATOM     86  C   UNL     1       5.033   5.845   3.784  1.00  0.00     0.023 A 
ATOM     87  C   UNL     1       4.896   5.115   4.983  1.00  0.00     0.012 A 
ATOM     88  C   UNL     1       3.858   6.220   3.097  1.00  0.00     0.148 A 
ATOM     89  C   UNL     1       3.633   4.812   5.506  1.00  0.00     0.002 A 
ATOM     90  C   UNL     1       2.603   5.903   3.612  1.00  0.00     0.091 A 
ATOM     91  F   UNL     1       3.968   6.956   1.984  1.00  0.00    -0.205 F 
ATOM     92  C   UNL     1       2.487   5.216   4.827  1.00  0.00     0.022 A 
BRANCH  90  93
ATOM     93  S   UNL     1       1.082   6.365   2.776  1.00  0.00     0.127 S 
ATOM     94  O   UNL     1       0.385   5.082   2.690  1.00  0.00    -0.237 OA
ATOM     95  O   UNL     1       0.487   7.324   3.703  1.00  0.00    -0.237 OA
ATOM     96  O   UNL     1       1.475   6.908   1.482  1.00  0.00    -0.744 OA
ENDBRANCH  90  93
ENDBRANCH  62  86
BRANCH  74  97
ATOM     97  C   UNL     1      11.260   6.441   4.002  1.00  0.00     0.023 A 
ATOM     98  C   UNL     1      10.825   5.794   2.827  1.00  0.00     0.012 A 
ATOM     99  C   UNL     1      12.474   6.038   4.586  1.00  0.00     0.148 A 
ATOM    100  C   UNL     1      11.567   4.753   2.263  1.00  0.00     0.002 A 
ATOM    101  C   UNL     1      13.234   5.036   3.995  1.00  0.00     0.091 A 
ATOM    102  F   UNL     1      12.878   6.662   5.704  1.00  0.00    -0.205 F 
ATOM    103  C   UNL     1      12.780   4.383   2.839  1.00  0.00     0.022 A 
BRANCH 101 104
ATOM    104  S   UNL     1      14.863   4.606   4.615  1.00  0.00     0.127 S 
ATOM    105  O   UNL     1      14.603   3.348   5.310  1.00  0.00    -0.237 OA
ATOM    106  O   UNL     1      15.644   4.476   3.384  1.00  0.00    -0.237 OA
ATOM    107  O   UNL     1      15.273   5.720   5.462  1.00  0.00    -0.744 OA
ENDBRANCH 101 104
ENDBRANCH  74  97
ENDBRANCH  48  49
ENDBRANCH  40  43
ENDBRANCH  38  39
ENDBRANCH  37  38
ENDBRANCH  36  37
ENDBRANCH   1  36
TORSDOF 21
