REMARK SMILES O=C(CNC(=O)N1CC(NCCCCCCNC(=O)c2ccc(-c3c4nc(c(-c5cccc(S(=O)(=O)[O-])c5F)c5ccc([nH]5)c(-c5cccc(S(=O)(=O)[O-])c5F)c5nc(c(-c6cccc(S(=O)(=O)[O-])c6F)c6ccc3[nH]6)C=C5)C=C4)cc2)=[NH+]c2ccccc21)N[C@H](C(=O)[O-])c1ccccc1
REMARK SMILES IDX 13 1 12 2 11 3 10 4 7 5 8 6 89 7 9 8 84 9 88 10 83 11 85 12
REMARK SMILES IDX 87 13 86 16 5 17 4 18 6 20 3 21 2 22 1 23 90 24 91 26 95 27
REMARK SMILES IDX 96 28 100 29 97 30 99 31 98 32 92 33 93 34 94 35 14 36 15 37
REMARK SMILES IDX 16 38 17 39 18 40 19 42 20 43 21 44 82 45 22 46 81 47 23 48
REMARK SMILES IDX 24 49 25 50 75 51 26 52 80 53 74 54 76 55 27 56 79 57 73 58
REMARK SMILES IDX 72 59 28 61 60 62 40 63 59 64 41 65 44 66 58 67 77 68 42 69
REMARK SMILES IDX 43 70 57 72 78 73 45 74 29 75 30 76 38 77 31 78 33 79 39 80
REMARK SMILES IDX 32 81 34 82 35 83 36 84 37 85 61 86 62 87 70 88 63 89 65 90
REMARK SMILES IDX 71 91 64 92 66 93 67 94 68 95 69 96 46 97 47 98 55 99 48 100
REMARK SMILES IDX 50 101 56 102 49 103 51 104 52 105 53 106 54 107
REMARK H PARENT 10 14 83 15 4 19 90 25 17 41 76 60 44 71
REMARK Flexibility Score: inf
ROOT
ATOM      1  C   UNL     1      -0.712  -6.973   1.010  1.00  0.00     0.004 C 
ENDROOT
BRANCH   1   2
ATOM      2  C   UNL     1       0.594  -7.448   0.360  1.00  0.00     0.046 C 
BRANCH   2   3
ATOM      3  C   UNL     1       0.414  -8.340  -0.867  1.00  0.00     0.233 C 
BRANCH   3   4
ATOM      4  N   UNL     1      -0.134  -7.587  -1.969  1.00  0.00    -0.277 N 
ATOM      5  N   UNL     1       2.635  -6.281  -3.985  1.00  0.00    -0.278 N 
ATOM      6  C   UNL     1       1.996  -7.412  -3.334  1.00  0.00     0.255 C 
ATOM      7  C   UNL     1       1.909  -5.761  -5.084  1.00  0.00     0.093 A 
ATOM      8  C   UNL     1       0.521  -7.084  -3.065  1.00  0.00     0.268 C 
ATOM      9  C   UNL     1       0.503  -5.801  -5.004  1.00  0.00     0.148 A 
ATOM     10  C   UNL     1       2.544  -5.186  -6.192  1.00  0.00     0.031 A 
ATOM     11  N   UNL     1      -0.177  -6.355  -3.898  1.00  0.00    -0.241 N 
ATOM     12  C   UNL     1      -0.243  -5.168  -6.000  1.00  0.00     0.054 A 
ATOM     13  C   UNL     1       1.780  -4.582  -7.191  1.00  0.00     0.002 A 
ATOM     14  H   UNL     1      -1.102  -7.411  -1.929  1.00  0.00     0.304 HD
ATOM     15  H   UNL     1      -1.139  -6.198  -3.759  1.00  0.00     0.312 HD
ATOM     16  C   UNL     1       0.390  -4.553  -7.083  1.00  0.00     0.005 A 
BRANCH   5  17
ATOM     17  C   UNL     1       3.840  -5.851  -3.498  1.00  0.00     0.323 C 
ATOM     18  N   UNL     1       4.145  -4.528  -3.488  1.00  0.00    -0.329 N 
ATOM     19  H   UNL     1       5.091  -4.328  -3.302  1.00  0.00     0.165 HD
ATOM     20  O   UNL     1       4.641  -6.621  -2.964  1.00  0.00    -0.248 OA
BRANCH  18  21
ATOM     21  C   UNL     1       3.306  -3.351  -3.706  1.00  0.00     0.218 C 
BRANCH  21  22
ATOM     22  C   UNL     1       2.856  -2.556  -2.482  1.00  0.00     0.240 C 
ATOM     23  O   UNL     1       2.266  -1.486  -2.634  1.00  0.00    -0.273 OA
ATOM     24  N   UNL     1       3.049  -3.167  -1.267  1.00  0.00    -0.342 N 
ATOM     25  H   UNL     1       3.342  -4.106  -1.222  1.00  0.00     0.164 HD
BRANCH  24  26
ATOM     26  C   UNL     1       2.813  -2.398  -0.028  1.00  0.00     0.158 C 
BRANCH  26  27
ATOM     27  C   UNL     1       2.832  -3.254   1.245  1.00  0.00    -0.020 A 
ATOM     28  C   UNL     1       2.991  -4.649   1.245  1.00  0.00     0.006 A 
ATOM     29  C   UNL     1       2.649  -2.626   2.492  1.00  0.00     0.006 A 
ATOM     30  C   UNL     1       3.005  -5.378   2.442  1.00  0.00     0.000 A 
ATOM     31  C   UNL     1       2.671  -3.350   3.688  1.00  0.00     0.000 A 
ATOM     32  C   UNL     1       2.851  -4.728   3.663  1.00  0.00     0.000 A 
ENDBRANCH  26  27
BRANCH  26  33
ATOM     33  C   UNL     1       3.833  -1.192   0.118  1.00  0.00     0.068 C 
ATOM     34  O   UNL     1       3.363  -0.130   0.630  1.00  0.00    -0.548 OA
ATOM     35  O   UNL     1       5.006  -1.418  -0.320  1.00  0.00    -0.548 OA
ENDBRANCH  26  33
ENDBRANCH  24  26
ENDBRANCH  21  22
ENDBRANCH  18  21
ENDBRANCH   5  17
ENDBRANCH   3   4
ENDBRANCH   2   3
ENDBRANCH   1   2
BRANCH   1  36
ATOM     36  C   UNL     1      -1.686  -8.086   1.411  1.00  0.00     0.002 C 
BRANCH  36  37
ATOM     37  C   UNL     1      -1.107  -9.156   2.341  1.00  0.00     0.021 C 
BRANCH  37  38
ATOM     38  C   UNL     1      -0.606  -8.636   3.685  1.00  0.00     0.116 C 
BRANCH  38  39
ATOM     39  N   UNL     1      -1.680  -8.062   4.484  1.00  0.00    -0.352 N 
ATOM     40  C   UNL     1      -2.092  -8.376   5.753  1.00  0.00     0.251 C 
ATOM     41  H   UNL     1      -2.186  -7.339   4.047  1.00  0.00     0.163 HD
ATOM     42  O   UNL     1      -3.156  -7.921   6.180  1.00  0.00    -0.269 OA
BRANCH  40  43
ATOM     43  C   UNL     1      -1.284  -9.272   6.609  1.00  0.00     0.039 A 
ATOM     44  C   UNL     1      -1.938 -10.228   7.390  1.00  0.00     0.014 A 
ATOM     45  C   UNL     1       0.109  -9.159   6.668  1.00  0.00     0.014 A 
ATOM     46  C   UNL     1      -1.194 -11.102   8.187  1.00  0.00     0.010 A 
ATOM     47  C   UNL     1       0.852 -10.082   7.402  1.00  0.00     0.010 A 
ATOM     48  C   UNL     1       0.210 -11.058   8.177  1.00  0.00    -0.014 A 
BRANCH  48  49
ATOM     49  C   UNL     1       1.008 -12.040   8.957  1.00  0.00     0.031 A 
ATOM     50  C   UNL     1       1.919 -11.588  10.068  1.00  0.00     0.074 A 
ATOM     51  C   UNL     1       0.963 -13.345   8.619  1.00  0.00     0.049 A 
ATOM     52  N   UNL     1       2.679 -12.307  10.854  1.00  0.00    -0.248 NA
ATOM     53  C   UNL     1       2.009 -10.139  10.312  1.00  0.00     0.031 C 
ATOM     54  C   UNL     1       0.194 -13.902   7.503  1.00  0.00     0.029 A 
ATOM     55  N   UNL     1       1.592 -14.436   9.165  1.00  0.00    -0.354 N 
ATOM     56  C   UNL     1       3.361 -11.402  11.659  1.00  0.00     0.074 A 
ATOM     57  C   UNL     1       2.950 -10.079  11.244  1.00  0.00     0.031 C 
ATOM     58  C   UNL     1       0.389 -15.229   7.453  1.00  0.00     0.029 A 
ATOM     59  C   UNL     1       1.316 -15.615   8.512  1.00  0.00     0.049 A 
ATOM     60  H   UNL     1       2.185 -14.381   9.948  1.00  0.00     0.167 HD
ATOM     61  C   UNL     1       4.230 -11.648  12.670  1.00  0.00     0.034 A 
ATOM     62  C   UNL     1       1.760 -16.867   8.737  1.00  0.00     0.034 A 
ATOM     63  C   UNL     1       4.611 -12.967  13.102  1.00  0.00     0.049 A 
ATOM     64  C   UNL     1       2.681 -17.120   9.899  1.00  0.00     0.074 A 
ATOM     65  C   UNL     1       5.404 -13.324  14.179  1.00  0.00     0.029 A 
ATOM     66  N   UNL     1       4.244 -14.146  12.471  1.00  0.00    -0.354 N 
ATOM     67  N   UNL     1       3.169 -16.267  10.767  1.00  0.00    -0.248 NA
ATOM     68  C   UNL     1       3.080 -18.514  10.138  1.00  0.00     0.031 C 
ATOM     69  C   UNL     1       5.544 -14.716  14.179  1.00  0.00     0.029 A 
ATOM     70  C   UNL     1       4.806 -15.230  13.125  1.00  0.00     0.049 A 
ATOM     71  H   UNL     1       3.668 -14.204  11.675  1.00  0.00     0.167 HD
ATOM     72  C   UNL     1       3.905 -17.023  11.672  1.00  0.00     0.074 A 
ATOM     73  C   UNL     1       3.774 -18.406  11.262  1.00  0.00     0.031 C 
ATOM     74  C   UNL     1       4.636 -16.607  12.736  1.00  0.00     0.034 A 
BRANCH  61  75
ATOM     75  C   UNL     1       4.796 -10.463  13.412  1.00  0.00     0.023 A 
ATOM     76  C   UNL     1       3.956  -9.693  14.243  1.00  0.00     0.012 A 
ATOM     77  C   UNL     1       6.168 -10.149  13.340  1.00  0.00     0.148 A 
ATOM     78  C   UNL     1       4.461  -8.605  14.955  1.00  0.00     0.002 A 
ATOM     79  C   UNL     1       6.674  -9.095  14.092  1.00  0.00     0.091 A 
ATOM     80  F   UNL     1       6.950 -10.880  12.534  1.00  0.00    -0.205 F 
ATOM     81  C   UNL     1       5.820  -8.313  14.887  1.00  0.00     0.022 A 
BRANCH  79  82
ATOM     82  S   UNL     1       8.425  -8.700  14.155  1.00  0.00     0.127 S 
ATOM     83  O   UNL     1       8.469  -7.429  13.434  1.00  0.00    -0.237 OA
ATOM     84  O   UNL     1       8.663  -8.591  15.595  1.00  0.00    -0.237 OA
ATOM     85  O   UNL     1       9.112  -9.811  13.511  1.00  0.00    -0.744 OA
ENDBRANCH  79  82
ENDBRANCH  61  75
BRANCH  62  86
ATOM     86  C   UNL     1       1.281 -17.989   7.880  1.00  0.00     0.023 A 
ATOM     87  C   UNL     1       0.405 -18.950   8.421  1.00  0.00     0.012 A 
ATOM     88  C   UNL     1       1.663 -18.091   6.528  1.00  0.00     0.148 A 
ATOM     89  C   UNL     1      -0.056 -20.012   7.641  1.00  0.00     0.002 A 
ATOM     90  C   UNL     1       1.155 -19.118   5.742  1.00  0.00     0.091 A 
ATOM     91  F   UNL     1       2.504 -17.172   6.035  1.00  0.00    -0.205 F 
ATOM     92  C   UNL     1       0.310 -20.090   6.301  1.00  0.00     0.022 A 
BRANCH  90  93
ATOM     93  S   UNL     1       1.466 -19.226   3.976  1.00  0.00     0.127 S 
ATOM     94  O   UNL     1       2.315 -20.414   3.895  1.00  0.00    -0.237 OA
ATOM     95  O   UNL     1       0.113 -19.402   3.443  1.00  0.00    -0.237 OA
ATOM     96  O   UNL     1       2.099 -17.970   3.608  1.00  0.00    -0.744 OA
ENDBRANCH  90  93
ENDBRANCH  62  86
BRANCH  74  97
ATOM     97  C   UNL     1       5.332 -17.663  13.558  1.00  0.00     0.023 A 
ATOM     98  C   UNL     1       6.436 -18.357  13.023  1.00  0.00     0.012 A 
ATOM     99  C   UNL     1       4.923 -17.933  14.880  1.00  0.00     0.148 A 
ATOM    100  C   UNL     1       7.092 -19.333  13.772  1.00  0.00     0.002 A 
ATOM    101  C   UNL     1       5.615 -18.870  15.639  1.00  0.00     0.091 A 
ATOM    102  F   UNL     1       3.860 -17.278  15.369  1.00  0.00    -0.205 F 
ATOM    103  C   UNL     1       6.690 -19.582  15.082  1.00  0.00     0.022 A 
BRANCH 101 104
ATOM    104  S   UNL     1       5.228 -19.186  17.364  1.00  0.00     0.127 S 
ATOM    105  O   UNL     1       4.569 -20.489  17.289  1.00  0.00    -0.237 OA
ATOM    106  O   UNL     1       6.554 -19.210  17.983  1.00  0.00    -0.237 OA
ATOM    107  O   UNL     1       4.382 -18.081  17.795  1.00  0.00    -0.744 OA
ENDBRANCH 101 104
ENDBRANCH  74  97
ENDBRANCH  48  49
ENDBRANCH  40  43
ENDBRANCH  38  39
ENDBRANCH  37  38
ENDBRANCH  36  37
ENDBRANCH   1  36
TORSDOF 21
