REMARK SMILES CCn1c(N2CCC(C(=O)NCCCCCCNC(=O)c3ccc(-c4c5nc(c(-c6cccc(S(=O)(=O)[O-])c6F)c6ccc([nH]6)c(-c6cccc(S(=O)(=O)[O-])c6F)c6nc(c(-c7cccc(S(=O)(=O)[O-])c7F)c7ccc4[nH]7)C=C6)C=C5)cc3)CC2)nc2cc(C)ccc21
REMARK SMILES IDX 15 1 14 2 13 3 12 4 11 5 9 6 10 7 8 9 5 10 6 11 85 12 7 13
REMARK SMILES IDX 84 14 4 15 3 16 93 17 86 18 87 19 92 20 88 21 91 22 89 23
REMARK SMILES IDX 90 24 2 25 1 26 16 27 17 28 18 29 19 30 20 32 21 33 22 34
REMARK SMILES IDX 83 35 23 36 82 37 24 38 25 39 26 40 76 41 27 42 81 43 75 44
REMARK SMILES IDX 77 45 28 46 80 47 74 48 73 49 29 51 61 52 41 53 60 54 42 55
REMARK SMILES IDX 45 56 59 57 78 58 43 59 44 60 58 62 79 63 46 64 30 65 31 66
REMARK SMILES IDX 39 67 32 68 34 69 40 70 33 71 35 72 36 73 37 74 38 75 62 76
REMARK SMILES IDX 63 77 71 78 64 79 66 80 72 81 65 82 67 83 68 84 69 85 70 86
REMARK SMILES IDX 47 87 48 88 56 89 49 90 51 91 57 92 50 93 52 94 53 95 54 96
REMARK SMILES IDX 55 97
REMARK H PARENT 11 8 18 31 77 50 45 61
REMARK Flexibility Score: inf
ROOT
ATOM      1  C   UNL     1       1.033   9.786   4.538  1.00  0.00     0.002 C 
ENDROOT
BRANCH   1   2
ATOM      2  C   UNL     1      -0.273   9.653   3.748  1.00  0.00     0.002 C 
BRANCH   2   3
ATOM      3  C   UNL     1      -0.429   8.345   2.966  1.00  0.00     0.021 C 
BRANCH   3   4
ATOM      4  C   UNL     1      -0.384   7.092   3.837  1.00  0.00     0.116 C 
BRANCH   4   5
ATOM      5  N   UNL     1      -1.606   6.947   4.617  1.00  0.00    -0.356 N 
ATOM      6  C   UNL     1      -2.565   5.982   4.588  1.00  0.00     0.223 C 
ATOM      7  O   UNL     1      -3.546   6.109   5.325  1.00  0.00    -0.275 OA
ATOM      8  H   UNL     1      -1.763   7.665   5.273  1.00  0.00     0.163 HD
BRANCH   6   9
ATOM      9  C   UNL     1      -2.436   4.763   3.687  1.00  0.00     0.082 C 
ATOM     10  N   UNL     1      -0.846   3.386   1.762  1.00  0.00    -0.342 N 
ATOM     11  C   UNL     1      -2.053   4.029   1.275  1.00  0.00     0.120 C 
ATOM     12  C   UNL     1      -0.878   2.830   3.104  1.00  0.00     0.120 C 
ATOM     13  C   UNL     1      -2.488   5.151   2.203  1.00  0.00     0.035 C 
ATOM     14  C   UNL     1      -1.238   3.903   4.118  1.00  0.00     0.035 C 
BRANCH  10  15
ATOM     15  C   UNL     1       0.294   3.444   1.029  1.00  0.00     0.206 A 
ATOM     16  N   UNL     1       0.999   2.301   0.673  1.00  0.00    -0.310 N 
ATOM     17  C   UNL     1       2.100   2.694  -0.058  1.00  0.00     0.070 A 
ATOM     18  N   UNL     1       0.827   4.512   0.481  1.00  0.00    -0.213 NA
ATOM     19  C   UNL     1       1.964   4.078  -0.158  1.00  0.00     0.091 A 
ATOM     20  C   UNL     1       3.177   2.016  -0.645  1.00  0.00     0.029 A 
ATOM     21  C   UNL     1       2.933   4.821  -0.860  1.00  0.00     0.034 A 
ATOM     22  C   UNL     1       4.121   2.768  -1.354  1.00  0.00     0.006 A 
ATOM     23  C   UNL     1       4.015   4.157  -1.467  1.00  0.00    -0.049 A 
ATOM     24  C   UNL     1       5.061   4.940  -2.208  1.00  0.00     0.044 C 
BRANCH  16  25
ATOM     25  C   UNL     1       0.572   0.952   0.994  1.00  0.00     0.122 C 
ATOM     26  C   UNL     1       0.858  -0.145  -0.018  1.00  0.00     0.028 C 
ENDBRANCH  16  25
ENDBRANCH  10  15
ENDBRANCH   6   9
ENDBRANCH   4   5
ENDBRANCH   3   4
ENDBRANCH   2   3
ENDBRANCH   1   2
BRANCH   1  27
ATOM     27  C   UNL     1       2.321   9.577   3.730  1.00  0.00     0.021 C 
BRANCH  27  28
ATOM     28  C   UNL     1       2.471  10.502   2.523  1.00  0.00     0.116 C 
BRANCH  28  29
ATOM     29  N   UNL     1       2.436  11.910   2.858  1.00  0.00    -0.352 N 
ATOM     30  C   UNL     1       3.358  12.832   3.267  1.00  0.00     0.251 C 
ATOM     31  H   UNL     1       1.533  12.295   2.770  1.00  0.00     0.163 HD
ATOM     32  O   UNL     1       2.957  13.998   3.319  1.00  0.00    -0.269 OA
BRANCH  30  33
ATOM     33  C   UNL     1       4.747  12.528   3.713  1.00  0.00     0.039 A 
ATOM     34  C   UNL     1       5.385  11.292   3.620  1.00  0.00     0.014 A 
ATOM     35  C   UNL     1       5.442  13.593   4.322  1.00  0.00     0.014 A 
ATOM     36  C   UNL     1       6.634  11.101   4.207  1.00  0.00     0.010 A 
ATOM     37  C   UNL     1       6.697  13.414   4.896  1.00  0.00     0.010 A 
ATOM     38  C   UNL     1       7.278  12.153   4.873  1.00  0.00    -0.014 A 
BRANCH  38  39
ATOM     39  C   UNL     1       8.652  11.939   5.331  1.00  0.00     0.031 A 
ATOM     40  C   UNL     1       9.570  11.599   4.208  1.00  0.00     0.074 A 
ATOM     41  C   UNL     1       9.093  12.105   6.598  1.00  0.00     0.049 A 
ATOM     42  N   UNL     1      10.104  10.449   3.958  1.00  0.00    -0.248 NA
ATOM     43  C   UNL     1       9.762  12.589   3.136  1.00  0.00     0.031 C 
ATOM     44  C   UNL     1       8.360  12.684   7.729  1.00  0.00     0.029 A 
ATOM     45  N   UNL     1      10.333  11.877   7.132  1.00  0.00    -0.354 N 
ATOM     46  C   UNL     1      10.915  10.652   2.842  1.00  0.00     0.074 A 
ATOM     47  C   UNL     1      10.515  11.908   2.269  1.00  0.00     0.031 C 
ATOM     48  C   UNL     1       9.225  12.971   8.731  1.00  0.00     0.029 A 
ATOM     49  C   UNL     1      10.541  12.463   8.384  1.00  0.00     0.049 A 
ATOM     50  H   UNL     1      11.022  11.344   6.672  1.00  0.00     0.167 HD
ATOM     51  C   UNL     1      12.044   9.914   2.663  1.00  0.00     0.034 A 
ATOM     52  C   UNL     1      11.715  12.537   9.065  1.00  0.00     0.034 A 
ATOM     53  C   UNL     1      12.057   8.770   3.530  1.00  0.00     0.049 A 
ATOM     54  C   UNL     1      12.561  11.440   8.556  1.00  0.00     0.074 A 
ATOM     55  C   UNL     1      11.422   7.551   3.598  1.00  0.00     0.029 A 
ATOM     56  N   UNL     1      12.575   9.043   4.767  1.00  0.00    -0.354 N 
ATOM     57  N   UNL     1      12.303  10.182   8.771  1.00  0.00    -0.248 NA
ATOM     58  C   UNL     1      13.582  11.720   7.554  1.00  0.00     0.031 C 
ATOM     59  C   UNL     1      11.415   7.190   4.977  1.00  0.00     0.029 A 
ATOM     60  C   UNL     1      12.086   8.175   5.700  1.00  0.00     0.049 A 
ATOM     61  H   UNL     1      13.214   9.767   4.958  1.00  0.00     0.167 HD
ATOM     62  C   UNL     1      12.778   9.560   7.636  1.00  0.00     0.074 A 
ATOM     63  C   UNL     1      13.715  10.498   7.033  1.00  0.00     0.031 C 
ATOM     64  C   UNL     1      12.114   8.500   7.105  1.00  0.00     0.034 A 
BRANCH  51  65
ATOM     65  C   UNL     1      13.345  10.451   2.103  1.00  0.00     0.023 A 
ATOM     66  C   UNL     1      14.378   9.523   1.840  1.00  0.00     0.012 A 
ATOM     67  C   UNL     1      13.704  11.819   2.120  1.00  0.00     0.148 A 
ATOM     68  C   UNL     1      15.698   9.935   1.619  1.00  0.00     0.002 A 
ATOM     69  C   UNL     1      15.001  12.228   1.832  1.00  0.00     0.091 A 
ATOM     70  F   UNL     1      12.829  12.729   2.555  1.00  0.00    -0.205 F 
ATOM     71  C   UNL     1      16.008  11.289   1.602  1.00  0.00     0.022 A 
BRANCH  69  72
ATOM     72  S   UNL     1      15.458  13.966   1.790  1.00  0.00     0.127 S 
ATOM     73  O   UNL     1      16.304  14.077   2.970  1.00  0.00    -0.237 OA
ATOM     74  O   UNL     1      16.155  14.057   0.508  1.00  0.00    -0.237 OA
ATOM     75  O   UNL     1      14.196  14.703   1.836  1.00  0.00    -0.744 OA
ENDBRANCH  69  72
ENDBRANCH  51  65
BRANCH  52  76
ATOM     76  C   UNL     1      12.288  13.497  10.049  1.00  0.00     0.023 A 
ATOM     77  C   UNL     1      13.444  13.120  10.776  1.00  0.00     0.012 A 
ATOM     78  C   UNL     1      11.946  14.864  10.023  1.00  0.00     0.148 A 
ATOM     79  C   UNL     1      14.285  14.073  11.363  1.00  0.00     0.002 A 
ATOM     80  C   UNL     1      12.786  15.810  10.614  1.00  0.00     0.091 A 
ATOM     81  F   UNL     1      10.860  15.243   9.337  1.00  0.00    -0.205 F 
ATOM     82  C   UNL     1      13.967  15.421  11.262  1.00  0.00     0.022 A 
BRANCH  80  83
ATOM     83  S   UNL     1      12.459  17.576  10.513  1.00  0.00     0.127 S 
ATOM     84  O   UNL     1      12.752  18.021  11.877  1.00  0.00    -0.237 OA
ATOM     85  O   UNL     1      13.432  18.005   9.510  1.00  0.00    -0.237 OA
ATOM     86  O   UNL     1      11.060  17.694  10.133  1.00  0.00    -0.744 OA
ENDBRANCH  80  83
ENDBRANCH  52  76
BRANCH  64  87
ATOM     87  C   UNL     1      11.202   7.723   8.000  1.00  0.00     0.023 A 
ATOM     88  C   UNL     1       9.921   8.178   8.370  1.00  0.00     0.012 A 
ATOM     89  C   UNL     1      11.595   6.415   8.314  1.00  0.00     0.148 A 
ATOM     90  C   UNL     1       9.036   7.318   9.027  1.00  0.00     0.002 A 
ATOM     91  C   UNL     1      10.699   5.553   8.923  1.00  0.00     0.091 A 
ATOM     92  F   UNL     1      12.825   6.024   7.949  1.00  0.00    -0.205 F 
ATOM     93  C   UNL     1       9.418   6.000   9.284  1.00  0.00     0.022 A 
BRANCH  91  94
ATOM     94  S   UNL     1      11.082   3.819   9.164  1.00  0.00     0.127 S 
ATOM     95  O   UNL     1      11.029   3.693  10.619  1.00  0.00    -0.237 OA
ATOM     96  O   UNL     1       9.986   3.163   8.450  1.00  0.00    -0.237 OA
ATOM     97  O   UNL     1      12.398   3.605   8.574  1.00  0.00    -0.744 OA
ENDBRANCH  91  94
ENDBRANCH  64  87
ENDBRANCH  38  39
ENDBRANCH  30  33
ENDBRANCH  28  29
ENDBRANCH  27  28
ENDBRANCH   1  27
TORSDOF 18
