REMARK SMILES C[NH2+][C@@](C)(CCCC[N@H+]1C[C@H]2CCC[N@H+]2C[C@@H]1C)C(=O)NCCCCCCNC(=O)c1ccc(-c2c3nc(c(-c4cccc(S(=O)(=O)[O-])c4F)c4ccc([nH]4)c(-c4cccc(S(=O)(=O)[O-])c4F)c4nc(c(-c5cccc(S(=O)(=O)[O-])c5F)c5ccc2[nH]5)C=C4)C=C3)cc1
REMARK SMILES IDX 23 1 22 2 21 3 19 4 20 5 3 7 4 8 2 9 1 10 5 13 6 14 7 15
REMARK SMILES IDX 8 16 9 17 10 18 17 19 11 21 16 22 18 23 12 24 15 25 13 26
REMARK SMILES IDX 14 27 24 29 25 30 26 31 27 32 28 33 29 34 30 36 31 37 32 38
REMARK SMILES IDX 93 39 33 40 92 41 34 42 35 43 36 44 86 45 37 46 91 47 85 48
REMARK SMILES IDX 87 49 38 50 90 51 84 52 83 53 39 55 71 56 51 57 70 58 52 59
REMARK SMILES IDX 55 60 69 61 88 62 53 63 54 64 68 66 89 67 56 68 40 69 41 70
REMARK SMILES IDX 49 71 42 72 44 73 50 74 43 75 45 76 46 77 47 78 48 79 72 80
REMARK SMILES IDX 73 81 81 82 74 83 76 84 82 85 75 86 77 87 78 88 79 89 80 90
REMARK SMILES IDX 57 91 58 92 66 93 59 94 61 95 67 96 60 97 62 98 63 99 64 100
REMARK SMILES IDX 65 101
REMARK H PARENT 21 6 2 11 2 12 9 20 15 28 28 35 87 54 55 65
REMARK Flexibility Score: inf
ROOT
ATOM      1  C   UNL     1      -4.988  -1.462  -0.412  1.00  0.00     0.021 C 
ENDROOT
BRANCH   1   2
ATOM      2  C   UNL     1      -3.982  -0.318  -0.345  1.00  0.00     0.116 C 
BRANCH   2   3
ATOM      3  N   UNL     1      -2.887  -0.588   0.571  1.00  0.00    -0.351 N 
ATOM      4  C   UNL     1      -1.554  -0.823   0.424  1.00  0.00     0.281 C 
ATOM      5  O   UNL     1      -0.967  -1.053   1.490  1.00  0.00    -0.268 OA
ATOM      6  H   UNL     1      -3.174  -0.604   1.513  1.00  0.00     0.163 HD
BRANCH   4   7
ATOM      7  C   UNL     1      -0.819  -0.819  -0.967  1.00  0.00     0.172 C 
ATOM      8  C   UNL     1      -1.090   0.499  -1.728  1.00  0.00     0.090 C 
BRANCH   7   9
ATOM      9  N   UNL     1       0.668  -0.941  -0.800  1.00  0.00    -0.336 N 
ATOM     10  C   UNL     1       1.319   0.134  -0.061  1.00  0.00     0.331 C 
ATOM     11  H   UNL     1       0.856  -1.815  -0.309  1.00  0.00     0.346 HD
ATOM     12  H   UNL     1       1.054  -0.899  -1.743  1.00  0.00     0.346 HD
ENDBRANCH   7   9
BRANCH   7  13
ATOM     13  C   UNL     1      -1.276  -2.026  -1.843  1.00  0.00     0.079 C 
BRANCH  13  14
ATOM     14  C   UNL     1      -0.706  -3.427  -1.521  1.00  0.00     0.013 C 
BRANCH  14  15
ATOM     15  C   UNL     1      -1.068  -4.057  -0.172  1.00  0.00     0.062 C 
BRANCH  15  16
ATOM     16  C   UNL     1      -2.563  -4.344   0.029  1.00  0.00     0.262 C 
BRANCH  16  17
ATOM     17  N   UNL     1      -3.131  -5.291  -0.947  1.00  0.00    -0.323 N 
ATOM     18  C   UNL     1      -2.703  -6.665  -0.635  1.00  0.00     0.328 C 
ATOM     19  C   UNL     1      -4.617  -5.201  -1.040  1.00  0.00     0.236 C 
ATOM     20  H   UNL     1      -2.769  -5.031  -1.864  1.00  0.00     0.348 HD
ATOM     21  C   UNL     1      -3.340  -7.709  -1.573  1.00  0.00     0.240 C 
ATOM     22  C   UNL     1      -5.390  -6.553  -0.918  1.00  0.00     0.328 C 
ATOM     23  C   UNL     1      -4.983  -4.521  -2.368  1.00  0.00     0.081 C 
ATOM     24  C   UNL     1      -3.039  -9.133  -1.114  1.00  0.00     0.077 C 
ATOM     25  N   UNL     1      -4.808  -7.636  -1.716  1.00  0.00    -0.323 N 
ATOM     26  C   UNL     1      -4.230  -9.919  -1.618  1.00  0.00     0.068 C 
ATOM     27  C   UNL     1      -5.379  -8.948  -1.408  1.00  0.00     0.263 C 
ATOM     28  H   UNL     1      -5.042  -7.402  -2.681  1.00  0.00     0.348 HD
ENDBRANCH  16  17
ENDBRANCH  15  16
ENDBRANCH  14  15
ENDBRANCH  13  14
ENDBRANCH   7  13
ENDBRANCH   4   7
ENDBRANCH   2   3
ENDBRANCH   1   2
BRANCH   1  29
ATOM     29  C   UNL     1      -5.606  -1.872   0.929  1.00  0.00     0.002 C 
BRANCH  29  30
ATOM     30  C   UNL     1      -6.685  -0.915   1.434  1.00  0.00     0.002 C 
BRANCH  30  31
ATOM     31  C   UNL     1      -7.832  -0.675   0.448  1.00  0.00     0.021 C 
BRANCH  31  32
ATOM     32  C   UNL     1      -8.492  -1.946  -0.083  1.00  0.00     0.116 C 
BRANCH  32  33
ATOM     33  N   UNL     1      -9.249  -2.630   0.955  1.00  0.00    -0.352 N 
ATOM     34  C   UNL     1     -10.598  -2.878   0.990  1.00  0.00     0.251 C 
ATOM     35  H   UNL     1      -8.730  -2.955   1.726  1.00  0.00     0.163 HD
ATOM     36  O   UNL     1     -11.140  -3.246   2.031  1.00  0.00    -0.269 OA
BRANCH  34  37
ATOM     37  C   UNL     1     -11.395  -2.684  -0.238  1.00  0.00     0.039 A 
ATOM     38  C   UNL     1     -12.549  -1.901  -0.190  1.00  0.00     0.014 A 
ATOM     39  C   UNL     1     -10.973  -3.252  -1.445  1.00  0.00     0.014 A 
ATOM     40  C   UNL     1     -13.255  -1.643  -1.367  1.00  0.00     0.010 A 
ATOM     41  C   UNL     1     -11.638  -2.937  -2.626  1.00  0.00     0.010 A 
ATOM     42  C   UNL     1     -12.790  -2.134  -2.599  1.00  0.00    -0.014 A 
BRANCH  42  43
ATOM     43  C   UNL     1     -13.488  -1.812  -3.870  1.00  0.00     0.031 A 
ATOM     44  C   UNL     1     -14.106  -2.908  -4.696  1.00  0.00     0.074 A 
ATOM     45  C   UNL     1     -13.495  -0.542  -4.324  1.00  0.00     0.049 A 
ATOM     46  N   UNL     1     -14.710  -2.828  -5.852  1.00  0.00    -0.248 NA
ATOM     47  C   UNL     1     -14.010  -4.278  -4.164  1.00  0.00     0.031 C 
ATOM     48  C   UNL     1     -12.866   0.599  -3.655  1.00  0.00     0.029 A 
ATOM     49  N   UNL     1     -14.027  -0.002  -5.469  1.00  0.00    -0.354 N 
ATOM     50  C   UNL     1     -15.037  -4.133  -6.202  1.00  0.00     0.074 A 
ATOM     51  C   UNL     1     -14.534  -4.990  -5.152  1.00  0.00     0.031 C 
ATOM     52  C   UNL     1     -13.050   1.701  -4.399  1.00  0.00     0.029 A 
ATOM     53  C   UNL     1     -13.779   1.344  -5.611  1.00  0.00     0.049 A 
ATOM     54  H   UNL     1     -14.537  -0.528  -6.126  1.00  0.00     0.167 HD
ATOM     55  C   UNL     1     -15.719  -4.576  -7.285  1.00  0.00     0.034 A 
ATOM     56  C   UNL     1     -14.093   2.192  -6.610  1.00  0.00     0.034 A 
ATOM     57  C   UNL     1     -16.248  -3.718  -8.310  1.00  0.00     0.049 A 
ATOM     58  C   UNL     1     -14.872   1.678  -7.791  1.00  0.00     0.074 A 
ATOM     59  C   UNL     1     -17.028  -4.062  -9.400  1.00  0.00     0.029 A 
ATOM     60  N   UNL     1     -16.043  -2.349  -8.382  1.00  0.00    -0.354 N 
ATOM     61  N   UNL     1     -15.312   0.465  -8.023  1.00  0.00    -0.248 NA
ATOM     62  C   UNL     1     -15.228   2.655  -8.830  1.00  0.00     0.031 C 
ATOM     63  C   UNL     1     -17.268  -2.905 -10.149  1.00  0.00     0.029 A 
ATOM     64  C   UNL     1     -16.668  -1.835  -9.505  1.00  0.00     0.049 A 
ATOM     65  H   UNL     1     -15.529  -1.821  -7.730  1.00  0.00     0.167 HD
ATOM     66  C   UNL     1     -16.026   0.540  -9.214  1.00  0.00     0.074 A 
ATOM     67  C   UNL     1     -15.977   1.922  -9.644  1.00  0.00     0.031 C 
ATOM     68  C   UNL     1     -16.654  -0.449  -9.897  1.00  0.00     0.034 A 
BRANCH  55  69
ATOM     69  C   UNL     1     -15.972  -6.058  -7.396  1.00  0.00     0.023 A 
ATOM     70  C   UNL     1     -16.884  -6.677  -6.516  1.00  0.00     0.012 A 
ATOM     71  C   UNL     1     -15.358  -6.825  -8.405  1.00  0.00     0.148 A 
ATOM     72  C   UNL     1     -17.153  -8.041  -6.614  1.00  0.00     0.002 A 
ATOM     73  C   UNL     1     -15.668  -8.175  -8.527  1.00  0.00     0.091 A 
ATOM     74  F   UNL     1     -14.480  -6.225  -9.220  1.00  0.00    -0.205 F 
ATOM     75  C   UNL     1     -16.554  -8.787  -7.625  1.00  0.00     0.022 A 
BRANCH  73  76
ATOM     76  S   UNL     1     -15.014  -9.205  -9.845  1.00  0.00     0.127 S 
ATOM     77  O   UNL     1     -14.107 -10.085  -9.109  1.00  0.00    -0.237 OA
ATOM     78  O   UNL     1     -16.221  -9.859 -10.351  1.00  0.00    -0.237 OA
ATOM     79  O   UNL     1     -14.375  -8.297 -10.787  1.00  0.00    -0.744 OA
ENDBRANCH  73  76
ENDBRANCH  55  69
BRANCH  56  80
ATOM     80  C   UNL     1     -13.716   3.631  -6.512  1.00  0.00     0.023 A 
ATOM     81  C   UNL     1     -14.723   4.601  -6.333  1.00  0.00     0.012 A 
ATOM     82  C   UNL     1     -12.370   4.042  -6.570  1.00  0.00     0.148 A 
ATOM     83  C   UNL     1     -14.398   5.956  -6.249  1.00  0.00     0.002 A 
ATOM     84  C   UNL     1     -12.050   5.387  -6.428  1.00  0.00     0.091 A 
ATOM     85  F   UNL     1     -11.429   3.105  -6.751  1.00  0.00    -0.205 F 
ATOM     86  C   UNL     1     -13.063   6.348  -6.287  1.00  0.00     0.022 A 
BRANCH  84  87
ATOM     87  S   UNL     1     -10.352   5.967  -6.330  1.00  0.00     0.127 S 
ATOM     88  O   UNL     1     -10.208   6.686  -7.592  1.00  0.00    -0.237 OA
ATOM     89  O   UNL     1     -10.393   6.815  -5.137  1.00  0.00    -0.237 OA
ATOM     90  O   UNL     1      -9.534   4.770  -6.186  1.00  0.00    -0.744 OA
ENDBRANCH  84  87
ENDBRANCH  56  80
BRANCH  68  91
ATOM     91  C   UNL     1     -17.378  -0.076 -11.165  1.00  0.00     0.023 A 
ATOM     92  C   UNL     1     -16.645   0.257 -12.321  1.00  0.00     0.012 A 
ATOM     93  C   UNL     1     -18.784  -0.136 -11.231  1.00  0.00     0.148 A 
ATOM     94  C   UNL     1     -17.302   0.555 -13.515  1.00  0.00     0.002 A 
ATOM     95  C   UNL     1     -19.429   0.112 -12.436  1.00  0.00     0.091 A 
ATOM     96  F   UNL     1     -19.464  -0.438 -10.115  1.00  0.00    -0.205 F 
ATOM     97  C   UNL     1     -18.691   0.470 -13.576  1.00  0.00     0.022 A 
BRANCH  95  98
ATOM     98  S   UNL     1     -21.205  -0.069 -12.636  1.00  0.00     0.127 S 
ATOM     99  O   UNL     1     -21.629   1.321 -12.799  1.00  0.00    -0.237 OA
ATOM    100  O   UNL     1     -21.299  -0.882 -13.848  1.00  0.00    -0.237 OA
ATOM    101  O   UNL     1     -21.682  -0.727 -11.427  1.00  0.00    -0.744 OA
ENDBRANCH  95  98
ENDBRANCH  68  91
ENDBRANCH  42  43
ENDBRANCH  34  37
ENDBRANCH  32  33
ENDBRANCH  31  32
ENDBRANCH  30  31
ENDBRANCH  29  30
ENDBRANCH   1  29
TORSDOF 22
