REMARK SMILES Cc1nn(C)c(=O)c(C(=O)N2CCCC[C@H]2C(=O)NCCCCCCNC(=O)c2ccc(-c3c4nc(c(-c5cccc(S(=O)(=O)[O-])c5F)c5ccc([nH]5)c(-c5cccc(S(=O)(=O)[O-])c5F)c5nc(c(-c6cccc(S(=O)(=O)[O-])c6F)c6ccc3[nH]6)C=C5)C=C4)cc2)c1C
REMARK SMILES IDX 23 1 22 2 21 3 20 4 19 5 17 6 18 7 16 9 11 10 12 11 13 12
REMARK SMILES IDX 15 13 14 14 9 15 10 16 8 17 1 18 2 19 3 20 92 21 4 22 93 23
REMARK SMILES IDX 5 24 6 25 7 26 24 27 25 28 26 29 27 30 28 32 29 33 30 34
REMARK SMILES IDX 91 35 31 36 90 37 32 38 33 39 34 40 84 41 35 42 89 43 83 44
REMARK SMILES IDX 85 45 36 46 88 47 82 48 81 49 37 51 69 52 49 53 68 54 50 55
REMARK SMILES IDX 53 56 67 57 86 58 51 59 52 60 66 62 87 63 54 64 38 65 39 66
REMARK SMILES IDX 47 67 40 68 42 69 48 70 41 71 43 72 44 73 45 74 46 75 70 76
REMARK SMILES IDX 71 77 79 78 72 79 74 80 80 81 73 82 75 83 76 84 77 85 78 86
REMARK SMILES IDX 55 87 56 88 64 89 57 90 59 91 65 92 58 93 60 94 61 95 62 96
REMARK SMILES IDX 63 97
REMARK H PARENT 19 8 26 31 85 50 53 61
REMARK Flexibility Score: inf
ROOT
ATOM      1  C   UNL     1       5.099   4.798   2.502  1.00  0.00     0.002 C 
ENDROOT
BRANCH   1   2
ATOM      2  C   UNL     1       4.392   3.714   1.688  1.00  0.00     0.002 C 
BRANCH   2   3
ATOM      3  C   UNL     1       3.168   3.102   2.356  1.00  0.00     0.021 C 
BRANCH   3   4
ATOM      4  C   UNL     1       2.168   4.103   2.924  1.00  0.00     0.116 C 
BRANCH   4   5
ATOM      5  N   UNL     1       1.434   4.857   1.925  1.00  0.00    -0.354 N 
ATOM      6  C   UNL     1       0.098   5.067   1.727  1.00  0.00     0.242 C 
ATOM      7  O   UNL     1      -0.186   5.756   0.737  1.00  0.00    -0.273 OA
ATOM      8  H   UNL     1       2.009   5.303   1.262  1.00  0.00     0.163 HD
BRANCH   6   9
ATOM      9  C   UNL     1      -1.061   4.378   2.557  1.00  0.00     0.174 C 
ATOM     10  N   UNL     1      -0.735   3.720   3.829  1.00  0.00    -0.326 N 
ATOM     11  C   UNL     1      -0.404   4.670   4.932  1.00  0.00     0.120 C 
ATOM     12  C   UNL     1      -1.342   5.867   5.080  1.00  0.00     0.022 C 
ATOM     13  C   UNL     1      -2.150   5.452   2.775  1.00  0.00     0.035 C 
ATOM     14  C   UNL     1      -1.665   6.520   3.748  1.00  0.00     0.004 C 
BRANCH  10  15
ATOM     15  C   UNL     1      -0.512   2.356   4.090  1.00  0.00     0.260 C 
ATOM     16  O   UNL     1      -0.109   2.071   5.230  1.00  0.00    -0.269 OA
BRANCH  15  17
ATOM     17  C   UNL     1      -0.571   1.137   3.139  1.00  0.00     0.111 A 
ATOM     18  C   UNL     1       0.617  -0.615  -0.062  1.00  0.00     0.069 C 
ATOM     19  C   UNL     1       0.090  -0.403   1.348  1.00  0.00     0.062 A 
ATOM     20  N   UNL     1       0.052  -1.467   2.071  1.00  0.00    -0.175 NA
ATOM     21  C   UNL     1      -0.231   0.987   1.833  1.00  0.00    -0.010 A 
ATOM     22  N   UNL     1      -0.402  -1.346   3.340  1.00  0.00    -0.232 N 
ATOM     23  C   UNL     1       0.073   2.027   0.823  1.00  0.00     0.047 C 
ATOM     24  C   UNL     1      -0.462  -2.598   4.078  1.00  0.00     0.178 C 
ATOM     25  C   UNL     1      -0.900  -0.164   3.874  1.00  0.00     0.279 A 
ATOM     26  O   UNL     1      -1.611  -0.156   4.879  1.00  0.00    -0.267 OA
ENDBRANCH  15  17
ENDBRANCH  10  15
ENDBRANCH   6   9
ENDBRANCH   4   5
ENDBRANCH   3   4
ENDBRANCH   2   3
ENDBRANCH   1   2
BRANCH   1  27
ATOM     27  C   UNL     1       5.427   4.432   3.953  1.00  0.00     0.021 C 
BRANCH  27  28
ATOM     28  C   UNL     1       6.193   3.129   4.133  1.00  0.00     0.116 C 
BRANCH  28  29
ATOM     29  N   UNL     1       7.447   3.134   3.402  1.00  0.00    -0.352 N 
ATOM     30  C   UNL     1       8.726   3.020   3.885  1.00  0.00     0.251 C 
ATOM     31  H   UNL     1       7.368   3.231   2.426  1.00  0.00     0.163 HD
ATOM     32  O   UNL     1       9.682   3.258   3.159  1.00  0.00    -0.269 OA
BRANCH  30  33
ATOM     33  C   UNL     1       8.931   2.622   5.293  1.00  0.00     0.039 A 
ATOM     34  C   UNL     1       9.833   3.348   6.073  1.00  0.00     0.014 A 
ATOM     35  C   UNL     1       8.229   1.542   5.837  1.00  0.00     0.014 A 
ATOM     36  C   UNL     1      10.000   3.013   7.417  1.00  0.00     0.010 A 
ATOM     37  C   UNL     1       8.338   1.262   7.195  1.00  0.00     0.010 A 
ATOM     38  C   UNL     1       9.238   1.983   7.993  1.00  0.00    -0.014 A 
BRANCH  38  39
ATOM     39  C   UNL     1       9.388   1.634   9.427  1.00  0.00     0.031 A 
ATOM     40  C   UNL     1       9.918   0.282   9.820  1.00  0.00     0.074 A 
ATOM     41  C   UNL     1       9.002   2.514  10.371  1.00  0.00     0.049 A 
ATOM     42  N   UNL     1      10.109  -0.210  11.015  1.00  0.00    -0.248 NA
ATOM     43  C   UNL     1      10.260  -0.647   8.729  1.00  0.00     0.031 C 
ATOM     44  C   UNL     1       8.415   3.829  10.109  1.00  0.00     0.029 A 
ATOM     45  N   UNL     1       9.031   2.430  11.741  1.00  0.00    -0.354 N 
ATOM     46  C   UNL     1      10.570  -1.506  10.823  1.00  0.00     0.074 A 
ATOM     47  C   UNL     1      10.587  -1.743   9.397  1.00  0.00     0.031 C 
ATOM     48  C   UNL     1       8.158   4.436  11.278  1.00  0.00     0.029 A 
ATOM     49  C   UNL     1       8.528   3.544  12.372  1.00  0.00     0.049 A 
ATOM     50  H   UNL     1       9.379   1.647  12.225  1.00  0.00     0.167 HD
ATOM     51  C   UNL     1      10.979  -2.405  11.748  1.00  0.00     0.034 A 
ATOM     52  C   UNL     1       8.382   3.815  13.685  1.00  0.00     0.034 A 
ATOM     53  C   UNL     1      10.994  -2.147  13.162  1.00  0.00     0.049 A 
ATOM     54  C   UNL     1       8.852   2.802  14.694  1.00  0.00     0.074 A 
ATOM     55  C   UNL     1      11.456  -2.966  14.177  1.00  0.00     0.029 A 
ATOM     56  N   UNL     1      10.522  -0.990  13.763  1.00  0.00    -0.354 N 
ATOM     57  N   UNL     1       9.423   1.639  14.490  1.00  0.00    -0.248 NA
ATOM     58  C   UNL     1       8.689   3.148  16.113  1.00  0.00     0.031 C 
ATOM     59  C   UNL     1      11.233  -2.317  15.394  1.00  0.00     0.029 A 
ATOM     60  C   UNL     1      10.666  -1.079  15.136  1.00  0.00     0.049 A 
ATOM     61  H   UNL     1      10.141  -0.220  13.283  1.00  0.00     0.167 HD
ATOM     62  C   UNL     1       9.712   1.127  15.750  1.00  0.00     0.074 A 
ATOM     63  C   UNL     1       9.277   2.119  16.711  1.00  0.00     0.031 C 
ATOM     64  C   UNL     1      10.272  -0.064  16.080  1.00  0.00     0.034 A 
BRANCH  51  65
ATOM     65  C   UNL     1      11.506  -3.730  11.262  1.00  0.00     0.023 A 
ATOM     66  C   UNL     1      12.750  -3.781  10.600  1.00  0.00     0.012 A 
ATOM     67  C   UNL     1      10.820  -4.930  11.536  1.00  0.00     0.148 A 
ATOM     68  C   UNL     1      13.291  -4.999  10.194  1.00  0.00     0.002 A 
ATOM     69  C   UNL     1      11.390  -6.145  11.173  1.00  0.00     0.091 A 
ATOM     70  F   UNL     1       9.630  -4.861  12.148  1.00  0.00    -0.205 F 
ATOM     71  C   UNL     1      12.619  -6.181  10.492  1.00  0.00     0.022 A 
BRANCH  69  72
ATOM     72  S   UNL     1      10.652  -7.729  11.589  1.00  0.00     0.127 S 
ATOM     73  O   UNL     1      10.296  -8.244  10.268  1.00  0.00    -0.237 OA
ATOM     74  O   UNL     1      11.766  -8.425  12.234  1.00  0.00    -0.237 OA
ATOM     75  O   UNL     1       9.527  -7.434  12.465  1.00  0.00    -0.744 OA
ENDBRANCH  69  72
ENDBRANCH  51  65
BRANCH  52  76
ATOM     76  C   UNL     1       7.837   5.137  14.110  1.00  0.00     0.023 A 
ATOM     77  C   UNL     1       8.691   6.067  14.733  1.00  0.00     0.012 A 
ATOM     78  C   UNL     1       6.501   5.502  13.848  1.00  0.00     0.148 A 
ATOM     79  C   UNL     1       8.222   7.327  15.108  1.00  0.00     0.002 A 
ATOM     80  C   UNL     1       6.056   6.779  14.169  1.00  0.00     0.091 A 
ATOM     81  F   UNL     1       5.700   4.600  13.264  1.00  0.00    -0.205 F 
ATOM     82  C   UNL     1       6.910   7.687  14.815  1.00  0.00     0.022 A 
BRANCH  80  83
ATOM     83  S   UNL     1       4.431   7.385  13.700  1.00  0.00     0.127 S 
ATOM     84  O   UNL     1       3.792   7.566  15.001  1.00  0.00    -0.237 OA
ATOM     85  O   UNL     1       4.765   8.625  12.999  1.00  0.00    -0.237 OA
ATOM     86  O   UNL     1       3.853   6.352  12.852  1.00  0.00    -0.744 OA
ENDBRANCH  80  83
ENDBRANCH  52  76
BRANCH  64  87
ATOM     87  C   UNL     1      10.465  -0.376  17.543  1.00  0.00     0.023 A 
ATOM     88  C   UNL     1       9.346  -0.677  18.344  1.00  0.00     0.012 A 
ATOM     89  C   UNL     1      11.759  -0.495  18.088  1.00  0.00     0.148 A 
ATOM     90  C   UNL     1       9.511  -1.071  19.671  1.00  0.00     0.002 A 
ATOM     91  C   UNL     1      11.918  -0.941  19.395  1.00  0.00     0.091 A 
ATOM     92  F   UNL     1      12.810  -0.191  17.313  1.00  0.00    -0.205 F 
ATOM     93  C   UNL     1      10.794  -1.218  20.191  1.00  0.00     0.022 A 
BRANCH  91  94
ATOM     94  S   UNL     1      13.530  -1.269  20.118  1.00  0.00     0.127 S 
ATOM     95  O   UNL     1      13.619  -0.221  21.134  1.00  0.00    -0.237 OA
ATOM     96  O   UNL     1      13.360  -2.621  20.649  1.00  0.00    -0.237 OA
ATOM     97  O   UNL     1      14.491  -1.160  19.029  1.00  0.00    -0.744 OA
ENDBRANCH  91  94
ENDBRANCH  64  87
ENDBRANCH  38  39
ENDBRANCH  30  33
ENDBRANCH  28  29
ENDBRANCH  27  28
ENDBRANCH   1  27
TORSDOF 18
