REMARK SMILES CC[N@@H+](C)Cc1cc2c(cc1Cl)C=C(C(=O)NCCCCCCNC(=O)c1ccc(-c3c4nc(c(-c5cccc(S(=O)(=O)[O-])c5F)c5ccc([nH]5)c(-c5cccc(S(=O)(=O)[O-])c5F)c5nc(c(-c6cccc(S(=O)(=O)[O-])c6F)c6ccc3[nH]6)C=C5)C=C4)cc1)[C@@H](C(F)(F)F)O2
REMARK SMILES IDX 20 1 19 2 18 3 17 4 15 5 16 6 14 8 6 9 7 10 11 11 8 12 10 13
REMARK SMILES IDX 12 14 9 15 95 16 13 17 90 18 5 19 3 20 4 21 2 23 1 24 91 25
REMARK SMILES IDX 92 26 93 27 94 28 21 29 22 30 23 31 24 32 25 33 26 35 27 36
REMARK SMILES IDX 28 37 89 38 29 39 88 40 30 41 31 42 32 43 82 44 33 45 87 46
REMARK SMILES IDX 81 47 83 48 34 49 86 50 80 51 79 52 35 54 67 55 47 56 66 57
REMARK SMILES IDX 48 58 51 59 65 60 84 61 49 62 50 63 64 65 85 66 52 67 36 68
REMARK SMILES IDX 37 69 45 70 38 71 40 72 46 73 39 74 41 75 42 76 43 77 44 78
REMARK SMILES IDX 68 79 69 80 77 81 70 82 72 83 78 84 71 85 73 86 74 87 75 88
REMARK SMILES IDX 76 89 53 90 54 91 62 92 55 93 57 94 63 95 56 96 58 97 59 98
REMARK SMILES IDX 60 99 61 100
REMARK H PARENT 17 7 3 22 24 34 83 53 51 64
REMARK Flexibility Score: inf
ROOT
ATOM      1  C   UNL     1       1.633  12.241   1.892  1.00  0.00     0.002 C 
ENDROOT
BRANCH   1   2
ATOM      2  C   UNL     1       1.402  10.895   1.201  1.00  0.00     0.021 C 
BRANCH   2   3
ATOM      3  C   UNL     1       2.673  10.233   0.677  1.00  0.00     0.116 C 
BRANCH   3   4
ATOM      4  N   UNL     1       3.365   9.479   1.708  1.00  0.00    -0.352 N 
ATOM      5  C   UNL     1       3.830   8.218   1.869  1.00  0.00     0.251 C 
ATOM      6  O   UNL     1       4.425   8.008   2.932  1.00  0.00    -0.270 OA
ATOM      7  H   UNL     1       3.543  10.033   2.502  1.00  0.00     0.163 HD
BRANCH   5   8
ATOM      8  C   UNL     1       3.664   7.101   0.888  1.00  0.00     0.067 C 
ATOM      9  C   UNL     1       3.108   2.486  -1.106  1.00  0.00     0.029 A 
ATOM     10  C   UNL     1       2.871   3.796  -1.546  1.00  0.00     0.058 A 
ATOM     11  C   UNL     1       3.812   2.324   0.100  1.00  0.00     0.050 A 
ATOM     12  C   UNL     1       3.179   4.891  -0.748  1.00  0.00     0.128 A 
ATOM     13  C   UNL     1       4.143   3.434   0.892  1.00  0.00     0.033 A 
ATOM     14  Cl  UNL     1       4.314   0.779   0.685  1.00  0.00    -0.084 Cl
ATOM     15  C   UNL     1       3.787   4.722   0.487  1.00  0.00     0.019 A 
ATOM     16  O   UNL     1       2.772   6.093  -1.231  1.00  0.00    -0.475 OA
ATOM     17  C   UNL     1       3.972   5.876   1.354  1.00  0.00     0.025 C 
ATOM     18  C   UNL     1       3.206   7.286  -0.533  1.00  0.00     0.314 C 
BRANCH   9  19
ATOM     19  C   UNL     1       2.541   1.341  -1.924  1.00  0.00     0.300 C 
BRANCH  19  20
ATOM     20  N   UNL     1       1.068   1.182  -1.905  1.00  0.00    -0.334 N 
ATOM     21  C   UNL     1       0.350   2.207  -2.662  1.00  0.00     0.333 C 
ATOM     22  H   UNL     1       0.937   0.293  -2.387  1.00  0.00     0.348 HD
BRANCH  20  23
ATOM     23  C   UNL     1       0.480   1.021  -0.570  1.00  0.00     0.258 C 
ATOM     24  C   UNL     1       0.764  -0.347   0.031  1.00  0.00     0.071 C 
ENDBRANCH  20  23
ENDBRANCH  19  20
ENDBRANCH   9  19
BRANCH  18  25
ATOM     25  C   UNL     1       4.255   7.991  -1.408  1.00  0.00     0.429 C 
ATOM     26  F   UNL     1       3.696   8.422  -2.565  1.00  0.00    -0.167 F 
ATOM     27  F   UNL     1       4.788   9.080  -0.810  1.00  0.00    -0.167 F 
ATOM     28  F   UNL     1       5.283   7.173  -1.730  1.00  0.00    -0.167 F 
ENDBRANCH  18  25
ENDBRANCH   5   8
ENDBRANCH   3   4
ENDBRANCH   2   3
ENDBRANCH   1   2
BRANCH   1  29
ATOM     29  C   UNL     1       2.374  13.296   1.060  1.00  0.00     0.002 C 
BRANCH  29  30
ATOM     30  C   UNL     1       1.856  13.508  -0.365  1.00  0.00     0.021 C 
BRANCH  30  31
ATOM     31  C   UNL     1       0.384  13.891  -0.469  1.00  0.00     0.116 C 
BRANCH  31  32
ATOM     32  N   UNL     1       0.091  15.160   0.175  1.00  0.00    -0.352 N 
ATOM     33  C   UNL     1      -0.579  16.250  -0.328  1.00  0.00     0.251 C 
ATOM     34  H   UNL     1       0.418  15.253   1.099  1.00  0.00     0.163 HD
ATOM     35  O   UNL     1      -0.604  17.301   0.306  1.00  0.00    -0.269 OA
BRANCH  33  36
ATOM     36  C   UNL     1      -1.235  16.154  -1.650  1.00  0.00     0.039 A 
ATOM     37  C   UNL     1      -2.043  15.058  -1.963  1.00  0.00     0.014 A 
ATOM     38  C   UNL     1      -1.012  17.158  -2.595  1.00  0.00     0.014 A 
ATOM     39  C   UNL     1      -2.501  14.890  -3.266  1.00  0.00     0.010 A 
ATOM     40  C   UNL     1      -1.535  17.023  -3.884  1.00  0.00     0.010 A 
ATOM     41  C   UNL     1      -2.245  15.867  -4.243  1.00  0.00    -0.014 A 
BRANCH  41  42
ATOM     42  C   UNL     1      -2.731  15.662  -5.631  1.00  0.00     0.031 A 
ATOM     43  C   UNL     1      -1.763  15.497  -6.772  1.00  0.00     0.074 A 
ATOM     44  C   UNL     1      -4.057  15.595  -5.860  1.00  0.00     0.049 A 
ATOM     45  N   UNL     1      -2.016  15.308  -8.042  1.00  0.00    -0.248 NA
ATOM     46  C   UNL     1      -0.326  15.551  -6.452  1.00  0.00     0.031 C 
ATOM     47  C   UNL     1      -5.096  15.755  -4.840  1.00  0.00     0.029 A 
ATOM     48  N   UNL     1      -4.759  15.367  -7.017  1.00  0.00    -0.354 N 
ATOM     49  C   UNL     1      -0.781  15.265  -8.676  1.00  0.00     0.074 A 
ATOM     50  C   UNL     1       0.227  15.444  -7.654  1.00  0.00     0.031 C 
ATOM     51  C   UNL     1      -6.299  15.584  -5.408  1.00  0.00     0.029 A 
ATOM     52  C   UNL     1      -6.122  15.352  -6.838  1.00  0.00     0.049 A 
ATOM     53  H   UNL     1      -4.328  15.228  -7.891  1.00  0.00     0.167 HD
ATOM     54  C   UNL     1      -0.510  15.072  -9.989  1.00  0.00     0.034 A 
ATOM     55  C   UNL     1      -7.121  15.179  -7.723  1.00  0.00     0.034 A 
ATOM     56  C   UNL     1      -1.507  14.835 -10.997  1.00  0.00     0.049 A 
ATOM     57  C   UNL     1      -6.792  14.952  -9.169  1.00  0.00     0.074 A 
ATOM     58  C   UNL     1      -1.319  14.584 -12.345  1.00  0.00     0.029 A 
ATOM     59  N   UNL     1      -2.873  14.814 -10.771  1.00  0.00    -0.354 N 
ATOM     60  N   UNL     1      -5.615  14.843  -9.734  1.00  0.00    -0.248 NA
ATOM     61  C   UNL     1      -7.923  14.812 -10.098  1.00  0.00     0.031 C 
ATOM     62  C   UNL     1      -2.574  14.409 -12.935  1.00  0.00     0.029 A 
ATOM     63  C   UNL     1      -3.542  14.550 -11.953  1.00  0.00     0.049 A 
ATOM     64  H   UNL     1      -3.304  14.963  -9.899  1.00  0.00     0.167 HD
ATOM     65  C   UNL     1      -5.861  14.615 -11.082  1.00  0.00     0.074 A 
ATOM     66  C   UNL     1      -7.300  14.576 -11.246  1.00  0.00     0.031 C 
ATOM     67  C   UNL     1      -4.972  14.471 -12.094  1.00  0.00     0.034 A 
BRANCH  54  68
ATOM     68  C   UNL     1       0.931  15.050 -10.418  1.00  0.00     0.023 A 
ATOM     69  C   UNL     1       1.682  13.873 -10.237  1.00  0.00     0.012 A 
ATOM     70  C   UNL     1       1.505  16.146 -11.091  1.00  0.00     0.148 A 
ATOM     71  C   UNL     1       2.990  13.788 -10.713  1.00  0.00     0.002 A 
ATOM     72  C   UNL     1       2.799  16.044 -11.587  1.00  0.00     0.091 A 
ATOM     73  F   UNL     1       0.772  17.259 -11.239  1.00  0.00    -0.205 F 
ATOM     74  C   UNL     1       3.544  14.868 -11.396  1.00  0.00     0.022 A 
BRANCH  72  75
ATOM     75  S   UNL     1       3.590  17.356 -12.526  1.00  0.00     0.127 S 
ATOM     76  O   UNL     1       4.669  17.755 -11.623  1.00  0.00    -0.237 OA
ATOM     77  O   UNL     1       4.030  16.649 -13.729  1.00  0.00    -0.237 OA
ATOM     78  O   UNL     1       2.565  18.366 -12.750  1.00  0.00    -0.744 OA
ENDBRANCH  72  75
ENDBRANCH  54  68
BRANCH  55  79
ATOM     79  C   UNL     1      -8.526  15.166  -7.237  1.00  0.00     0.023 A 
ATOM     80  C   UNL     1      -9.208  13.938  -7.142  1.00  0.00     0.012 A 
ATOM     81  C   UNL     1      -9.153  16.343  -6.785  1.00  0.00     0.148 A 
ATOM     82  C   UNL     1     -10.494  13.883  -6.606  1.00  0.00     0.002 A 
ATOM     83  C   UNL     1     -10.416  16.275  -6.211  1.00  0.00     0.091 A 
ATOM     84  F   UNL     1      -8.482  17.498  -6.894  1.00  0.00    -0.205 F 
ATOM     85  C   UNL     1     -11.092  15.047  -6.129  1.00  0.00     0.022 A 
BRANCH  83  86
ATOM     86  S   UNL     1     -11.216  17.697  -5.461  1.00  0.00     0.127 S 
ATOM     87  O   UNL     1     -12.368  17.888  -6.339  1.00  0.00    -0.237 OA
ATOM     88  O   UNL     1     -11.536  17.189  -4.126  1.00  0.00    -0.237 OA
ATOM     89  O   UNL     1     -10.227  18.765  -5.481  1.00  0.00    -0.744 OA
ENDBRANCH  83  86
ENDBRANCH  55  79
BRANCH  67  90
ATOM     90  C   UNL     1      -5.513  14.259 -13.479  1.00  0.00     0.023 A 
ATOM     91  C   UNL     1      -5.969  15.369 -14.214  1.00  0.00     0.012 A 
ATOM     92  C   UNL     1      -5.461  12.991 -14.089  1.00  0.00     0.148 A 
ATOM     93  C   UNL     1      -6.374  15.220 -15.539  1.00  0.00     0.002 A 
ATOM     94  C   UNL     1      -5.836  12.855 -15.420  1.00  0.00     0.091 A 
ATOM     95  F   UNL     1      -5.033  11.950 -13.361  1.00  0.00    -0.205 F 
ATOM     96  C   UNL     1      -6.296  13.967 -16.145  1.00  0.00     0.022 A 
BRANCH  94  97
ATOM     97  S   UNL     1      -5.703  11.300 -16.308  1.00  0.00     0.127 S 
ATOM     98  O   UNL     1      -7.109  10.949 -16.504  1.00  0.00    -0.237 OA
ATOM     99  O   UNL     1      -4.997  11.697 -17.526  1.00  0.00    -0.237 OA
ATOM    100  O   UNL     1      -4.955  10.402 -15.438  1.00  0.00    -0.744 OA
ENDBRANCH  94  97
ENDBRANCH  67  90
ENDBRANCH  41  42
ENDBRANCH  33  36
ENDBRANCH  31  32
ENDBRANCH  30  31
ENDBRANCH  29  30
ENDBRANCH   1  29
TORSDOF 20
