REMARK SMILES CSc1cccc(N2C[C@@H](C(=O)NCCCCCCNC(=O)c3ccc(-c4c5nc(c(-c6cccc(S(=O)(=O)[O-])c6F)c6ccc([nH]6)c(-c6cccc(S(=O)(=O)[O-])c6F)c6nc(c(-c7cccc(S(=O)(=O)[O-])c7F)c7ccc4[nH]7)C=C6)C=C5)cc3)CC2=O)c1
REMARK SMILES IDX 17 1 16 2 15 3 14 4 13 5 11 6 12 7 10 9 8 10 9 11 87 12
REMARK SMILES IDX 86 13 88 14 7 15 3 16 4 17 89 18 5 19 6 20 2 21 1 22 18 23
REMARK SMILES IDX 19 24 20 25 21 26 22 28 23 29 24 30 85 31 25 32 84 33 26 34
REMARK SMILES IDX 27 35 28 36 78 37 29 38 83 39 77 40 79 41 30 42 82 43 76 44
REMARK SMILES IDX 75 45 31 47 63 48 43 49 62 50 44 51 47 52 61 53 80 54 45 55
REMARK SMILES IDX 46 56 60 58 81 59 48 60 32 61 33 62 41 63 34 64 36 65 42 66
REMARK SMILES IDX 35 67 37 68 38 69 39 70 40 71 64 72 65 73 73 74 66 75 68 76
REMARK SMILES IDX 74 77 67 78 69 79 70 80 71 81 72 82 49 83 50 84 58 85 51 86
REMARK SMILES IDX 53 87 59 88 52 89 54 90 55 91 56 92 57 93
REMARK H PARENT 13 8 20 27 79 46 47 57
REMARK Flexibility Score: inf
ROOT
ATOM      1  C   UNL     1       0.122   4.928  -7.678  1.00  0.00     0.002 C 
ENDROOT
BRANCH   1   2
ATOM      2  C   UNL     1       1.644   4.910  -7.500  1.00  0.00     0.002 C 
BRANCH   2   3
ATOM      3  C   UNL     1       2.163   3.911  -6.457  1.00  0.00     0.021 C 
BRANCH   3   4
ATOM      4  C   UNL     1       1.745   2.463  -6.714  1.00  0.00     0.116 C 
BRANCH   4   5
ATOM      5  N   UNL     1       2.364   1.951  -7.925  1.00  0.00    -0.356 N 
ATOM      6  C   UNL     1       3.276   0.968  -8.127  1.00  0.00     0.225 C 
ATOM      7  O   UNL     1       3.660   0.777  -9.285  1.00  0.00    -0.275 OA
ATOM      8  H   UNL     1       2.066   2.399  -8.750  1.00  0.00     0.163 HD
BRANCH   6   9
ATOM      9  C   UNL     1       3.789   0.083  -7.012  1.00  0.00     0.107 C 
ATOM     10  N   UNL     1       2.917  -0.837  -5.027  1.00  0.00    -0.312 N 
ATOM     11  C   UNL     1       2.697  -0.808  -6.452  1.00  0.00     0.139 C 
ATOM     12  C   UNL     1       3.829   0.131  -4.612  1.00  0.00     0.227 C 
ATOM     13  C   UNL     1       4.419   0.797  -5.829  1.00  0.00     0.116 C 
ATOM     14  O   UNL     1       4.179   0.408  -3.472  1.00  0.00    -0.274 OA
BRANCH  10  15
ATOM     15  C   UNL     1       2.198  -1.711  -4.171  1.00  0.00     0.045 A 
ATOM     16  C   UNL     1       1.122  -2.188  -2.028  1.00  0.00     0.009 A 
ATOM     17  C   UNL     1       0.810  -3.472  -2.491  1.00  0.00     0.015 A 
ATOM     18  C   UNL     1       1.834  -1.323  -2.871  1.00  0.00     0.041 A 
ATOM     19  C   UNL     1       1.175  -3.877  -3.772  1.00  0.00     0.003 A 
ATOM     20  C   UNL     1       1.847  -2.993  -4.614  1.00  0.00     0.026 A 
BRANCH  16  21
ATOM     21  S   UNL     1       0.561  -1.797  -0.374  1.00  0.00    -0.130 SA
ATOM     22  C   UNL     1       1.032  -0.060  -0.156  1.00  0.00     0.091 C 
ENDBRANCH  16  21
ENDBRANCH  10  15
ENDBRANCH   6   9
ENDBRANCH   4   5
ENDBRANCH   3   4
ENDBRANCH   2   3
ENDBRANCH   1   2
BRANCH   1  23
ATOM     23  C   UNL     1      -0.677   5.150  -6.393  1.00  0.00     0.021 C 
BRANCH  23  24
ATOM     24  C   UNL     1      -0.342   6.440  -5.651  1.00  0.00     0.116 C 
BRANCH  24  25
ATOM     25  N   UNL     1      -0.642   7.620  -6.447  1.00  0.00    -0.352 N 
ATOM     26  C   UNL     1      -1.413   8.710  -6.124  1.00  0.00     0.251 C 
ATOM     27  H   UNL     1      -0.235   7.641  -7.343  1.00  0.00     0.163 HD
ATOM     28  O   UNL     1      -1.721   9.522  -6.991  1.00  0.00    -0.269 OA
BRANCH  26  29
ATOM     29  C   UNL     1      -1.885   8.889  -4.734  1.00  0.00     0.039 A 
ATOM     30  C   UNL     1      -3.214   9.256  -4.512  1.00  0.00     0.014 A 
ATOM     31  C   UNL     1      -1.018   8.696  -3.654  1.00  0.00     0.014 A 
ATOM     32  C   UNL     1      -3.688   9.374  -3.204  1.00  0.00     0.010 A 
ATOM     33  C   UNL     1      -1.513   8.738  -2.354  1.00  0.00     0.010 A 
ATOM     34  C   UNL     1      -2.851   9.086  -2.114  1.00  0.00    -0.014 A 
BRANCH  34  35
ATOM     35  C   UNL     1      -3.360   9.132  -0.719  1.00  0.00     0.031 A 
ATOM     36  C   UNL     1      -2.774  10.099   0.274  1.00  0.00     0.074 A 
ATOM     37  C   UNL     1      -4.297   8.247  -0.324  1.00  0.00     0.049 A 
ATOM     38  N   UNL     1      -3.058  10.252   1.542  1.00  0.00    -0.248 NA
ATOM     39  C   UNL     1      -1.711  10.994  -0.211  1.00  0.00     0.031 C 
ATOM     40  C   UNL     1      -4.888   7.207  -1.170  1.00  0.00     0.029 A 
ATOM     41  N   UNL     1      -4.898   8.062   0.897  1.00  0.00    -0.354 N 
ATOM     42  C   UNL     1      -2.189  11.228   2.013  1.00  0.00     0.074 A 
ATOM     43  C   UNL     1      -1.344  11.610   0.903  1.00  0.00     0.031 C 
ATOM     44  C   UNL     1      -5.768   6.498  -0.446  1.00  0.00     0.029 A 
ATOM     45  C   UNL     1      -5.779   7.006   0.923  1.00  0.00     0.049 A 
ATOM     46  H   UNL     1      -4.715   8.630   1.679  1.00  0.00     0.167 HD
ATOM     47  C   UNL     1      -2.117  11.777   3.249  1.00  0.00     0.034 A 
ATOM     48  C   UNL     1      -6.505   6.494   1.936  1.00  0.00     0.034 A 
ATOM     49  C   UNL     1      -2.982  11.419   4.340  1.00  0.00     0.049 A 
ATOM     50  C   UNL     1      -6.429   7.143   3.291  1.00  0.00     0.074 A 
ATOM     51  C   UNL     1      -3.050  11.982   5.603  1.00  0.00     0.029 A 
ATOM     52  N   UNL     1      -3.918  10.397   4.308  1.00  0.00    -0.354 N 
ATOM     53  N   UNL     1      -5.716   8.174   3.674  1.00  0.00    -0.248 NA
ATOM     54  C   UNL     1      -7.285   6.581   4.346  1.00  0.00     0.031 C 
ATOM     55  C   UNL     1      -4.001  11.274   6.346  1.00  0.00     0.029 A 
ATOM     56  C   UNL     1      -4.557  10.300   5.532  1.00  0.00     0.049 A 
ATOM     57  H   UNL     1      -4.102   9.825   3.528  1.00  0.00     0.167 HD
ATOM     58  C   UNL     1      -6.064   8.408   4.999  1.00  0.00     0.074 A 
ATOM     59  C   UNL     1      -7.067   7.423   5.347  1.00  0.00     0.031 C 
ATOM     60  C   UNL     1      -5.587   9.346   5.854  1.00  0.00     0.034 A 
BRANCH  47  61
ATOM     61  C   UNL     1      -1.088  12.854   3.480  1.00  0.00     0.023 A 
ATOM     62  C   UNL     1      -1.248  14.118   2.874  1.00  0.00     0.012 A 
ATOM     63  C   UNL     1       0.004  12.637   4.343  1.00  0.00     0.148 A 
ATOM     64  C   UNL     1      -0.319  15.134   3.091  1.00  0.00     0.002 A 
ATOM     65  C   UNL     1       0.899  13.670   4.594  1.00  0.00     0.091 A 
ATOM     66  F   UNL     1       0.151  11.424   4.895  1.00  0.00    -0.205 F 
ATOM     67  C   UNL     1       0.747  14.914   3.959  1.00  0.00     0.022 A 
BRANCH  65  68
ATOM     68  S   UNL     1       2.257  13.515   5.760  1.00  0.00     0.127 S 
ATOM     69  O   UNL     1       3.415  13.531   4.866  1.00  0.00    -0.237 OA
ATOM     70  O   UNL     1       2.099  14.720   6.575  1.00  0.00    -0.237 OA
ATOM     71  O   UNL     1       2.036  12.265   6.472  1.00  0.00    -0.744 OA
ENDBRANCH  65  68
ENDBRANCH  47  61
BRANCH  48  72
ATOM     72  C   UNL     1      -7.406   5.332   1.694  1.00  0.00     0.023 A 
ATOM     73  C   UNL     1      -8.802   5.511   1.736  1.00  0.00     0.012 A 
ATOM     74  C   UNL     1      -6.886   4.057   1.398  1.00  0.00     0.148 A 
ATOM     75  C   UNL     1      -9.665   4.435   1.525  1.00  0.00     0.002 A 
ATOM     76  C   UNL     1      -7.751   3.002   1.130  1.00  0.00     0.091 A 
ATOM     77  F   UNL     1      -5.555   3.905   1.371  1.00  0.00    -0.205 F 
ATOM     78  C   UNL     1      -9.140   3.184   1.212  1.00  0.00     0.022 A 
BRANCH  76  79
ATOM     79  S   UNL     1      -7.167   1.393   0.586  1.00  0.00     0.127 S 
ATOM     80  O   UNL     1      -7.494   0.553   1.736  1.00  0.00    -0.237 OA
ATOM     81  O   UNL     1      -7.991   1.162  -0.601  1.00  0.00    -0.237 OA
ATOM     82  O   UNL     1      -5.748   1.563   0.308  1.00  0.00    -0.744 OA
ENDBRANCH  76  79
ENDBRANCH  48  72
BRANCH  60  83
ATOM     83  C   UNL     1      -6.172   9.391   7.242  1.00  0.00     0.023 A 
ATOM     84  C   UNL     1      -5.873   8.373   8.169  1.00  0.00     0.012 A 
ATOM     85  C   UNL     1      -6.964  10.484   7.648  1.00  0.00     0.148 A 
ATOM     86  C   UNL     1      -6.383   8.424   9.466  1.00  0.00     0.002 A 
ATOM     87  C   UNL     1      -7.423  10.556   8.957  1.00  0.00     0.091 A 
ATOM     88  F   UNL     1      -7.252  11.435   6.746  1.00  0.00    -0.205 F 
ATOM     89  C   UNL     1      -7.146   9.520   9.863  1.00  0.00     0.022 A 
BRANCH  87  90
ATOM     90  S   UNL     1      -8.326  11.975   9.586  1.00  0.00     0.127 S 
ATOM     91  O   UNL     1      -9.668  11.420   9.759  1.00  0.00    -0.237 OA
ATOM     92  O   UNL     1      -7.620  12.263  10.834  1.00  0.00    -0.237 OA
ATOM     93  O   UNL     1      -8.207  13.011   8.570  1.00  0.00    -0.744 OA
ENDBRANCH  87  90
ENDBRANCH  60  83
ENDBRANCH  34  35
ENDBRANCH  26  29
ENDBRANCH  24  25
ENDBRANCH  23  24
ENDBRANCH   1  23
TORSDOF 18
