REMARK SMILES COc1cc2c(cc1OC)[C@H](C(=O)NCCCCCCNC(=O)c1ccc(-c3c4nc(c(-c5cccc(S(=O)(=O)[O-])c5F)c5ccc([nH]5)c(-c5cccc(S(=O)(=O)[O-])c5F)c5nc(c(-c6cccc(S(=O)(=O)[O-])c6F)c6ccc3[nH]6)C=C5)C=C4)cc1)[C@H](c1cccs1)N(C)C2=O
REMARK SMILES IDX 18 1 17 2 16 3 15 4 14 5 12 6 13 7 11 9 3 10 4 11 8 12 5 13
REMARK SMILES IDX 7 14 6 15 95 16 93 17 96 18 87 19 94 20 2 21 1 22 9 23 10 24
REMARK SMILES IDX 88 25 89 26 92 27 90 28 91 29 19 30 20 31 21 32 22 33 23 35
REMARK SMILES IDX 24 36 25 37 86 38 26 39 85 40 27 41 28 42 29 43 79 44 30 45
REMARK SMILES IDX 84 46 78 47 80 48 31 49 83 50 77 51 76 52 32 54 64 55 44 56
REMARK SMILES IDX 63 57 45 58 48 59 62 60 81 61 46 62 47 63 61 65 82 66 49 67
REMARK SMILES IDX 33 68 34 69 42 70 35 71 37 72 43 73 36 74 38 75 39 76 40 77
REMARK SMILES IDX 41 78 65 79 66 80 74 81 67 82 69 83 75 84 68 85 70 86 71 87
REMARK SMILES IDX 72 88 73 89 50 90 51 91 59 92 52 93 54 94 60 95 53 96 55 97
REMARK SMILES IDX 56 98 57 99 58 100
REMARK H PARENT 14 8 21 34 80 53 48 64
REMARK Flexibility Score: inf
ROOT
ATOM      1  C   UNL     1      -3.130  -7.881   3.808  1.00  0.00     0.002 C 
ENDROOT
BRANCH   1   2
ATOM      2  C   UNL     1      -1.795  -8.628   3.878  1.00  0.00     0.002 C 
BRANCH   2   3
ATOM      3  C   UNL     1      -0.735  -8.154   2.872  1.00  0.00     0.021 C 
BRANCH   3   4
ATOM      4  C   UNL     1      -0.433  -6.656   2.942  1.00  0.00     0.116 C 
BRANCH   4   5
ATOM      5  N   UNL     1       0.033  -6.316   4.274  1.00  0.00    -0.355 N 
ATOM      6  C   UNL     1       1.225  -5.800   4.678  1.00  0.00     0.230 C 
ATOM      7  O   UNL     1       1.496  -5.953   5.867  1.00  0.00    -0.274 OA
ATOM      8  H   UNL     1      -0.615  -6.484   4.996  1.00  0.00     0.163 HD
BRANCH   6   9
ATOM      9  C   UNL     1       2.147  -5.135   3.667  1.00  0.00     0.137 C 
ATOM     10  C   UNL     1       0.908  -1.434   1.751  1.00  0.00     0.161 A 
ATOM     11  C   UNL     1       2.199  -1.957   1.582  1.00  0.00     0.064 A 
ATOM     12  C   UNL     1      -0.013  -2.119   2.555  1.00  0.00     0.161 A 
ATOM     13  C   UNL     1       2.568  -3.157   2.202  1.00  0.00     0.048 A 
ATOM     14  C   UNL     1       0.375  -3.314   3.183  1.00  0.00     0.056 A 
ATOM     15  C   UNL     1       1.658  -3.850   3.018  1.00  0.00    -0.016 A 
ATOM     16  C   UNL     1       3.975  -3.653   2.049  1.00  0.00     0.254 C 
ATOM     17  N   UNL     1       4.424  -4.563   3.014  1.00  0.00    -0.333 N 
ATOM     18  O   UNL     1       4.669  -3.248   1.128  1.00  0.00    -0.269 OA
ATOM     19  C   UNL     1       3.589  -4.900   4.188  1.00  0.00     0.142 C 
ATOM     20  C   UNL     1       5.791  -5.039   2.948  1.00  0.00     0.147 C 
BRANCH  10  21
ATOM     21  O   UNL     1       0.584  -0.204   1.241  1.00  0.00    -0.493 OA
ATOM     22  C   UNL     1       0.940  -0.027  -0.129  1.00  0.00     0.278 C 
ENDBRANCH  10  21
BRANCH  12  23
ATOM     23  O   UNL     1      -1.306  -1.777   2.852  1.00  0.00    -0.493 OA
ATOM     24  C   UNL     1      -1.931  -0.758   2.085  1.00  0.00     0.278 C 
ENDBRANCH  12  23
BRANCH  19  25
ATOM     25  C   UNL     1       3.743  -3.854   5.308  1.00  0.00     0.028 A 
ATOM     26  C   UNL     1       3.467  -4.019   6.659  1.00  0.00     0.017 A 
ATOM     27  S   UNL     1       4.357  -2.262   5.044  1.00  0.00    -0.147 S 
ATOM     28  C   UNL     1       3.637  -2.833   7.427  1.00  0.00     0.012 A 
ATOM     29  C   UNL     1       4.132  -1.803   6.668  1.00  0.00     0.065 A 
ENDBRANCH  19  25
ENDBRANCH   6   9
ENDBRANCH   4   5
ENDBRANCH   3   4
ENDBRANCH   2   3
ENDBRANCH   1   2
BRANCH   1  30
ATOM     30  C   UNL     1      -3.800  -7.905   2.434  1.00  0.00     0.021 C 
BRANCH  30  31
ATOM     31  C   UNL     1      -4.043  -9.303   1.878  1.00  0.00     0.116 C 
BRANCH  31  32
ATOM     32  N   UNL     1      -4.941 -10.079   2.718  1.00  0.00    -0.352 N 
ATOM     33  C   UNL     1      -6.052 -10.797   2.352  1.00  0.00     0.251 C 
ATOM     34  H   UNL     1      -4.723 -10.092   3.678  1.00  0.00     0.163 HD
ATOM     35  O   UNL     1      -6.806 -11.249   3.208  1.00  0.00    -0.269 OA
BRANCH  33  36
ATOM     36  C   UNL     1      -6.342 -11.002   0.917  1.00  0.00     0.039 A 
ATOM     37  C   UNL     1      -7.639 -10.779   0.450  1.00  0.00     0.014 A 
ATOM     38  C   UNL     1      -5.331 -11.391   0.034  1.00  0.00     0.014 A 
ATOM     39  C   UNL     1      -7.909 -10.895  -0.915  1.00  0.00     0.010 A 
ATOM     40  C   UNL     1      -5.584 -11.429  -1.333  1.00  0.00     0.010 A 
ATOM     41  C   UNL     1      -6.877 -11.190  -1.821  1.00  0.00    -0.014 A 
BRANCH  41  42
ATOM     42  C   UNL     1      -7.130 -11.245  -3.284  1.00  0.00     0.031 A 
ATOM     43  C   UNL     1      -6.921 -12.528  -4.042  1.00  0.00     0.074 A 
ATOM     44  C   UNL     1      -7.471 -10.120  -3.943  1.00  0.00     0.049 A 
ATOM     45  N   UNL     1      -7.046 -12.757  -5.323  1.00  0.00    -0.248 NA
ATOM     46  C   UNL     1      -6.490 -13.701  -3.263  1.00  0.00     0.031 C 
ATOM     47  C   UNL     1      -7.628  -8.797  -3.333  1.00  0.00     0.029 A 
ATOM     48  N   UNL     1      -7.721  -9.902  -5.275  1.00  0.00    -0.354 N 
ATOM     49  C   UNL     1      -6.678 -14.084  -5.510  1.00  0.00     0.074 A 
ATOM     50  C   UNL     1      -6.289 -14.600  -4.216  1.00  0.00     0.031 C 
ATOM     51  C   UNL     1      -7.955  -7.910  -4.286  1.00  0.00     0.029 A 
ATOM     52  C   UNL     1      -7.998  -8.589  -5.577  1.00  0.00     0.049 A 
ATOM     53  H   UNL     1      -7.704 -10.618  -5.950  1.00  0.00     0.167 HD
ATOM     54  C   UNL     1      -6.691 -14.818  -6.648  1.00  0.00     0.034 A 
ATOM     55  C   UNL     1      -8.251  -7.997  -6.761  1.00  0.00     0.034 A 
ATOM     56  C   UNL     1      -7.114 -14.311  -7.926  1.00  0.00     0.049 A 
ATOM     57  C   UNL     1      -8.287  -8.841  -8.006  1.00  0.00     0.074 A 
ATOM     58  C   UNL     1      -7.246 -14.996  -9.121  1.00  0.00     0.029 A 
ATOM     59  N   UNL     1      -7.462 -12.994  -8.180  1.00  0.00    -0.354 N 
ATOM     60  N   UNL     1      -8.092 -10.131  -8.136  1.00  0.00    -0.248 NA
ATOM     61  C   UNL     1      -8.614  -8.154  -9.264  1.00  0.00     0.031 C 
ATOM     62  C   UNL     1      -7.645 -14.085 -10.105  1.00  0.00     0.029 A 
ATOM     63  C   UNL     1      -7.796 -12.841  -9.515  1.00  0.00     0.049 A 
ATOM     64  H   UNL     1      -7.471 -12.273  -7.510  1.00  0.00     0.167 HD
ATOM     65  C   UNL     1      -8.308 -10.417  -9.479  1.00  0.00     0.074 A 
ATOM     66  C   UNL     1      -8.670  -9.168 -10.118  1.00  0.00     0.031 C 
ATOM     67  C   UNL     1      -8.202 -11.602 -10.129  1.00  0.00     0.034 A 
BRANCH  54  68
ATOM     68  C   UNL     1      -6.278 -16.264  -6.554  1.00  0.00     0.023 A 
ATOM     69  C   UNL     1      -7.115 -17.187  -5.894  1.00  0.00     0.012 A 
ATOM     70  C   UNL     1      -5.094 -16.721  -7.165  1.00  0.00     0.148 A 
ATOM     71  C   UNL     1      -6.763 -18.533  -5.808  1.00  0.00     0.002 A 
ATOM     72  C   UNL     1      -4.773 -18.073  -7.118  1.00  0.00     0.091 A 
ATOM     73  F   UNL     1      -4.300 -15.828  -7.772  1.00  0.00    -0.205 F 
ATOM     74  C   UNL     1      -5.599 -18.977  -6.429  1.00  0.00     0.022 A 
BRANCH  72  75
ATOM     75  S   UNL     1      -3.339 -18.760  -7.954  1.00  0.00     0.127 S 
ATOM     76  O   UNL     1      -2.482 -19.116  -6.823  1.00  0.00    -0.237 OA
ATOM     77  O   UNL     1      -3.916 -19.901  -8.665  1.00  0.00    -0.237 OA
ATOM     78  O   UNL     1      -2.829 -17.701  -8.813  1.00  0.00    -0.744 OA
ENDBRANCH  72  75
ENDBRANCH  54  68
BRANCH  55  79
ATOM     79  C   UNL     1      -8.550  -6.538  -6.816  1.00  0.00     0.023 A 
ATOM     80  C   UNL     1      -9.854  -6.110  -7.132  1.00  0.00     0.012 A 
ATOM     81  C   UNL     1      -7.559  -5.576  -6.538  1.00  0.00     0.148 A 
ATOM     82  C   UNL     1     -10.158  -4.750  -7.204  1.00  0.00     0.002 A 
ATOM     83  C   UNL     1      -7.883  -4.225  -6.555  1.00  0.00     0.091 A 
ATOM     84  F   UNL     1      -6.322  -6.004  -6.249  1.00  0.00    -0.205 F 
ATOM     85  C   UNL     1      -9.177  -3.808  -6.906  1.00  0.00     0.022 A 
BRANCH  83  86
ATOM     86  S   UNL     1      -6.720  -2.949  -6.058  1.00  0.00     0.127 S 
ATOM     87  O   UNL     1      -6.450  -2.279  -7.328  1.00  0.00    -0.237 OA
ATOM     88  O   UNL     1      -7.515  -2.171  -5.107  1.00  0.00    -0.237 OA
ATOM     89  O   UNL     1      -5.593  -3.653  -5.463  1.00  0.00    -0.744 OA
ENDBRANCH  83  86
ENDBRANCH  55  79
BRANCH  67  90
ATOM     90  C   UNL     1      -8.518 -11.624 -11.602  1.00  0.00     0.023 A 
ATOM     91  C   UNL     1      -7.631 -11.030 -12.521  1.00  0.00     0.012 A 
ATOM     92  C   UNL     1      -9.660 -12.297 -12.080  1.00  0.00     0.148 A 
ATOM     93  C   UNL     1      -7.893 -11.075 -13.890  1.00  0.00     0.002 A 
ATOM     94  C   UNL     1      -9.887 -12.384 -13.448  1.00  0.00     0.091 A 
ATOM     95  F   UNL     1     -10.501 -12.841 -11.188  1.00  0.00    -0.205 F 
ATOM     96  C   UNL     1      -9.013 -11.762 -14.353  1.00  0.00     0.022 A 
BRANCH  94  97
ATOM     97  S   UNL     1     -11.248 -13.330 -14.141  1.00  0.00     0.127 S 
ATOM     98  O   UNL     1     -12.123 -12.271 -14.639  1.00  0.00    -0.237 OA
ATOM     99  O   UNL     1     -10.581 -14.111 -15.184  1.00  0.00    -0.237 OA
ATOM    100  O   UNL     1     -11.787 -14.122 -13.044  1.00  0.00    -0.744 OA
ENDBRANCH  94  97
ENDBRANCH  67  90
ENDBRANCH  41  42
ENDBRANCH  33  36
ENDBRANCH  31  32
ENDBRANCH  30  31
ENDBRANCH   1  30
TORSDOF 19
