REMARK SMILES O=C(NCCCCCCNC(=O)c1ccc([C@@H]2CC(O)=Nc3c2ncn3-c2cccc(Cl)c2)cc1)c1ccc(-c2c3nc(c(-c4cccc(S(=O)(=O)[O-])c4F)c4ccc([nH]4)c(-c4cccc(S(=O)(=O)[O-])c4F)c4nc(c(-c5cccc(S(=O)(=O)[O-])c5F)c5ccc2[nH]5)C=C4)C=C3)cc1
REMARK SMILES IDX 6 1 5 2 4 3 3 4 1 5 2 6 36 8 37 9 98 10 38 11 97 12 39 13
REMARK SMILES IDX 40 14 41 15 91 16 42 17 96 18 90 19 92 20 43 21 95 22 89 23
REMARK SMILES IDX 88 24 44 26 76 27 56 28 75 29 57 30 60 31 74 32 93 33 58 34
REMARK SMILES IDX 59 35 73 37 94 38 61 39 45 40 46 41 54 42 47 43 49 44 55 45
REMARK SMILES IDX 48 46 50 47 51 48 52 49 53 50 77 51 78 52 86 53 79 54 81 55
REMARK SMILES IDX 87 56 80 57 82 58 83 59 84 60 85 61 62 62 63 63 71 64 64 65
REMARK SMILES IDX 66 66 72 67 65 68 67 69 68 70 69 71 70 72 7 73 8 74 9 75
REMARK SMILES IDX 10 76 11 77 12 79 13 80 14 81 35 82 15 83 34 84 16 85 17 86
REMARK SMILES IDX 18 87 23 88 19 89 22 90 24 91 21 92 26 93 25 94 20 95 27 97
REMARK SMILES IDX 28 98 33 99 29 100 31 101 30 102 32 103
REMARK H PARENT 3 7 92 25 60 36 10 78 20 96
REMARK Flexibility Score: inf
ROOT
ATOM      1  C   UNL     1       4.222   2.642  -2.311  1.00  0.00     0.002 C 
ENDROOT
BRANCH   1   2
ATOM      2  C   UNL     1       4.743   1.259  -1.895  1.00  0.00     0.021 C 
BRANCH   2   3
ATOM      3  C   UNL     1       4.548   0.919  -0.418  1.00  0.00     0.116 C 
BRANCH   3   4
ATOM      4  N   UNL     1       3.167   0.952   0.011  1.00  0.00    -0.352 N 
ATOM      5  O   UNL     1       1.106   0.440   0.581  1.00  0.00    -0.269 OA
ATOM      6  C   UNL     1       2.132   0.060   0.010  1.00  0.00     0.251 C 
ATOM      7  H   UNL     1       2.913   1.823   0.393  1.00  0.00     0.163 HD
BRANCH   6   8
ATOM      8  C   UNL     1       2.136  -1.270  -0.661  1.00  0.00     0.039 A 
ATOM      9  C   UNL     1       3.246  -1.903  -1.223  1.00  0.00     0.014 A 
ATOM     10  C   UNL     1       0.886  -1.915  -0.743  1.00  0.00     0.014 A 
ATOM     11  C   UNL     1       3.101  -3.107  -1.909  1.00  0.00     0.010 A 
ATOM     12  C   UNL     1       0.736  -3.121  -1.417  1.00  0.00     0.010 A 
ATOM     13  C   UNL     1       1.842  -3.700  -2.030  1.00  0.00    -0.014 A 
BRANCH  13  14
ATOM     14  C   UNL     1       1.753  -5.004  -2.682  1.00  0.00     0.031 A 
ATOM     15  C   UNL     1       2.450  -6.111  -1.962  1.00  0.00     0.074 A 
ATOM     16  C   UNL     1       0.984  -5.240  -3.765  1.00  0.00     0.049 A 
ATOM     17  N   UNL     1       3.425  -6.852  -2.380  1.00  0.00    -0.248 NA
ATOM     18  C   UNL     1       2.087  -6.342  -0.555  1.00  0.00     0.031 C 
ATOM     19  C   UNL     1       0.012  -4.335  -4.385  1.00  0.00     0.029 A 
ATOM     20  N   UNL     1       0.806  -6.403  -4.458  1.00  0.00    -0.354 N 
ATOM     21  C   UNL     1       3.657  -7.785  -1.366  1.00  0.00     0.074 A 
ATOM     22  C   UNL     1       2.924  -7.323  -0.218  1.00  0.00     0.031 C 
ATOM     23  C   UNL     1      -0.819  -5.050  -5.175  1.00  0.00     0.029 A 
ATOM     24  C   UNL     1      -0.356  -6.426  -5.224  1.00  0.00     0.049 A 
ATOM     25  H   UNL     1       1.441  -7.155  -4.419  1.00  0.00     0.167 HD
ATOM     26  C   UNL     1       4.260  -8.981  -1.610  1.00  0.00     0.034 A 
ATOM     27  C   UNL     1      -0.940  -7.515  -5.782  1.00  0.00     0.034 A 
ATOM     28  C   UNL     1       4.955  -8.978  -2.869  1.00  0.00     0.049 A 
ATOM     29  C   UNL     1       0.082  -8.580  -5.862  1.00  0.00     0.074 A 
ATOM     30  C   UNL     1       5.995  -8.257  -3.418  1.00  0.00     0.029 A 
ATOM     31  N   UNL     1       4.346  -9.621  -3.916  1.00  0.00    -0.354 N 
ATOM     32  N   UNL     1       1.131  -8.520  -6.633  1.00  0.00    -0.248 NA
ATOM     33  C   UNL     1       0.152  -9.544  -4.777  1.00  0.00     0.031 C 
ATOM     34  C   UNL     1       5.655  -8.120  -4.795  1.00  0.00     0.029 A 
ATOM     35  C   UNL     1       4.458  -8.808  -5.009  1.00  0.00     0.049 A 
ATOM     36  H   UNL     1       3.909 -10.503  -3.886  1.00  0.00     0.167 HD
ATOM     37  C   UNL     1       2.144  -9.090  -5.876  1.00  0.00     0.074 A 
ATOM     38  C   UNL     1       1.462  -9.800  -4.797  1.00  0.00     0.031 C 
ATOM     39  C   UNL     1       3.441  -8.692  -6.028  1.00  0.00     0.034 A 
BRANCH  26  40
ATOM     40  C   UNL     1       3.938 -10.286  -0.908  1.00  0.00     0.023 A 
ATOM     41  C   UNL     1       4.736 -11.409  -1.235  1.00  0.00     0.012 A 
ATOM     42  C   UNL     1       2.742 -10.540  -0.199  1.00  0.00     0.148 A 
ATOM     43  C   UNL     1       4.326 -12.716  -0.948  1.00  0.00     0.002 A 
ATOM     44  C   UNL     1       2.374 -11.837   0.148  1.00  0.00     0.091 A 
ATOM     45  F   UNL     1       1.879  -9.551   0.036  1.00  0.00    -0.205 F 
ATOM     46  C   UNL     1       3.143 -12.930  -0.255  1.00  0.00     0.022 A 
BRANCH  44  47
ATOM     47  S   UNL     1       0.876 -12.167   1.085  1.00  0.00     0.127 S 
ATOM     48  O   UNL     1       0.001 -12.715   0.046  1.00  0.00    -0.237 OA
ATOM     49  O   UNL     1       1.350 -13.145   2.068  1.00  0.00    -0.237 OA
ATOM     50  O   UNL     1       0.480 -10.893   1.653  1.00  0.00    -0.744 OA
ENDBRANCH  44  47
ENDBRANCH  26  40
BRANCH  27  51
ATOM     51  C   UNL     1      -2.378  -7.806  -5.993  1.00  0.00     0.023 A 
ATOM     52  C   UNL     1      -2.768  -8.776  -6.939  1.00  0.00     0.012 A 
ATOM     53  C   UNL     1      -3.346  -7.344  -5.074  1.00  0.00     0.148 A 
ATOM     54  C   UNL     1      -4.072  -9.288  -6.951  1.00  0.00     0.002 A 
ATOM     55  C   UNL     1      -4.642  -7.850  -5.095  1.00  0.00     0.091 A 
ATOM     56  F   UNL     1      -2.970  -6.481  -4.122  1.00  0.00    -0.205 F 
ATOM     57  C   UNL     1      -5.006  -8.832  -6.025  1.00  0.00     0.022 A 
BRANCH  55  58
ATOM     58  S   UNL     1      -5.893  -7.328  -3.913  1.00  0.00     0.127 S 
ATOM     59  O   UNL     1      -7.021  -7.009  -4.790  1.00  0.00    -0.237 OA
ATOM     60  O   UNL     1      -6.068  -8.533  -3.106  1.00  0.00    -0.237 OA
ATOM     61  O   UNL     1      -5.330  -6.178  -3.218  1.00  0.00    -0.744 OA
ENDBRANCH  55  58
ENDBRANCH  27  51
BRANCH  39  62
ATOM     62  C   UNL     1       3.792  -7.826  -7.208  1.00  0.00     0.023 A 
ATOM     63  C   UNL     1       3.285  -6.519  -7.360  1.00  0.00     0.012 A 
ATOM     64  C   UNL     1       4.818  -8.265  -8.061  1.00  0.00     0.148 A 
ATOM     65  C   UNL     1       3.785  -5.672  -8.352  1.00  0.00     0.002 A 
ATOM     66  C   UNL     1       5.349  -7.402  -9.010  1.00  0.00     0.091 A 
ATOM     67  F   UNL     1       5.289  -9.511  -7.896  1.00  0.00    -0.205 F 
ATOM     68  C   UNL     1       4.829  -6.107  -9.166  1.00  0.00     0.022 A 
BRANCH  66  69
ATOM     69  S   UNL     1       6.789  -7.848  -9.982  1.00  0.00     0.127 S 
ATOM     70  O   UNL     1       6.213  -8.037 -11.312  1.00  0.00    -0.237 OA
ATOM     71  O   UNL     1       7.637  -6.663  -9.844  1.00  0.00    -0.237 OA
ATOM     72  O   UNL     1       7.339  -9.048  -9.362  1.00  0.00    -0.744 OA
ENDBRANCH  66  69
ENDBRANCH  39  62
ENDBRANCH  13  14
ENDBRANCH   6   8
ENDBRANCH   3   4
ENDBRANCH   2   3
ENDBRANCH   1   2
BRANCH   1  73
ATOM     73  C   UNL     1       4.740   3.826  -1.488  1.00  0.00     0.002 C 
BRANCH  73  74
ATOM     74  C   UNL     1       6.263   3.956  -1.404  1.00  0.00     0.021 C 
BRANCH  74  75
ATOM     75  C   UNL     1       6.970   4.116  -2.747  1.00  0.00     0.116 C 
BRANCH  75  76
ATOM     76  N   UNL     1       6.631   5.371  -3.401  1.00  0.00    -0.352 N 
ATOM     77  C   UNL     1       7.465   6.375  -3.824  1.00  0.00     0.251 C 
ATOM     78  H   UNL     1       5.672   5.521  -3.561  1.00  0.00     0.163 HD
ATOM     79  O   UNL     1       7.011   7.454  -4.198  1.00  0.00    -0.269 OA
BRANCH  77  80
ATOM     80  C   UNL     1       8.927   6.166  -3.807  1.00  0.00     0.039 A 
ATOM     81  C   UNL     1       9.734   7.123  -3.190  1.00  0.00     0.014 A 
ATOM     82  C   UNL     1       9.498   5.034  -4.396  1.00  0.00     0.014 A 
ATOM     83  C   UNL     1      11.110   6.910  -3.100  1.00  0.00     0.005 A 
ATOM     84  C   UNL     1      10.871   4.815  -4.290  1.00  0.00     0.005 A 
ATOM     85  C   UNL     1      11.694   5.746  -3.631  1.00  0.00    -0.038 A 
BRANCH  85  86
ATOM     86  C   UNL     1      13.193   5.542  -3.506  1.00  0.00     0.081 C 
ATOM     87  C   UNL     1      13.876   5.344  -4.877  1.00  0.00     0.111 C 
ATOM     88  C   UNL     1      13.397   4.370  -2.614  1.00  0.00     0.093 A 
ATOM     89  C   UNL     1      14.558   4.002  -5.077  1.00  0.00     0.188 C 
ATOM     90  C   UNL     1      14.165   3.297  -3.005  1.00  0.00     0.164 A 
ATOM     91  N   UNL     1      12.868   4.184  -1.365  1.00  0.00    -0.238 NA
ATOM     92  N   UNL     1      14.748   3.067  -4.205  1.00  0.00    -0.198 NA
ATOM     93  N   UNL     1      14.105   2.402  -1.954  1.00  0.00    -0.283 N 
ATOM     94  C   UNL     1      13.263   2.973  -1.020  1.00  0.00     0.206 A 
BRANCH  89  95
ATOM     95  O   UNL     1      15.038   3.815  -6.323  1.00  0.00    -0.496 OA
ATOM     96  H   UNL     1      14.915   4.475  -6.976  1.00  0.00     0.294 HD
ENDBRANCH  89  95
BRANCH  93  97
ATOM     97  C   UNL     1      14.772   1.160  -1.849  1.00  0.00     0.050 A 
ATOM     98  C   UNL     1      14.120   0.053  -1.294  1.00  0.00     0.027 A 
ATOM     99  C   UNL     1      16.088   1.047  -2.316  1.00  0.00     0.047 A 
ATOM    100  C   UNL     1      14.777  -1.180  -1.253  1.00  0.00     0.004 A 
ATOM    101  C   UNL     1      16.748  -0.175  -2.220  1.00  0.00     0.043 A 
ATOM    102  C   UNL     1      16.093  -1.293  -1.708  1.00  0.00     0.020 A 
ATOM    103  Cl  UNL     1      18.391  -0.298  -2.721  1.00  0.00    -0.084 Cl
ENDBRANCH  93  97
ENDBRANCH  85  86
ENDBRANCH  77  80
ENDBRANCH  75  76
ENDBRANCH  74  75
ENDBRANCH  73  74
ENDBRANCH   1  73
TORSDOF 19
