REMARK SMILES O=C(CSCc1ccc(C(=O)NCCCCCCNC(=O)c2ccc(-c3c4nc(c(-c5cccc(S(=O)(=O)[O-])c5F)c5ccc([nH]5)c(-c5cccc(S(=O)(=O)[O-])c5F)c5nc(c(-c6cccc(S(=O)(=O)[O-])c6F)c6ccc3[nH]6)C=C5)C=C4)cc2)cc1)Nc1ccc(Cl)cc1
REMARK SMILES IDX 14 1 13 2 12 3 10 4 11 5 9 7 6 8 7 9 86 10 8 11 85 12 5 13
REMARK SMILES IDX 4 14 3 15 2 16 1 17 87 18 88 20 89 21 94 22 90 23 93 24
REMARK SMILES IDX 91 25 92 26 15 27 16 28 17 29 18 30 19 31 20 32 21 34 22 35
REMARK SMILES IDX 23 36 84 37 24 38 83 39 25 40 26 41 27 42 77 43 28 44 82 45
REMARK SMILES IDX 76 46 78 47 29 48 81 49 75 50 74 51 30 53 62 54 42 55 61 56
REMARK SMILES IDX 43 57 46 58 60 59 79 60 44 61 45 62 59 64 80 65 47 66 31 67
REMARK SMILES IDX 32 68 40 69 33 70 35 71 41 72 34 73 36 74 37 75 38 76 39 77
REMARK SMILES IDX 63 78 64 79 72 80 65 81 67 82 73 83 66 84 68 85 69 86 70 87
REMARK SMILES IDX 71 88 48 89 49 90 57 91 50 92 52 93 58 94 51 95 53 96 54 97
REMARK SMILES IDX 55 98 56 99
REMARK H PARENT 12 6 87 19 19 33 78 52 46 63
REMARK Flexibility Score: inf
ROOT
ATOM      1  C   UNL     1      -3.032   3.786  -2.766  1.00  0.00     0.021 C 
ENDROOT
BRANCH   1   2
ATOM      2  C   UNL     1      -1.645   4.127  -3.316  1.00  0.00     0.116 C 
BRANCH   2   3
ATOM      3  N   UNL     1      -1.318   5.510  -3.011  1.00  0.00    -0.352 N 
ATOM      4  C   UNL     1      -0.450   6.061  -2.105  1.00  0.00     0.251 C 
ATOM      5  O   UNL     1      -0.346   7.287  -2.064  1.00  0.00    -0.269 OA
ATOM      6  H   UNL     1      -1.808   6.169  -3.553  1.00  0.00     0.163 HD
BRANCH   4   7
ATOM      7  C   UNL     1       0.415   5.232  -1.225  1.00  0.00     0.039 A 
ATOM      8  C   UNL     1       2.216   3.708   0.325  1.00  0.00    -0.038 A 
ATOM      9  C   UNL     1       2.599   4.954  -0.189  1.00  0.00     0.005 A 
ATOM     10  C   UNL     1       0.905   3.267   0.105  1.00  0.00     0.005 A 
ATOM     11  C   UNL     1       1.704   5.710  -0.954  1.00  0.00     0.014 A 
ATOM     12  C   UNL     1       0.006   4.032  -0.642  1.00  0.00     0.014 A 
BRANCH   8  13
ATOM     13  C   UNL     1       3.171   2.868   1.130  1.00  0.00     0.105 C 
BRANCH  13  14
ATOM     14  S   UNL     1       4.390   1.932   0.151  1.00  0.00    -0.147 SA
BRANCH  14  15
ATOM     15  C   UNL     1       3.308   0.868  -0.869  1.00  0.00     0.170 C 
BRANCH  15  16
ATOM     16  C   UNL     1       2.358  -0.002  -0.061  1.00  0.00     0.234 C 
ATOM     17  O   UNL     1       1.169  -0.068  -0.365  1.00  0.00    -0.274 OA
ATOM     18  N   UNL     1       2.959  -0.682   0.984  1.00  0.00    -0.325 N 
ATOM     19  H   UNL     1       3.891  -0.444   1.192  1.00  0.00     0.169 HD
BRANCH  18  20
ATOM     20  C   UNL     1       2.365  -1.683   1.779  1.00  0.00     0.041 A 
ATOM     21  C   UNL     1       2.972  -1.992   3.002  1.00  0.00     0.027 A 
ATOM     22  C   UNL     1       1.223  -2.392   1.391  1.00  0.00     0.027 A 
ATOM     23  C   UNL     1       2.421  -2.966   3.842  1.00  0.00     0.022 A 
ATOM     24  C   UNL     1       0.684  -3.382   2.220  1.00  0.00     0.022 A 
ATOM     25  C   UNL     1       1.278  -3.657   3.447  1.00  0.00     0.041 A 
ATOM     26  Cl  UNL     1       0.605  -4.855   4.482  1.00  0.00    -0.084 Cl
ENDBRANCH  18  20
ENDBRANCH  15  16
ENDBRANCH  14  15
ENDBRANCH  13  14
ENDBRANCH   8  13
ENDBRANCH   4   7
ENDBRANCH   2   3
ENDBRANCH   1   2
BRANCH   1  27
ATOM     27  C   UNL     1      -4.176   4.326  -3.635  1.00  0.00     0.002 C 
BRANCH  27  28
ATOM     28  C   UNL     1      -4.236   3.740  -5.051  1.00  0.00     0.002 C 
BRANCH  28  29
ATOM     29  C   UNL     1      -4.315   2.212  -5.112  1.00  0.00     0.021 C 
BRANCH  29  30
ATOM     30  C   UNL     1      -5.549   1.623  -4.435  1.00  0.00     0.116 C 
BRANCH  30  31
ATOM     31  N   UNL     1      -6.774   2.040  -5.101  1.00  0.00    -0.352 N 
ATOM     32  C   UNL     1      -7.770   1.267  -5.644  1.00  0.00     0.251 C 
ATOM     33  H   UNL     1      -6.908   3.013  -5.171  1.00  0.00     0.163 HD
ATOM     34  O   UNL     1      -8.612   1.775  -6.377  1.00  0.00    -0.269 OA
BRANCH  32  35
ATOM     35  C   UNL     1      -7.817  -0.180  -5.346  1.00  0.00     0.039 A 
ATOM     36  C   UNL     1      -8.073  -1.080  -6.383  1.00  0.00     0.014 A 
ATOM     37  C   UNL     1      -7.619  -0.644  -4.043  1.00  0.00     0.014 A 
ATOM     38  C   UNL     1      -8.082  -2.451  -6.120  1.00  0.00     0.010 A 
ATOM     39  C   UNL     1      -7.551  -2.012  -3.798  1.00  0.00     0.010 A 
ATOM     40  C   UNL     1      -7.795  -2.930  -4.830  1.00  0.00    -0.014 A 
BRANCH  40  41
ATOM     41  C   UNL     1      -7.742  -4.386  -4.545  1.00  0.00     0.031 A 
ATOM     42  C   UNL     1      -8.706  -5.003  -3.568  1.00  0.00     0.074 A 
ATOM     43  C   UNL     1      -6.776  -5.138  -5.107  1.00  0.00     0.049 A 
ATOM     44  N   UNL     1      -8.788  -6.245  -3.164  1.00  0.00    -0.248 NA
ATOM     45  C   UNL     1      -9.690  -4.105  -2.940  1.00  0.00     0.031 C 
ATOM     46  C   UNL     1      -5.732  -4.641  -6.006  1.00  0.00     0.029 A 
ATOM     47  N   UNL     1      -6.497  -6.477  -4.986  1.00  0.00    -0.354 N 
ATOM     48  C   UNL     1      -9.802  -6.270  -2.214  1.00  0.00     0.074 A 
ATOM     49  C   UNL     1     -10.283  -4.913  -2.073  1.00  0.00     0.031 C 
ATOM     50  C   UNL     1      -4.934  -5.660  -6.361  1.00  0.00     0.029 A 
ATOM     51  C   UNL     1      -5.386  -6.875  -5.692  1.00  0.00     0.049 A 
ATOM     52  H   UNL     1      -7.041  -7.093  -4.444  1.00  0.00     0.167 HD
ATOM     53  C   UNL     1     -10.310  -7.330  -1.541  1.00  0.00     0.034 A 
ATOM     54  C   UNL     1      -4.794  -8.082  -5.785  1.00  0.00     0.034 A 
ATOM     55  C   UNL     1      -9.854  -8.683  -1.714  1.00  0.00     0.049 A 
ATOM     56  C   UNL     1      -5.400  -9.251  -5.056  1.00  0.00     0.074 A 
ATOM     57  C   UNL     1     -10.361  -9.840  -1.148  1.00  0.00     0.029 A 
ATOM     58  N   UNL     1      -8.778  -9.062  -2.501  1.00  0.00    -0.354 N 
ATOM     59  N   UNL     1      -6.463  -9.283  -4.289  1.00  0.00    -0.248 NA
ATOM     60  C   UNL     1      -4.750 -10.556  -5.237  1.00  0.00     0.031 C 
ATOM     61  C   UNL     1      -9.571 -10.915  -1.569  1.00  0.00     0.029 A 
ATOM     62  C   UNL     1      -8.596 -10.432  -2.427  1.00  0.00     0.049 A 
ATOM     63  H   UNL     1      -8.225  -8.447  -3.035  1.00  0.00     0.167 HD
ATOM     64  C   UNL     1      -6.630 -10.615  -3.925  1.00  0.00     0.074 A 
ATOM     65  C   UNL     1      -5.571 -11.360  -4.575  1.00  0.00     0.031 C 
ATOM     66  C   UNL     1      -7.568 -11.168  -3.118  1.00  0.00     0.034 A 
BRANCH  53  67
ATOM     67  C   UNL     1     -11.450  -7.077  -0.589  1.00  0.00     0.023 A 
ATOM     68  C   UNL     1     -12.719  -6.728  -1.097  1.00  0.00     0.012 A 
ATOM     69  C   UNL     1     -11.285  -7.238   0.800  1.00  0.00     0.148 A 
ATOM     70  C   UNL     1     -13.794  -6.506  -0.237  1.00  0.00     0.002 A 
ATOM     71  C   UNL     1     -12.373  -7.063   1.648  1.00  0.00     0.091 A 
ATOM     72  F   UNL     1     -10.068  -7.551   1.268  1.00  0.00    -0.205 F 
ATOM     73  C   UNL     1     -13.623  -6.684   1.133  1.00  0.00     0.022 A 
BRANCH  71  74
ATOM     74  S   UNL     1     -12.279  -7.349   3.419  1.00  0.00     0.127 S 
ATOM     75  O   UNL     1     -12.402  -5.990   3.944  1.00  0.00    -0.237 OA
ATOM     76  O   UNL     1     -13.446  -8.200   3.654  1.00  0.00    -0.237 OA
ATOM     77  O   UNL     1     -10.997  -7.997   3.655  1.00  0.00    -0.744 OA
ENDBRANCH  71  74
ENDBRANCH  53  67
BRANCH  54  78
ATOM     78  C   UNL     1      -3.593  -8.258  -6.651  1.00  0.00     0.023 A 
ATOM     79  C   UNL     1      -3.700  -9.007  -7.839  1.00  0.00     0.012 A 
ATOM     80  C   UNL     1      -2.358  -7.669  -6.318  1.00  0.00     0.148 A 
ATOM     81  C   UNL     1      -2.590  -9.196  -8.663  1.00  0.00     0.002 A 
ATOM     82  C   UNL     1      -1.270  -7.814  -7.172  1.00  0.00     0.091 A 
ATOM     83  F   UNL     1      -2.275  -6.968  -5.179  1.00  0.00    -0.205 F 
ATOM     84  C   UNL     1      -1.379  -8.593  -8.335  1.00  0.00     0.022 A 
BRANCH  82  85
ATOM     85  S   UNL     1       0.290  -6.967  -6.898  1.00  0.00     0.127 S 
ATOM     86  O   UNL     1       1.179  -8.076  -6.564  1.00  0.00    -0.237 OA
ATOM     87  O   UNL     1       0.533  -6.355  -8.205  1.00  0.00    -0.237 OA
ATOM     88  O   UNL     1       0.038  -6.013  -5.827  1.00  0.00    -0.744 OA
ENDBRANCH  82  85
ENDBRANCH  54  78
BRANCH  66  89
ATOM     89  C   UNL     1      -7.526 -12.661  -2.917  1.00  0.00     0.023 A 
ATOM     90  C   UNL     1      -6.503 -13.239  -2.139  1.00  0.00     0.012 A 
ATOM     91  C   UNL     1      -8.545 -13.482  -3.439  1.00  0.00     0.148 A 
ATOM     92  C   UNL     1      -6.476 -14.614  -1.913  1.00  0.00     0.002 A 
ATOM     93  C   UNL     1      -8.541 -14.844  -3.166  1.00  0.00     0.091 A 
ATOM     94  F   UNL     1      -9.499 -12.916  -4.192  1.00  0.00    -0.205 F 
ATOM     95  C   UNL     1      -7.500 -15.414  -2.415  1.00  0.00     0.022 A 
BRANCH  93  96
ATOM     96  S   UNL     1      -9.870 -15.935  -3.686  1.00  0.00     0.127 S 
ATOM     97  O   UNL     1      -9.217 -16.721  -4.732  1.00  0.00    -0.237 OA
ATOM     98  O   UNL     1     -10.160 -16.676  -2.458  1.00  0.00    -0.237 OA
ATOM     99  O   UNL     1     -10.949 -15.068  -4.138  1.00  0.00    -0.744 OA
ENDBRANCH  93  96
ENDBRANCH  66  89
ENDBRANCH  40  41
ENDBRANCH  32  35
ENDBRANCH  30  31
ENDBRANCH  29  30
ENDBRANCH  28  29
ENDBRANCH  27  28
ENDBRANCH   1  27
TORSDOF 21
