REMARK SMILES CC[C@](C)([NH3+])C(=O)NC[C@](C)(O)C(=O)NCCCCCCNC(=O)c1ccc(-c2c3nc(c(-c4cccc(S(=O)(=O)[O-])c4F)c4ccc([nH]4)c(-c4cccc(S(=O)(=O)[O-])c4F)c4nc(c(-c5cccc(S(=O)(=O)[O-])c5F)c5ccc2[nH]5)C=C4)C=C3)cc1
REMARK SMILES IDX 18 1 17 2 16 3 15 4 13 5 14 6 10 8 11 9 9 10 8 11 6 12 7 13
REMARK SMILES IDX 3 15 4 16 2 17 1 18 5 19 12 23 19 25 20 26 21 27 22 28 23 29
REMARK SMILES IDX 24 31 25 32 26 33 87 34 27 35 86 36 28 37 29 38 30 39 80 40
REMARK SMILES IDX 31 41 85 42 79 43 81 44 32 45 84 46 78 47 77 48 33 50 65 51
REMARK SMILES IDX 45 52 64 53 46 54 49 55 63 56 82 57 47 58 48 59 62 61 83 62
REMARK SMILES IDX 50 63 34 64 35 65 43 66 36 67 38 68 44 69 37 70 39 71 40 72
REMARK SMILES IDX 41 73 42 74 66 75 67 76 75 77 68 78 70 79 76 80 69 81 71 82
REMARK SMILES IDX 72 83 73 84 74 85 51 86 52 87 60 88 53 89 55 90 61 91 54 92
REMARK SMILES IDX 56 93 57 94 58 95 59 96
REMARK H PARENT 15 7 8 14 5 20 5 21 5 22 12 24 22 30 81 49 49 60
REMARK Flexibility Score: inf
ROOT
ATOM      1  C   UNL     1       1.798  -8.065  -6.225  1.00  0.00     0.002 C 
ENDROOT
BRANCH   1   2
ATOM      2  C   UNL     1       1.697  -8.467  -4.751  1.00  0.00     0.021 C 
BRANCH   2   3
ATOM      3  C   UNL     1       2.583  -7.662  -3.812  1.00  0.00     0.116 C 
BRANCH   3   4
ATOM      4  N   UNL     1       2.189  -6.271  -3.701  1.00  0.00    -0.354 N 
ATOM      5  C   UNL     1       2.252  -5.442  -2.619  1.00  0.00     0.253 C 
ATOM      6  O   UNL     1       2.081  -4.232  -2.815  1.00  0.00    -0.272 OA
ATOM      7  H   UNL     1       1.825  -5.868  -4.523  1.00  0.00     0.163 HD
BRANCH   5   8
ATOM      8  C   UNL     1       2.585  -5.984  -1.198  1.00  0.00     0.157 C 
ATOM      9  C   UNL     1       2.047  -4.979  -0.153  1.00  0.00     0.055 C 
BRANCH   8  10
ATOM     10  C   UNL     1       4.124  -6.053  -1.018  1.00  0.00     0.161 C 
BRANCH  10  11
ATOM     11  N   UNL     1       4.819  -7.086  -1.763  1.00  0.00    -0.347 N 
ATOM     12  C   UNL     1       5.742  -7.061  -2.767  1.00  0.00     0.281 C 
ATOM     13  O   UNL     1       6.089  -8.181  -3.163  1.00  0.00    -0.268 OA
ATOM     14  H   UNL     1       4.574  -7.997  -1.484  1.00  0.00     0.163 HD
BRANCH  12  15
ATOM     15  C   UNL     1       6.361  -5.758  -3.378  1.00  0.00     0.170 C 
ATOM     16  C   UNL     1       7.057  -6.153  -4.710  1.00  0.00     0.090 C 
BRANCH  15  17
ATOM     17  C   UNL     1       7.458  -5.138  -2.479  1.00  0.00     0.075 C 
ATOM     18  C   UNL     1       7.048  -4.564  -1.134  1.00  0.00     0.011 C 
ENDBRANCH  15  17
BRANCH  15  19
ATOM     19  N   UNL     1       5.320  -4.790  -3.781  1.00  0.00    -0.345 N 
ATOM     20  H   UNL     1       4.630  -5.258  -4.369  1.00  0.00     0.345 HD
ATOM     21  H   UNL     1       5.750  -4.026  -4.302  1.00  0.00     0.345 HD
ATOM     22  H   UNL     1       4.862  -4.419  -2.949  1.00  0.00     0.345 HD
ENDBRANCH  15  19
ENDBRANCH  12  15
ENDBRANCH  10  11
ENDBRANCH   8  10
BRANCH   8  23
ATOM     23  O   UNL     1       1.962  -7.231  -0.886  1.00  0.00    -0.378 OA
ATOM     24  H   UNL     1       1.003  -7.153  -1.008  1.00  0.00     0.212 HD
ENDBRANCH   8  23
ENDBRANCH   5   8
ENDBRANCH   3   4
ENDBRANCH   2   3
ENDBRANCH   1   2
BRANCH   1  25
ATOM     25  C   UNL     1       3.210  -8.055  -6.822  1.00  0.00     0.002 C 
BRANCH  25  26
ATOM     26  C   UNL     1       4.017  -9.346  -6.663  1.00  0.00     0.021 C 
BRANCH  26  27
ATOM     27  C   UNL     1       3.321 -10.620  -7.132  1.00  0.00     0.116 C 
BRANCH  27  28
ATOM     28  N   UNL     1       2.886 -10.545  -8.518  1.00  0.00    -0.352 N 
ATOM     29  C   UNL     1       3.032 -11.458  -9.530  1.00  0.00     0.251 C 
ATOM     30  H   UNL     1       2.418  -9.715  -8.766  1.00  0.00     0.163 HD
ATOM     31  O   UNL     1       2.716 -11.149 -10.680  1.00  0.00    -0.269 OA
BRANCH  29  32
ATOM     32  C   UNL     1       3.589 -12.799  -9.254  1.00  0.00     0.039 A 
ATOM     33  C   UNL     1       4.536 -13.324 -10.137  1.00  0.00     0.014 A 
ATOM     34  C   UNL     1       3.181 -13.544  -8.143  1.00  0.00     0.014 A 
ATOM     35  C   UNL     1       5.114 -14.568  -9.876  1.00  0.00     0.010 A 
ATOM     36  C   UNL     1       3.812 -14.750  -7.845  1.00  0.00     0.010 A 
ATOM     37  C   UNL     1       4.783 -15.277  -8.709  1.00  0.00    -0.014 A 
BRANCH  37  38
ATOM     38  C   UNL     1       5.473 -16.549  -8.372  1.00  0.00     0.031 A 
ATOM     39  C   UNL     1       4.706 -17.840  -8.277  1.00  0.00     0.074 A 
ATOM     40  C   UNL     1       6.791 -16.528  -8.089  1.00  0.00     0.049 A 
ATOM     41  N   UNL     1       5.146 -19.040  -7.994  1.00  0.00    -0.248 NA
ATOM     42  C   UNL     1       3.254 -17.776  -8.506  1.00  0.00     0.031 C 
ATOM     43  C   UNL     1       7.630 -15.327  -8.063  1.00  0.00     0.029 A 
ATOM     44  N   UNL     1       7.653 -17.540  -7.748  1.00  0.00    -0.354 N 
ATOM     45  C   UNL     1       4.028 -19.865  -7.982  1.00  0.00     0.074 A 
ATOM     46  C   UNL     1       2.883 -19.023  -8.253  1.00  0.00     0.031 C 
ATOM     47  C   UNL     1       8.885 -15.673  -7.740  1.00  0.00     0.029 A 
ATOM     48  C   UNL     1       8.937 -17.111  -7.501  1.00  0.00     0.049 A 
ATOM     49  H   UNL     1       7.379 -18.484  -7.687  1.00  0.00     0.167 HD
ATOM     50  C   UNL     1       3.962 -21.204  -7.791  1.00  0.00     0.034 A 
ATOM     51  C   UNL     1      10.032 -17.797  -7.119  1.00  0.00     0.034 A 
ATOM     52  C   UNL     1       5.107 -22.042  -7.549  1.00  0.00     0.049 A 
ATOM     53  C   UNL     1       9.937 -19.287  -6.943  1.00  0.00     0.074 A 
ATOM     54  C   UNL     1       5.155 -23.420  -7.430  1.00  0.00     0.029 A 
ATOM     55  N   UNL     1       6.403 -21.581  -7.373  1.00  0.00    -0.354 N 
ATOM     56  N   UNL     1       8.899 -20.073  -7.102  1.00  0.00    -0.248 NA
ATOM     57  C   UNL     1      11.172 -19.992  -6.572  1.00  0.00     0.031 C 
ATOM     58  C   UNL     1       6.474 -23.789  -7.145  1.00  0.00     0.029 A 
ATOM     59  C   UNL     1       7.255 -22.645  -7.128  1.00  0.00     0.049 A 
ATOM     60  H   UNL     1       6.677 -20.637  -7.417  1.00  0.00     0.167 HD
ATOM     61  C   UNL     1       9.362 -21.365  -6.883  1.00  0.00     0.074 A 
ATOM     62  C   UNL     1      10.780 -21.258  -6.606  1.00  0.00     0.031 C 
ATOM     63  C   UNL     1       8.673 -22.533  -6.896  1.00  0.00     0.034 A 
BRANCH  50  64
ATOM     64  C   UNL     1       2.607 -21.860  -7.877  1.00  0.00     0.023 A 
ATOM     65  C   UNL     1       1.956 -21.959  -9.124  1.00  0.00     0.012 A 
ATOM     66  C   UNL     1       2.007 -22.437  -6.740  1.00  0.00     0.148 A 
ATOM     67  C   UNL     1       0.716 -22.586  -9.233  1.00  0.00     0.002 A 
ATOM     68  C   UNL     1       0.792 -23.102  -6.864  1.00  0.00     0.091 A 
ATOM     69  F   UNL     1       2.630 -22.319  -5.559  1.00  0.00    -0.205 F 
ATOM     70  C   UNL     1       0.140 -23.166  -8.107  1.00  0.00     0.022 A 
BRANCH  68  71
ATOM     71  S   UNL     1       0.007 -23.955  -5.492  1.00  0.00     0.127 S 
ATOM     72  O   UNL     1      -1.165 -23.113  -5.254  1.00  0.00    -0.237 OA
ATOM     73  O   UNL     1      -0.292 -25.264  -6.075  1.00  0.00    -0.237 OA
ATOM     74  O   UNL     1       0.987 -23.977  -4.417  1.00  0.00    -0.744 OA
ENDBRANCH  68  71
ENDBRANCH  50  64
BRANCH  51  75
ATOM     75  C   UNL     1      11.329 -17.085  -6.932  1.00  0.00     0.023 A 
ATOM     76  C   UNL     1      12.383 -17.312  -7.838  1.00  0.00     0.012 A 
ATOM     77  C   UNL     1      11.515 -16.171  -5.877  1.00  0.00     0.148 A 
ATOM     78  C   UNL     1      13.611 -16.670  -7.677  1.00  0.00     0.002 A 
ATOM     79  C   UNL     1      12.721 -15.491  -5.755  1.00  0.00     0.091 A 
ATOM     80  F   UNL     1      10.503 -15.976  -5.020  1.00  0.00    -0.205 F 
ATOM     81  C   UNL     1      13.777 -15.753  -6.643  1.00  0.00     0.022 A 
BRANCH  79  82
ATOM     82  S   UNL     1      12.982 -14.202  -4.533  1.00  0.00     0.127 S 
ATOM     83  O   UNL     1      13.955 -14.828  -3.641  1.00  0.00    -0.237 OA
ATOM     84  O   UNL     1      13.512 -13.112  -5.354  1.00  0.00    -0.237 OA
ATOM     85  O   UNL     1      11.673 -13.937  -3.953  1.00  0.00    -0.744 OA
ENDBRANCH  79  82
ENDBRANCH  51  75
BRANCH  63  86
ATOM     86  C   UNL     1       9.445 -23.801  -6.636  1.00  0.00     0.023 A 
ATOM     87  C   UNL     1       9.939 -24.073  -5.345  1.00  0.00     0.012 A 
ATOM     88  C   UNL     1       9.630 -24.751  -7.660  1.00  0.00     0.148 A 
ATOM     89  C   UNL     1      10.639 -25.252  -5.087  1.00  0.00     0.002 A 
ATOM     90  C   UNL     1      10.281 -25.947  -7.383  1.00  0.00     0.091 A 
ATOM     91  F   UNL     1       9.168 -24.468  -8.887  1.00  0.00    -0.205 F 
ATOM     92  C   UNL     1      10.800 -26.192  -6.101  1.00  0.00     0.022 A 
BRANCH  90  93
ATOM     93  S   UNL     1      10.448 -27.259  -8.599  1.00  0.00     0.127 S 
ATOM     94  O   UNL     1      11.879 -27.208  -8.896  1.00  0.00    -0.237 OA
ATOM     95  O   UNL     1      10.024 -28.437  -7.843  1.00  0.00    -0.237 OA
ATOM     96  O   UNL     1       9.569 -26.899  -9.703  1.00  0.00    -0.744 OA
ENDBRANCH  90  93
ENDBRANCH  63  86
ENDBRANCH  37  38
ENDBRANCH  29  32
ENDBRANCH  27  28
ENDBRANCH  26  27
ENDBRANCH  25  26
ENDBRANCH   1  25
TORSDOF 22
