REMARK SMILES [NH3+][C@]1(C(=O)NCCCCCCNC(=O)c2ccc(-c3c4nc(c(-c5cccc(S(=O)(=O)[O-])c5F)c5ccc([nH]5)c(-c5cccc(S(=O)(=O)[O-])c5F)c5nc(c(-c6cccc(S(=O)(=O)[O-])c6F)c6ccc3[nH]6)C=C5)C=C4)cc2)CC[C@@H](Sc2cc3ccccc3[nH]2)C1
REMARK SMILES IDX 9 1 8 2 7 3 6 4 5 5 3 6 4 7 2 9 78 10 91 11 79 12 80 13 1 14
REMARK SMILES IDX 81 18 82 19 83 20 90 21 84 22 89 23 85 25 88 26 86 27 87 28
REMARK SMILES IDX 10 29 11 30 12 31 13 32 14 34 15 35 16 36 77 37 17 38 76 39
REMARK SMILES IDX 18 40 19 41 20 42 70 43 21 44 75 45 69 46 71 47 22 48 74 49
REMARK SMILES IDX 68 50 67 51 23 53 55 54 35 55 54 56 36 57 39 58 53 59 72 60
REMARK SMILES IDX 37 61 38 62 52 64 73 65 40 66 24 67 25 68 33 69 26 70 28 71
REMARK SMILES IDX 34 72 27 73 29 74 30 75 31 76 32 77 56 78 57 79 65 80 58 81
REMARK SMILES IDX 60 82 66 83 59 84 61 85 62 86 63 87 64 88 41 89 42 90 50 91
REMARK SMILES IDX 43 92 45 93 51 94 44 95 46 96 47 97 48 98 49 99
REMARK H PARENT 5 8 1 15 1 16 1 17 90 24 12 33 71 52 39 63
REMARK Flexibility Score: inf
ROOT
ATOM      1  C   UNL     1       5.700  -1.072   1.466  1.00  0.00     0.002 C 
ENDROOT
BRANCH   1   2
ATOM      2  C   UNL     1       5.096   0.135   0.741  1.00  0.00     0.002 C 
BRANCH   2   3
ATOM      3  C   UNL     1       4.364  -0.211  -0.564  1.00  0.00     0.021 C 
BRANCH   3   4
ATOM      4  C   UNL     1       3.240  -1.228  -0.364  1.00  0.00     0.116 C 
BRANCH   4   5
ATOM      5  N   UNL     1       2.199  -0.634   0.444  1.00  0.00    -0.351 N 
ATOM      6  C   UNL     1       1.090   0.054   0.060  1.00  0.00     0.281 C 
ATOM      7  O   UNL     1       0.578   0.793   0.906  1.00  0.00    -0.268 OA
ATOM      8  H   UNL     1       2.308  -0.743   1.416  1.00  0.00     0.163 HD
BRANCH   6   9
ATOM      9  C   UNL     1       0.482  -0.146  -1.348  1.00  0.00     0.175 C 
ATOM     10  C   UNL     1       0.038  -1.605  -1.538  1.00  0.00     0.080 C 
ATOM     11  C   UNL     1      -0.842   0.618  -1.466  1.00  0.00     0.094 C 
ATOM     12  C   UNL     1      -1.057  -1.566  -2.594  1.00  0.00     0.022 C 
ATOM     13  C   UNL     1      -1.664  -0.170  -2.479  1.00  0.00     0.060 C 
BRANCH   9  14
ATOM     14  N   UNL     1       1.347   0.342  -2.441  1.00  0.00    -0.345 N 
ATOM     15  H   UNL     1       0.887   0.179  -3.337  1.00  0.00     0.345 HD
ATOM     16  H   UNL     1       2.236  -0.157  -2.419  1.00  0.00     0.345 HD
ATOM     17  H   UNL     1       1.515   1.341  -2.321  1.00  0.00     0.345 HD
ENDBRANCH   9  14
BRANCH  13  18
ATOM     18  S   UNL     1      -3.406  -0.064  -2.061  1.00  0.00    -0.105 SA
BRANCH  18  19
ATOM     19  C   UNL     1      -3.701  -1.244  -0.807  1.00  0.00     0.073 A 
ATOM     20  C   UNL     1      -4.062  -1.047   0.515  1.00  0.00     0.043 A 
ATOM     21  N   UNL     1      -4.403  -2.354  -1.214  1.00  0.00    -0.350 N 
ATOM     22  C   UNL     1      -5.437  -1.471   0.534  1.00  0.00     0.001 A 
ATOM     23  C   UNL     1      -5.648  -2.214  -0.629  1.00  0.00     0.046 A 
ATOM     24  H   UNL     1      -4.088  -3.085  -1.793  1.00  0.00     0.167 HD
ATOM     25  C   UNL     1      -6.552  -1.127   1.321  1.00  0.00     0.010 A 
ATOM     26  C   UNL     1      -6.908  -2.563  -1.111  1.00  0.00     0.027 A 
ATOM     27  C   UNL     1      -7.831  -1.401   0.816  1.00  0.00     0.001 A 
ATOM     28  C   UNL     1      -8.002  -2.085  -0.390  1.00  0.00     0.002 A 
ENDBRANCH  18  19
ENDBRANCH  13  18
ENDBRANCH   6   9
ENDBRANCH   4   5
ENDBRANCH   3   4
ENDBRANCH   2   3
ENDBRANCH   1   2
BRANCH   1  29
ATOM     29  C   UNL     1       6.640  -1.918   0.604  1.00  0.00     0.021 C 
BRANCH  29  30
ATOM     30  C   UNL     1       7.844  -1.151   0.073  1.00  0.00     0.116 C 
BRANCH  30  31
ATOM     31  N   UNL     1       8.708  -0.700   1.153  1.00  0.00    -0.352 N 
ATOM     32  C   UNL     1      10.048  -0.934   1.338  1.00  0.00     0.251 C 
ATOM     33  H   UNL     1       8.272  -0.154   1.847  1.00  0.00     0.163 HD
ATOM     34  O   UNL     1      10.575  -0.686   2.414  1.00  0.00    -0.269 OA
BRANCH  32  35
ATOM     35  C   UNL     1      10.842  -1.499   0.226  1.00  0.00     0.039 A 
ATOM     36  C   UNL     1      11.733  -2.541   0.489  1.00  0.00     0.014 A 
ATOM     37  C   UNL     1      10.698  -1.002  -1.073  1.00  0.00     0.014 A 
ATOM     38  C   UNL     1      12.445  -3.119  -0.564  1.00  0.00     0.010 A 
ATOM     39  C   UNL     1      11.347  -1.631  -2.129  1.00  0.00     0.010 A 
ATOM     40  C   UNL     1      12.236  -2.689  -1.885  1.00  0.00    -0.014 A 
BRANCH  40  41
ATOM     41  C   UNL     1      12.938  -3.331  -3.025  1.00  0.00     0.031 A 
ATOM     42  C   UNL     1      13.878  -2.526  -3.882  1.00  0.00     0.074 A 
ATOM     43  C   UNL     1      12.672  -4.616  -3.334  1.00  0.00     0.049 A 
ATOM     44  N   UNL     1      14.533  -2.891  -4.954  1.00  0.00    -0.248 NA
ATOM     45  C   UNL     1      14.093  -1.120  -3.500  1.00  0.00     0.031 C 
ATOM     46  C   UNL     1      11.729  -5.481  -2.621  1.00  0.00     0.029 A 
ATOM     47  N   UNL     1      13.152  -5.412  -4.343  1.00  0.00    -0.354 N 
ATOM     48  C   UNL     1      15.214  -1.759  -5.387  1.00  0.00     0.074 A 
ATOM     49  C   UNL     1      14.857  -0.683  -4.489  1.00  0.00     0.031 C 
ATOM     50  C   UNL     1      11.706  -6.688  -3.209  1.00  0.00     0.029 A 
ATOM     51  C   UNL     1      12.602  -6.673  -4.361  1.00  0.00     0.049 A 
ATOM     52  H   UNL     1      13.827  -5.110  -4.993  1.00  0.00     0.167 HD
ATOM     53  C   UNL     1      16.085  -1.633  -6.416  1.00  0.00     0.034 A 
ATOM     54  C   UNL     1      12.790  -7.698  -5.215  1.00  0.00     0.034 A 
ATOM     55  C   UNL     1      16.460  -2.713  -7.288  1.00  0.00     0.049 A 
ATOM     56  C   UNL     1      13.769  -7.532  -6.348  1.00  0.00     0.074 A 
ATOM     57  C   UNL     1      17.378  -2.704  -8.323  1.00  0.00     0.029 A 
ATOM     58  N   UNL     1      15.935  -3.995  -7.231  1.00  0.00    -0.354 N 
ATOM     59  N   UNL     1      14.507  -6.494  -6.656  1.00  0.00    -0.248 NA
ATOM     60  C   UNL     1      13.967  -8.692  -7.229  1.00  0.00     0.031 C 
ATOM     61  C   UNL     1      17.389  -3.974  -8.909  1.00  0.00     0.029 A 
ATOM     62  C   UNL     1      16.505  -4.784  -8.215  1.00  0.00     0.049 A 
ATOM     63  H   UNL     1      15.257  -4.299  -6.585  1.00  0.00     0.167 HD
ATOM     64  C   UNL     1      15.288  -6.889  -7.736  1.00  0.00     0.074 A 
ATOM     65  C   UNL     1      14.946  -8.268  -8.015  1.00  0.00     0.031 C 
ATOM     66  C   UNL     1      16.197  -6.173  -8.442  1.00  0.00     0.034 A 
BRANCH  53  67
ATOM     67  C   UNL     1      16.738  -0.290  -6.620  1.00  0.00     0.023 A 
ATOM     68  C   UNL     1      17.691   0.167  -5.686  1.00  0.00     0.012 A 
ATOM     69  C   UNL     1      16.458   0.491  -7.758  1.00  0.00     0.148 A 
ATOM     70  C   UNL     1      18.328   1.395  -5.860  1.00  0.00     0.002 A 
ATOM     71  C   UNL     1      17.132   1.693  -7.949  1.00  0.00     0.091 A 
ATOM     72  F   UNL     1      15.537   0.051  -8.626  1.00  0.00    -0.205 F 
ATOM     73  C   UNL     1      18.056   2.151  -6.996  1.00  0.00     0.022 A 
BRANCH  71  74
ATOM     74  S   UNL     1      16.915   2.705  -9.417  1.00  0.00     0.127 S 
ATOM     75  O   UNL     1      16.245   3.883  -8.866  1.00  0.00    -0.237 OA
ATOM     76  O   UNL     1      18.297   2.932  -9.840  1.00  0.00    -0.237 OA
ATOM     77  O   UNL     1      16.117   1.911 -10.341  1.00  0.00    -0.744 OA
ENDBRANCH  71  74
ENDBRANCH  53  67
BRANCH  54  78
ATOM     78  C   UNL     1      12.081  -8.993  -5.008  1.00  0.00     0.023 A 
ATOM     79  C   UNL     1      12.819 -10.137  -4.644  1.00  0.00     0.012 A 
ATOM     80  C   UNL     1      10.687  -9.100  -5.171  1.00  0.00     0.148 A 
ATOM     81  C   UNL     1      12.189 -11.372  -4.491  1.00  0.00     0.002 A 
ATOM     82  C   UNL     1      10.057 -10.322  -4.960  1.00  0.00     0.091 A 
ATOM     83  F   UNL     1      10.002  -8.004  -5.527  1.00  0.00    -0.205 F 
ATOM     84  C   UNL     1      10.808 -11.463  -4.642  1.00  0.00     0.022 A 
BRANCH  82  85
ATOM     85  S   UNL     1       8.270 -10.502  -5.006  1.00  0.00     0.127 S 
ATOM     86  O   UNL     1       8.076 -11.254  -6.242  1.00  0.00    -0.237 OA
ATOM     87  O   UNL     1       8.011 -11.255  -3.778  1.00  0.00    -0.237 OA
ATOM     88  O   UNL     1       7.739  -9.145  -4.998  1.00  0.00    -0.744 OA
ENDBRANCH  82  85
ENDBRANCH  54  78
BRANCH  66  89
ATOM     89  C   UNL     1      16.933  -6.877  -9.553  1.00  0.00     0.023 A 
ATOM     90  C   UNL     1      16.260  -7.214 -10.743  1.00  0.00     0.012 A 
ATOM     91  C   UNL     1      18.313  -7.139  -9.440  1.00  0.00     0.148 A 
ATOM     92  C   UNL     1      16.940  -7.836 -11.790  1.00  0.00     0.002 A 
ATOM     93  C   UNL     1      18.995  -7.710 -10.507  1.00  0.00     0.091 A 
ATOM     94  F   UNL     1      18.931  -6.826  -8.292  1.00  0.00    -0.205 F 
ATOM     95  C   UNL     1      18.308  -8.072 -11.677  1.00  0.00     0.022 A 
BRANCH  93  96
ATOM     96  S   UNL     1      20.774  -7.959 -10.491  1.00  0.00     0.127 S 
ATOM     97  O   UNL     1      20.869  -9.416 -10.411  1.00  0.00    -0.237 OA
ATOM     98  O   UNL     1      21.177  -7.391 -11.778  1.00  0.00    -0.237 OA
ATOM     99  O   UNL     1      21.272  -7.238  -9.328  1.00  0.00    -0.744 OA
ENDBRANCH  93  96
ENDBRANCH  66  89
ENDBRANCH  40  41
ENDBRANCH  32  35
ENDBRANCH  30  31
ENDBRANCH  29  30
ENDBRANCH   1  29
TORSDOF 19
