REMARK SMILES C[C@@H](CC(=O)NCCCCCCNC(=O)c1ccc(-c2c3nc(c(-c4cccc(S(=O)(=O)[O-])c4F)c4ccc([nH]4)c(-c4cccc(S(=O)(=O)[O-])c4F)c4nc(c(-c5cccc(S(=O)(=O)[O-])c5F)c5ccc2[nH]5)C=C4)C=C3)cc1)CC(=O)NC[C@@]1(C)CCCO1
REMARK SMILES IDX 8 1 7 2 6 3 4 4 5 5 3 7 2 8 1 9 79 10 80 11 81 12 82 13
REMARK SMILES IDX 83 15 84 16 85 17 86 18 89 19 87 20 88 21 9 22 10 23 11 24
REMARK SMILES IDX 12 25 13 26 14 27 15 29 16 30 17 31 78 32 18 33 77 34 19 35
REMARK SMILES IDX 20 36 21 37 71 38 22 39 76 40 70 41 72 42 23 43 75 44 69 45
REMARK SMILES IDX 68 46 24 48 56 49 36 50 55 51 37 52 40 53 54 54 73 55 38 56
REMARK SMILES IDX 39 57 53 59 74 60 41 61 25 62 26 63 34 64 27 65 29 66 35 67
REMARK SMILES IDX 28 68 30 69 31 70 32 71 33 72 57 73 58 74 66 75 59 76 61 77
REMARK SMILES IDX 67 78 60 79 62 80 63 81 64 82 65 83 42 84 43 85 51 86 44 87
REMARK SMILES IDX 46 88 52 89 45 90 47 91 48 92 49 93 50 94
REMARK H PARENT 6 6 82 14 13 28 72 47 40 58
REMARK Flexibility Score: inf
ROOT
ATOM      1  C   UNL     1       1.072  -2.141   1.514  1.00  0.00     0.021 C 
ENDROOT
BRANCH   1   2
ATOM      2  C   UNL     1       1.683  -2.643   0.204  1.00  0.00     0.116 C 
BRANCH   2   3
ATOM      3  N   UNL     1       0.642  -3.221  -0.629  1.00  0.00    -0.356 N 
ATOM      4  C   UNL     1       0.025  -2.734  -1.740  1.00  0.00     0.220 C 
ATOM      5  O   UNL     1      -0.996  -3.304  -2.131  1.00  0.00    -0.275 OA
ATOM      6  H   UNL     1       0.333  -4.110  -0.343  1.00  0.00     0.163 HD
BRANCH   4   7
ATOM      7  C   UNL     1       0.605  -1.568  -2.518  1.00  0.00     0.103 C 
BRANCH   7   8
ATOM      8  C   UNL     1       0.203  -0.125  -2.139  1.00  0.00     0.004 C 
ATOM      9  C   UNL     1       1.419   0.611  -1.589  1.00  0.00     0.009 C 
BRANCH   8  10
ATOM     10  C   UNL     1      -1.033   0.012  -1.230  1.00  0.00     0.103 C 
BRANCH  10  11
ATOM     11  C   UNL     1      -1.321   1.463  -0.852  1.00  0.00     0.220 C 
ATOM     12  O   UNL     1      -1.922   2.207  -1.631  1.00  0.00    -0.275 OA
ATOM     13  N   UNL     1      -0.862   1.990   0.325  1.00  0.00    -0.353 N 
ATOM     14  H   UNL     1      -0.903   2.971   0.390  1.00  0.00     0.163 HD
BRANCH  13  15
ATOM     15  C   UNL     1      -0.323   1.312   1.496  1.00  0.00     0.151 C 
BRANCH  15  16
ATOM     16  C   UNL     1       0.876   1.983   2.209  1.00  0.00     0.083 C 
ATOM     17  C   UNL     1       2.172   1.891   1.395  1.00  0.00     0.044 C 
ATOM     18  C   UNL     1       0.596   3.409   2.665  1.00  0.00     0.039 C 
ATOM     19  O   UNL     1       1.120   1.265   3.445  1.00  0.00    -0.373 OA
ATOM     20  C   UNL     1       1.569   3.584   3.810  1.00  0.00     0.031 C 
ATOM     21  C   UNL     1       1.678   2.189   4.398  1.00  0.00     0.161 C 
ENDBRANCH  15  16
ENDBRANCH  13  15
ENDBRANCH  10  11
ENDBRANCH   8  10
ENDBRANCH   7   8
ENDBRANCH   4   7
ENDBRANCH   2   3
ENDBRANCH   1   2
BRANCH   1  22
ATOM     22  C   UNL     1       0.864  -3.213   2.586  1.00  0.00     0.002 C 
BRANCH  22  23
ATOM     23  C   UNL     1       2.139  -3.675   3.295  1.00  0.00     0.002 C 
BRANCH  23  24
ATOM     24  C   UNL     1       2.939  -2.578   4.007  1.00  0.00     0.021 C 
BRANCH  24  25
ATOM     25  C   UNL     1       2.163  -1.765   5.043  1.00  0.00     0.116 C 
BRANCH  25  26
ATOM     26  N   UNL     1       1.691  -2.589   6.146  1.00  0.00    -0.352 N 
ATOM     27  C   UNL     1       2.015  -2.556   7.480  1.00  0.00     0.251 C 
ATOM     28  H   UNL     1       1.035  -3.280   5.896  1.00  0.00     0.163 HD
ATOM     29  O   UNL     1       1.652  -3.475   8.212  1.00  0.00    -0.269 OA
BRANCH  27  30
ATOM     30  C   UNL     1       2.799  -1.434   8.045  1.00  0.00     0.039 A 
ATOM     31  C   UNL     1       3.798  -1.714   8.983  1.00  0.00     0.014 A 
ATOM     32  C   UNL     1       2.519  -0.109   7.703  1.00  0.00     0.014 A 
ATOM     33  C   UNL     1       4.544  -0.671   9.542  1.00  0.00     0.010 A 
ATOM     34  C   UNL     1       3.308   0.924   8.208  1.00  0.00     0.010 A 
ATOM     35  C   UNL     1       4.319   0.657   9.145  1.00  0.00    -0.014 A 
BRANCH  35  36
ATOM     36  C   UNL     1       5.111   1.779   9.715  1.00  0.00     0.031 A 
ATOM     37  C   UNL     1       4.431   2.844  10.537  1.00  0.00     0.074 A 
ATOM     38  C   UNL     1       6.425   1.885   9.435  1.00  0.00     0.049 A 
ATOM     39  N   UNL     1       4.937   3.929  11.063  1.00  0.00    -0.248 NA
ATOM     40  C   UNL     1       2.987   2.683  10.772  1.00  0.00     0.031 C 
ATOM     41  C   UNL     1       7.188   0.960   8.596  1.00  0.00     0.029 A 
ATOM     42  N   UNL     1       7.346   2.834   9.806  1.00  0.00    -0.354 N 
ATOM     43  C   UNL     1       3.872   4.598  11.657  1.00  0.00     0.074 A 
ATOM     44  C   UNL     1       2.685   3.813  11.395  1.00  0.00     0.031 C 
ATOM     45  C   UNL     1       8.460   1.384   8.519  1.00  0.00     0.029 A 
ATOM     46  C   UNL     1       8.599   2.622   9.280  1.00  0.00     0.049 A 
ATOM     47  H   UNL     1       7.129   3.595  10.393  1.00  0.00     0.167 HD
ATOM     48  C   UNL     1       3.882   5.742  12.382  1.00  0.00     0.034 A 
ATOM     49  C   UNL     1       9.732   3.343   9.398  1.00  0.00     0.034 A 
ATOM     50  C   UNL     1       5.070   6.493  12.687  1.00  0.00     0.049 A 
ATOM     51  C   UNL     1       9.729   4.580  10.255  1.00  0.00     0.074 A 
ATOM     52  C   UNL     1       5.196   7.624  13.475  1.00  0.00     0.029 A 
ATOM     53  N   UNL     1       6.340   6.187  12.223  1.00  0.00    -0.354 N 
ATOM     54  N   UNL     1       8.738   5.118  10.925  1.00  0.00    -0.248 NA
ATOM     55  C   UNL     1      11.010   5.286  10.410  1.00  0.00     0.031 C 
ATOM     56  C   UNL     1       6.541   8.009  13.476  1.00  0.00     0.029 A 
ATOM     57  C   UNL     1       7.256   7.104  12.709  1.00  0.00     0.049 A 
ATOM     58  H   UNL     1       6.558   5.429  11.634  1.00  0.00     0.167 HD
ATOM     59  C   UNL     1       9.284   6.194  11.616  1.00  0.00     0.074 A 
ATOM     60  C   UNL     1      10.696   6.223  11.294  1.00  0.00     0.031 C 
ATOM     61  C   UNL     1       8.670   7.083  12.434  1.00  0.00     0.034 A 
BRANCH  48  62
ATOM     62  C   UNL     1       2.569   6.223  12.945  1.00  0.00     0.023 A 
ATOM     63  C   UNL     1       1.965   5.512  14.003  1.00  0.00     0.012 A 
ATOM     64  C   UNL     1       1.956   7.396  12.465  1.00  0.00     0.148 A 
ATOM     65  C   UNL     1       0.754   5.938  14.547  1.00  0.00     0.002 A 
ATOM     66  C   UNL     1       0.771   7.840  13.043  1.00  0.00     0.091 A 
ATOM     67  F   UNL     1       2.530   8.048  11.444  1.00  0.00    -0.205 F 
ATOM     68  C   UNL     1       0.163   7.106  14.074  1.00  0.00     0.022 A 
BRANCH  66  69
ATOM     69  S   UNL     1      -0.025   9.375  12.557  1.00  0.00     0.127 S 
ATOM     70  O   UNL     1      -1.180   8.883  11.806  1.00  0.00    -0.237 OA
ATOM     71  O   UNL     1      -0.351   9.978  13.850  1.00  0.00    -0.237 OA
ATOM     72  O   UNL     1       0.963  10.108  11.778  1.00  0.00    -0.744 OA
ENDBRANCH  66  69
ENDBRANCH  48  62
BRANCH  49  73
ATOM     73  C   UNL     1      10.988   2.864   8.753  1.00  0.00     0.023 A 
ATOM     74  C   UNL     1      12.029   2.365   9.560  1.00  0.00     0.012 A 
ATOM     75  C   UNL     1      11.147   2.873   7.354  1.00  0.00     0.148 A 
ATOM     76  C   UNL     1      13.219   1.914   8.989  1.00  0.00     0.002 A 
ATOM     77  C   UNL     1      12.314   2.371   6.788  1.00  0.00     0.091 A 
ATOM     78  F   UNL     1      10.149   3.361   6.604  1.00  0.00    -0.205 F 
ATOM     79  C   UNL     1      13.358   1.907   7.604  1.00  0.00     0.022 A 
BRANCH  77  80
ATOM     80  S   UNL     1      12.524   2.203   5.012  1.00  0.00     0.127 S 
ATOM     81  O   UNL     1      13.513   3.243   4.729  1.00  0.00    -0.237 OA
ATOM     82  O   UNL     1      13.025   0.831   4.895  1.00  0.00    -0.237 OA
ATOM     83  O   UNL     1      11.206   2.410   4.438  1.00  0.00    -0.744 OA
ENDBRANCH  77  80
ENDBRANCH  49  73
BRANCH  61  84
ATOM     84  C   UNL     1       9.523   8.137  13.092  1.00  0.00     0.023 A 
ATOM     85  C   UNL     1      10.033   9.207  12.331  1.00  0.00     0.012 A 
ATOM     86  C   UNL     1       9.758   8.102  14.481  1.00  0.00     0.148 A 
ATOM     87  C   UNL     1      10.792  10.208  12.936  1.00  0.00     0.002 A 
ATOM     88  C   UNL     1      10.473   9.129  15.085  1.00  0.00     0.091 A 
ATOM     89  F   UNL     1       9.283   7.064  15.185  1.00  0.00    -0.205 F 
ATOM     90  C   UNL     1      11.001  10.176  14.313  1.00  0.00     0.022 A 
BRANCH  88  91
ATOM     91  S   UNL     1      10.704   9.214  16.865  1.00  0.00     0.127 S 
ATOM     92  O   UNL     1      12.094   8.784  17.006  1.00  0.00    -0.237 OA
ATOM     93  O   UNL     1      10.474  10.633  17.142  1.00  0.00    -0.237 OA
ATOM     94  O   UNL     1       9.707   8.321  17.438  1.00  0.00    -0.744 OA
ENDBRANCH  88  91
ENDBRANCH  61  84
ENDBRANCH  35  36
ENDBRANCH  27  30
ENDBRANCH  25  26
ENDBRANCH  24  25
ENDBRANCH  23  24
ENDBRANCH  22  23
ENDBRANCH   1  22
TORSDOF 21
