REMARK SMILES [NH3+][C@H](CS[C@@H]1CC(=O)N(c2ccc3ccccc3c2)C1=O)C(=O)NCCCCCCNC(=O)c1ccc(-c2c3nc(c(-c4cccc(S(=O)(=O)[O-])c4F)c4ccc([nH]4)c(-c4cccc(S(=O)(=O)[O-])c4F)c4nc(c(-c5cccc(S(=O)(=O)[O-])c5F)c5ccc2[nH]5)C=C4)C=C3)cc1
REMARK SMILES IDX 27 1 26 2 25 3 24 4 22 5 23 6 2 8 1 9 3 13 4 14 5 15 6 16
REMARK SMILES IDX 20 17 7 18 9 19 21 20 8 21 10 22 11 23 19 24 12 25 18 26
REMARK SMILES IDX 13 27 17 28 14 29 16 30 15 31 28 32 29 33 30 34 31 35 32 36
REMARK SMILES IDX 33 38 34 39 35 40 96 41 36 42 95 43 37 44 38 45 39 46 89 47
REMARK SMILES IDX 40 48 94 49 88 50 90 51 41 52 93 53 87 54 86 55 42 57 74 58
REMARK SMILES IDX 54 59 73 60 55 61 58 62 72 63 91 64 56 65 57 66 71 68 92 69
REMARK SMILES IDX 59 70 43 71 44 72 52 73 45 74 47 75 53 76 46 77 48 78 49 79
REMARK SMILES IDX 50 80 51 81 75 82 76 83 84 84 77 85 79 86 85 87 78 88 80 89
REMARK SMILES IDX 81 90 82 91 83 92 60 93 61 94 69 95 62 96 64 97 70 98 63 99
REMARK SMILES IDX 65 100 66 101 67 102 68 103
REMARK H PARENT 24 7 1 10 1 11 1 12 31 37 90 56 58 67
REMARK Flexibility Score: inf
ROOT
ATOM      1  C   UNL     1      -4.231   2.182  -0.476  1.00  0.00     0.002 C 
ENDROOT
BRANCH   1   2
ATOM      2  C   UNL     1      -2.768   1.714  -0.452  1.00  0.00     0.021 C 
BRANCH   2   3
ATOM      3  C   UNL     1      -2.279   1.112   0.880  1.00  0.00     0.116 C 
BRANCH   3   4
ATOM      4  N   UNL     1      -2.097  -0.323   0.819  1.00  0.00    -0.351 N 
ATOM      5  C   UNL     1      -0.995  -1.111   0.995  1.00  0.00     0.279 C 
ATOM      6  O   UNL     1      -1.218  -2.329   1.048  1.00  0.00    -0.268 OA
ATOM      7  H   UNL     1      -2.918  -0.824   0.611  1.00  0.00     0.163 HD
BRANCH   5   8
ATOM      8  C   UNL     1       0.472  -0.587   1.114  1.00  0.00     0.280 C 
BRANCH   8   9
ATOM      9  N   UNL     1       0.756  -0.092   2.467  1.00  0.00    -0.347 N 
ATOM     10  H   UNL     1       0.346  -0.725   3.154  1.00  0.00     0.345 HD
ATOM     11  H   UNL     1       0.354   0.839   2.580  1.00  0.00     0.345 HD
ATOM     12  H   UNL     1       1.765  -0.046   2.607  1.00  0.00     0.345 HD
ENDBRANCH   8   9
BRANCH   8  13
ATOM     13  C   UNL     1       0.995   0.211  -0.112  1.00  0.00     0.145 C 
BRANCH  13  14
ATOM     14  S   UNL     1       1.962   1.800   0.075  1.00  0.00    -0.141 SA
BRANCH  14  15
ATOM     15  C   UNL     1       0.609   2.997   0.242  1.00  0.00     0.146 C 
ATOM     16  C   UNL     1       0.665   4.357  -0.426  1.00  0.00     0.125 C 
ATOM     17  C   UNL     1       0.328   3.340   1.682  1.00  0.00     0.247 C 
ATOM     18  C   UNL     1      -0.204   5.197   0.493  1.00  0.00     0.235 C 
ATOM     19  N   UNL     1      -0.204   4.603   1.731  1.00  0.00    -0.250 N 
ATOM     20  O   UNL     1       0.387   2.536   2.606  1.00  0.00    -0.273 OA
ATOM     21  O   UNL     1      -0.780   6.207   0.136  1.00  0.00    -0.274 OA
BRANCH  19  22
ATOM     22  C   UNL     1      -0.769   5.111   2.923  1.00  0.00     0.052 A 
ATOM     23  C   UNL     1      -2.033   5.700   2.978  1.00  0.00     0.027 A 
ATOM     24  C   UNL     1      -0.049   4.966   4.113  1.00  0.00     0.035 A 
ATOM     25  C   UNL     1      -2.601   6.057   4.208  1.00  0.00     0.011 A 
ATOM     26  C   UNL     1      -0.557   5.415   5.335  1.00  0.00    -0.016 A 
ATOM     27  C   UNL     1      -1.863   5.941   5.396  1.00  0.00    -0.018 A 
ATOM     28  C   UNL     1       0.236   5.375   6.487  1.00  0.00     0.009 A 
ATOM     29  C   UNL     1      -2.364   6.374   6.634  1.00  0.00     0.009 A 
ATOM     30  C   UNL     1      -0.256   5.855   7.698  1.00  0.00     0.001 A 
ATOM     31  C   UNL     1      -1.558   6.342   7.775  1.00  0.00     0.001 A 
ENDBRANCH  19  22
ENDBRANCH  14  15
ENDBRANCH  13  14
ENDBRANCH   8  13
ENDBRANCH   5   8
ENDBRANCH   3   4
ENDBRANCH   2   3
ENDBRANCH   1   2
BRANCH   1  32
ATOM     32  C   UNL     1      -4.558   3.455   0.320  1.00  0.00     0.002 C 
BRANCH  32  33
ATOM     33  C   UNL     1      -3.761   4.723  -0.006  1.00  0.00     0.021 C 
BRANCH  33  34
ATOM     34  C   UNL     1      -3.738   5.261  -1.436  1.00  0.00     0.116 C 
BRANCH  34  35
ATOM     35  N   UNL     1      -4.937   6.013  -1.756  1.00  0.00    -0.352 N 
ATOM     36  C   UNL     1      -5.169   7.368  -1.825  1.00  0.00     0.251 C 
ATOM     37  H   UNL     1      -5.723   5.456  -1.959  1.00  0.00     0.163 HD
ATOM     38  O   UNL     1      -6.343   7.743  -1.836  1.00  0.00    -0.269 OA
BRANCH  36  39
ATOM     39  C   UNL     1      -4.088   8.395  -1.901  1.00  0.00     0.039 A 
ATOM     40  C   UNL     1      -4.336   9.657  -1.338  1.00  0.00     0.014 A 
ATOM     41  C   UNL     1      -2.908   8.212  -2.626  1.00  0.00     0.014 A 
ATOM     42  C   UNL     1      -3.419  10.709  -1.490  1.00  0.00     0.010 A 
ATOM     43  C   UNL     1      -1.962   9.247  -2.725  1.00  0.00     0.010 A 
ATOM     44  C   UNL     1      -2.213  10.517  -2.181  1.00  0.00    -0.014 A 
BRANCH  44  45
ATOM     45  C   UNL     1      -1.237  11.637  -2.359  1.00  0.00     0.031 A 
ATOM     46  C   UNL     1      -0.906  12.166  -3.735  1.00  0.00     0.074 A 
ATOM     47  C   UNL     1      -0.606  12.164  -1.289  1.00  0.00     0.049 A 
ATOM     48  N   UNL     1      -0.065  13.110  -4.081  1.00  0.00    -0.248 NA
ATOM     49  C   UNL     1      -1.597  11.542  -4.874  1.00  0.00     0.031 C 
ATOM     50  C   UNL     1      -0.782  11.725   0.095  1.00  0.00     0.029 A 
ATOM     51  N   UNL     1       0.330  13.169  -1.200  1.00  0.00    -0.354 N 
ATOM     52  C   UNL     1      -0.099  13.168  -5.471  1.00  0.00     0.074 A 
ATOM     53  C   UNL     1      -1.026  12.146  -5.907  1.00  0.00     0.031 C 
ATOM     54  C   UNL     1       0.015  12.452   0.894  1.00  0.00     0.029 A 
ATOM     55  C   UNL     1       0.788  13.387   0.080  1.00  0.00     0.049 A 
ATOM     56  H   UNL     1       0.642  13.685  -1.978  1.00  0.00     0.167 HD
ATOM     57  C   UNL     1       0.560  14.006  -6.311  1.00  0.00     0.034 A 
ATOM     58  C   UNL     1       1.732  14.229   0.550  1.00  0.00     0.034 A 
ATOM     59  C   UNL     1       1.458  15.047  -5.884  1.00  0.00     0.049 A 
ATOM     60  C   UNL     1       2.440  15.157  -0.401  1.00  0.00     0.074 A 
ATOM     61  C   UNL     1       2.108  15.994  -6.659  1.00  0.00     0.029 A 
ATOM     62  N   UNL     1       1.846  15.275  -4.573  1.00  0.00    -0.354 N 
ATOM     63  N   UNL     1       2.285  15.291  -1.696  1.00  0.00    -0.248 NA
ATOM     64  C   UNL     1       3.431  16.077   0.179  1.00  0.00     0.031 C 
ATOM     65  C   UNL     1       2.918  16.767  -5.822  1.00  0.00     0.029 A 
ATOM     66  C   UNL     1       2.739  16.333  -4.519  1.00  0.00     0.049 A 
ATOM     67  H   UNL     1       1.534  14.760  -3.795  1.00  0.00     0.167 HD
ATOM     68  C   UNL     1       3.125  16.332  -2.077  1.00  0.00     0.074 A 
ATOM     69  C   UNL     1       3.774  16.808  -0.873  1.00  0.00     0.031 C 
ATOM     70  C   UNL     1       3.346  16.839  -3.314  1.00  0.00     0.034 A 
BRANCH  57  71
ATOM     71  C   UNL     1       0.311  13.859  -7.793  1.00  0.00     0.023 A 
ATOM     72  C   UNL     1      -0.934  14.239  -8.335  1.00  0.00     0.012 A 
ATOM     73  C   UNL     1       1.331  13.415  -8.659  1.00  0.00     0.148 A 
ATOM     74  C   UNL     1      -1.174  14.143  -9.705  1.00  0.00     0.002 A 
ATOM     75  C   UNL     1       1.100  13.366 -10.030  1.00  0.00     0.091 A 
ATOM     76  F   UNL     1       2.506  13.046  -8.128  1.00  0.00    -0.205 F 
ATOM     77  C   UNL     1      -0.156  13.716 -10.552  1.00  0.00     0.022 A 
BRANCH  75  78
ATOM     78  S   UNL     1       2.371  12.909 -11.214  1.00  0.00     0.127 S 
ATOM     79  O   UNL     1       1.882  11.614 -11.687  1.00  0.00    -0.237 OA
ATOM     80  O   UNL     1       2.279  13.989 -12.196  1.00  0.00    -0.237 OA
ATOM     81  O   UNL     1       3.621  12.868 -10.469  1.00  0.00    -0.744 OA
ENDBRANCH  75  78
ENDBRANCH  57  71
BRANCH  58  82
ATOM     82  C   UNL     1       2.038  14.266   2.010  1.00  0.00     0.023 A 
ATOM     83  C   UNL     1       1.688  15.402   2.766  1.00  0.00     0.012 A 
ATOM     84  C   UNL     1       2.665  13.181   2.653  1.00  0.00     0.148 A 
ATOM     85  C   UNL     1       1.988  15.472   4.127  1.00  0.00     0.002 A 
ATOM     86  C   UNL     1       2.908  13.233   4.021  1.00  0.00     0.091 A 
ATOM     87  F   UNL     1       3.003  12.115   1.915  1.00  0.00    -0.205 F 
ATOM     88  C   UNL     1       2.588  14.385   4.756  1.00  0.00     0.022 A 
BRANCH  86  89
ATOM     89  S   UNL     1       3.565  11.836   4.939  1.00  0.00     0.127 S 
ATOM     90  O   UNL     1       4.889  12.323   5.318  1.00  0.00    -0.237 OA
ATOM     91  O   UNL     1       2.610  11.726   6.042  1.00  0.00    -0.237 OA
ATOM     92  O   UNL     1       3.549  10.711   4.013  1.00  0.00    -0.744 OA
ENDBRANCH  86  89
ENDBRANCH  58  82
BRANCH  70  93
ATOM     93  C   UNL     1       4.294  18.006  -3.441  1.00  0.00     0.023 A 
ATOM     94  C   UNL     1       5.678  17.817  -3.257  1.00  0.00     0.012 A 
ATOM     95  C   UNL     1       3.815  19.279  -3.814  1.00  0.00     0.148 A 
ATOM     96  C   UNL     1       6.566  18.883  -3.407  1.00  0.00     0.002 A 
ATOM     97  C   UNL     1       4.711  20.323  -4.013  1.00  0.00     0.091 A 
ATOM     98  F   UNL     1       2.494  19.445  -3.969  1.00  0.00    -0.205 F 
ATOM     99  C   UNL     1       6.085  20.131  -3.796  1.00  0.00     0.022 A 
BRANCH  97 100
ATOM    100  S   UNL     1       4.195  21.938  -4.610  1.00  0.00     0.127 S 
ATOM    101  O   UNL     1       4.396  22.771  -3.426  1.00  0.00    -0.237 OA
ATOM    102  O   UNL     1       5.144  22.183  -5.697  1.00  0.00    -0.237 OA
ATOM    103  O   UNL     1       2.811  21.786  -5.038  1.00  0.00    -0.744 OA
ENDBRANCH  97 100
ENDBRANCH  70  93
ENDBRANCH  44  45
ENDBRANCH  36  39
ENDBRANCH  34  35
ENDBRANCH  33  34
ENDBRANCH  32  33
ENDBRANCH   1  32
TORSDOF 21
