REMARK SMILES C[C@@H](C(=O)NCCCCCCNC(=O)c1ccc(-c2c3nc(c(-c4cccc(S(=O)(=O)[O-])c4F)c4ccc([nH]4)c(-c4cccc(S(=O)(=O)[O-])c4F)c4nc(c(-c5cccc(S(=O)(=O)[O-])c5F)c5ccc2[nH]5)C=C4)C=C3)cc1)c1ccc(-c2cccc(OC(=O)NC3CC3)c2)c(F)c1
REMARK SMILES IDX 7 1 6 2 5 3 3 4 4 5 2 7 1 8 78 9 79 10 97 11 80 12 95 13
REMARK SMILES IDX 81 14 96 15 82 16 83 17 94 18 84 19 86 20 85 21 87 22 88 23
REMARK SMILES IDX 89 24 90 25 91 27 92 28 93 29 8 30 9 31 10 32 11 33 12 34
REMARK SMILES IDX 13 35 14 37 15 38 16 39 77 40 17 41 76 42 18 43 19 44 20 45
REMARK SMILES IDX 70 46 21 47 75 48 69 49 71 50 22 51 74 52 68 53 67 54 23 56
REMARK SMILES IDX 55 57 35 58 54 59 36 60 39 61 53 62 72 63 37 64 38 65 52 67
REMARK SMILES IDX 73 68 40 69 24 70 25 71 33 72 26 73 28 74 34 75 27 76 29 77
REMARK SMILES IDX 30 78 31 79 32 80 56 81 57 82 65 83 58 84 60 85 66 86 59 87
REMARK SMILES IDX 61 88 62 89 63 90 64 91 41 92 42 93 50 94 43 95 45 96 51 97
REMARK SMILES IDX 44 98 46 99 47 100 48 101 49 102
REMARK H PARENT 5 6 90 26 12 36 71 55 39 66
REMARK Flexibility Score: inf
ROOT
ATOM      1  C   UNL     1       4.324  -0.682  -1.303  1.00  0.00     0.021 C 
ENDROOT
BRANCH   1   2
ATOM      2  C   UNL     1       3.547   0.504  -1.877  1.00  0.00     0.116 C 
BRANCH   2   3
ATOM      3  N   UNL     1       2.490   0.025  -2.739  1.00  0.00    -0.356 N 
ATOM      4  C   UNL     1       1.160  -0.103  -2.489  1.00  0.00     0.227 C 
ATOM      5  O   UNL     1       0.500  -0.723  -3.327  1.00  0.00    -0.274 OA
ATOM      6  H   UNL     1       2.776  -0.248  -3.641  1.00  0.00     0.163 HD
BRANCH   4   7
ATOM      7  C   UNL     1       0.550   0.565  -1.245  1.00  0.00     0.105 C 
ATOM      8  C   UNL     1       0.940  -0.107   0.076  1.00  0.00     0.023 C 
BRANCH   7   9
ATOM      9  C   UNL     1      -0.968   0.627  -1.331  1.00  0.00    -0.033 A 
ATOM     10  C   UNL     1      -1.635   1.859  -1.343  1.00  0.00     0.005 A 
ATOM     11  C   UNL     1      -1.721  -0.555  -1.367  1.00  0.00     0.044 A 
ATOM     12  C   UNL     1      -3.032   1.904  -1.349  1.00  0.00     0.012 A 
ATOM     13  C   UNL     1      -3.105  -0.501  -1.379  1.00  0.00     0.131 A 
ATOM     14  C   UNL     1      -3.787   0.722  -1.341  1.00  0.00     0.018 A 
ATOM     15  F   UNL     1      -3.784  -1.659  -1.390  1.00  0.00    -0.206 F 
BRANCH  14  16
ATOM     16  C   UNL     1      -5.241   0.755  -1.180  1.00  0.00    -0.012 A 
ATOM     17  C   UNL     1      -6.085   1.392  -2.099  1.00  0.00     0.009 A 
ATOM     18  C   UNL     1      -5.808   0.139  -0.052  1.00  0.00     0.056 A 
ATOM     19  C   UNL     1      -7.467   1.403  -1.898  1.00  0.00     0.004 A 
ATOM     20  C   UNL     1      -7.180   0.150   0.147  1.00  0.00     0.133 A 
ATOM     21  C   UNL     1      -8.015   0.782  -0.774  1.00  0.00     0.047 A 
BRANCH  20  22
ATOM     22  O   UNL     1      -7.822  -0.446   1.259  1.00  0.00    -0.410 OA
BRANCH  22  23
ATOM     23  C   UNL     1      -7.223  -1.268   2.210  1.00  0.00     0.412 C 
ATOM     24  O   UNL     1      -6.030  -1.549   2.287  1.00  0.00    -0.224 OA
ATOM     25  N   UNL     1      -8.100  -1.799   3.118  1.00  0.00    -0.318 N 
ATOM     26  H   UNL     1      -7.700  -2.414   3.775  1.00  0.00     0.167 HD
BRANCH  25  27
ATOM     27  C   UNL     1      -9.502  -1.597   3.254  1.00  0.00     0.085 C 
ATOM     28  C   UNL     1     -10.470  -1.226   2.167  1.00  0.00     0.027 C 
ATOM     29  C   UNL     1     -10.432  -2.633   2.676  1.00  0.00     0.027 C 
ENDBRANCH  25  27
ENDBRANCH  22  23
ENDBRANCH  20  22
ENDBRANCH  14  16
ENDBRANCH   7   9
ENDBRANCH   4   7
ENDBRANCH   2   3
ENDBRANCH   1   2
BRANCH   1  30
ATOM     30  C   UNL     1       5.058  -1.506  -2.370  1.00  0.00     0.002 C 
BRANCH  30  31
ATOM     31  C   UNL     1       5.998  -0.693  -3.265  1.00  0.00     0.002 C 
BRANCH  31  32
ATOM     32  C   UNL     1       7.035   0.135  -2.503  1.00  0.00     0.021 C 
BRANCH  32  33
ATOM     33  C   UNL     1       7.953  -0.691  -1.613  1.00  0.00     0.116 C 
BRANCH  33  34
ATOM     34  N   UNL     1       8.757  -1.620  -2.391  1.00  0.00    -0.352 N 
ATOM     35  C   UNL     1      10.116  -1.798  -2.385  1.00  0.00     0.251 C 
ATOM     36  H   UNL     1       8.256  -2.202  -3.007  1.00  0.00     0.163 HD
ATOM     37  O   UNL     1      10.651  -2.460  -3.269  1.00  0.00    -0.269 OA
BRANCH  35  38
ATOM     38  C   UNL     1      10.930  -1.183  -1.315  1.00  0.00     0.039 A 
ATOM     39  C   UNL     1      12.154  -0.599  -1.647  1.00  0.00     0.014 A 
ATOM     40  C   UNL     1      10.498  -1.203   0.015  1.00  0.00     0.014 A 
ATOM     41  C   UNL     1      12.932  -0.014  -0.648  1.00  0.00     0.010 A 
ATOM     42  C   UNL     1      11.232  -0.540   0.993  1.00  0.00     0.010 A 
ATOM     43  C   UNL     1      12.472   0.033   0.678  1.00  0.00    -0.014 A 
BRANCH  43  44
ATOM     44  C   UNL     1      13.293   0.647   1.752  1.00  0.00     0.031 A 
ATOM     45  C   UNL     1      13.783  -0.193   2.902  1.00  0.00     0.074 A 
ATOM     46  C   UNL     1      13.554   1.968   1.720  1.00  0.00     0.049 A 
ATOM     47  N   UNL     1      14.510   0.161   3.930  1.00  0.00    -0.248 NA
ATOM     48  C   UNL     1      13.380  -1.610   2.917  1.00  0.00     0.031 C 
ATOM     49  C   UNL     1      13.075   2.902   0.699  1.00  0.00     0.029 A 
ATOM     50  N   UNL     1      14.276   2.758   2.579  1.00  0.00    -0.354 N 
ATOM     51  C   UNL     1      14.616  -0.971   4.730  1.00  0.00     0.074 A 
ATOM     52  C   UNL     1      13.848  -2.014   4.089  1.00  0.00     0.031 C 
ATOM     53  C   UNL     1      13.535   4.133   0.978  1.00  0.00     0.029 A 
ATOM     54  C   UNL     1      14.312   4.083   2.212  1.00  0.00     0.049 A 
ATOM     55  H   UNL     1      14.726   2.410   3.382  1.00  0.00     0.167 HD
ATOM     56  C   UNL     1      15.311  -1.138   5.880  1.00  0.00     0.034 A 
ATOM     57  C   UNL     1      14.905   5.138   2.803  1.00  0.00     0.034 A 
ATOM     58  C   UNL     1      16.108  -0.109   6.490  1.00  0.00     0.049 A 
ATOM     59  C   UNL     1      15.704   4.916   4.059  1.00  0.00     0.074 A 
ATOM     60  C   UNL     1      16.928  -0.202   7.600  1.00  0.00     0.029 A 
ATOM     61  N   UNL     1      16.173   1.205   6.053  1.00  0.00    -0.354 N 
ATOM     62  N   UNL     1      15.925   3.801   4.713  1.00  0.00    -0.248 NA
ATOM     63  C   UNL     1      16.369   6.093   4.637  1.00  0.00     0.031 C 
ATOM     64  C   UNL     1      17.456   1.067   7.860  1.00  0.00     0.029 A 
ATOM     65  C   UNL     1      17.004   1.939   6.881  1.00  0.00     0.049 A 
ATOM     66  H   UNL     1      15.697   1.564   5.270  1.00  0.00     0.167 HD
ATOM     67  C   UNL     1      16.791   4.132   5.749  1.00  0.00     0.074 A 
ATOM     68  C   UNL     1      17.066   5.549   5.625  1.00  0.00     0.031 C 
ATOM     69  C   UNL     1      17.308   3.337   6.719  1.00  0.00     0.034 A 
BRANCH  56  70
ATOM     70  C   UNL     1      15.264  -2.493   6.539  1.00  0.00     0.023 A 
ATOM     71  C   UNL     1      15.894  -3.597   5.929  1.00  0.00     0.012 A 
ATOM     72  C   UNL     1      14.637  -2.661   7.789  1.00  0.00     0.148 A 
ATOM     73  C   UNL     1      15.864  -4.855   6.530  1.00  0.00     0.002 A 
ATOM     74  C   UNL     1      14.657  -3.906   8.407  1.00  0.00     0.091 A 
ATOM     75  F   UNL     1      14.025  -1.606   8.345  1.00  0.00    -0.205 F 
ATOM     76  C   UNL     1      15.255  -5.007   7.773  1.00  0.00     0.022 A 
BRANCH  74  77
ATOM     77  S   UNL     1      13.977  -4.183  10.046  1.00  0.00     0.127 S 
ATOM     78  O   UNL     1      12.808  -5.009   9.745  1.00  0.00    -0.237 OA
ATOM     79  O   UNL     1      15.068  -4.893  10.714  1.00  0.00    -0.237 OA
ATOM     80  O   UNL     1      13.686  -2.865  10.590  1.00  0.00    -0.744 OA
ENDBRANCH  74  77
ENDBRANCH  56  70
BRANCH  57  81
ATOM     81  C   UNL     1      14.831   6.488   2.175  1.00  0.00     0.023 A 
ATOM     82  C   UNL     1      15.994   7.059   1.622  1.00  0.00     0.012 A 
ATOM     83  C   UNL     1      13.619   7.201   2.112  1.00  0.00     0.148 A 
ATOM     84  C   UNL     1      15.960   8.332   1.053  1.00  0.00     0.002 A 
ATOM     85  C   UNL     1      13.580   8.445   1.493  1.00  0.00     0.091 A 
ATOM     86  F   UNL     1      12.525   6.642   2.649  1.00  0.00    -0.205 F 
ATOM     87  C   UNL     1      14.753   9.021   0.981  1.00  0.00     0.022 A 
BRANCH  85  88
ATOM     88  S   UNL     1      12.049   9.350   1.242  1.00  0.00     0.127 S 
ATOM     89  O   UNL     1      12.236  10.502   2.120  1.00  0.00    -0.237 OA
ATOM     90  O   UNL     1      12.109   9.649  -0.190  1.00  0.00    -0.237 OA
ATOM     91  O   UNL     1      10.982   8.435   1.621  1.00  0.00    -0.744 OA
ENDBRANCH  85  88
ENDBRANCH  57  81
BRANCH  69  92
ATOM     92  C   UNL     1      18.273   3.962   7.694  1.00  0.00     0.023 A 
ATOM     93  C   UNL     1      17.816   4.886   8.654  1.00  0.00     0.012 A 
ATOM     94  C   UNL     1      19.629   3.579   7.694  1.00  0.00     0.148 A 
ATOM     95  C   UNL     1      18.702   5.454   9.569  1.00  0.00     0.002 A 
ATOM     96  C   UNL     1      20.494   4.105   8.645  1.00  0.00     0.091 A 
ATOM     97  F   UNL     1      20.049   2.712   6.762  1.00  0.00    -0.205 F 
ATOM     98  C   UNL     1      20.037   5.055   9.572  1.00  0.00     0.022 A 
BRANCH  96  99
ATOM     99  S   UNL     1      22.203   3.570   8.790  1.00  0.00     0.127 S 
ATOM    100  O   UNL     1      22.924   4.736   8.283  1.00  0.00    -0.237 OA
ATOM    101  O   UNL     1      22.336   3.348  10.230  1.00  0.00    -0.237 OA
ATOM    102  O   UNL     1      22.316   2.364   7.981  1.00  0.00    -0.744 OA
ENDBRANCH  96  99
ENDBRANCH  69  92
ENDBRANCH  43  44
ENDBRANCH  35  38
ENDBRANCH  33  34
ENDBRANCH  32  33
ENDBRANCH  31  32
ENDBRANCH  30  31
ENDBRANCH   1  30
TORSDOF 21
