REMARK SMILES C[C@@H](Nc1ncnc2c1CCCCC2)C(=O)NCCCCCCNC(=O)c1ccc(-c2c3nc(c(-c4cccc(S(=O)(=O)[O-])c4F)c4ccc([nH]4)c(-c4cccc(S(=O)(=O)[O-])c4F)c4nc(c(-c5cccc(S(=O)(=O)[O-])c5F)c5ccc2[nH]5)C=C4)C=C3)cc1
REMARK SMILES IDX 19 1 18 2 17 3 15 4 16 5 2 7 1 8 3 9 4 11 5 12 9 13 6 14
REMARK SMILES IDX 8 15 7 16 10 17 11 18 12 19 13 20 14 22 20 24 21 25 22 26
REMARK SMILES IDX 23 27 24 28 25 29 26 31 27 32 28 33 89 34 29 35 88 36 30 37
REMARK SMILES IDX 31 38 32 39 82 40 33 41 87 42 81 43 83 44 34 45 86 46 80 47
REMARK SMILES IDX 79 48 35 50 67 51 47 52 66 53 48 54 51 55 65 56 84 57 49 58
REMARK SMILES IDX 50 59 64 61 85 62 52 63 36 64 37 65 45 66 38 67 40 68 46 69
REMARK SMILES IDX 39 70 41 71 42 72 43 73 44 74 68 75 69 76 77 77 70 78 72 79
REMARK SMILES IDX 78 80 71 81 73 82 74 83 75 84 76 85 53 86 54 87 62 88 55 89
REMARK SMILES IDX 57 90 63 91 56 92 58 93 59 94 60 95 61 96
REMARK H PARENT 17 6 3 10 24 30 83 49 51 60
REMARK Flexibility Score: 80.00
ROOT
ATOM      1  C   UNL     1      -1.627   2.652   0.606  1.00  0.00     0.021 C 
ENDROOT
BRANCH   1   2
ATOM      2  C   UNL     1      -1.106   1.440   1.371  1.00  0.00     0.116 C 
BRANCH   2   3
ATOM      3  N   UNL     1      -1.552   0.214   0.737  1.00  0.00    -0.354 N 
ATOM      4  C   UNL     1      -0.867  -0.922   0.440  1.00  0.00     0.242 C 
ATOM      5  O   UNL     1      -1.490  -1.815  -0.146  1.00  0.00    -0.273 OA
ATOM      6  H   UNL     1      -2.502   0.203   0.481  1.00  0.00     0.163 HD
BRANCH   4   7
ATOM      7  C   UNL     1       0.625  -1.109   0.782  1.00  0.00     0.167 C 
ATOM      8  C   UNL     1       1.494  -0.265  -0.150  1.00  0.00     0.041 C 
BRANCH   7   9
ATOM      9  N   UNL     1       0.997  -0.876   2.184  1.00  0.00    -0.358 N 
ATOM     10  H   UNL     1       1.947  -0.691   2.359  1.00  0.00     0.162 HD
BRANCH   9  11
ATOM     11  C   UNL     1       0.166  -0.887   3.275  1.00  0.00     0.133 A 
ATOM     12  N   UNL     1       0.437   0.143   4.095  1.00  0.00    -0.219 NA
ATOM     13  C   UNL     1      -0.874  -1.775   3.530  1.00  0.00     0.016 A 
ATOM     14  C   UNL     1      -0.393   0.351   5.120  1.00  0.00     0.224 A 
ATOM     15  C   UNL     1      -1.726  -1.412   4.574  1.00  0.00     0.049 A 
ATOM     16  N   UNL     1      -1.493  -0.354   5.379  1.00  0.00    -0.241 NA
BRANCH  13  17
ATOM     17  C   UNL     1      -1.091  -3.057   2.774  1.00  0.00     0.041 C 
BRANCH  17  18
ATOM     18  C   UNL     1      -1.077  -4.309   3.659  1.00  0.00     0.005 C 
BRANCH  18  19
ATOM     19  C   UNL     1      -2.395  -4.584   4.377  1.00  0.00     0.001 C 
BRANCH  19  20
ATOM     20  C   UNL     1      -2.762  -3.551   5.438  1.00  0.00     0.006 CG0
ATOM     21  G   UNL     1      -3.001  -2.160   4.865  1.00  0.00     0.000 G0
ENDBRANCH  19  20
ENDBRANCH  18  19
ENDBRANCH  17  18
ENDBRANCH  13  17
BRANCH  15  22
ATOM     22  C   UNL     1      -3.001  -2.160   4.865  1.00  0.00     0.057 CG0
ATOM     23  G   UNL     1      -2.762  -3.551   5.438  1.00  0.00     0.000 G0
ENDBRANCH  15  22
ENDBRANCH   9  11
ENDBRANCH   7   9
ENDBRANCH   4   7
ENDBRANCH   2   3
ENDBRANCH   1   2
BRANCH   1  24
ATOM     24  C   UNL     1      -3.141   2.864   0.743  1.00  0.00     0.002 C 
BRANCH  24  25
ATOM     25  C   UNL     1      -3.634   3.110   2.174  1.00  0.00     0.002 C 
BRANCH  25  26
ATOM     26  C   UNL     1      -2.933   4.252   2.913  1.00  0.00     0.021 C 
BRANCH  26  27
ATOM     27  C   UNL     1      -2.934   5.584   2.171  1.00  0.00     0.116 C 
BRANCH  27  28
ATOM     28  N   UNL     1      -4.280   6.071   1.917  1.00  0.00    -0.352 N 
ATOM     29  C   UNL     1      -4.805   7.311   2.175  1.00  0.00     0.251 C 
ATOM     30  H   UNL     1      -4.897   5.424   1.504  1.00  0.00     0.163 HD
ATOM     31  O   UNL     1      -6.010   7.513   2.057  1.00  0.00    -0.269 OA
BRANCH  29  32
ATOM     32  C   UNL     1      -3.905   8.398   2.611  1.00  0.00     0.039 A 
ATOM     33  C   UNL     1      -4.254   9.158   3.730  1.00  0.00     0.014 A 
ATOM     34  C   UNL     1      -2.717   8.654   1.920  1.00  0.00     0.014 A 
ATOM     35  C   UNL     1      -3.388  10.155   4.179  1.00  0.00     0.010 A 
ATOM     36  C   UNL     1      -1.825   9.602   2.409  1.00  0.00     0.010 A 
ATOM     37  C   UNL     1      -2.162  10.374   3.531  1.00  0.00    -0.014 A 
BRANCH  37  38
ATOM     38  C   UNL     1      -1.230  11.428   3.998  1.00  0.00     0.031 A 
ATOM     39  C   UNL     1      -0.948  12.620   3.127  1.00  0.00     0.074 A 
ATOM     40  C   UNL     1      -0.592  11.283   5.175  1.00  0.00     0.049 A 
ATOM     41  N   UNL     1      -0.163  13.639   3.357  1.00  0.00    -0.248 NA
ATOM     42  C   UNL     1      -1.615  12.659   1.815  1.00  0.00     0.031 C 
ATOM     43  C   UNL     1      -0.726  10.132   6.069  1.00  0.00     0.029 A 
ATOM     44  N   UNL     1       0.308  12.099   5.811  1.00  0.00    -0.354 N 
ATOM     45  C   UNL     1      -0.222  14.426   2.214  1.00  0.00     0.074 A 
ATOM     46  C   UNL     1      -1.081  13.743   1.272  1.00  0.00     0.031 C 
ATOM     47  C   UNL     1       0.052  10.323   7.147  1.00  0.00     0.029 A 
ATOM     48  C   UNL     1       0.753  11.598   7.011  1.00  0.00     0.049 A 
ATOM     49  H   UNL     1       0.607  12.962   5.444  1.00  0.00     0.167 HD
ATOM     50  C   UNL     1       0.351  15.630   1.984  1.00  0.00     0.034 A 
ATOM     51  C   UNL     1       1.622  12.110   7.905  1.00  0.00     0.034 A 
ATOM     52  C   UNL     1       1.160  16.328   2.944  1.00  0.00     0.049 A 
ATOM     53  C   UNL     1       2.227  13.463   7.644  1.00  0.00     0.074 A 
ATOM     54  C   UNL     1       1.703  17.596   2.850  1.00  0.00     0.029 A 
ATOM     55  N   UNL     1       1.549  15.815   4.172  1.00  0.00    -0.354 N 
ATOM     56  N   UNL     1       2.026  14.273   6.632  1.00  0.00    -0.248 NA
ATOM     57  C   UNL     1       3.154  13.988   8.657  1.00  0.00     0.031 C 
ATOM     58  C   UNL     1       2.438  17.842   4.014  1.00  0.00     0.029 A 
ATOM     59  C   UNL     1       2.342  16.732   4.840  1.00  0.00     0.049 A 
ATOM     60  H   UNL     1       1.299  14.928   4.518  1.00  0.00     0.167 HD
ATOM     61  C   UNL     1       2.786  15.408   6.891  1.00  0.00     0.074 A 
ATOM     62  C   UNL     1       3.430  15.192   8.171  1.00  0.00     0.031 C 
ATOM     63  C   UNL     1       2.950  16.518   6.129  1.00  0.00     0.034 A 
BRANCH  50  64
ATOM     64  C   UNL     1       0.057  16.300   0.667  1.00  0.00     0.023 A 
ATOM     65  C   UNL     1      -1.233  16.820   0.432  1.00  0.00     0.012 A 
ATOM     66  C   UNL     1       1.053  16.452  -0.316  1.00  0.00     0.148 A 
ATOM     67  C   UNL     1      -1.538  17.448  -0.774  1.00  0.00     0.002 A 
ATOM     68  C   UNL     1       0.753  17.118  -1.500  1.00  0.00     0.091 A 
ATOM     69  F   UNL     1       2.265  15.928  -0.087  1.00  0.00    -0.205 F 
ATOM     70  C   UNL     1      -0.544  17.605  -1.735  1.00  0.00     0.022 A 
BRANCH  68  71
ATOM     71  S   UNL     1       1.986  17.437  -2.765  1.00  0.00     0.127 S 
ATOM     72  O   UNL     1       1.622  16.457  -3.787  1.00  0.00    -0.237 OA
ATOM     73  O   UNL     1       1.707  18.828  -3.128  1.00  0.00    -0.237 OA
ATOM     74  O   UNL     1       3.277  17.228  -2.124  1.00  0.00    -0.744 OA
ENDBRANCH  68  71
ENDBRANCH  50  64
BRANCH  51  75
ATOM     75  C   UNL     1       1.883  11.370   9.172  1.00  0.00     0.023 A 
ATOM     76  C   UNL     1       1.333  11.857  10.374  1.00  0.00     0.012 A 
ATOM     77  C   UNL     1       2.581  10.146   9.180  1.00  0.00     0.148 A 
ATOM     78  C   UNL     1       1.480  11.143  11.563  1.00  0.00     0.002 A 
ATOM     79  C   UNL     1       2.677   9.414  10.358  1.00  0.00     0.091 A 
ATOM     80  F   UNL     1       3.100   9.706   8.026  1.00  0.00    -0.205 F 
ATOM     81  C   UNL     1       2.139   9.916  11.553  1.00  0.00     0.022 A 
BRANCH  79  82
ATOM     82  S   UNL     1       3.381   7.761  10.418  1.00  0.00     0.127 S 
ATOM     83  O   UNL     1       4.535   7.959  11.292  1.00  0.00    -0.237 OA
ATOM     84  O   UNL     1       2.285   6.992  11.008  1.00  0.00    -0.237 OA
ATOM     85  O   UNL     1       3.692   7.411   9.039  1.00  0.00    -0.744 OA
ENDBRANCH  79  82
ENDBRANCH  51  75
BRANCH  63  86
ATOM     86  C   UNL     1       3.880  17.591   6.634  1.00  0.00     0.023 A 
ATOM     87  C   UNL     1       5.271  17.376   6.576  1.00  0.00     0.012 A 
ATOM     88  C   UNL     1       3.390  18.847   7.043  1.00  0.00     0.148 A 
ATOM     89  C   UNL     1       6.160  18.390   6.931  1.00  0.00     0.002 A 
ATOM     90  C   UNL     1       4.282  19.868   7.349  1.00  0.00     0.091 A 
ATOM     91  F   UNL     1       2.062  19.025   7.106  1.00  0.00    -0.205 F 
ATOM     92  C   UNL     1       5.667  19.638   7.302  1.00  0.00     0.022 A 
BRANCH  90  93
ATOM     93  S   UNL     1       3.745  21.538   7.738  1.00  0.00     0.127 S 
ATOM     94  O   UNL     1       4.046  21.623   9.166  1.00  0.00    -0.237 OA
ATOM     95  O   UNL     1       4.611  22.350   6.882  1.00  0.00    -0.237 OA
ATOM     96  O   UNL     1       2.330  21.595   7.394  1.00  0.00    -0.744 OA
ENDBRANCH  90  93
ENDBRANCH  63  86
ENDBRANCH  37  38
ENDBRANCH  29  32
ENDBRANCH  27  28
ENDBRANCH  26  27
ENDBRANCH  25  26
ENDBRANCH  24  25
ENDBRANCH   1  24
TORSDOF 18
