REMARK SMILES Cc1cc2c(cc1C(=O)c1ccccc1C(=O)NCCCCCCNC(=O)c1ccc(-c3c4nc(c(-c5cccc(S(=O)(=O)[O-])c5F)c5ccc([nH]5)c(-c5cccc(S(=O)(=O)[O-])c5F)c5nc(c(-c6cccc(S(=O)(=O)[O-])c6F)c6ccc3[nH]6)C=C5)C=C4)cc1)CCCC2
REMARK SMILES IDX 22 1 21 2 20 3 19 4 18 5 16 6 17 7 15 9 10 10 11 11 12 12
REMARK SMILES IDX 14 13 13 14 8 15 9 16 7 17 1 18 2 19 3 20 4 21 6 22 5 23
REMARK SMILES IDX 94 24 91 25 93 26 92 27 23 28 24 29 25 30 26 31 27 33 28 34
REMARK SMILES IDX 29 35 90 36 30 37 89 38 31 39 32 40 33 41 83 42 34 43 88 44
REMARK SMILES IDX 82 45 84 46 35 47 87 48 81 49 80 50 36 52 68 53 48 54 67 55
REMARK SMILES IDX 49 56 52 57 66 58 85 59 50 60 51 61 65 63 86 64 53 65 37 66
REMARK SMILES IDX 38 67 46 68 39 69 41 70 47 71 40 72 42 73 43 74 44 75 45 76
REMARK SMILES IDX 69 77 70 78 78 79 71 80 73 81 79 82 72 83 74 84 75 85 76 86
REMARK SMILES IDX 77 87 54 88 55 89 63 90 56 91 58 92 64 93 57 94 59 95 60 96
REMARK SMILES IDX 61 97 62 98
REMARK H PARENT 18 8 25 32 84 51 52 62
REMARK Flexibility Score: inf
ROOT
ATOM      1  C   UNL     1      -2.703  -3.020   5.258  1.00  0.00     0.002 C 
ENDROOT
BRANCH   1   2
ATOM      2  C   UNL     1      -1.245  -2.611   5.488  1.00  0.00     0.002 C 
BRANCH   2   3
ATOM      3  C   UNL     1      -0.402  -2.167   4.292  1.00  0.00     0.021 C 
BRANCH   3   4
ATOM      4  C   UNL     1      -0.971  -1.113   3.350  1.00  0.00     0.116 C 
BRANCH   4   5
ATOM      5  N   UNL     1      -1.190   0.191   3.905  1.00  0.00    -0.352 N 
ATOM      6  C   UNL     1      -1.224   1.437   3.334  1.00  0.00     0.252 C 
ATOM      7  O   UNL     1      -1.462   2.357   4.129  1.00  0.00    -0.269 OA
ATOM      8  H   UNL     1      -1.345   0.192   4.878  1.00  0.00     0.163 HD
BRANCH   6   9
ATOM      9  C   UNL     1      -0.961   1.824   1.899  1.00  0.00     0.050 A 
ATOM     10  C   UNL     1      -1.185   1.134   0.694  1.00  0.00     0.035 A 
ATOM     11  C   UNL     1      -1.104   1.801  -0.552  1.00  0.00     0.013 A 
ATOM     12  C   UNL     1      -0.670   3.119  -0.636  1.00  0.00     0.001 A 
ATOM     13  C   UNL     1      -0.505   3.162   1.768  1.00  0.00     0.014 A 
ATOM     14  C   UNL     1      -0.342   3.793   0.528  1.00  0.00     0.001 A 
BRANCH  10  15
ATOM     15  C   UNL     1      -1.544  -0.277   0.558  1.00  0.00     0.194 C 
ATOM     16  O   UNL     1      -2.721  -0.560   0.766  1.00  0.00    -0.289 OA
BRANCH  15  17
ATOM     17  C   UNL     1      -0.529  -1.341   0.170  1.00  0.00     0.026 A 
ATOM     18  C   UNL     1       1.554   0.171  -0.218  1.00  0.00     0.045 C 
ATOM     19  C   UNL     1       0.840  -1.149  -0.128  1.00  0.00    -0.040 A 
ATOM     20  C   UNL     1       1.652  -2.280  -0.354  1.00  0.00     0.008 A 
ATOM     21  C   UNL     1       1.171  -3.584  -0.215  1.00  0.00    -0.044 A 
ATOM     22  C   UNL     1      -1.013  -2.666   0.264  1.00  0.00     0.016 A 
ATOM     23  C   UNL     1      -0.176  -3.783   0.100  1.00  0.00    -0.044 A 
ATOM     24  C   UNL     1       2.111  -4.739  -0.457  1.00  0.00     0.036 C 
ATOM     25  C   UNL     1      -0.713  -5.165   0.383  1.00  0.00     0.036 C 
ATOM     26  C   UNL     1       1.642  -6.024   0.211  1.00  0.00     0.005 C 
ATOM     27  C   UNL     1       0.184  -6.286  -0.137  1.00  0.00     0.005 C 
ENDBRANCH  15  17
ENDBRANCH  10  15
ENDBRANCH   6   9
ENDBRANCH   4   5
ENDBRANCH   3   4
ENDBRANCH   2   3
ENDBRANCH   1   2
BRANCH   1  28
ATOM     28  C   UNL     1      -3.021  -3.978   4.111  1.00  0.00     0.021 C 
BRANCH  28  29
ATOM     29  C   UNL     1      -2.200  -5.259   4.011  1.00  0.00     0.116 C 
BRANCH  29  30
ATOM     30  N   UNL     1      -2.388  -6.186   5.113  1.00  0.00    -0.352 N 
ATOM     31  C   UNL     1      -2.740  -7.518   5.093  1.00  0.00     0.251 C 
ATOM     32  H   UNL     1      -2.243  -5.805   6.009  1.00  0.00     0.163 HD
ATOM     33  O   UNL     1      -2.883  -8.123   6.154  1.00  0.00    -0.269 OA
BRANCH  31  34
ATOM     34  C   UNL     1      -2.995  -8.215   3.808  1.00  0.00     0.039 A 
ATOM     35  C   UNL     1      -2.106  -8.124   2.736  1.00  0.00     0.014 A 
ATOM     36  C   UNL     1      -4.168  -8.966   3.670  1.00  0.00     0.014 A 
ATOM     37  C   UNL     1      -2.473  -8.630   1.488  1.00  0.00     0.010 A 
ATOM     38  C   UNL     1      -4.502  -9.527   2.430  1.00  0.00     0.010 A 
ATOM     39  C   UNL     1      -3.686  -9.312   1.311  1.00  0.00    -0.014 A 
BRANCH  39  40
ATOM     40  C   UNL     1      -4.106  -9.734  -0.055  1.00  0.00     0.031 A 
ATOM     41  C   UNL     1      -5.330  -9.126  -0.695  1.00  0.00     0.074 A 
ATOM     42  C   UNL     1      -3.369 -10.621  -0.753  1.00  0.00     0.049 A 
ATOM     43  N   UNL     1      -5.875  -9.399  -1.853  1.00  0.00    -0.248 NA
ATOM     44  C   UNL     1      -6.029  -8.072   0.059  1.00  0.00     0.031 C 
ATOM     45  C   UNL     1      -2.148 -11.269  -0.274  1.00  0.00     0.029 A 
ATOM     46  N   UNL     1      -3.536 -11.124  -2.021  1.00  0.00    -0.354 N 
ATOM     47  C   UNL     1      -7.005  -8.594  -1.943  1.00  0.00     0.074 A 
ATOM     48  C   UNL     1      -7.065  -7.813  -0.727  1.00  0.00     0.031 C 
ATOM     49  C   UNL     1      -1.661 -12.062  -1.241  1.00  0.00     0.029 A 
ATOM     50  C   UNL     1      -2.563 -12.023  -2.390  1.00  0.00     0.049 A 
ATOM     51  H   UNL     1      -4.282 -10.866  -2.609  1.00  0.00     0.167 HD
ATOM     52  C   UNL     1      -7.903  -8.498  -2.952  1.00  0.00     0.034 A 
ATOM     53  C   UNL     1      -2.417 -12.752  -3.515  1.00  0.00     0.034 A 
ATOM     54  C   UNL     1      -7.819  -9.218  -4.192  1.00  0.00     0.049 A 
ATOM     55  C   UNL     1      -3.434 -12.636  -4.614  1.00  0.00     0.074 A 
ATOM     56  C   UNL     1      -8.676  -9.158  -5.278  1.00  0.00     0.029 A 
ATOM     57  N   UNL     1      -6.820 -10.118  -4.520  1.00  0.00    -0.354 N 
ATOM     58  N   UNL     1      -4.474 -11.844  -4.691  1.00  0.00    -0.248 NA
ATOM     59  C   UNL     1      -3.255 -13.511  -5.784  1.00  0.00     0.031 C 
ATOM     60  C   UNL     1      -8.192 -10.021  -6.266  1.00  0.00     0.029 A 
ATOM     61  C   UNL     1      -7.035 -10.618  -5.793  1.00  0.00     0.049 A 
ATOM     62  H   UNL     1      -6.068 -10.366  -3.935  1.00  0.00     0.167 HD
ATOM     63  C   UNL     1      -5.070 -12.117  -5.917  1.00  0.00     0.074 A 
ATOM     64  C   UNL     1      -4.261 -13.130  -6.562  1.00  0.00     0.031 C 
ATOM     65  C   UNL     1      -6.201 -11.591  -6.446  1.00  0.00     0.034 A 
BRANCH  52  66
ATOM     66  C   UNL     1      -9.048  -7.538  -2.784  1.00  0.00     0.023 A 
ATOM     67  C   UNL     1      -8.844  -6.170  -3.045  1.00  0.00     0.012 A 
ATOM     68  C   UNL     1     -10.339  -8.002  -2.465  1.00  0.00     0.148 A 
ATOM     69  C   UNL     1      -9.908  -5.272  -2.982  1.00  0.00     0.002 A 
ATOM     70  C   UNL     1     -11.400  -7.106  -2.431  1.00  0.00     0.091 A 
ATOM     71  F   UNL     1     -10.502  -9.307  -2.208  1.00  0.00    -0.205 F 
ATOM     72  C   UNL     1     -11.186  -5.740  -2.685  1.00  0.00     0.022 A 
BRANCH  70  73
ATOM     73  S   UNL     1     -13.094  -7.613  -2.111  1.00  0.00     0.127 S 
ATOM     74  O   UNL     1     -13.357  -6.968  -0.825  1.00  0.00    -0.237 OA
ATOM     75  O   UNL     1     -13.809  -7.027  -3.245  1.00  0.00    -0.237 OA
ATOM     76  O   UNL     1     -13.081  -9.069  -2.083  1.00  0.00    -0.744 OA
ENDBRANCH  70  73
ENDBRANCH  52  66
BRANCH  53  77
ATOM     77  C   UNL     1      -1.231 -13.639  -3.662  1.00  0.00     0.023 A 
ATOM     78  C   UNL     1      -0.192 -13.258  -4.532  1.00  0.00     0.012 A 
ATOM     79  C   UNL     1      -1.101 -14.816  -2.901  1.00  0.00     0.148 A 
ATOM     80  C   UNL     1       0.958 -14.039  -4.645  1.00  0.00     0.002 A 
ATOM     81  C   UNL     1       0.067 -15.565  -2.984  1.00  0.00     0.091 A 
ATOM     82  F   UNL     1      -2.111 -15.161  -2.091  1.00  0.00    -0.205 F 
ATOM     83  C   UNL     1       1.093 -15.184  -3.864  1.00  0.00     0.022 A 
BRANCH  81  84
ATOM     84  S   UNL     1       0.381 -16.989  -1.936  1.00  0.00     0.127 S 
ATOM     85  O   UNL     1       0.438 -18.073  -2.914  1.00  0.00    -0.237 OA
ATOM     86  O   UNL     1       1.666 -16.635  -1.332  1.00  0.00    -0.237 OA
ATOM     87  O   UNL     1      -0.733 -17.046  -1.000  1.00  0.00    -0.744 OA
ENDBRANCH  81  84
ENDBRANCH  53  77
BRANCH  65  88
ATOM     88  C   UNL     1      -6.648 -12.092  -7.791  1.00  0.00     0.023 A 
ATOM     89  C   UNL     1      -7.330 -13.322  -7.872  1.00  0.00     0.012 A 
ATOM     90  C   UNL     1      -6.491 -11.306  -8.948  1.00  0.00     0.148 A 
ATOM     91  C   UNL     1      -7.842 -13.767  -9.089  1.00  0.00     0.002 A 
ATOM     92  C   UNL     1      -7.031 -11.742 -10.153  1.00  0.00     0.091 A 
ATOM     93  F   UNL     1      -5.825 -10.146  -8.847  1.00  0.00    -0.205 F 
ATOM     94  C   UNL     1      -7.703 -12.974 -10.226  1.00  0.00     0.022 A 
BRANCH  92  95
ATOM     95  S   UNL     1      -6.963 -10.757 -11.654  1.00  0.00     0.127 S 
ATOM     96  O   UNL     1      -5.988 -11.498 -12.453  1.00  0.00    -0.237 OA
ATOM     97  O   UNL     1      -8.340 -10.837 -12.142  1.00  0.00    -0.237 OA
ATOM     98  O   UNL     1      -6.546  -9.423 -11.240  1.00  0.00    -0.744 OA
ENDBRANCH  92  95
ENDBRANCH  65  88
ENDBRANCH  39  40
ENDBRANCH  31  34
ENDBRANCH  29  30
ENDBRANCH  28  29
ENDBRANCH   1  28
TORSDOF 18
