REMARK SMILES CSc1ccc(/C=C2\C(C)=C(CC(=O)NCCCCCCNC(=O)c3ccc(-c4c5nc(c(-c6cccc(S(=O)(=O)[O-])c6F)c6ccc([nH]6)c(-c6cccc(S(=O)(=O)[O-])c6F)c6nc(c(-c7cccc(S(=O)(=O)[O-])c7F)c7ccc4[nH]7)C=C6)C=C5)cc3)c3cc(F)ccc32)cc1
REMARK SMILES IDX 18 1 17 2 16 3 15 4 13 5 14 6 12 8 11 9 7 10 8 11 9 12 94 13
REMARK SMILES IDX 10 14 88 15 93 16 89 17 92 18 90 19 91 20 6 21 3 22 4 23
REMARK SMILES IDX 96 24 5 25 95 26 2 27 1 28 19 29 20 30 21 31 22 32 23 33
REMARK SMILES IDX 24 35 25 36 26 37 87 38 27 39 86 40 28 41 29 42 30 43 80 44
REMARK SMILES IDX 31 45 85 46 79 47 81 48 32 49 84 50 78 51 77 52 33 54 65 55
REMARK SMILES IDX 45 56 64 57 46 58 49 59 63 60 82 61 47 62 48 63 62 65 83 66
REMARK SMILES IDX 50 67 34 68 35 69 43 70 36 71 38 72 44 73 37 74 39 75 40 76
REMARK SMILES IDX 41 77 42 78 66 79 67 80 75 81 68 82 70 83 76 84 69 85 71 86
REMARK SMILES IDX 72 87 73 88 74 89 51 90 52 91 60 92 53 93 55 94 61 95 54 96
REMARK SMILES IDX 56 97 57 98 58 99 59 100
REMARK H PARENT 15 7 22 34 81 53 49 64
REMARK Flexibility Score: inf
ROOT
ATOM      1  C   UNL     1      -4.043  -6.864   5.821  1.00  0.00     0.002 C 
ENDROOT
BRANCH   1   2
ATOM      2  C   UNL     1      -2.677  -6.242   5.536  1.00  0.00     0.021 C 
BRANCH   2   3
ATOM      3  C   UNL     1      -1.595  -6.553   6.569  1.00  0.00     0.116 C 
BRANCH   3   4
ATOM      4  N   UNL     1      -1.206  -7.947   6.514  1.00  0.00    -0.356 N 
ATOM      5  C   UNL     1      -0.185  -8.502   5.797  1.00  0.00     0.224 C 
ATOM      6  O   UNL     1      -0.080  -9.729   5.756  1.00  0.00    -0.275 OA
ATOM      7  H   UNL     1      -1.742  -8.569   7.058  1.00  0.00     0.163 HD
BRANCH   5   8
ATOM      8  C   UNL     1       0.798  -7.593   5.085  1.00  0.00     0.136 C 
BRANCH   8   9
ATOM      9  C   UNL     1       0.218  -7.091   3.776  1.00  0.00    -0.027 C 
ATOM     10  C   UNL     1       2.118  -4.250   3.157  1.00  0.00     0.017 C 
ATOM     11  C   UNL     1       1.414  -5.375   2.967  1.00  0.00    -0.014 C 
ATOM     12  C   UNL     1       0.096  -5.756   3.518  1.00  0.00    -0.039 C 
ATOM     13  C   UNL     1       1.803  -6.526   2.132  1.00  0.00    -0.010 A 
ATOM     14  C   UNL     1      -1.018  -5.328   2.545  1.00  0.00     0.045 C 
ATOM     15  C   UNL     1       0.969  -7.567   2.589  1.00  0.00    -0.011 A 
ATOM     16  C   UNL     1       2.359  -6.556   0.865  1.00  0.00     0.012 A 
ATOM     17  C   UNL     1       0.650  -8.650   1.792  1.00  0.00     0.048 A 
ATOM     18  C   UNL     1       2.026  -7.640   0.043  1.00  0.00     0.040 A 
ATOM     19  C   UNL     1       1.175  -8.659   0.505  1.00  0.00     0.123 A 
ATOM     20  F   UNL     1       0.777  -9.610  -0.352  1.00  0.00    -0.207 F 
BRANCH  10  21
ATOM     21  C   UNL     1       1.684  -2.938   3.703  1.00  0.00    -0.025 A 
ATOM     22  C   UNL     1       1.014  -0.262   3.319  1.00  0.00     0.007 A 
ATOM     23  C   UNL     1       0.005  -1.207   3.452  1.00  0.00     0.015 A 
ATOM     24  C   UNL     1       2.324  -0.602   3.651  1.00  0.00     0.015 A 
ATOM     25  C   UNL     1       0.344  -2.536   3.682  1.00  0.00     0.009 A 
ATOM     26  C   UNL     1       2.660  -1.944   3.844  1.00  0.00     0.009 A 
BRANCH  22  27
ATOM     27  S   UNL     1       0.686   1.230   2.405  1.00  0.00    -0.130 SA
ATOM     28  C   UNL     1       0.862   0.498   0.743  1.00  0.00     0.091 C 
ENDBRANCH  22  27
ENDBRANCH  10  21
ENDBRANCH   8   9
ENDBRANCH   5   8
ENDBRANCH   3   4
ENDBRANCH   2   3
ENDBRANCH   1   2
BRANCH   1  29
ATOM     29  C   UNL     1      -4.620  -6.555   7.201  1.00  0.00     0.002 C 
BRANCH  29  30
ATOM     30  C   UNL     1      -4.614  -5.074   7.588  1.00  0.00     0.021 C 
BRANCH  30  31
ATOM     31  C   UNL     1      -5.340  -4.159   6.611  1.00  0.00     0.116 C 
BRANCH  31  32
ATOM     32  N   UNL     1      -6.756  -4.475   6.535  1.00  0.00    -0.352 N 
ATOM     33  C   UNL     1      -7.831  -3.673   6.828  1.00  0.00     0.251 C 
ATOM     34  H   UNL     1      -6.974  -5.386   6.233  1.00  0.00     0.163 HD
ATOM     35  O   UNL     1      -8.949  -4.160   6.947  1.00  0.00    -0.269 OA
BRANCH  33  36
ATOM     36  C   UNL     1      -7.627  -2.219   7.003  1.00  0.00     0.039 A 
ATOM     37  C   UNL     1      -8.224  -1.575   8.088  1.00  0.00     0.014 A 
ATOM     38  C   UNL     1      -6.858  -1.495   6.086  1.00  0.00     0.014 A 
ATOM     39  C   UNL     1      -8.021  -0.206   8.275  1.00  0.00     0.010 A 
ATOM     40  C   UNL     1      -6.601  -0.147   6.312  1.00  0.00     0.010 A 
ATOM     41  C   UNL     1      -7.195   0.515   7.397  1.00  0.00    -0.014 A 
BRANCH  41  42
ATOM     42  C   UNL     1      -6.955   1.968   7.582  1.00  0.00     0.031 A 
ATOM     43  C   UNL     1      -7.443   2.947   6.548  1.00  0.00     0.074 A 
ATOM     44  C   UNL     1      -6.230   2.396   8.633  1.00  0.00     0.049 A 
ATOM     45  N   UNL     1      -7.284   4.244   6.501  1.00  0.00    -0.248 NA
ATOM     46  C   UNL     1      -8.182   2.393   5.400  1.00  0.00     0.031 C 
ATOM     47  C   UNL     1      -5.634   1.535   9.658  1.00  0.00     0.029 A 
ATOM     48  N   UNL     1      -5.845   3.662   8.998  1.00  0.00    -0.354 N 
ATOM     49  C   UNL     1      -7.866   4.655   5.308  1.00  0.00     0.074 A 
ATOM     50  C   UNL     1      -8.354   3.467   4.643  1.00  0.00     0.031 C 
ATOM     51  C   UNL     1      -4.959   2.297  10.534  1.00  0.00     0.029 A 
ATOM     52  C   UNL     1      -5.056   3.695  10.124  1.00  0.00     0.049 A 
ATOM     53  H   UNL     1      -6.109   4.469   8.501  1.00  0.00     0.167 HD
ATOM     54  C   UNL     1      -8.013   5.911   4.825  1.00  0.00     0.034 A 
ATOM     55  C   UNL     1      -4.478   4.736  10.755  1.00  0.00     0.034 A 
ATOM     56  C   UNL     1      -7.581   7.093   5.518  1.00  0.00     0.049 A 
ATOM     57  C   UNL     1      -4.710   6.128  10.229  1.00  0.00     0.074 A 
ATOM     58  C   UNL     1      -7.768   8.417   5.161  1.00  0.00     0.029 A 
ATOM     59  N   UNL     1      -6.877   7.096   6.712  1.00  0.00    -0.354 N 
ATOM     60  N   UNL     1      -5.410   6.510   9.188  1.00  0.00    -0.248 NA
ATOM     61  C   UNL     1      -4.108   7.234  10.986  1.00  0.00     0.031 C 
ATOM     62  C   UNL     1      -7.168   9.220   6.137  1.00  0.00     0.029 A 
ATOM     63  C   UNL     1      -6.619   8.396   7.107  1.00  0.00     0.049 A 
ATOM     64  H   UNL     1      -6.601   6.290   7.207  1.00  0.00     0.167 HD
ATOM     65  C   UNL     1      -5.361   7.899   9.184  1.00  0.00     0.074 A 
ATOM     66  C   UNL     1      -4.582   8.292  10.341  1.00  0.00     0.031 C 
ATOM     67  C   UNL     1      -5.896   8.771   8.295  1.00  0.00     0.034 A 
BRANCH  54  68
ATOM     68  C   UNL     1      -8.735   6.076   3.514  1.00  0.00     0.023 A 
ATOM     69  C   UNL     1     -10.131   5.881   3.466  1.00  0.00     0.012 A 
ATOM     70  C   UNL     1      -8.054   6.479   2.349  1.00  0.00     0.148 A 
ATOM     71  C   UNL     1     -10.833   6.053   2.274  1.00  0.00     0.002 A 
ATOM     72  C   UNL     1      -8.767   6.688   1.173  1.00  0.00     0.091 A 
ATOM     73  F   UNL     1      -6.724   6.638   2.408  1.00  0.00    -0.205 F 
ATOM     74  C   UNL     1     -10.153   6.466   1.132  1.00  0.00     0.022 A 
BRANCH  72  75
ATOM     75  S   UNL     1      -7.995   7.290  -0.333  1.00  0.00     0.127 S 
ATOM     76  O   UNL     1      -8.002   6.090  -1.169  1.00  0.00    -0.237 OA
ATOM     77  O   UNL     1      -8.926   8.335  -0.761  1.00  0.00    -0.237 OA
ATOM     78  O   UNL     1      -6.679   7.775   0.057  1.00  0.00    -0.744 OA
ENDBRANCH  72  75
ENDBRANCH  54  68
BRANCH  55  79
ATOM     79  C   UNL     1      -3.695   4.509  12.002  1.00  0.00     0.023 A 
ATOM     80  C   UNL     1      -4.229   4.931  13.235  1.00  0.00     0.012 A 
ATOM     81  C   UNL     1      -2.448   3.854  11.982  1.00  0.00     0.148 A 
ATOM     82  C   UNL     1      -3.523   4.733  14.422  1.00  0.00     0.002 A 
ATOM     83  C   UNL     1      -1.774   3.613  13.175  1.00  0.00     0.091 A 
ATOM     84  F   UNL     1      -1.948   3.472  10.799  1.00  0.00    -0.205 F 
ATOM     85  C   UNL     1      -2.301   4.066  14.394  1.00  0.00     0.022 A 
BRANCH  83  86
ATOM     86  S   UNL     1      -0.262   2.645  13.240  1.00  0.00     0.127 S 
ATOM     87  O   UNL     1       0.749   3.681  13.435  1.00  0.00    -0.237 OA
ATOM     88  O   UNL     1      -0.496   1.788  14.403  1.00  0.00    -0.237 OA
ATOM     89  O   UNL     1      -0.206   1.928  11.974  1.00  0.00    -0.744 OA
ENDBRANCH  83  86
ENDBRANCH  55  79
BRANCH  67  90
ATOM     90  C   UNL     1      -5.688  10.241   8.545  1.00  0.00     0.023 A 
ATOM     91  C   UNL     1      -4.425  10.815   8.303  1.00  0.00     0.012 A 
ATOM     92  C   UNL     1      -6.762  11.065   8.936  1.00  0.00     0.148 A 
ATOM     93  C   UNL     1      -4.226  12.185   8.472  1.00  0.00     0.002 A 
ATOM     94  C   UNL     1      -6.567  12.435   9.059  1.00  0.00     0.091 A 
ATOM     95  F   UNL     1      -7.951  10.495   9.180  1.00  0.00    -0.205 F 
ATOM     96  C   UNL     1      -5.299  12.995   8.837  1.00  0.00     0.022 A 
BRANCH  94  97
ATOM     97  S   UNL     1      -7.913  13.565   9.433  1.00  0.00     0.127 S 
ATOM     98  O   UNL     1      -7.651  13.889  10.834  1.00  0.00    -0.237 OA
ATOM     99  O   UNL     1      -7.670  14.664   8.497  1.00  0.00    -0.237 OA
ATOM    100  O   UNL     1      -9.140  12.821   9.180  1.00  0.00    -0.744 OA
ENDBRANCH  94  97
ENDBRANCH  67  90
ENDBRANCH  41  42
ENDBRANCH  33  36
ENDBRANCH  31  32
ENDBRANCH  30  31
ENDBRANCH  29  30
ENDBRANCH   1  29
TORSDOF 19
