REMARK SMILES CC[C@@](C)([NH3+])C(=O)Nc1cc(C(=O)NCCCCCCNC(=O)c2ccc(-c3c4nc(c(-c5cccc(S(=O)(=O)[O-])c5F)c5ccc([nH]5)c(-c5cccc(S(=O)(=O)[O-])c5F)c5nc(c(-c6cccc(S(=O)(=O)[O-])c6F)c6ccc3[nH]6)C=C5)C=C4)cc2)cc(C(F)(F)F)c1
REMARK SMILES IDX 17 1 16 2 15 3 14 4 12 5 13 6 11 8 9 9 10 10 93 11 88 12
REMARK SMILES IDX 87 13 8 14 6 15 7 16 3 18 4 19 2 20 1 21 5 22 89 26 90 27
REMARK SMILES IDX 91 28 92 29 18 30 19 31 20 32 21 33 22 34 23 36 24 37 25 38
REMARK SMILES IDX 86 39 26 40 85 41 27 42 28 43 29 44 79 45 30 46 84 47 78 48
REMARK SMILES IDX 80 49 31 50 83 51 77 52 76 53 32 55 64 56 44 57 63 58 45 59
REMARK SMILES IDX 48 60 62 61 81 62 46 63 47 64 61 66 82 67 49 68 33 69 34 70
REMARK SMILES IDX 42 71 35 72 37 73 43 74 36 75 38 76 39 77 40 78 41 79 65 80
REMARK SMILES IDX 66 81 74 82 67 83 69 84 75 85 68 86 70 87 71 88 72 89 73 90
REMARK SMILES IDX 50 91 51 92 59 93 52 94 54 95 60 96 53 97 55 98 56 99 57 100
REMARK SMILES IDX 58 101
REMARK H PARENT 14 7 8 17 5 23 5 24 5 25 21 35 80 54 48 65
REMARK Flexibility Score: inf
ROOT
ATOM      1  C   UNL     1       1.540  -6.022 -10.664  1.00  0.00     0.002 C 
ENDROOT
BRANCH   1   2
ATOM      2  C   UNL     1       1.506  -4.651 -10.006  1.00  0.00     0.021 C 
BRANCH   2   3
ATOM      3  C   UNL     1       1.026  -4.613  -8.566  1.00  0.00     0.116 C 
BRANCH   3   4
ATOM      4  N   UNL     1       1.898  -5.262  -7.594  1.00  0.00    -0.352 N 
ATOM      5  C   UNL     1       2.314  -4.853  -6.341  1.00  0.00     0.251 C 
ATOM      6  O   UNL     1       3.058  -5.578  -5.684  1.00  0.00    -0.269 OA
ATOM      7  H   UNL     1       2.249  -6.137  -7.878  1.00  0.00     0.163 HD
BRANCH   5   8
ATOM      8  C   UNL     1       1.942  -3.515  -5.803  1.00  0.00     0.042 A 
ATOM      9  C   UNL     1       2.499  -1.540  -4.552  1.00  0.00     0.042 A 
ATOM     10  C   UNL     1       2.807  -2.846  -4.926  1.00  0.00     0.040 A 
ATOM     11  C   UNL     1       1.554  -0.834  -5.284  1.00  0.00     0.039 A 
ATOM     12  C   UNL     1       0.616  -1.513  -6.050  1.00  0.00     0.058 A 
ATOM     13  C   UNL     1       0.747  -2.894  -6.166  1.00  0.00     0.027 A 
BRANCH   9  14
ATOM     14  N   UNL     1       3.109  -0.951  -3.441  1.00  0.00    -0.321 N 
ATOM     15  C   UNL     1       2.532  -0.188  -2.441  1.00  0.00     0.285 C 
ATOM     16  O   UNL     1       3.316   0.406  -1.689  1.00  0.00    -0.267 OA
ATOM     17  H   UNL     1       4.079  -1.099  -3.359  1.00  0.00     0.170 HD
BRANCH  15  18
ATOM     18  C   UNL     1       0.961  -0.195  -2.151  1.00  0.00     0.171 C 
ATOM     19  C   UNL     1       0.426  -1.634  -2.038  1.00  0.00     0.090 C 
BRANCH  18  20
ATOM     20  C   UNL     1       0.639   0.591  -0.847  1.00  0.00     0.075 C 
ATOM     21  C   UNL     1       1.082  -0.058   0.457  1.00  0.00     0.011 C 
ENDBRANCH  18  20
BRANCH  18  22
ATOM     22  N   UNL     1       0.221   0.538  -3.209  1.00  0.00    -0.345 N 
ATOM     23  H   UNL     1      -0.777   0.519  -3.001  1.00  0.00     0.345 HD
ATOM     24  H   UNL     1       0.389   0.094  -4.111  1.00  0.00     0.345 HD
ATOM     25  H   UNL     1       0.544   1.505  -3.241  1.00  0.00     0.345 HD
ENDBRANCH  18  22
ENDBRANCH  15  18
ENDBRANCH   9  14
BRANCH  12  26
ATOM     26  C   UNL     1      -0.494  -0.796  -6.770  1.00  0.00     0.416 C 
ATOM     27  F   UNL     1      -0.270  -0.744  -8.111  1.00  0.00    -0.166 F 
ATOM     28  F   UNL     1      -1.692  -1.417  -6.607  1.00  0.00    -0.166 F 
ATOM     29  F   UNL     1      -0.671   0.486  -6.359  1.00  0.00    -0.166 F 
ENDBRANCH  12  26
ENDBRANCH   5   8
ENDBRANCH   3   4
ENDBRANCH   2   3
ENDBRANCH   1   2
BRANCH   1  30
ATOM     30  C   UNL     1       0.248  -6.839 -10.578  1.00  0.00     0.002 C 
BRANCH  30  31
ATOM     31  C   UNL     1      -1.033  -6.140 -11.044  1.00  0.00     0.021 C 
BRANCH  31  32
ATOM     32  C   UNL     1      -0.990  -5.534 -12.443  1.00  0.00     0.116 C 
BRANCH  32  33
ATOM     33  N   UNL     1      -0.680  -6.518 -13.466  1.00  0.00    -0.352 N 
ATOM     34  C   UNL     1      -1.362  -6.829 -14.614  1.00  0.00     0.251 C 
ATOM     35  H   UNL     1       0.141  -7.039 -13.312  1.00  0.00     0.163 HD
ATOM     36  O   UNL     1      -1.029  -7.816 -15.272  1.00  0.00    -0.269 OA
BRANCH  34  37
ATOM     37  C   UNL     1      -2.505  -6.000 -15.055  1.00  0.00     0.039 A 
ATOM     38  C   UNL     1      -3.664  -6.638 -15.505  1.00  0.00     0.014 A 
ATOM     39  C   UNL     1      -2.437  -4.604 -15.038  1.00  0.00     0.014 A 
ATOM     40  C   UNL     1      -4.774  -5.877 -15.881  1.00  0.00     0.010 A 
ATOM     41  C   UNL     1      -3.569  -3.849 -15.343  1.00  0.00     0.010 A 
ATOM     42  C   UNL     1      -4.749  -4.477 -15.770  1.00  0.00    -0.014 A 
BRANCH  42  43
ATOM     43  C   UNL     1      -5.955  -3.662 -16.073  1.00  0.00     0.031 A 
ATOM     44  C   UNL     1      -5.936  -2.648 -17.186  1.00  0.00     0.074 A 
ATOM     45  C   UNL     1      -7.047  -3.779 -15.289  1.00  0.00     0.049 A 
ATOM     46  N   UNL     1      -6.877  -1.819 -17.559  1.00  0.00    -0.248 NA
ATOM     47  C   UNL     1      -4.694  -2.533 -17.969  1.00  0.00     0.031 C 
ATOM     48  C   UNL     1      -7.164  -4.666 -14.128  1.00  0.00     0.029 A 
ATOM     49  N   UNL     1      -8.256  -3.127 -15.328  1.00  0.00    -0.354 N 
ATOM     50  C   UNL     1      -6.331  -1.060 -18.588  1.00  0.00     0.074 A 
ATOM     51  C   UNL     1      -4.969  -1.512 -18.768  1.00  0.00     0.031 C 
ATOM     52  C   UNL     1      -8.372  -4.501 -13.566  1.00  0.00     0.029 A 
ATOM     53  C   UNL     1      -9.103  -3.474 -14.300  1.00  0.00     0.049 A 
ATOM     54  H   UNL     1      -8.493  -2.474 -16.025  1.00  0.00     0.167 HD
ATOM     55  C   UNL     1      -6.918  -0.092 -19.331  1.00  0.00     0.034 A 
ATOM     56  C   UNL     1     -10.324  -3.005 -13.973  1.00  0.00     0.034 A 
ATOM     57  C   UNL     1      -8.286   0.326 -19.178  1.00  0.00     0.049 A 
ATOM     58  C   UNL     1     -10.963  -1.955 -14.842  1.00  0.00     0.074 A 
ATOM     59  C   UNL     1      -8.998   1.227 -19.951  1.00  0.00     0.029 A 
ATOM     60  N   UNL     1      -9.143  -0.111 -18.182  1.00  0.00    -0.354 N 
ATOM     61  N   UNL     1     -10.490  -1.377 -15.918  1.00  0.00    -0.248 NA
ATOM     62  C   UNL     1     -12.318  -1.520 -14.473  1.00  0.00     0.031 C 
ATOM     63  C   UNL     1     -10.274   1.364 -19.398  1.00  0.00     0.029 A 
ATOM     64  C   UNL     1     -10.371   0.515 -18.308  1.00  0.00     0.049 A 
ATOM     65  H   UNL     1      -8.913  -0.770 -17.488  1.00  0.00     0.167 HD
ATOM     66  C   UNL     1     -11.502  -0.539 -16.375  1.00  0.00     0.074 A 
ATOM     67  C   UNL     1     -12.622  -0.705 -15.473  1.00  0.00     0.031 C 
ATOM     68  C   UNL     1     -11.498   0.304 -17.437  1.00  0.00     0.034 A 
BRANCH  55  69
ATOM     69  C   UNL     1      -6.103   0.567 -20.413  1.00  0.00     0.023 A 
ATOM     70  C   UNL     1      -5.793  -0.147 -21.588  1.00  0.00     0.012 A 
ATOM     71  C   UNL     1      -5.735   1.924 -20.310  1.00  0.00     0.148 A 
ATOM     72  C   UNL     1      -5.110   0.472 -22.634  1.00  0.00     0.002 A 
ATOM     73  C   UNL     1      -5.096   2.546 -21.375  1.00  0.00     0.091 A 
ATOM     74  F   UNL     1      -6.025   2.579 -19.177  1.00  0.00    -0.205 F 
ATOM     75  C   UNL     1      -4.774   1.819 -22.534  1.00  0.00     0.022 A 
BRANCH  73  76
ATOM     76  S   UNL     1      -4.697   4.297 -21.381  1.00  0.00     0.127 S 
ATOM     77  O   UNL     1      -3.235   4.266 -21.379  1.00  0.00    -0.237 OA
ATOM     78  O   UNL     1      -5.296   4.743 -22.639  1.00  0.00    -0.237 OA
ATOM     79  O   UNL     1      -5.306   4.855 -20.181  1.00  0.00    -0.744 OA
ENDBRANCH  73  76
ENDBRANCH  55  69
BRANCH  56  80
ATOM     80  C   UNL     1     -11.042  -3.546 -12.783  1.00  0.00     0.023 A 
ATOM     81  C   UNL     1     -12.214  -4.308 -12.960  1.00  0.00     0.012 A 
ATOM     82  C   UNL     1     -10.573  -3.304 -11.477  1.00  0.00     0.148 A 
ATOM     83  C   UNL     1     -12.931  -4.777 -11.858  1.00  0.00     0.002 A 
ATOM     84  C   UNL     1     -11.257  -3.827 -10.386  1.00  0.00     0.091 A 
ATOM     85  F   UNL     1      -9.464  -2.566 -11.327  1.00  0.00    -0.205 F 
ATOM     86  C   UNL     1     -12.448  -4.545 -10.573  1.00  0.00     0.022 A 
BRANCH  84  87
ATOM     87  S   UNL     1     -10.632  -3.691  -8.708  1.00  0.00     0.127 S 
ATOM     88  O   UNL     1     -11.546  -2.712  -8.126  1.00  0.00    -0.237 OA
ATOM     89  O   UNL     1     -10.793  -5.058  -8.213  1.00  0.00    -0.237 OA
ATOM     90  O   UNL     1      -9.245  -3.264  -8.841  1.00  0.00    -0.744 OA
ENDBRANCH  84  87
ENDBRANCH  56  80
BRANCH  68  91
ATOM     91  C   UNL     1     -12.756   1.083 -17.719  1.00  0.00     0.023 A 
ATOM     92  C   UNL     1     -13.142   2.135 -16.866  1.00  0.00     0.012 A 
ATOM     93  C   UNL     1     -13.518   0.814 -18.873  1.00  0.00     0.148 A 
ATOM     94  C   UNL     1     -14.287   2.884 -17.136  1.00  0.00     0.002 A 
ATOM     95  C   UNL     1     -14.627   1.599 -19.166  1.00  0.00     0.091 A 
ATOM     96  F   UNL     1     -13.144  -0.202 -19.665  1.00  0.00    -0.205 F 
ATOM     97  C   UNL     1     -15.021   2.624 -18.291  1.00  0.00     0.022 A 
BRANCH  95  98
ATOM     98  S   UNL     1     -15.574   1.403 -20.679  1.00  0.00     0.127 S 
ATOM     99  O   UNL     1     -16.828   0.845 -20.175  1.00  0.00    -0.237 OA
ATOM    100  O   UNL     1     -15.671   2.781 -21.163  1.00  0.00    -0.237 OA
ATOM    101  O   UNL     1     -14.794   0.516 -21.532  1.00  0.00    -0.744 OA
ENDBRANCH  95  98
ENDBRANCH  68  91
ENDBRANCH  42  43
ENDBRANCH  34  37
ENDBRANCH  32  33
ENDBRANCH  31  32
ENDBRANCH  30  31
ENDBRANCH   1  30
TORSDOF 21
