REMARK SMILES C[C@H](Sc1ccc(S(C)(=O)=O)cc1)c1ccc(C(=O)NCCCCCCNC(=O)c2ccc(-c3c4nc(c(-c5cccc(S(=O)(=O)[O-])c5F)c5ccc([nH]5)c(-c5cccc(S(=O)(=O)[O-])c5F)c5nc(c(-c6cccc(S(=O)(=O)[O-])c6F)c6ccc3[nH]6)C=C5)C=C4)cc2)o1
REMARK SMILES IDX 23 1 22 2 21 3 20 4 18 5 19 6 17 8 14 9 15 10 93 11 16 12
REMARK SMILES IDX 2 13 1 14 3 15 4 16 5 17 13 18 6 19 12 20 7 21 8 22 9 23
REMARK SMILES IDX 10 24 11 25 24 26 25 27 26 28 27 29 28 30 29 32 30 33 31 34
REMARK SMILES IDX 92 35 32 36 91 37 33 38 34 39 35 40 85 41 36 42 90 43 84 44
REMARK SMILES IDX 86 45 37 46 89 47 83 48 82 49 38 51 70 52 50 53 69 54 51 55
REMARK SMILES IDX 54 56 68 57 87 58 52 59 53 60 67 62 88 63 55 64 39 65 40 66
REMARK SMILES IDX 48 67 41 68 43 69 49 70 42 71 44 72 45 73 46 74 47 75 71 76
REMARK SMILES IDX 72 77 80 78 73 79 75 80 81 81 74 82 76 83 77 84 78 85 79 86
REMARK SMILES IDX 56 87 57 88 65 89 58 90 60 91 66 92 59 93 61 94 62 95 63 96
REMARK SMILES IDX 64 97
REMARK H PARENT 20 7 27 31 86 50 54 61
REMARK Flexibility Score: inf
ROOT
ATOM      1  C   UNL     1      -8.054  -0.448   2.430  1.00  0.00     0.002 C 
ENDROOT
BRANCH   1   2
ATOM      2  C   UNL     1      -6.690  -1.149   2.338  1.00  0.00     0.021 C 
BRANCH   2   3
ATOM      3  C   UNL     1      -5.907  -0.806   1.070  1.00  0.00     0.116 C 
BRANCH   3   4
ATOM      4  N   UNL     1      -5.243   0.473   1.203  1.00  0.00    -0.349 N 
ATOM      5  C   UNL     1      -3.921   0.817   1.356  1.00  0.00     0.286 C 
ATOM      6  O   UNL     1      -3.703   2.032   1.396  1.00  0.00    -0.266 OA
ATOM      7  H   UNL     1      -5.854   1.244   1.179  1.00  0.00     0.163 HD
BRANCH   5   8
ATOM      8  C   UNL     1      -2.859  -0.172   1.458  1.00  0.00     0.191 A 
ATOM      9  C   UNL     1      -0.701  -0.723   1.464  1.00  0.00     0.118 A 
ATOM     10  C   UNL     1      -1.400  -1.892   1.660  1.00  0.00     0.047 A 
ATOM     11  O   UNL     1      -1.577   0.313   1.335  1.00  0.00    -0.455 OA
ATOM     12  C   UNL     1      -2.774  -1.535   1.690  1.00  0.00     0.056 A 
BRANCH   9  13
ATOM     13  C   UNL     1       0.755  -0.387   1.429  1.00  0.00     0.115 C 
ATOM     14  C   UNL     1       1.104   0.654   2.506  1.00  0.00     0.028 C 
BRANCH  13  15
ATOM     15  S   UNL     1       1.248   0.247  -0.226  1.00  0.00    -0.115 SA
BRANCH  15  16
ATOM     16  C   UNL     1       1.694  -1.188  -1.195  1.00  0.00     0.008 A 
ATOM     17  C   UNL     1       1.667  -2.520  -0.765  1.00  0.00     0.016 A 
ATOM     18  C   UNL     1       2.128  -0.922  -2.506  1.00  0.00     0.016 A 
ATOM     19  C   UNL     1       2.085  -3.557  -1.611  1.00  0.00     0.021 A 
ATOM     20  C   UNL     1       2.547  -1.948  -3.358  1.00  0.00     0.021 A 
ATOM     21  C   UNL     1       2.539  -3.262  -2.897  1.00  0.00     0.067 A 
BRANCH  21  22
ATOM     22  S   UNL     1       3.086  -4.579  -3.957  1.00  0.00     0.175 S 
ATOM     23  C   UNL     1       4.548  -5.188  -3.159  1.00  0.00     0.163 C 
ATOM     24  O   UNL     1       2.076  -5.615  -3.907  1.00  0.00    -0.224 OA
ATOM     25  O   UNL     1       3.500  -3.990  -5.218  1.00  0.00    -0.224 OA
ENDBRANCH  21  22
ENDBRANCH  15  16
ENDBRANCH  13  15
ENDBRANCH   9  13
ENDBRANCH   5   8
ENDBRANCH   3   4
ENDBRANCH   2   3
ENDBRANCH   1   2
BRANCH   1  26
ATOM     26  C   UNL     1      -9.042  -0.780   1.303  1.00  0.00     0.002 C 
BRANCH  26  27
ATOM     27  C   UNL     1      -9.280  -2.273   1.058  1.00  0.00     0.021 C 
BRANCH  27  28
ATOM     28  C   UNL     1      -9.859  -3.030   2.249  1.00  0.00     0.116 C 
BRANCH  28  29
ATOM     29  N   UNL     1     -11.206  -2.585   2.575  1.00  0.00    -0.352 N 
ATOM     30  C   UNL     1     -12.353  -3.328   2.714  1.00  0.00     0.251 C 
ATOM     31  H   UNL     1     -11.309  -1.616   2.716  1.00  0.00     0.163 HD
ATOM     32  O   UNL     1     -13.442  -2.768   2.800  1.00  0.00    -0.269 OA
BRANCH  30  33
ATOM     33  C   UNL     1     -12.273  -4.804   2.745  1.00  0.00     0.039 A 
ATOM     34  C   UNL     1     -13.162  -5.550   1.966  1.00  0.00     0.014 A 
ATOM     35  C   UNL     1     -11.323  -5.449   3.542  1.00  0.00     0.014 A 
ATOM     36  C   UNL     1     -13.060  -6.944   1.942  1.00  0.00     0.010 A 
ATOM     37  C   UNL     1     -11.182  -6.832   3.467  1.00  0.00     0.010 A 
ATOM     38  C   UNL     1     -12.050  -7.594   2.670  1.00  0.00    -0.014 A 
BRANCH  38  39
ATOM     39  C   UNL     1     -11.872  -9.067   2.603  1.00  0.00     0.031 A 
ATOM     40  C   UNL     1     -12.055  -9.910   3.835  1.00  0.00     0.074 A 
ATOM     41  C   UNL     1     -11.446  -9.633   1.456  1.00  0.00     0.049 A 
ATOM     42  N   UNL     1     -11.868 -11.195   3.990  1.00  0.00    -0.248 NA
ATOM     43  C   UNL     1     -12.474  -9.214   5.063  1.00  0.00     0.031 C 
ATOM     44  C   UNL     1     -11.153  -8.912   0.215  1.00  0.00     0.029 A 
ATOM     45  N   UNL     1     -11.155 -10.941   1.156  1.00  0.00    -0.354 N 
ATOM     46  C   UNL     1     -12.106 -11.455   5.334  1.00  0.00     0.074 A 
ATOM     47  C   UNL     1     -12.423 -10.189   5.959  1.00  0.00     0.031 C 
ATOM     48  C   UNL     1     -10.722  -9.785  -0.710  1.00  0.00     0.029 A 
ATOM     49  C   UNL     1     -10.684 -11.121  -0.124  1.00  0.00     0.049 A 
ATOM     50  H   UNL     1     -11.271 -11.679   1.797  1.00  0.00     0.167 HD
ATOM     51  C   UNL     1     -12.093 -12.643   5.984  1.00  0.00     0.034 A 
ATOM     52  C   UNL     1     -10.265 -12.237  -0.754  1.00  0.00     0.034 A 
ATOM     53  C   UNL     1     -11.832 -13.906   5.348  1.00  0.00     0.049 A 
ATOM     54  C   UNL     1     -10.316 -13.552  -0.026  1.00  0.00     0.074 A 
ATOM     55  C   UNL     1     -11.889 -15.174   5.899  1.00  0.00     0.029 A 
ATOM     56  N   UNL     1     -11.464 -14.062   4.021  1.00  0.00    -0.354 N 
ATOM     57  N   UNL     1     -10.703 -13.799   1.202  1.00  0.00    -0.248 NA
ATOM     58  C   UNL     1      -9.912 -14.748  -0.780  1.00  0.00     0.031 C 
ATOM     59  C   UNL     1     -11.543 -16.097   4.906  1.00  0.00     0.029 A 
ATOM     60  C   UNL     1     -11.288 -15.405   3.734  1.00  0.00     0.049 A 
ATOM     61  H   UNL     1     -11.347 -13.327   3.377  1.00  0.00     0.167 HD
ATOM     62  C   UNL     1     -10.627 -15.179   1.356  1.00  0.00     0.074 A 
ATOM     63  C   UNL     1     -10.172 -15.716   0.090  1.00  0.00     0.031 C 
ATOM     64  C   UNL     1     -10.897 -15.931   2.451  1.00  0.00     0.034 A 
BRANCH  51  65
ATOM     65  C   UNL     1     -12.433 -12.642   7.451  1.00  0.00     0.023 A 
ATOM     66  C   UNL     1     -13.766 -12.415   7.853  1.00  0.00     0.012 A 
ATOM     67  C   UNL     1     -11.457 -12.923   8.427  1.00  0.00     0.148 A 
ATOM     68  C   UNL     1     -14.115 -12.433   9.202  1.00  0.00     0.002 A 
ATOM     69  C   UNL     1     -11.821 -12.981   9.768  1.00  0.00     0.091 A 
ATOM     70  F   UNL     1     -10.191 -13.114   8.029  1.00  0.00    -0.205 F 
ATOM     71  C   UNL     1     -13.146 -12.726  10.157  1.00  0.00     0.022 A 
BRANCH  69  72
ATOM     72  S   UNL     1     -10.661 -13.426  11.065  1.00  0.00     0.127 S 
ATOM     73  O   UNL     1     -10.430 -12.134  11.710  1.00  0.00    -0.237 OA
ATOM     74  O   UNL     1     -11.437 -14.375  11.863  1.00  0.00    -0.237 OA
ATOM     75  O   UNL     1      -9.508 -14.005  10.389  1.00  0.00    -0.744 OA
ENDBRANCH  69  72
ENDBRANCH  51  65
BRANCH  52  76
ATOM     76  C   UNL     1      -9.835 -12.165  -2.179  1.00  0.00     0.023 A 
ATOM     77  C   UNL     1     -10.661 -12.719  -3.176  1.00  0.00     0.012 A 
ATOM     78  C   UNL     1      -8.642 -11.521  -2.555  1.00  0.00     0.148 A 
ATOM     79  C   UNL     1     -10.293 -12.658  -4.520  1.00  0.00     0.002 A 
ATOM     80  C   UNL     1      -8.307 -11.416  -3.901  1.00  0.00     0.091 A 
ATOM     81  F   UNL     1      -7.862 -11.012  -1.591  1.00  0.00    -0.205 F 
ATOM     82  C   UNL     1      -9.123 -11.997  -4.883  1.00  0.00     0.022 A 
BRANCH  80  83
ATOM     83  S   UNL     1      -6.890 -10.467  -4.465  1.00  0.00     0.127 S 
ATOM     84  O   UNL     1      -5.962 -11.523  -4.860  1.00  0.00    -0.237 OA
ATOM     85  O   UNL     1      -7.460  -9.699  -5.573  1.00  0.00    -0.237 OA
ATOM     86  O   UNL     1      -6.485  -9.657  -3.324  1.00  0.00    -0.744 OA
ENDBRANCH  80  83
ENDBRANCH  52  76
BRANCH  64  87
ATOM     87  C   UNL     1     -10.750 -17.424   2.331  1.00  0.00     0.023 A 
ATOM     88  C   UNL     1      -9.466 -18.000   2.297  1.00  0.00     0.012 A 
ATOM     89  C   UNL     1     -11.885 -18.259   2.345  1.00  0.00     0.148 A 
ATOM     90  C   UNL     1      -9.313 -19.386   2.254  1.00  0.00     0.002 A 
ATOM     91  C   UNL     1     -11.724 -19.640   2.349  1.00  0.00     0.091 A 
ATOM     92  F   UNL     1     -13.099 -17.689   2.358  1.00  0.00    -0.205 F 
ATOM     93  C   UNL     1     -10.440 -20.204   2.293  1.00  0.00     0.022 A 
BRANCH  91  94
ATOM     94  S   UNL     1     -13.114 -20.769   2.494  1.00  0.00     0.127 S 
ATOM     95  O   UNL     1     -13.206 -21.304   1.137  1.00  0.00    -0.237 OA
ATOM     96  O   UNL     1     -12.636 -21.724   3.495  1.00  0.00    -0.237 OA
ATOM     97  O   UNL     1     -14.244 -19.959   2.926  1.00  0.00    -0.744 OA
ENDBRANCH  91  94
ENDBRANCH  64  87
ENDBRANCH  38  39
ENDBRANCH  30  33
ENDBRANCH  28  29
ENDBRANCH  27  28
ENDBRANCH  26  27
ENDBRANCH   1  26
TORSDOF 20
