REMARK SMILES COCCOc1ccccc1/C=C/c1cc(C(=O)NCCCCCCNC(=O)c2ccc(-c3c4nc(c(-c5cccc(S(=O)(=O)[O-])c5F)c5ccc([nH]5)c(-c5cccc(S(=O)(=O)[O-])c5F)c5nc(c(-c6cccc(S(=O)(=O)[O-])c6F)c6ccc3[nH]6)C=C5)C=C4)cc2)ncn1
REMARK SMILES IDX 21 1 20 2 19 3 17 4 18 5 16 7 14 8 15 9 94 10 93 11 92 12
REMARK SMILES IDX 13 13 12 14 11 15 6 16 7 17 8 18 10 19 9 20 5 21 4 22 3 23
REMARK SMILES IDX 2 24 1 25 22 26 23 27 24 28 25 29 26 30 27 31 28 33 29 34
REMARK SMILES IDX 30 35 91 36 31 37 90 38 32 39 33 40 34 41 84 42 35 43 89 44
REMARK SMILES IDX 83 45 85 46 36 47 88 48 82 49 81 50 37 52 69 53 49 54 68 55
REMARK SMILES IDX 50 56 53 57 67 58 86 59 51 60 52 61 66 63 87 64 54 65 38 66
REMARK SMILES IDX 39 67 47 68 40 69 42 70 48 71 41 72 43 73 44 74 45 75 46 76
REMARK SMILES IDX 70 77 71 78 79 79 72 80 74 81 80 82 73 83 75 84 76 85 77 86
REMARK SMILES IDX 78 87 55 88 56 89 64 90 57 91 59 92 65 93 58 94 60 95 61 96
REMARK SMILES IDX 62 97 63 98
REMARK H PARENT 19 6 26 32 85 51 53 62
REMARK Flexibility Score: inf
ROOT
ATOM      1  C   UNL     1       4.966  -3.681  -0.188  1.00  0.00     0.021 C 
ENDROOT
BRANCH   1   2
ATOM      2  C   UNL     1       3.606  -4.376  -0.094  1.00  0.00     0.116 C 
BRANCH   2   3
ATOM      3  N   UNL     1       3.572  -5.315   1.008  1.00  0.00    -0.351 N 
ATOM      4  C   UNL     1       2.859  -5.366   2.186  1.00  0.00     0.270 C 
ATOM      5  O   UNL     1       3.044  -6.376   2.873  1.00  0.00    -0.268 OA
ATOM      6  H   UNL     1       4.187  -6.075   0.891  1.00  0.00     0.163 HD
BRANCH   4   7
ATOM      7  C   UNL     1       1.870  -4.325   2.657  1.00  0.00     0.132 A 
ATOM      8  C   UNL     1       0.809  -2.232   2.721  1.00  0.00     0.067 A 
ATOM      9  C   UNL     1       1.854  -3.010   2.255  1.00  0.00     0.062 A 
ATOM     10  N   UNL     1      -0.093  -2.665   3.615  1.00  0.00    -0.237 NA
ATOM     11  C   UNL     1       0.059  -3.933   4.013  1.00  0.00     0.223 A 
ATOM     12  N   UNL     1       0.979  -4.795   3.564  1.00  0.00    -0.231 NA
BRANCH   8  13
ATOM     13  C   UNL     1       0.651  -0.868   2.203  1.00  0.00     0.029 C 
ATOM     14  C   UNL     1      -0.064  -0.616   1.088  1.00  0.00     0.014 C 
BRANCH  14  15
ATOM     15  C   UNL     1      -0.042   0.664   0.340  1.00  0.00     0.017 A 
ATOM     16  C   UNL     1      -0.056   0.806  -1.068  1.00  0.00     0.126 A 
ATOM     17  C   UNL     1       0.034   2.096  -1.634  1.00  0.00     0.047 A 
ATOM     18  C   UNL     1       0.156   3.239  -0.852  1.00  0.00     0.004 A 
ATOM     19  C   UNL     1       0.032   1.849   1.110  1.00  0.00     0.012 A 
ATOM     20  C   UNL     1       0.151   3.115   0.526  1.00  0.00     0.001 A 
BRANCH  16  21
ATOM     21  O   UNL     1      -0.074  -0.104  -2.084  1.00  0.00    -0.491 OA
BRANCH  21  22
ATOM     22  C   UNL     1      -0.013  -1.505  -1.944  1.00  0.00     0.258 C 
BRANCH  22  23
ATOM     23  C   UNL     1       1.409  -2.057  -1.825  1.00  0.00     0.201 C 
BRANCH  23  24
ATOM     24  O   UNL     1       2.154  -1.546  -0.720  1.00  0.00    -0.381 OA
ATOM     25  C   UNL     1       2.925  -0.391  -1.037  1.00  0.00     0.195 C 
ENDBRANCH  23  24
ENDBRANCH  22  23
ENDBRANCH  21  22
ENDBRANCH  16  21
ENDBRANCH  14  15
ENDBRANCH   8  13
ENDBRANCH   4   7
ENDBRANCH   2   3
ENDBRANCH   1   2
BRANCH   1  26
ATOM     26  C   UNL     1       5.963  -4.404  -1.103  1.00  0.00     0.002 C 
BRANCH  26  27
ATOM     27  C   UNL     1       5.559  -4.479  -2.582  1.00  0.00     0.002 C 
BRANCH  27  28
ATOM     28  C   UNL     1       5.274  -3.137  -3.264  1.00  0.00     0.021 C 
BRANCH  28  29
ATOM     29  C   UNL     1       6.445  -2.157  -3.278  1.00  0.00     0.116 C 
BRANCH  29  30
ATOM     30  N   UNL     1       7.595  -2.690  -3.992  1.00  0.00    -0.352 N 
ATOM     31  C   UNL     1       8.263  -2.194  -5.086  1.00  0.00     0.251 C 
ATOM     32  H   UNL     1       7.949  -3.538  -3.638  1.00  0.00     0.163 HD
ATOM     33  O   UNL     1       9.076  -2.898  -5.673  1.00  0.00    -0.269 OA
BRANCH  31  34
ATOM     34  C   UNL     1       7.993  -0.820  -5.564  1.00  0.00     0.039 A 
ATOM     35  C   UNL     1       7.851  -0.598  -6.937  1.00  0.00     0.014 A 
ATOM     36  C   UNL     1       7.898   0.249  -4.669  1.00  0.00     0.014 A 
ATOM     37  C   UNL     1       7.541   0.681  -7.404  1.00  0.00     0.010 A 
ATOM     38  C   UNL     1       7.523   1.510  -5.130  1.00  0.00     0.010 A 
ATOM     39  C   UNL     1       7.332   1.737  -6.502  1.00  0.00    -0.014 A 
BRANCH  39  40
ATOM     40  C   UNL     1       6.857   3.066  -6.968  1.00  0.00     0.031 A 
ATOM     41  C   UNL     1       7.699   4.297  -6.776  1.00  0.00     0.074 A 
ATOM     42  C   UNL     1       5.615   3.174  -7.481  1.00  0.00     0.049 A 
ATOM     43  N   UNL     1       7.413   5.541  -7.061  1.00  0.00    -0.248 NA
ATOM     44  C   UNL     1       9.023   4.112  -6.162  1.00  0.00     0.031 C 
ATOM     45  C   UNL     1       4.671   2.066  -7.647  1.00  0.00     0.029 A 
ATOM     46  N   UNL     1       4.919   4.271  -7.925  1.00  0.00    -0.354 N 
ATOM     47  C   UNL     1       8.502   6.291  -6.635  1.00  0.00     0.074 A 
ATOM     48  C   UNL     1       9.445   5.363  -6.047  1.00  0.00     0.031 C 
ATOM     49  C   UNL     1       3.522   2.539  -8.153  1.00  0.00     0.029 A 
ATOM     50  C   UNL     1       3.631   3.985  -8.312  1.00  0.00     0.049 A 
ATOM     51  H   UNL     1       5.306   5.176  -7.963  1.00  0.00     0.167 HD
ATOM     52  C   UNL     1       8.709   7.625  -6.743  1.00  0.00     0.034 A 
ATOM     53  C   UNL     1       2.638   4.796  -8.729  1.00  0.00     0.034 A 
ATOM     54  C   UNL     1       7.780   8.540  -7.353  1.00  0.00     0.049 A 
ATOM     55  C   UNL     1       2.900   6.270  -8.855  1.00  0.00     0.074 A 
ATOM     56  C   UNL     1       7.941   9.894  -7.595  1.00  0.00     0.029 A 
ATOM     57  N   UNL     1       6.511   8.205  -7.799  1.00  0.00    -0.354 N 
ATOM     58  N   UNL     1       4.000   6.937  -8.602  1.00  0.00    -0.248 NA
ATOM     59  C   UNL     1       1.794   7.101  -9.353  1.00  0.00     0.031 C 
ATOM     60  C   UNL     1       6.755  10.384  -8.152  1.00  0.00     0.029 A 
ATOM     61  C   UNL     1       5.868   9.329  -8.291  1.00  0.00     0.049 A 
ATOM     62  H   UNL     1       6.124   7.300  -7.770  1.00  0.00     0.167 HD
ATOM     63  C   UNL     1       3.729   8.259  -8.934  1.00  0.00     0.074 A 
ATOM     64  C   UNL     1       2.369   8.294  -9.433  1.00  0.00     0.031 C 
ATOM     65  C   UNL     1       4.528   9.348  -8.819  1.00  0.00     0.034 A 
BRANCH  52  66
ATOM     66  C   UNL     1      10.010   8.179  -6.221  1.00  0.00     0.023 A 
ATOM     67  C   UNL     1      11.211   7.904  -6.906  1.00  0.00     0.012 A 
ATOM     68  C   UNL     1      10.036   9.025  -5.094  1.00  0.00     0.148 A 
ATOM     69  C   UNL     1      12.422   8.432  -6.458  1.00  0.00     0.002 A 
ATOM     70  C   UNL     1      11.240   9.585  -4.682  1.00  0.00     0.091 A 
ATOM     71  F   UNL     1       8.888   9.260  -4.444  1.00  0.00    -0.205 F 
ATOM     72  C   UNL     1      12.435   9.280  -5.355  1.00  0.00     0.022 A 
BRANCH  70  73
ATOM     73  S   UNL     1      11.351  10.752  -3.321  1.00  0.00     0.127 S 
ATOM     74  O   UNL     1      12.049   9.959  -2.309  1.00  0.00    -0.237 OA
ATOM     75  O   UNL     1      12.148  11.831  -3.906  1.00  0.00    -0.237 OA
ATOM     76  O   UNL     1       9.981  11.117  -2.991  1.00  0.00    -0.744 OA
ENDBRANCH  70  73
ENDBRANCH  52  66
BRANCH  53  77
ATOM     77  C   UNL     1       1.313   4.218  -9.091  1.00  0.00     0.023 A 
ATOM     78  C   UNL     1       0.902   4.208 -10.437  1.00  0.00     0.012 A 
ATOM     79  C   UNL     1       0.475   3.652  -8.111  1.00  0.00     0.148 A 
ATOM     80  C   UNL     1      -0.334   3.670 -10.798  1.00  0.00     0.002 A 
ATOM     81  C   UNL     1      -0.726   3.063  -8.485  1.00  0.00     0.091 A 
ATOM     82  F   UNL     1       0.881   3.682  -6.834  1.00  0.00    -0.205 F 
ATOM     83  C   UNL     1      -1.142   3.088  -9.825  1.00  0.00     0.022 A 
BRANCH  81  84
ATOM     84  S   UNL     1      -1.762   2.170  -7.321  1.00  0.00     0.127 S 
ATOM     85  O   UNL     1      -2.938   3.032  -7.245  1.00  0.00    -0.237 OA
ATOM     86  O   UNL     1      -1.970   0.900  -8.018  1.00  0.00    -0.237 OA
ATOM     87  O   UNL     1      -0.977   2.062  -6.098  1.00  0.00    -0.744 OA
ENDBRANCH  81  84
ENDBRANCH  53  77
BRANCH  65  88
ATOM     88  C   UNL     1       3.964  10.675  -9.258  1.00  0.00     0.023 A 
ATOM     89  C   UNL     1       2.964  11.302  -8.487  1.00  0.00     0.012 A 
ATOM     90  C   UNL     1       4.468  11.331 -10.399  1.00  0.00     0.148 A 
ATOM     91  C   UNL     1       2.450  12.542  -8.864  1.00  0.00     0.002 A 
ATOM     92  C   UNL     1       3.988  12.589 -10.740  1.00  0.00     0.091 A 
ATOM     93  F   UNL     1       5.407  10.711 -11.129  1.00  0.00    -0.205 F 
ATOM     94  C   UNL     1       2.969  13.190  -9.982  1.00  0.00     0.022 A 
BRANCH  92  95
ATOM     95  S   UNL     1       4.660  13.543 -12.105  1.00  0.00     0.127 S 
ATOM     96  O   UNL     1       3.555  13.512 -13.063  1.00  0.00    -0.237 OA
ATOM     97  O   UNL     1       4.894  14.848 -11.486  1.00  0.00    -0.237 OA
ATOM     98  O   UNL     1       5.869  12.847 -12.526  1.00  0.00    -0.744 OA
ENDBRANCH  92  95
ENDBRANCH  65  88
ENDBRANCH  39  40
ENDBRANCH  31  34
ENDBRANCH  29  30
ENDBRANCH  28  29
ENDBRANCH  27  28
ENDBRANCH  26  27
ENDBRANCH   1  26
TORSDOF 22
