REMARK SMILES O=C(NCCCCCCNC(=O)[C@@H]1[C@H](C(=O)Nc2ccc(Cn3cncn3)cc2)[C@@H]2C=C[C@H]1CC2)c1ccc(-c2c3nc(c(-c4cccc(S(=O)(=O)[O-])c4F)c4ccc([nH]4)c(-c4cccc(S(=O)(=O)[O-])c4F)c4nc(c(-c5cccc(S(=O)(=O)[O-])c5F)c5ccc2[nH]5)C=C4)C=C3)cc1
REMARK SMILES IDX 7 1 6 2 5 3 4 4 3 5 1 6 2 7 36 9 37 10 98 11 38 12 97 13
REMARK SMILES IDX 39 14 40 15 41 16 91 17 42 18 96 19 90 20 92 21 43 22 95 23
REMARK SMILES IDX 89 24 88 25 44 27 76 28 56 29 75 30 57 31 60 32 74 33 93 34
REMARK SMILES IDX 58 35 59 36 73 38 94 39 61 40 45 41 46 42 54 43 47 44 49 45
REMARK SMILES IDX 55 46 48 47 50 48 51 49 52 50 53 51 77 52 78 53 86 54 79 55
REMARK SMILES IDX 81 56 87 57 80 58 82 59 83 60 84 61 85 62 62 63 63 64 71 65
REMARK SMILES IDX 64 66 66 67 72 68 65 69 67 70 68 71 69 72 70 73 8 74 9 75
REMARK SMILES IDX 10 76 11 77 12 79 13 80 14 81 33 82 30 83 32 84 34 85 31 86
REMARK SMILES IDX 35 87 15 88 16 89 17 90 18 92 19 93 29 94 20 95 28 96 21 97
REMARK SMILES IDX 22 98 23 99 24 100 27 101 25 102 26 103
REMARK H PARENT 3 8 92 26 60 37 10 78 17 91
REMARK Flexibility Score: inf
ROOT
ATOM      1  C   UNL     1       4.945   2.295   3.541  1.00  0.00     0.002 C 
ENDROOT
BRANCH   1   2
ATOM      2  C   UNL     1       4.374   2.824   2.225  1.00  0.00     0.002 C 
BRANCH   2   3
ATOM      3  C   UNL     1       4.833   2.098   0.956  1.00  0.00     0.021 C 
BRANCH   3   4
ATOM      4  C   UNL     1       4.667   0.579   0.983  1.00  0.00     0.116 C 
BRANCH   4   5
ATOM      5  N   UNL     1       3.296   0.122   1.029  1.00  0.00    -0.352 N 
ATOM      6  O   UNL     1       1.258  -0.535   0.477  1.00  0.00    -0.269 OA
ATOM      7  C   UNL     1       2.301   0.002   0.098  1.00  0.00     0.251 C 
ATOM      8  H   UNL     1       3.017  -0.165   1.929  1.00  0.00     0.163 HD
BRANCH   7   9
ATOM      9  C   UNL     1       2.381   0.530  -1.290  1.00  0.00     0.039 A 
ATOM     10  C   UNL     1       3.562   0.772  -1.993  1.00  0.00     0.014 A 
ATOM     11  C   UNL     1       1.151   0.774  -1.929  1.00  0.00     0.014 A 
ATOM     12  C   UNL     1       3.523   1.322  -3.270  1.00  0.00     0.010 A 
ATOM     13  C   UNL     1       1.105   1.298  -3.217  1.00  0.00     0.010 A 
ATOM     14  C   UNL     1       2.295   1.592  -3.878  1.00  0.00    -0.014 A 
BRANCH  14  15
ATOM     15  C   UNL     1       2.306   1.988  -5.285  1.00  0.00     0.031 A 
ATOM     16  C   UNL     1       2.816   0.939  -6.219  1.00  0.00     0.074 A 
ATOM     17  C   UNL     1       1.753   3.128  -5.747  1.00  0.00     0.049 A 
ATOM     18  N   UNL     1       3.810   1.011  -7.045  1.00  0.00    -0.248 NA
ATOM     19  C   UNL     1       2.200  -0.396  -6.141  1.00  0.00     0.031 C 
ATOM     20  C   UNL     1       0.943   4.089  -4.995  1.00  0.00     0.029 A 
ATOM     21  N   UNL     1       1.676   3.590  -7.030  1.00  0.00    -0.354 N 
ATOM     22  C   UNL     1       3.812  -0.200  -7.740  1.00  0.00     0.074 A 
ATOM     23  C   UNL     1       2.912  -1.076  -7.039  1.00  0.00     0.031 C 
ATOM     24  C   UNL     1       0.257   4.862  -5.865  1.00  0.00     0.029 A 
ATOM     25  C   UNL     1       0.673   4.536  -7.218  1.00  0.00     0.049 A 
ATOM     26  H   UNL     1       2.271   3.283  -7.751  1.00  0.00     0.167 HD
ATOM     27  C   UNL     1       4.386  -0.330  -8.968  1.00  0.00     0.034 A 
ATOM     28  C   UNL     1       0.160   4.953  -8.402  1.00  0.00     0.034 A 
ATOM     29  C   UNL     1       5.306   0.740  -9.245  1.00  0.00     0.049 A 
ATOM     30  C   UNL     1       1.126   4.601  -9.464  1.00  0.00     0.074 A 
ATOM     31  C   UNL     1       6.459   1.220  -8.661  1.00  0.00     0.029 A 
ATOM     32  N   UNL     1       4.886   1.716 -10.112  1.00  0.00    -0.354 N 
ATOM     33  N   UNL     1       2.293   5.163  -9.602  1.00  0.00    -0.248 NA
ATOM     34  C   UNL     1       0.947   3.343 -10.168  1.00  0.00     0.031 C 
ATOM     35  C   UNL     1       6.403   2.631  -8.845  1.00  0.00     0.029 A 
ATOM     36  C   UNL     1       5.244   2.919  -9.569  1.00  0.00     0.049 A 
ATOM     37  H   UNL     1       4.415   1.577 -10.965  1.00  0.00     0.167 HD
ATOM     38  C   UNL     1       3.123   4.131 -10.017  1.00  0.00     0.074 A 
ATOM     39  C   UNL     1       2.220   3.076 -10.468  1.00  0.00     0.031 C 
ATOM     40  C   UNL     1       4.447   4.119  -9.685  1.00  0.00     0.034 A 
BRANCH  27  41
ATOM     41  C   UNL     1       3.873  -1.228 -10.073  1.00  0.00     0.023 A 
ATOM     42  C   UNL     1       4.670  -1.353 -11.236  1.00  0.00     0.012 A 
ATOM     43  C   UNL     1       2.549  -1.718 -10.153  1.00  0.00     0.148 A 
ATOM     44  C   UNL     1       4.159  -1.880 -12.427  1.00  0.00     0.002 A 
ATOM     45  C   UNL     1       2.072  -2.317 -11.314  1.00  0.00     0.091 A 
ATOM     46  F   UNL     1       1.690  -1.491  -9.156  1.00  0.00    -0.205 F 
ATOM     47  C   UNL     1       2.860  -2.370 -12.465  1.00  0.00     0.022 A 
BRANCH  45  48
ATOM     48  S   UNL     1       0.420  -3.020 -11.398  1.00  0.00     0.127 S 
ATOM     49  O   UNL     1      -0.283  -2.021 -12.196  1.00  0.00    -0.237 OA
ATOM     50  O   UNL     1       0.671  -4.292 -12.077  1.00  0.00    -0.237 OA
ATOM     51  O   UNL     1      -0.012  -3.162 -10.013  1.00  0.00    -0.744 OA
ENDBRANCH  45  48
ENDBRANCH  27  41
BRANCH  28  52
ATOM     52  C   UNL     1      -1.208   5.417  -8.732  1.00  0.00     0.023 A 
ATOM     53  C   UNL     1      -1.424   6.184  -9.895  1.00  0.00     0.012 A 
ATOM     54  C   UNL     1      -2.334   4.878  -8.070  1.00  0.00     0.148 A 
ATOM     55  C   UNL     1      -2.715   6.381 -10.400  1.00  0.00     0.002 A 
ATOM     56  C   UNL     1      -3.615   5.085  -8.571  1.00  0.00     0.091 A 
ATOM     57  F   UNL     1      -2.140   4.084  -7.009  1.00  0.00    -0.205 F 
ATOM     58  C   UNL     1      -3.809   5.827  -9.743  1.00  0.00     0.022 A 
BRANCH  56  59
ATOM     59  S   UNL     1      -5.072   4.380  -7.788  1.00  0.00     0.127 S 
ATOM     60  O   UNL     1      -5.976   5.529  -7.738  1.00  0.00    -0.237 OA
ATOM     61  O   UNL     1      -5.454   3.342  -8.742  1.00  0.00    -0.237 OA
ATOM     62  O   UNL     1      -4.631   3.909  -6.481  1.00  0.00    -0.744 OA
ENDBRANCH  56  59
ENDBRANCH  28  52
BRANCH  40  63
ATOM     63  C   UNL     1       5.054   5.378  -9.120  1.00  0.00     0.023 A 
ATOM     64  C   UNL     1       4.609   5.953  -7.912  1.00  0.00     0.012 A 
ATOM     65  C   UNL     1       6.215   5.886  -9.728  1.00  0.00     0.148 A 
ATOM     66  C   UNL     1       5.293   7.028  -7.338  1.00  0.00     0.002 A 
ATOM     67  C   UNL     1       6.921   6.919  -9.126  1.00  0.00     0.091 A 
ATOM     68  F   UNL     1       6.627   5.326 -10.876  1.00  0.00    -0.205 F 
ATOM     69  C   UNL     1       6.457   7.501  -7.937  1.00  0.00     0.022 A 
BRANCH  67  70
ATOM     70  S   UNL     1       8.502   7.467  -9.775  1.00  0.00     0.127 S 
ATOM     71  O   UNL     1       8.142   8.726 -10.431  1.00  0.00    -0.237 OA
ATOM     72  O   UNL     1       9.304   7.624  -8.557  1.00  0.00    -0.237 OA
ATOM     73  O   UNL     1       8.963   6.407 -10.655  1.00  0.00    -0.744 OA
ENDBRANCH  67  70
ENDBRANCH  40  63
ENDBRANCH  14  15
ENDBRANCH   7   9
ENDBRANCH   4   5
ENDBRANCH   3   4
ENDBRANCH   2   3
ENDBRANCH   1   2
BRANCH   1  74
ATOM     74  C   UNL     1       6.464   2.120   3.597  1.00  0.00     0.021 C 
BRANCH  74  75
ATOM     75  C   UNL     1       7.309   3.373   3.382  1.00  0.00     0.116 C 
BRANCH  75  76
ATOM     76  N   UNL     1       7.034   4.440   4.327  1.00  0.00    -0.356 N 
ATOM     77  C   UNL     1       7.917   5.191   5.049  1.00  0.00     0.224 C 
ATOM     78  H   UNL     1       6.082   4.650   4.467  1.00  0.00     0.163 HD
ATOM     79  O   UNL     1       7.577   6.338   5.348  1.00  0.00    -0.275 OA
BRANCH  77  80
ATOM     80  C   UNL     1       9.289   4.647   5.397  1.00  0.00     0.098 C 
ATOM     81  C   UNL     1       9.436   3.248   6.050  1.00  0.00     0.098 C 
ATOM     82  C   UNL     1      10.212   5.664   6.159  1.00  0.00     0.025 C 
ATOM     83  C   UNL     1      10.695   3.242   6.974  1.00  0.00     0.025 C 
ATOM     84  C   UNL     1      10.169   5.468   7.665  1.00  0.00    -0.027 C 
ATOM     85  C   UNL     1      11.669   5.283   5.792  1.00  0.00     0.009 C 
ATOM     86  C   UNL     1      10.459   4.227   8.088  1.00  0.00    -0.027 C 
ATOM     87  C   UNL     1      11.909   3.795   6.169  1.00  0.00     0.009 C 
BRANCH  81  88
ATOM     88  C   UNL     1       8.297   2.398   6.655  1.00  0.00     0.228 C 
ATOM     89  O   UNL     1       8.216   1.220   6.256  1.00  0.00    -0.274 OA
ATOM     90  N   UNL     1       7.487   2.669   7.713  1.00  0.00    -0.326 N 
ATOM     91  H   UNL     1       6.884   1.927   7.949  1.00  0.00     0.169 HD
BRANCH  90  92
ATOM     92  C   UNL     1       7.341   3.789   8.529  1.00  0.00     0.041 A 
ATOM     93  C   UNL     1       7.508   3.642   9.905  1.00  0.00     0.026 A 
ATOM     94  C   UNL     1       6.975   5.027   8.034  1.00  0.00     0.026 A 
ATOM     95  C   UNL     1       7.572   4.774  10.724  1.00  0.00     0.008 A 
ATOM     96  C   UNL     1       7.043   6.166   8.834  1.00  0.00     0.008 A 
ATOM     97  C   UNL     1       7.420   6.054  10.174  1.00  0.00    -0.026 A 
BRANCH  97  98
ATOM     98  C   UNL     1       7.668   7.295  10.990  1.00  0.00     0.181 C 
BRANCH  98  99
ATOM     99  N   UNL     1       6.439   7.855  11.505  1.00  0.00    -0.249 N 
ATOM    100  C   UNL     1       5.631   7.333  12.468  1.00  0.00     0.220 A 
ATOM    101  N   UNL     1       5.996   9.061  11.103  1.00  0.00    -0.160 NA
ATOM    102  N   UNL     1       4.634   8.155  12.696  1.00  0.00    -0.224 NA
ATOM    103  C   UNL     1       4.883   9.183  11.830  1.00  0.00     0.246 A 
ENDBRANCH  98  99
ENDBRANCH  97  98
ENDBRANCH  90  92
ENDBRANCH  81  88
ENDBRANCH  77  80
ENDBRANCH  75  76
ENDBRANCH  74  75
ENDBRANCH   1  74
TORSDOF 20
