REMARK SMILES NS(=O)(=O)c1ccc(N2N=C(C(=O)NCCCCCCNC(=O)c3ccc(-c4c5nc(c(-c6cccc(S(=O)(=O)[O-])c6F)c6ccc([nH]6)c(-c6cccc(S(=O)(=O)[O-])c6F)c6nc(c(-c7cccc(S(=O)(=O)[O-])c7F)c7ccc4[nH]7)C=C6)C=C5)cc3)C[C@H]2c2cccs2)cc1
REMARK SMILES IDX 17 1 16 2 15 3 14 4 12 5 13 6 11 8 9 9 10 10 88 11 87 12
REMARK SMILES IDX 8 13 5 14 6 15 95 16 7 17 94 18 2 19 3 20 4 21 1 22 89 25
REMARK SMILES IDX 90 26 93 27 91 28 92 29 18 30 19 31 20 32 21 33 22 34 23 36
REMARK SMILES IDX 24 37 25 38 86 39 26 40 85 41 27 42 28 43 29 44 79 45 30 46
REMARK SMILES IDX 84 47 78 48 80 49 31 50 83 51 77 52 76 53 32 55 64 56 44 57
REMARK SMILES IDX 63 58 45 59 48 60 62 61 81 62 46 63 47 64 61 66 82 67 49 68
REMARK SMILES IDX 33 69 34 70 42 71 35 72 37 73 43 74 36 75 38 76 39 77 40 78
REMARK SMILES IDX 41 79 65 80 66 81 74 82 67 83 69 84 75 85 68 86 70 87 71 88
REMARK SMILES IDX 72 89 73 90 50 91 51 92 59 93 52 94 54 95 60 96 53 97 55 98
REMARK SMILES IDX 56 99 57 100 58 101
REMARK H PARENT 14 7 1 23 1 24 21 35 80 54 48 65
REMARK Flexibility Score: inf
ROOT
ATOM      1  C   UNL     1       1.860 -11.409   7.616  1.00  0.00     0.002 C 
ENDROOT
BRANCH   1   2
ATOM      2  C   UNL     1       1.101 -10.097   7.422  1.00  0.00     0.021 C 
BRANCH   2   3
ATOM      3  C   UNL     1       1.969  -8.848   7.524  1.00  0.00     0.116 C 
BRANCH   3   4
ATOM      4  N   UNL     1       2.785  -8.676   6.338  1.00  0.00    -0.351 N 
ATOM      5  C   UNL     1       2.927  -7.673   5.413  1.00  0.00     0.267 C 
ATOM      6  O   UNL     1       3.653  -7.891   4.445  1.00  0.00    -0.268 OA
ATOM      7  H   UNL     1       3.366  -9.450   6.157  1.00  0.00     0.163 HD
BRANCH   5   8
ATOM      8  C   UNL     1       2.279  -6.301   5.542  1.00  0.00     0.128 C 
ATOM      9  N   UNL     1       1.935  -4.225   5.152  1.00  0.00    -0.256 N 
ATOM     10  N   UNL     1       2.532  -5.359   4.684  1.00  0.00    -0.171 NA
ATOM     11  C   UNL     1       1.115  -4.447   6.353  1.00  0.00     0.154 C 
ATOM     12  C   UNL     1       1.323  -5.938   6.623  1.00  0.00     0.097 C 
BRANCH   9  13
ATOM     13  C   UNL     1       1.601  -3.202   4.262  1.00  0.00     0.060 A 
ATOM     14  C   UNL     1       0.852  -1.104   2.553  1.00  0.00     0.082 A 
ATOM     15  C   UNL     1       0.643  -2.428   2.157  1.00  0.00     0.024 A 
ATOM     16  C   UNL     1       1.449  -0.817   3.778  1.00  0.00     0.024 A 
ATOM     17  C   UNL     1       1.030  -3.469   3.009  1.00  0.00     0.029 A 
ATOM     18  C   UNL     1       1.824  -1.866   4.618  1.00  0.00     0.029 A 
BRANCH  14  19
ATOM     19  S   UNL     1       0.373   0.221   1.490  1.00  0.00     0.238 S 
ATOM     20  O   UNL     1       0.990   1.450   1.947  1.00  0.00    -0.207 OA
ATOM     21  O   UNL     1      -1.036   0.117   1.216  1.00  0.00    -0.207 OA
BRANCH  19  22
ATOM     22  N   UNL     1       1.164  -0.146   0.054  1.00  0.00    -0.225 NA
ATOM     23  H   UNL     1       0.953   0.569  -0.642  1.00  0.00     0.137 HD
ATOM     24  H   UNL     1       0.848  -1.055  -0.285  1.00  0.00     0.137 HD
ENDBRANCH  19  22
ENDBRANCH  14  19
ENDBRANCH   9  13
BRANCH  11  25
ATOM     25  C   UNL     1       1.368  -3.547   7.554  1.00  0.00     0.030 A 
ATOM     26  C   UNL     1       0.792  -2.310   7.798  1.00  0.00     0.017 A 
ATOM     27  S   UNL     1       2.444  -3.961   8.832  1.00  0.00    -0.147 S 
ATOM     28  C   UNL     1       1.197  -1.739   9.038  1.00  0.00     0.012 A 
ATOM     29  C   UNL     1       2.045  -2.570   9.731  1.00  0.00     0.065 A 
ENDBRANCH  11  25
ENDBRANCH   5   8
ENDBRANCH   3   4
ENDBRANCH   2   3
ENDBRANCH   1   2
BRANCH   1  30
ATOM     30  C   UNL     1       2.619 -11.529   8.942  1.00  0.00     0.002 C 
BRANCH  30  31
ATOM     31  C   UNL     1       1.795 -11.233  10.199  1.00  0.00     0.021 C 
BRANCH  31  32
ATOM     32  C   UNL     1       0.533 -12.077  10.351  1.00  0.00     0.116 C 
BRANCH  32  33
ATOM     33  N   UNL     1       0.834 -13.498  10.405  1.00  0.00    -0.352 N 
ATOM     34  C   UNL     1       0.477 -14.428  11.348  1.00  0.00     0.251 C 
ATOM     35  H   UNL     1       1.371 -13.843   9.656  1.00  0.00     0.163 HD
ATOM     36  O   UNL     1       0.999 -15.540  11.333  1.00  0.00    -0.269 OA
BRANCH  34  37
ATOM     37  C   UNL     1      -0.522 -14.090  12.384  1.00  0.00     0.039 A 
ATOM     38  C   UNL     1      -0.288 -14.496  13.700  1.00  0.00     0.014 A 
ATOM     39  C   UNL     1      -1.692 -13.397  12.062  1.00  0.00     0.014 A 
ATOM     40  C   UNL     1      -1.206 -14.168  14.699  1.00  0.00     0.010 A 
ATOM     41  C   UNL     1      -2.568 -13.004  13.072  1.00  0.00     0.010 A 
ATOM     42  C   UNL     1      -2.341 -13.396  14.399  1.00  0.00    -0.014 A 
BRANCH  42  43
ATOM     43  C   UNL     1      -3.287 -12.985  15.469  1.00  0.00     0.031 A 
ATOM     44  C   UNL     1      -4.721 -13.442  15.440  1.00  0.00     0.074 A 
ATOM     45  C   UNL     1      -2.869 -12.140  16.433  1.00  0.00     0.049 A 
ATOM     46  N   UNL     1      -5.688 -13.169  16.277  1.00  0.00    -0.248 NA
ATOM     47  C   UNL     1      -5.132 -14.297  14.313  1.00  0.00     0.031 C 
ATOM     48  C   UNL     1      -1.528 -11.557  16.523  1.00  0.00     0.029 A 
ATOM     49  N   UNL     1      -3.534 -11.606  17.508  1.00  0.00    -0.354 N 
ATOM     50  C   UNL     1      -6.824 -13.783  15.764  1.00  0.00     0.074 A 
ATOM     51  C   UNL     1      -6.434 -14.420  14.525  1.00  0.00     0.031 C 
ATOM     52  C   UNL     1      -1.469 -10.752  17.595  1.00  0.00     0.029 A 
ATOM     53  C   UNL     1      -2.772 -10.734  18.251  1.00  0.00     0.049 A 
ATOM     54  H   UNL     1      -4.469 -11.826  17.727  1.00  0.00     0.167 HD
ATOM     55  C   UNL     1      -8.072 -13.834  16.287  1.00  0.00     0.034 A 
ATOM     56  C   UNL     1      -3.088  -9.994  19.331  1.00  0.00     0.034 A 
ATOM     57  C   UNL     1      -8.446 -13.233  17.539  1.00  0.00     0.049 A 
ATOM     58  C   UNL     1      -4.469 -10.108  19.917  1.00  0.00     0.074 A 
ATOM     59  C   UNL     1      -9.658 -13.314  18.202  1.00  0.00     0.029 A 
ATOM     60  N   UNL     1      -7.623 -12.427  18.309  1.00  0.00    -0.354 N 
ATOM     61  N   UNL     1      -5.481 -10.835  19.509  1.00  0.00    -0.248 NA
ATOM     62  C   UNL     1      -4.741  -9.332  21.135  1.00  0.00     0.031 C 
ATOM     63  C   UNL     1      -9.580 -12.525  19.354  1.00  0.00     0.029 A 
ATOM     64  C   UNL     1      -8.306 -11.989  19.431  1.00  0.00     0.049 A 
ATOM     65  H   UNL     1      -6.691 -12.199  18.090  1.00  0.00     0.167 HD
ATOM     66  C   UNL     1      -6.495 -10.631  20.437  1.00  0.00     0.074 A 
ATOM     67  C   UNL     1      -5.966  -9.733  21.443  1.00  0.00     0.031 C 
ATOM     68  C   UNL     1      -7.755 -11.132  20.449  1.00  0.00     0.034 A 
BRANCH  55  69
ATOM     69  C   UNL     1      -9.126 -14.599  15.528  1.00  0.00     0.023 A 
ATOM     70  C   UNL     1      -9.064 -16.006  15.469  1.00  0.00     0.012 A 
ATOM     71  C   UNL     1     -10.219 -13.930  14.943  1.00  0.00     0.148 A 
ATOM     72  C   UNL     1     -10.057 -16.734  14.813  1.00  0.00     0.002 A 
ATOM     73  C   UNL     1     -11.229 -14.665  14.333  1.00  0.00     0.091 A 
ATOM     74  F   UNL     1     -10.250 -12.591  14.992  1.00  0.00    -0.205 F 
ATOM     75  C   UNL     1     -11.143 -16.065  14.257  1.00  0.00     0.022 A 
BRANCH  73  76
ATOM     76  S   UNL     1     -12.710 -13.905  13.659  1.00  0.00     0.127 S 
ATOM     77  O   UNL     1     -12.533 -14.134  12.226  1.00  0.00    -0.237 OA
ATOM     78  O   UNL     1     -13.771 -14.702  14.278  1.00  0.00    -0.237 OA
ATOM     79  O   UNL     1     -12.674 -12.511  14.075  1.00  0.00    -0.744 OA
ENDBRANCH  73  76
ENDBRANCH  55  69
BRANCH  56  80
ATOM     80  C   UNL     1      -2.064  -9.110  19.956  1.00  0.00     0.023 A 
ATOM     81  C   UNL     1      -1.553  -9.425  21.231  1.00  0.00     0.012 A 
ATOM     82  C   UNL     1      -1.583  -7.968  19.287  1.00  0.00     0.148 A 
ATOM     83  C   UNL     1      -0.613  -8.596  21.844  1.00  0.00     0.002 A 
ATOM     84  C   UNL     1      -0.602  -7.181  19.877  1.00  0.00     0.091 A 
ATOM     85  F   UNL     1      -2.089  -7.681  18.079  1.00  0.00    -0.205 F 
ATOM     86  C   UNL     1      -0.131  -7.480  21.164  1.00  0.00     0.022 A 
BRANCH  84  87
ATOM     87  S   UNL     1       0.172  -5.808  19.017  1.00  0.00     0.127 S 
ATOM     88  O   UNL     1      -0.366  -4.659  19.740  1.00  0.00    -0.237 OA
ATOM     89  O   UNL     1       1.593  -6.071  19.247  1.00  0.00    -0.237 OA
ATOM     90  O   UNL     1      -0.241  -5.932  17.625  1.00  0.00    -0.744 OA
ENDBRANCH  84  87
ENDBRANCH  56  80
BRANCH  68  91
ATOM     91  C   UNL     1      -8.645 -10.757  21.607  1.00  0.00     0.023 A 
ATOM     92  C   UNL     1      -9.138  -9.442  21.722  1.00  0.00     0.012 A 
ATOM     93  C   UNL     1      -9.041 -11.728  22.547  1.00  0.00     0.148 A 
ATOM     94  C   UNL     1      -9.978  -9.090  22.778  1.00  0.00     0.002 A 
ATOM     95  C   UNL     1      -9.922 -11.383  23.565  1.00  0.00     0.091 A 
ATOM     96  F   UNL     1      -8.548 -12.970  22.431  1.00  0.00    -0.205 F 
ATOM     97  C   UNL     1     -10.379 -10.062  23.691  1.00  0.00     0.022 A 
BRANCH  95  98
ATOM     98  S   UNL     1     -10.571 -12.591  24.726  1.00  0.00     0.127 S 
ATOM     99  O   UNL     1      -9.875 -12.222  25.958  1.00  0.00    -0.237 OA
ATOM    100  O   UNL     1     -12.002 -12.288  24.720  1.00  0.00    -0.237 OA
ATOM    101  O   UNL     1     -10.227 -13.897  24.181  1.00  0.00    -0.744 OA
ENDBRANCH  95  98
ENDBRANCH  68  91
ENDBRANCH  42  43
ENDBRANCH  34  37
ENDBRANCH  32  33
ENDBRANCH  31  32
ENDBRANCH  30  31
ENDBRANCH   1  30
TORSDOF 20
