REMARK SMILES CC1=C(CC(=O)NCCCCCCNC(=O)c2ccc(-c3c4nc(c(-c5cccc(S(=O)(=O)[O-])c5F)c5ccc([nH]5)c(-c5cccc(S(=O)(=O)[O-])c5F)c5nc(c(-c6cccc(S(=O)(=O)[O-])c6F)c6ccc3[nH]6)C=C5)C=C4)cc2)c2cc(F)ccc2/C1=C\c1cccc(OCc2ccccc2)c1
REMARK SMILES IDX 9 1 8 2 7 3 5 4 6 5 4 7 3 8 1 9 2 10 87 11 80 12 86 13 88 14
REMARK SMILES IDX 81 15 85 16 82 17 84 18 83 19 89 20 90 21 102 22 91 23 93 24
REMARK SMILES IDX 92 25 94 26 95 27 96 28 97 29 101 30 98 31 100 32 99 33
REMARK SMILES IDX 10 34 11 35 12 36 13 37 14 38 15 39 16 41 17 42 18 43 79 44
REMARK SMILES IDX 19 45 78 46 20 47 21 48 22 49 72 50 23 51 77 52 71 53 73 54
REMARK SMILES IDX 24 55 76 56 70 57 69 58 25 60 57 61 37 62 56 63 38 64 41 65
REMARK SMILES IDX 55 66 74 67 39 68 40 69 54 71 75 72 42 73 26 74 27 75 35 76
REMARK SMILES IDX 28 77 30 78 36 79 29 80 31 81 32 82 33 83 34 84 58 85 59 86
REMARK SMILES IDX 67 87 60 88 62 89 68 90 61 91 63 92 64 93 65 94 66 95 43 96
REMARK SMILES IDX 44 97 52 98 45 99 47 100 53 101 46 102 48 103 49 104 50 105
REMARK SMILES IDX 51 106
REMARK H PARENT 7 6 14 40 73 59 41 70
REMARK Flexibility Score: inf
ROOT
ATOM      1  C   UNL     1      -2.034  -2.372   1.481  1.00  0.00     0.021 C 
ENDROOT
BRANCH   1   2
ATOM      2  C   UNL     1      -0.730  -2.194   2.260  1.00  0.00     0.116 C 
BRANCH   2   3
ATOM      3  N   UNL     1       0.009  -3.438   2.357  1.00  0.00    -0.356 N 
ATOM      4  C   UNL     1       1.134  -3.825   1.691  1.00  0.00     0.224 C 
ATOM      5  O   UNL     1       1.566  -4.964   1.887  1.00  0.00    -0.275 OA
ATOM      6  H   UNL     1      -0.353  -4.096   2.993  1.00  0.00     0.163 HD
BRANCH   4   7
ATOM      7  C   UNL     1       1.863  -2.855   0.763  1.00  0.00     0.136 C 
BRANCH   7   8
ATOM      8  C   UNL     1       1.102  -2.512  -0.476  1.00  0.00    -0.027 C 
ATOM      9  C   UNL     1       1.153   0.032  -0.351  1.00  0.00     0.045 C 
ATOM     10  C   UNL     1       0.753  -1.286  -0.934  1.00  0.00    -0.039 C 
ATOM     11  C   UNL     1      -0.055  -1.431  -2.152  1.00  0.00    -0.014 C 
ATOM     12  C   UNL     1       0.620  -3.510  -1.446  1.00  0.00    -0.011 A 
ATOM     13  C   UNL     1      -0.061  -2.864  -2.495  1.00  0.00    -0.010 A 
ATOM     14  C   UNL     1      -0.690  -0.419  -2.768  1.00  0.00     0.017 C 
ATOM     15  C   UNL     1       0.780  -4.889  -1.452  1.00  0.00     0.048 A 
ATOM     16  C   UNL     1      -0.559  -3.588  -3.571  1.00  0.00     0.012 A 
ATOM     17  C   UNL     1       0.251  -5.609  -2.520  1.00  0.00     0.123 A 
ATOM     18  C   UNL     1      -0.407  -4.975  -3.575  1.00  0.00     0.040 A 
ATOM     19  F   UNL     1       0.389  -6.942  -2.547  1.00  0.00    -0.207 F 
BRANCH  14  20
ATOM     20  C   UNL     1      -1.491  -0.521  -3.986  1.00  0.00    -0.021 A 
ATOM     21  C   UNL     1      -2.793  -1.031  -3.963  1.00  0.00     0.008 A 
ATOM     22  C   UNL     1      -0.923  -0.102  -5.194  1.00  0.00     0.054 A 
ATOM     23  C   UNL     1      -3.505  -1.166  -5.153  1.00  0.00     0.004 A 
ATOM     24  C   UNL     1      -1.653  -0.188  -6.378  1.00  0.00     0.120 A 
ATOM     25  C   UNL     1      -2.931  -0.754  -6.356  1.00  0.00     0.046 A 
BRANCH  24  26
ATOM     26  O   UNL     1      -1.265   0.306  -7.593  1.00  0.00    -0.489 OA
BRANCH  26  27
ATOM     27  C   UNL     1      -0.142   1.195  -7.644  1.00  0.00     0.265 C 
BRANCH  27  28
ATOM     28  C   UNL     1      -0.358   2.601  -7.111  1.00  0.00    -0.011 A 
ATOM     29  C   UNL     1      -1.525   3.006  -6.446  1.00  0.00     0.007 A 
ATOM     30  C   UNL     1       0.673   3.543  -7.267  1.00  0.00     0.007 A 
ATOM     31  C   UNL     1      -1.644   4.292  -5.916  1.00  0.00     0.000 A 
ATOM     32  C   UNL     1       0.545   4.838  -6.757  1.00  0.00     0.000 A 
ATOM     33  C   UNL     1      -0.609   5.208  -6.072  1.00  0.00     0.000 A 
ENDBRANCH  27  28
ENDBRANCH  26  27
ENDBRANCH  24  26
ENDBRANCH  14  20
ENDBRANCH   7   8
ENDBRANCH   4   7
ENDBRANCH   2   3
ENDBRANCH   1   2
BRANCH   1  34
ATOM     34  C   UNL     1      -3.108  -3.176   2.227  1.00  0.00     0.002 C 
BRANCH  34  35
ATOM     35  C   UNL     1      -3.542  -2.603   3.582  1.00  0.00     0.002 C 
BRANCH  35  36
ATOM     36  C   UNL     1      -3.996  -1.142   3.562  1.00  0.00     0.021 C 
BRANCH  36  37
ATOM     37  C   UNL     1      -5.192  -0.856   2.660  1.00  0.00     0.116 C 
BRANCH  37  38
ATOM     38  N   UNL     1      -6.415  -1.486   3.135  1.00  0.00    -0.352 N 
ATOM     39  C   UNL     1      -7.642  -0.916   3.386  1.00  0.00     0.251 C 
ATOM     40  H   UNL     1      -6.356  -2.455   3.299  1.00  0.00     0.163 HD
ATOM     41  O   UNL     1      -8.528  -1.568   3.929  1.00  0.00    -0.269 OA
BRANCH  39  42
ATOM     42  C   UNL     1      -7.866   0.501   3.028  1.00  0.00     0.039 A 
ATOM     43  C   UNL     1      -7.512   0.974   1.762  1.00  0.00     0.014 A 
ATOM     44  C   UNL     1      -8.382   1.375   3.988  1.00  0.00     0.014 A 
ATOM     45  C   UNL     1      -7.513   2.343   1.515  1.00  0.00     0.010 A 
ATOM     46  C   UNL     1      -8.450   2.743   3.711  1.00  0.00     0.010 A 
ATOM     47  C   UNL     1      -7.962   3.244   2.494  1.00  0.00    -0.014 A 
BRANCH  47  48
ATOM     48  C   UNL     1      -7.885   4.706   2.238  1.00  0.00     0.031 A 
ATOM     49  C   UNL     1      -6.971   5.582   3.056  1.00  0.00     0.074 A 
ATOM     50  C   UNL     1      -8.611   5.244   1.239  1.00  0.00     0.049 A 
ATOM     51  N   UNL     1      -6.777   6.873   2.969  1.00  0.00    -0.248 NA
ATOM     52  C   UNL     1      -6.171   4.929   4.107  1.00  0.00     0.031 C 
ATOM     53  C   UNL     1      -9.538   4.505   0.380  1.00  0.00     0.029 A 
ATOM     54  N   UNL     1      -8.678   6.532   0.771  1.00  0.00    -0.354 N 
ATOM     55  C   UNL     1      -5.873   7.193   3.974  1.00  0.00     0.074 A 
ATOM     56  C   UNL     1      -5.551   5.962   4.662  1.00  0.00     0.031 C 
ATOM     57  C   UNL     1     -10.054   5.343  -0.531  1.00  0.00     0.029 A 
ATOM     58  C   UNL     1      -9.534   6.686  -0.293  1.00  0.00     0.049 A 
ATOM     59  H   UNL     1      -8.162   7.275   1.161  1.00  0.00     0.167 HD
ATOM     60  C   UNL     1      -5.341   8.399   4.283  1.00  0.00     0.034 A 
ATOM     61  C   UNL     1      -9.872   7.784  -0.996  1.00  0.00     0.034 A 
ATOM     62  C   UNL     1      -5.608   9.613   3.563  1.00  0.00     0.049 A 
ATOM     63  C   UNL     1      -9.261   9.107  -0.638  1.00  0.00     0.074 A 
ATOM     64  C   UNL     1      -5.074  10.872   3.777  1.00  0.00     0.029 A 
ATOM     65  N   UNL     1      -6.474   9.722   2.488  1.00  0.00    -0.354 N 
ATOM     66  N   UNL     1      -8.356   9.373   0.271  1.00  0.00    -0.248 NA
ATOM     67  C   UNL     1      -9.709  10.278  -1.405  1.00  0.00     0.031 C 
ATOM     68  C   UNL     1      -5.617  11.744   2.829  1.00  0.00     0.029 A 
ATOM     69  C   UNL     1      -6.489  11.027   2.027  1.00  0.00     0.049 A 
ATOM     70  H   UNL     1      -7.001   8.982   2.108  1.00  0.00     0.167 HD
ATOM     71  C   UNL     1      -8.118  10.738   0.182  1.00  0.00     0.074 A 
ATOM     72  C   UNL     1      -8.957  11.242  -0.885  1.00  0.00     0.031 C 
ATOM     73  C   UNL     1      -7.295  11.506   0.934  1.00  0.00     0.034 A 
BRANCH  60  74
ATOM     74  C   UNL     1      -4.361   8.470   5.421  1.00  0.00     0.023 A 
ATOM     75  C   UNL     1      -3.019   8.107   5.193  1.00  0.00     0.012 A 
ATOM     76  C   UNL     1      -4.738   8.993   6.673  1.00  0.00     0.148 A 
ATOM     77  C   UNL     1      -2.065   8.257   6.198  1.00  0.00     0.002 A 
ATOM     78  C   UNL     1      -3.776   9.164   7.662  1.00  0.00     0.091 A 
ATOM     79  F   UNL     1      -6.024   9.319   6.867  1.00  0.00    -0.205 F 
ATOM     80  C   UNL     1      -2.441   8.793   7.427  1.00  0.00     0.022 A 
BRANCH  78  81
ATOM     81  S   UNL     1      -4.141   9.894   9.262  1.00  0.00     0.127 S 
ATOM     82  O   UNL     1      -3.920   8.759  10.159  1.00  0.00    -0.237 OA
ATOM     83  O   UNL     1      -3.134  10.950   9.354  1.00  0.00    -0.237 OA
ATOM     84  O   UNL     1      -5.517  10.364   9.187  1.00  0.00    -0.744 OA
ENDBRANCH  78  81
ENDBRANCH  60  74
BRANCH  61  85
ATOM     85  C   UNL     1     -10.809   7.650  -2.143  1.00  0.00     0.023 A 
ATOM     86  C   UNL     1     -10.301   7.709  -3.454  1.00  0.00     0.012 A 
ATOM     87  C   UNL     1     -12.176   7.381  -1.941  1.00  0.00     0.148 A 
ATOM     88  C   UNL     1     -11.142   7.504  -4.548  1.00  0.00     0.002 A 
ATOM     89  C   UNL     1     -12.998   7.133  -3.033  1.00  0.00     0.091 A 
ATOM     90  F   UNL     1     -12.633   7.340  -0.682  1.00  0.00    -0.205 F 
ATOM     91  C   UNL     1     -12.486   7.204  -4.338  1.00  0.00     0.022 A 
BRANCH  89  92
ATOM     92  S   UNL     1     -14.712   6.624  -2.857  1.00  0.00     0.127 S 
ATOM     93  O   UNL     1     -15.422   7.767  -3.426  1.00  0.00    -0.237 OA
ATOM     94  O   UNL     1     -14.746   5.408  -3.671  1.00  0.00    -0.237 OA
ATOM     95  O   UNL     1     -14.915   6.403  -1.432  1.00  0.00    -0.744 OA
ENDBRANCH  89  92
ENDBRANCH  61  85
BRANCH  73  96
ATOM     96  C   UNL     1      -7.247  12.980   0.646  1.00  0.00     0.023 A 
ATOM     97  C   UNL     1      -8.260  13.810   1.163  1.00  0.00     0.012 A 
ATOM     98  C   UNL     1      -6.148  13.552  -0.021  1.00  0.00     0.148 A 
ATOM     99  C   UNL     1      -8.182  15.194   1.014  1.00  0.00     0.002 A 
ATOM    100  C   UNL     1      -6.061  14.934  -0.140  1.00  0.00     0.091 A 
ATOM    101  F   UNL     1      -5.204  12.735  -0.511  1.00  0.00    -0.205 F 
ATOM    102  C   UNL     1      -7.079  15.755   0.374  1.00  0.00     0.022 A 
BRANCH 100 103
ATOM    103  S   UNL     1      -4.647  15.755  -0.881  1.00  0.00     0.127 S 
ATOM    104  O   UNL     1      -5.231  16.311  -2.101  1.00  0.00    -0.237 OA
ATOM    105  O   UNL     1      -4.296  16.747   0.136  1.00  0.00    -0.237 OA
ATOM    106  O   UNL     1      -3.643  14.720  -1.091  1.00  0.00    -0.744 OA
ENDBRANCH 100 103
ENDBRANCH  73  96
ENDBRANCH  47  48
ENDBRANCH  39  42
ENDBRANCH  37  38
ENDBRANCH  36  37
ENDBRANCH  35  36
ENDBRANCH  34  35
ENDBRANCH   1  34
TORSDOF 21
