REMARK SMILES C[C@H]1[C@H](C(=O)NCCCCCCNC(=O)c2ccc(-c3c4nc(c(-c5cccc(S(=O)(=O)[O-])c5F)c5ccc([nH]5)c(-c5cccc(S(=O)(=O)[O-])c5F)c5nc(c(-c6cccc(S(=O)(=O)[O-])c6F)c6ccc3[nH]6)C=C5)C=C4)cc2)CCN1C(=O)NCc1cnn(C)c1
REMARK SMILES IDX 9 1 8 2 7 3 6 4 4 5 5 6 3 8 1 9 2 10 81 11 79 12 80 13 82 14
REMARK SMILES IDX 83 15 84 16 85 18 86 19 87 20 91 21 88 22 89 23 90 24 10 25
REMARK SMILES IDX 11 26 12 27 13 28 14 29 15 31 16 32 17 33 78 34 18 35 77 36
REMARK SMILES IDX 19 37 20 38 21 39 71 40 22 41 76 42 70 43 72 44 23 45 75 46
REMARK SMILES IDX 69 47 68 48 24 50 56 51 36 52 55 53 37 54 40 55 54 56 73 57
REMARK SMILES IDX 38 58 39 59 53 61 74 62 41 63 25 64 26 65 34 66 27 67 29 68
REMARK SMILES IDX 35 69 28 70 30 71 31 72 32 73 33 74 57 75 58 76 66 77 59 78
REMARK SMILES IDX 61 79 67 80 60 81 62 82 63 83 64 84 65 85 42 86 43 87 51 88
REMARK SMILES IDX 44 89 46 90 52 91 45 92 47 93 48 94 49 95 50 96
REMARK H PARENT 6 7 84 17 13 30 72 49 40 60
REMARK Flexibility Score: inf
ROOT
ATOM      1  C   UNL     1      -0.226   1.058   5.238  1.00  0.00     0.002 C 
ENDROOT
BRANCH   1   2
ATOM      2  C   UNL     1      -0.133   0.241   3.947  1.00  0.00     0.021 C 
BRANCH   2   3
ATOM      3  C   UNL     1      -1.095   0.682   2.851  1.00  0.00     0.116 C 
BRANCH   3   4
ATOM      4  N   UNL     1      -0.705   1.969   2.300  1.00  0.00    -0.356 N 
ATOM      5  C   UNL     1      -0.258   2.315   1.066  1.00  0.00     0.225 C 
ATOM      6  O   UNL     1       0.099   3.485   0.897  1.00  0.00    -0.275 OA
ATOM      7  H   UNL     1      -0.776   2.720   2.932  1.00  0.00     0.163 HD
BRANCH   5   8
ATOM      8  C   UNL     1      -0.169   1.326  -0.087  1.00  0.00     0.102 C 
ATOM      9  C   UNL     1       1.938   0.272  -0.961  1.00  0.00     0.032 C 
ATOM     10  C   UNL     1       0.882   0.228   0.150  1.00  0.00     0.096 C 
ATOM     11  N   UNL     1       0.147  -1.031   0.110  1.00  0.00    -0.321 N 
ATOM     12  C   UNL     1      -1.483   0.623  -0.420  1.00  0.00     0.037 C 
ATOM     13  C   UNL     1      -1.125  -0.846  -0.573  1.00  0.00     0.122 C 
BRANCH  11  14
ATOM     14  C   UNL     1       0.432  -2.258   0.622  1.00  0.00     0.317 C 
ATOM     15  O   UNL     1      -0.362  -3.196   0.498  1.00  0.00    -0.249 OA
ATOM     16  N   UNL     1       1.550  -2.547   1.300  1.00  0.00    -0.334 N 
ATOM     17  H   UNL     1       1.488  -3.433   1.724  1.00  0.00     0.165 HD
BRANCH  16  18
ATOM     18  C   UNL     1       2.822  -1.922   1.582  1.00  0.00     0.157 C 
BRANCH  18  19
ATOM     19  C   UNL     1       3.049  -1.878   3.049  1.00  0.00     0.009 A 
ATOM     20  C   UNL     1       3.355  -0.739   3.829  1.00  0.00     0.140 A 
ATOM     21  C   UNL     1       3.062  -2.913   3.965  1.00  0.00     0.113 A 
ATOM     22  N   UNL     1       3.516  -1.021   5.123  1.00  0.00    -0.181 NA
ATOM     23  N   UNL     1       3.339  -2.354   5.179  1.00  0.00    -0.275 N 
ATOM     24  C   UNL     1       3.467  -3.036   6.444  1.00  0.00     0.173 C 
ENDBRANCH  18  19
ENDBRANCH  16  18
ENDBRANCH  11  14
ENDBRANCH   5   8
ENDBRANCH   3   4
ENDBRANCH   2   3
ENDBRANCH   1   2
BRANCH   1  25
ATOM     25  C   UNL     1      -1.609   1.068   5.896  1.00  0.00     0.002 C 
BRANCH  25  26
ATOM     26  C   UNL     1      -2.197  -0.315   6.184  1.00  0.00     0.021 C 
BRANCH  26  27
ATOM     27  C   UNL     1      -1.337  -1.195   7.085  1.00  0.00     0.116 C 
BRANCH  27  28
ATOM     28  N   UNL     1      -1.161  -0.610   8.407  1.00  0.00    -0.352 N 
ATOM     29  C   UNL     1      -1.486  -1.126   9.634  1.00  0.00     0.251 C 
ATOM     30  H   UNL     1      -0.750   0.284   8.421  1.00  0.00     0.163 HD
ATOM     31  O   UNL     1      -1.471  -0.402  10.631  1.00  0.00    -0.269 OA
BRANCH  29  32
ATOM     32  C   UNL     1      -1.863  -2.549   9.761  1.00  0.00     0.039 A 
ATOM     33  C   UNL     1      -2.961  -2.895  10.552  1.00  0.00     0.014 A 
ATOM     34  C   UNL     1      -1.129  -3.541   9.104  1.00  0.00     0.014 A 
ATOM     35  C   UNL     1      -3.356  -4.231  10.639  1.00  0.00     0.010 A 
ATOM     36  C   UNL     1      -1.569  -4.861   9.131  1.00  0.00     0.010 A 
ATOM     37  C   UNL     1      -2.682  -5.222   9.905  1.00  0.00    -0.014 A 
BRANCH  37  38
ATOM     38  C   UNL     1      -3.136  -6.636   9.924  1.00  0.00     0.031 A 
ATOM     39  C   UNL     1      -2.237  -7.718  10.457  1.00  0.00     0.074 A 
ATOM     40  C   UNL     1      -4.329  -6.958   9.384  1.00  0.00     0.049 A 
ATOM     41  N   UNL     1      -2.441  -9.009  10.511  1.00  0.00    -0.248 NA
ATOM     42  C   UNL     1      -0.923  -7.299  10.976  1.00  0.00     0.031 C 
ATOM     43  C   UNL     1      -5.259  -6.011   8.765  1.00  0.00     0.029 A 
ATOM     44  N   UNL     1      -4.952  -8.173   9.246  1.00  0.00    -0.354 N 
ATOM     45  C   UNL     1      -1.277  -9.558  11.034  1.00  0.00     0.074 A 
ATOM     46  C   UNL     1      -0.355  -8.464  11.248  1.00  0.00     0.031 C 
ATOM     47  C   UNL     1      -6.336  -6.679   8.321  1.00  0.00     0.029 A 
ATOM     48  C   UNL     1      -6.160  -8.102   8.591  1.00  0.00     0.049 A 
ATOM     49  H   UNL     1      -4.571  -9.016   9.584  1.00  0.00     0.167 HD
ATOM     50  C   UNL     1      -1.009 -10.851  11.337  1.00  0.00     0.034 A 
ATOM     51  C   UNL     1      -7.024  -9.074   8.239  1.00  0.00     0.034 A 
ATOM     52  C   UNL     1      -1.942 -11.930  11.155  1.00  0.00     0.049 A 
ATOM     53  C   UNL     1      -6.712 -10.499   8.609  1.00  0.00     0.074 A 
ATOM     54  C   UNL     1      -1.798 -13.260  11.511  1.00  0.00     0.029 A 
ATOM     55  N   UNL     1      -3.186 -11.810  10.555  1.00  0.00    -0.354 N 
ATOM     56  N   UNL     1      -5.674 -10.977   9.249  1.00  0.00    -0.248 NA
ATOM     57  C   UNL     1      -7.709 -11.514   8.238  1.00  0.00     0.031 C 
ATOM     58  C   UNL     1      -2.942 -13.950  11.096  1.00  0.00     0.029 A 
ATOM     59  C   UNL     1      -3.814 -13.043  10.515  1.00  0.00     0.049 A 
ATOM     60  H   UNL     1      -3.566 -10.971  10.208  1.00  0.00     0.167 HD
ATOM     61  C   UNL     1      -5.907 -12.341   9.390  1.00  0.00     0.074 A 
ATOM     62  C   UNL     1      -7.197 -12.607   8.787  1.00  0.00     0.031 C 
ATOM     63  C   UNL     1      -5.118 -13.289   9.954  1.00  0.00     0.034 A 
BRANCH  50  64
ATOM     64  C   UNL     1       0.337 -11.164  11.939  1.00  0.00     0.023 A 
ATOM     65  C   UNL     1       0.629 -10.743  13.253  1.00  0.00     0.012 A 
ATOM     66  C   UNL     1       1.291 -11.919  11.229  1.00  0.00     0.148 A 
ATOM     67  C   UNL     1       1.862 -11.033  13.836  1.00  0.00     0.002 A 
ATOM     68  C   UNL     1       2.500 -12.245  11.835  1.00  0.00     0.091 A 
ATOM     69  F   UNL     1       1.006 -12.293   9.974  1.00  0.00    -0.205 F 
ATOM     70  C   UNL     1       2.792 -11.792  13.132  1.00  0.00     0.022 A 
BRANCH  68  71
ATOM     71  S   UNL     1       3.732 -13.283  11.042  1.00  0.00     0.127 S 
ATOM     72  O   UNL     1       4.796 -12.319  10.766  1.00  0.00    -0.237 OA
ATOM     73  O   UNL     1       4.044 -14.250  12.095  1.00  0.00    -0.237 OA
ATOM     74  O   UNL     1       3.085 -13.851   9.867  1.00  0.00    -0.744 OA
ENDBRANCH  68  71
ENDBRANCH  50  64
BRANCH  51  75
ATOM     75  C   UNL     1      -8.296  -8.725   7.544  1.00  0.00     0.023 A 
ATOM     76  C   UNL     1      -9.519  -8.868   8.227  1.00  0.00     0.012 A 
ATOM     77  C   UNL     1      -8.299  -8.231   6.226  1.00  0.00     0.148 A 
ATOM     78  C   UNL     1     -10.726  -8.560   7.598  1.00  0.00     0.002 A 
ATOM     79  C   UNL     1      -9.499  -7.871   5.625  1.00  0.00     0.091 A 
ATOM     80  F   UNL     1      -7.125  -8.110   5.590  1.00  0.00    -0.205 F 
ATOM     81  C   UNL     1     -10.715  -8.052   6.301  1.00  0.00     0.022 A 
BRANCH  79  82
ATOM     82  S   UNL     1      -9.574  -7.089   4.009  1.00  0.00     0.127 S 
ATOM     83  O   UNL     1     -10.198  -8.133   3.200  1.00  0.00    -0.237 OA
ATOM     84  O   UNL     1     -10.421  -5.927   4.278  1.00  0.00    -0.237 OA
ATOM     85  O   UNL     1      -8.197  -6.762   3.666  1.00  0.00    -0.744 OA
ENDBRANCH  79  82
ENDBRANCH  51  75
BRANCH  63  86
ATOM     86  C   UNL     1      -5.637 -14.703   9.984  1.00  0.00     0.023 A 
ATOM     87  C   UNL     1      -5.709 -15.452   8.793  1.00  0.00     0.012 A 
ATOM     88  C   UNL     1      -5.986 -15.313  11.206  1.00  0.00     0.148 A 
ATOM     89  C   UNL     1      -6.154 -16.774   8.812  1.00  0.00     0.002 A 
ATOM     90  C   UNL     1      -6.378 -16.646  11.224  1.00  0.00     0.091 A 
ATOM     91  F   UNL     1      -5.927 -14.579  12.326  1.00  0.00    -0.205 F 
ATOM     92  C   UNL     1      -6.476 -17.374  10.027  1.00  0.00     0.022 A 
BRANCH  90  93
ATOM     93  S   UNL     1      -6.717 -17.531  12.750  1.00  0.00     0.127 S 
ATOM     94  O   UNL     1      -8.166 -17.710  12.675  1.00  0.00    -0.237 OA
ATOM     95  O   UNL     1      -5.940 -18.759  12.573  1.00  0.00    -0.237 OA
ATOM     96  O   UNL     1      -6.250 -16.670  13.828  1.00  0.00    -0.744 OA
ENDBRANCH  90  93
ENDBRANCH  63  86
ENDBRANCH  37  38
ENDBRANCH  29  32
ENDBRANCH  27  28
ENDBRANCH  26  27
ENDBRANCH  25  26
ENDBRANCH   1  25
TORSDOF 19
