REMARK SMILES C[C@H]1CCCN(C(=O)NC[C@H]2CC[C@H](C(=O)NCCCCCCNC(=O)c3ccc(-c4c5nc(c(-c6cccc(S(=O)(=O)[O-])c6F)c6ccc([nH]6)c(-c6cccc(S(=O)(=O)[O-])c6F)c6nc(c(-c7cccc(S(=O)(=O)[O-])c7F)c7ccc4[nH]7)C=C6)C=C5)cc3)O2)CC1
REMARK SMILES IDX 19 1 18 2 17 3 15 4 16 5 14 7 11 8 12 9 90 10 13 11 10 12
REMARK SMILES IDX 9 13 7 14 8 15 6 17 91 18 92 19 2 20 1 21 5 23 4 24 3 25
REMARK SMILES IDX 20 27 21 28 22 29 23 30 24 31 25 32 26 34 27 35 28 36 89 37
REMARK SMILES IDX 29 38 88 39 30 40 31 41 32 42 82 43 33 44 87 45 81 46 83 47
REMARK SMILES IDX 34 48 86 49 80 50 79 51 35 53 67 54 47 55 66 56 48 57 51 58
REMARK SMILES IDX 65 59 84 60 49 61 50 62 64 64 85 65 52 66 36 67 37 68 45 69
REMARK SMILES IDX 38 70 40 71 46 72 39 73 41 74 42 75 43 76 44 77 68 78 69 79
REMARK SMILES IDX 77 80 70 81 72 82 78 83 71 84 73 85 74 86 75 87 76 88 53 89
REMARK SMILES IDX 54 90 62 91 55 92 57 93 63 94 56 95 58 96 59 97 60 98 61 99
REMARK H PARENT 17 6 9 16 24 33 83 52 51 63
REMARK Flexibility Score: 90.00
ROOT
ATOM      1  C   UNL     1       6.860  -1.064  -7.035  1.00  0.00     0.021 C 
ENDROOT
BRANCH   1   2
ATOM      2  C   UNL     1       6.052   0.226  -6.911  1.00  0.00     0.116 C 
BRANCH   2   3
ATOM      3  N   UNL     1       6.285   1.100  -8.040  1.00  0.00    -0.354 N 
ATOM      4  C   UNL     1       5.478   1.397  -9.096  1.00  0.00     0.249 C 
ATOM      5  O   UNL     1       5.925   2.162  -9.959  1.00  0.00    -0.272 OA
ATOM      6  H   UNL     1       7.161   1.550  -8.045  1.00  0.00     0.163 HD
BRANCH   4   7
ATOM      7  C   UNL     1       4.081   0.757  -9.265  1.00  0.00     0.207 C 
ATOM      8  C   UNL     1       2.788  -0.685  -7.939  1.00  0.00     0.138 C 
ATOM      9  C   UNL     1       3.652  -1.560  -8.832  1.00  0.00     0.037 C 
ATOM     10  O   UNL     1       3.279   0.663  -8.090  1.00  0.00    -0.363 OA
ATOM     11  C   UNL     1       4.145  -0.621  -9.904  1.00  0.00     0.045 C 
BRANCH   8  12
ATOM     12  C   UNL     1       1.298  -0.722  -8.309  1.00  0.00     0.149 C 
BRANCH  12  13
ATOM     13  N   UNL     1       0.486  -1.222  -7.204  1.00  0.00    -0.335 N 
ATOM     14  C   UNL     1      -0.408  -0.754  -6.318  1.00  0.00     0.317 C 
ATOM     15  O   UNL     1      -0.753  -1.576  -5.463  1.00  0.00    -0.249 OA
ATOM     16  H   UNL     1       0.638  -2.185  -7.069  1.00  0.00     0.165 HD
BRANCH  14  17
ATOM     17  N   UNL     1      -0.924   0.514  -6.352  1.00  0.00    -0.325 N 
BRANCH  17  18
ATOM     18  C   UNL     1      -1.845   0.879  -5.267  1.00  0.00     0.121 C 
BRANCH  18  19
ATOM     19  C   UNL     1      -3.308   0.625  -5.652  1.00  0.00     0.025 C 
BRANCH  19  20
ATOM     20  C   UNL     1      -3.952   1.662  -6.592  1.00  0.00    -0.012 CG0
ATOM     21  C   UNL     1      -4.335   2.942  -5.841  1.00  0.00     0.008 C 
ATOM     22  G   UNL     1      -3.131   1.977  -7.849  1.00  0.00     0.000 G0
ENDBRANCH  19  20
ENDBRANCH  18  19
ENDBRANCH  17  18
BRANCH  17  23
ATOM     23  C   UNL     1      -0.702   1.488  -7.406  1.00  0.00     0.121 C 
BRANCH  23  24
ATOM     24  C   UNL     1      -1.753   2.580  -7.575  1.00  0.00     0.022 C 
BRANCH  24  25
ATOM     25  C   UNL     1      -3.131   1.977  -7.849  1.00  0.00     0.005 CG0
ATOM     26  G   UNL     1      -3.952   1.662  -6.592  1.00  0.00     0.000 G0
ENDBRANCH  24  25
ENDBRANCH  23  24
ENDBRANCH  17  23
ENDBRANCH  14  17
ENDBRANCH  12  13
ENDBRANCH   8  12
ENDBRANCH   4   7
ENDBRANCH   2   3
ENDBRANCH   1   2
BRANCH   1  27
ATOM     27  C   UNL     1       8.259  -0.962  -6.424  1.00  0.00     0.002 C 
BRANCH  27  28
ATOM     28  C   UNL     1       8.277  -0.651  -4.922  1.00  0.00     0.002 C 
BRANCH  28  29
ATOM     29  C   UNL     1       7.440  -1.595  -4.051  1.00  0.00     0.021 C 
BRANCH  29  30
ATOM     30  C   UNL     1       7.847  -3.062  -4.141  1.00  0.00     0.116 C 
BRANCH  30  31
ATOM     31  N   UNL     1       9.229  -3.256  -3.732  1.00  0.00    -0.352 N 
ATOM     32  C   UNL     1       9.740  -4.075  -2.759  1.00  0.00     0.251 C 
ATOM     33  H   UNL     1       9.894  -2.723  -4.226  1.00  0.00     0.163 HD
ATOM     34  O   UNL     1      10.897  -3.925  -2.379  1.00  0.00    -0.269 OA
BRANCH  32  35
ATOM     35  C   UNL     1       8.897  -5.139  -2.175  1.00  0.00     0.039 A 
ATOM     36  C   UNL     1       8.949  -5.368  -0.798  1.00  0.00     0.014 A 
ATOM     37  C   UNL     1       8.093  -5.939  -2.993  1.00  0.00     0.014 A 
ATOM     38  C   UNL     1       8.174  -6.386  -0.237  1.00  0.00     0.010 A 
ATOM     39  C   UNL     1       7.269  -6.904  -2.424  1.00  0.00     0.010 A 
ATOM     40  C   UNL     1       7.320  -7.155  -1.045  1.00  0.00    -0.014 A 
BRANCH  40  41
ATOM     41  C   UNL     1       6.507  -8.259  -0.477  1.00  0.00     0.031 A 
ATOM     42  C   UNL     1       6.775  -9.678  -0.905  1.00  0.00     0.074 A 
ATOM     43  C   UNL     1       5.493  -7.981   0.365  1.00  0.00     0.049 A 
ATOM     44  N   UNL     1       6.135 -10.772  -0.584  1.00  0.00    -0.248 NA
ATOM     45  C   UNL     1       7.894  -9.894  -1.840  1.00  0.00     0.031 C 
ATOM     46  C   UNL     1       5.099  -6.640   0.804  1.00  0.00     0.029 A 
ATOM     47  N   UNL     1       4.594  -8.810   0.985  1.00  0.00    -0.354 N 
ATOM     48  C   UNL     1       6.750 -11.796  -1.296  1.00  0.00     0.074 A 
ATOM     49  C   UNL     1       7.787 -11.188  -2.100  1.00  0.00     0.031 C 
ATOM     50  C   UNL     1       4.041  -6.740   1.627  1.00  0.00     0.029 A 
ATOM     51  C   UNL     1       3.667  -8.145   1.754  1.00  0.00     0.049 A 
ATOM     52  H   UNL     1       4.610  -9.790   0.889  1.00  0.00     0.167 HD
ATOM     53  C   UNL     1       6.502 -13.126  -1.256  1.00  0.00     0.034 A 
ATOM     54  C   UNL     1       2.634  -8.618   2.478  1.00  0.00     0.034 A 
ATOM     55  C   UNL     1       5.503 -13.730  -0.417  1.00  0.00     0.049 A 
ATOM     56  C   UNL     1       2.406 -10.106   2.531  1.00  0.00     0.074 A 
ATOM     57  C   UNL     1       5.201 -15.072  -0.265  1.00  0.00     0.029 A 
ATOM     58  N   UNL     1       4.651 -13.030   0.423  1.00  0.00    -0.354 N 
ATOM     59  N   UNL     1       3.080 -11.068   1.948  1.00  0.00    -0.248 NA
ATOM     60  C   UNL     1       1.301 -10.577   3.379  1.00  0.00     0.031 C 
ATOM     61  C   UNL     1       4.163 -15.183   0.665  1.00  0.00     0.029 A 
ATOM     62  C   UNL     1       3.832 -13.911   1.107  1.00  0.00     0.049 A 
ATOM     63  H   UNL     1       4.631 -12.051   0.518  1.00  0.00     0.167 HD
ATOM     64  C   UNL     1       2.517 -12.256   2.400  1.00  0.00     0.074 A 
ATOM     65  C   UNL     1       1.456 -11.893   3.316  1.00  0.00     0.031 C 
ATOM     66  C   UNL     1       2.838 -13.532   2.076  1.00  0.00     0.034 A 
BRANCH  53  67
ATOM     67  C   UNL     1       7.375 -14.027  -2.090  1.00  0.00     0.023 A 
ATOM     68  C   UNL     1       8.718 -14.231  -1.708  1.00  0.00     0.012 A 
ATOM     69  C   UNL     1       6.864 -14.716  -3.207  1.00  0.00     0.148 A 
ATOM     70  C   UNL     1       9.546 -15.079  -2.441  1.00  0.00     0.002 A 
ATOM     71  C   UNL     1       7.684 -15.595  -3.907  1.00  0.00     0.091 A 
ATOM     72  F   UNL     1       5.591 -14.496  -3.567  1.00  0.00    -0.205 F 
ATOM     73  C   UNL     1       9.027 -15.768  -3.533  1.00  0.00     0.022 A 
BRANCH  71  74
ATOM     74  S   UNL     1       7.095 -16.590  -5.282  1.00  0.00     0.127 S 
ATOM     75  O   UNL     1       7.803 -15.984  -6.409  1.00  0.00    -0.237 OA
ATOM     76  O   UNL     1       7.561 -17.927  -4.916  1.00  0.00    -0.237 OA
ATOM     77  O   UNL     1       5.647 -16.434  -5.301  1.00  0.00    -0.744 OA
ENDBRANCH  71  74
ENDBRANCH  53  67
BRANCH  54  78
ATOM     78  C   UNL     1       1.787  -7.691   3.282  1.00  0.00     0.023 A 
ATOM     79  C   UNL     1       1.862  -7.737   4.688  1.00  0.00     0.012 A 
ATOM     80  C   UNL     1       0.910  -6.774   2.673  1.00  0.00     0.148 A 
ATOM     81  C   UNL     1       1.047  -6.922   5.474  1.00  0.00     0.002 A 
ATOM     82  C   UNL     1       0.139  -5.926   3.462  1.00  0.00     0.091 A 
ATOM     83  F   UNL     1       0.840  -6.751   1.335  1.00  0.00    -0.205 F 
ATOM     84  C   UNL     1       0.192  -6.012   4.861  1.00  0.00     0.022 A 
BRANCH  82  85
ATOM     85  S   UNL     1      -0.894  -4.638   2.754  1.00  0.00     0.127 S 
ATOM     86  O   UNL     1      -2.227  -5.219   2.885  1.00  0.00    -0.237 OA
ATOM     87  O   UNL     1      -0.625  -3.506   3.642  1.00  0.00    -0.237 OA
ATOM     88  O   UNL     1      -0.405  -4.458   1.394  1.00  0.00    -0.744 OA
ENDBRANCH  82  85
ENDBRANCH  54  78
BRANCH  66  89
ATOM     89  C   UNL     1       2.085 -14.638   2.766  1.00  0.00     0.023 A 
ATOM     90  C   UNL     1       0.745 -14.901   2.422  1.00  0.00     0.012 A 
ATOM     91  C   UNL     1       2.734 -15.463   3.707  1.00  0.00     0.148 A 
ATOM     92  C   UNL     1       0.050 -15.945   3.031  1.00  0.00     0.002 A 
ATOM     93  C   UNL     1       2.051 -16.532   4.272  1.00  0.00     0.091 A 
ATOM     94  F   UNL     1       4.004 -15.184   4.035  1.00  0.00    -0.205 F 
ATOM     95  C   UNL     1       0.706 -16.767   3.945  1.00  0.00     0.022 A 
BRANCH  93  96
ATOM     96  S   UNL     1       2.848 -17.699   5.381  1.00  0.00     0.127 S 
ATOM     97  O   UNL     1       2.309 -17.294   6.678  1.00  0.00    -0.237 OA
ATOM     98  O   UNL     1       2.351 -18.985   4.890  1.00  0.00    -0.237 OA
ATOM     99  O   UNL     1       4.280 -17.501   5.206  1.00  0.00    -0.744 OA
ENDBRANCH  93  96
ENDBRANCH  66  89
ENDBRANCH  40  41
ENDBRANCH  32  35
ENDBRANCH  30  31
ENDBRANCH  29  30
ENDBRANCH  28  29
ENDBRANCH  27  28
ENDBRANCH   1  27
TORSDOF 19
