REMARK SMILES C[C@@H]1CCc2nc(NC(=O)[C@H]3CC=CC[C@@H]3C(=O)NCCCCCCNC(=O)c3ccc(-c4c5nc(c(-c6cccc(S(=O)(=O)[O-])c6F)c6ccc([nH]6)c(-c6cccc(S(=O)(=O)[O-])c6F)c6nc(c(-c7cccc(S(=O)(=O)[O-])c7F)c7ccc4[nH]7)C=C6)C=C5)cc3)sc2C1
REMARK SMILES IDX 23 1 22 2 21 3 20 4 19 5 17 6 18 7 16 9 11 10 12 11 13 12
REMARK SMILES IDX 15 13 14 14 9 15 8 16 10 18 7 19 1 20 2 21 3 22 94 23 4 24
REMARK SMILES IDX 93 25 5 26 92 27 6 28 24 29 25 30 26 31 27 32 28 34 29 35
REMARK SMILES IDX 30 36 91 37 31 38 90 39 32 40 33 41 34 42 84 43 35 44 89 45
REMARK SMILES IDX 83 46 85 47 36 48 88 49 82 50 81 51 37 53 69 54 49 55 68 56
REMARK SMILES IDX 50 57 53 58 67 59 86 60 51 61 52 62 66 64 87 65 54 66 38 67
REMARK SMILES IDX 39 68 47 69 40 70 42 71 48 72 41 73 43 74 44 75 45 76 46 77
REMARK SMILES IDX 70 78 71 79 79 80 72 81 74 82 80 83 73 84 75 85 76 86 77 87
REMARK SMILES IDX 78 88 55 89 56 90 64 91 57 92 59 93 65 94 58 95 60 96 61 97
REMARK SMILES IDX 62 98 63 99
REMARK H PARENT 19 8 8 17 26 33 85 52 53 63
REMARK Flexibility Score: inf
ROOT
ATOM      1  C   UNL     1      -9.143   3.618   5.013  1.00  0.00     0.002 C 
ENDROOT
BRANCH   1   2
ATOM      2  C   UNL     1     -10.096   3.516   3.814  1.00  0.00     0.002 C 
BRANCH   2   3
ATOM      3  C   UNL     1      -9.775   4.370   2.584  1.00  0.00     0.021 C 
BRANCH   3   4
ATOM      4  C   UNL     1      -8.357   4.256   2.039  1.00  0.00     0.116 C 
BRANCH   4   5
ATOM      5  N   UNL     1      -7.978   2.903   1.697  1.00  0.00    -0.356 N 
ATOM      6  C   UNL     1      -7.050   2.449   0.816  1.00  0.00     0.224 C 
ATOM      7  O   UNL     1      -6.941   1.220   0.731  1.00  0.00    -0.275 OA
ATOM      8  H   UNL     1      -8.470   2.200   2.180  1.00  0.00     0.163 HD
BRANCH   6   9
ATOM      9  C   UNL     1      -6.242   3.398  -0.086  1.00  0.00     0.095 C 
ATOM     10  C   UNL     1      -5.168   2.564  -0.871  1.00  0.00     0.095 C 
ATOM     11  C   UNL     1      -4.085   2.081   0.132  1.00  0.00     0.041 C 
ATOM     12  C   UNL     1      -3.737   2.998   1.259  1.00  0.00    -0.030 C 
ATOM     13  C   UNL     1      -5.536   4.573   0.630  1.00  0.00     0.041 C 
ATOM     14  C   UNL     1      -4.368   4.156   1.464  1.00  0.00    -0.030 C 
BRANCH  10  15
ATOM     15  C   UNL     1      -4.678   3.361  -2.096  1.00  0.00     0.230 C 
ATOM     16  N   UNL     1      -3.625   3.031  -2.885  1.00  0.00    -0.302 N 
ATOM     17  H   UNL     1      -3.439   3.693  -3.591  1.00  0.00     0.172 HD
ATOM     18  O   UNL     1      -5.267   4.398  -2.435  1.00  0.00    -0.274 OA
BRANCH  16  19
ATOM     19  C   UNL     1      -2.774   1.970  -2.897  1.00  0.00     0.189 A 
ATOM     20  C   UNL     1       0.941  -0.098  -0.040  1.00  0.00     0.008 C 
ATOM     21  C   UNL     1       0.486  -0.981  -1.212  1.00  0.00    -0.009 C 
ATOM     22  C   UNL     1       1.127  -0.507  -2.541  1.00  0.00     0.010 C 
ATOM     23  C   UNL     1      -1.062  -1.052  -1.324  1.00  0.00     0.052 C 
ATOM     24  C   UNL     1       0.652   0.895  -2.970  1.00  0.00     0.058 C 
ATOM     25  C   UNL     1      -1.584   0.071  -2.151  1.00  0.00     0.030 A 
ATOM     26  C   UNL     1      -0.828   0.991  -2.848  1.00  0.00     0.057 A 
ATOM     27  S   UNL     1      -3.236   0.394  -2.418  1.00  0.00    -0.101 S 
ATOM     28  N   UNL     1      -1.532   2.078  -3.317  1.00  0.00    -0.225 NA
ENDBRANCH  16  19
ENDBRANCH  10  15
ENDBRANCH   6   9
ENDBRANCH   4   5
ENDBRANCH   3   4
ENDBRANCH   2   3
ENDBRANCH   1   2
BRANCH   1  29
ATOM     29  C   UNL     1      -8.851   5.016   5.571  1.00  0.00     0.021 C 
BRANCH  29  30
ATOM     30  C   UNL     1     -10.079   5.818   5.976  1.00  0.00     0.116 C 
BRANCH  30  31
ATOM     31  N   UNL     1     -10.829   5.214   7.078  1.00  0.00    -0.352 N 
ATOM     32  C   UNL     1     -12.026   5.646   7.630  1.00  0.00     0.251 C 
ATOM     33  H   UNL     1     -10.437   4.403   7.475  1.00  0.00     0.163 HD
ATOM     34  O   UNL     1     -12.364   5.306   8.749  1.00  0.00    -0.269 OA
BRANCH  32  35
ATOM     35  C   UNL     1     -12.891   6.523   6.815  1.00  0.00     0.039 A 
ATOM     36  C   UNL     1     -13.559   7.623   7.361  1.00  0.00     0.014 A 
ATOM     37  C   UNL     1     -12.988   6.233   5.459  1.00  0.00     0.014 A 
ATOM     38  C   UNL     1     -14.256   8.477   6.505  1.00  0.00     0.010 A 
ATOM     39  C   UNL     1     -13.509   7.165   4.604  1.00  0.00     0.010 A 
ATOM     40  C   UNL     1     -14.208   8.248   5.121  1.00  0.00    -0.014 A 
BRANCH  40  41
ATOM     41  C   UNL     1     -14.783   9.184   4.161  1.00  0.00     0.031 A 
ATOM     42  C   UNL     1     -14.231  10.561   4.251  1.00  0.00     0.074 A 
ATOM     43  C   UNL     1     -15.546   8.764   3.126  1.00  0.00     0.049 A 
ATOM     44  N   UNL     1     -14.827  11.620   4.688  1.00  0.00    -0.248 NA
ATOM     45  C   UNL     1     -12.796  10.757   3.990  1.00  0.00     0.031 C 
ATOM     46  C   UNL     1     -15.881   7.374   2.767  1.00  0.00     0.029 A 
ATOM     47  N   UNL     1     -16.066   9.468   2.083  1.00  0.00    -0.354 N 
ATOM     48  C   UNL     1     -13.924  12.665   4.487  1.00  0.00     0.074 A 
ATOM     49  C   UNL     1     -12.640  12.046   4.304  1.00  0.00     0.031 C 
ATOM     50  C   UNL     1     -16.308   7.323   1.487  1.00  0.00     0.029 A 
ATOM     51  C   UNL     1     -16.466   8.680   1.005  1.00  0.00     0.049 A 
ATOM     52  H   UNL     1     -16.151  10.449   2.090  1.00  0.00     0.167 HD
ATOM     53  C   UNL     1     -14.367  13.915   4.170  1.00  0.00     0.034 A 
ATOM     54  C   UNL     1     -16.897   9.113  -0.203  1.00  0.00     0.034 A 
ATOM     55  C   UNL     1     -15.799  13.990   4.328  1.00  0.00     0.049 A 
ATOM     56  C   UNL     1     -17.358  10.502  -0.017  1.00  0.00     0.074 A 
ATOM     57  C   UNL     1     -16.700  14.006   5.368  1.00  0.00     0.029 A 
ATOM     58  N   UNL     1     -16.487  13.661   3.188  1.00  0.00    -0.354 N 
ATOM     59  N   UNL     1     -18.399  10.812   0.703  1.00  0.00    -0.248 NA
ATOM     60  C   UNL     1     -16.466  11.605  -0.343  1.00  0.00     0.031 C 
ATOM     61  C   UNL     1     -17.900  13.437   4.847  1.00  0.00     0.029 A 
ATOM     62  C   UNL     1     -17.709  13.137   3.498  1.00  0.00     0.049 A 
ATOM     63  H   UNL     1     -16.146  13.785   2.272  1.00  0.00     0.167 HD
ATOM     64  C   UNL     1     -18.041  12.006   1.301  1.00  0.00     0.074 A 
ATOM     65  C   UNL     1     -16.959  12.536   0.479  1.00  0.00     0.031 C 
ATOM     66  C   UNL     1     -18.427  12.281   2.579  1.00  0.00     0.034 A 
BRANCH  53  67
ATOM     67  C   UNL     1     -13.670  14.928   3.272  1.00  0.00     0.023 A 
ATOM     68  C   UNL     1     -14.319  16.177   3.107  1.00  0.00     0.012 A 
ATOM     69  C   UNL     1     -12.624  14.639   2.367  1.00  0.00     0.148 A 
ATOM     70  C   UNL     1     -14.000  17.050   2.061  1.00  0.00     0.002 A 
ATOM     71  C   UNL     1     -12.266  15.539   1.365  1.00  0.00     0.091 A 
ATOM     72  F   UNL     1     -12.039  13.442   2.375  1.00  0.00    -0.205 F 
ATOM     73  C   UNL     1     -12.972  16.730   1.187  1.00  0.00     0.022 A 
BRANCH  71  74
ATOM     74  S   UNL     1     -10.924  15.191   0.218  1.00  0.00     0.127 S 
ATOM     75  O   UNL     1     -11.656  14.944  -1.020  1.00  0.00    -0.237 OA
ATOM     76  O   UNL     1     -10.170  16.444   0.255  1.00  0.00    -0.237 OA
ATOM     77  O   UNL     1     -10.213  14.049   0.779  1.00  0.00    -0.744 OA
ENDBRANCH  71  74
ENDBRANCH  53  67
BRANCH  54  78
ATOM     78  C   UNL     1     -16.858   8.502  -1.547  1.00  0.00     0.023 A 
ATOM     79  C   UNL     1     -17.819   8.874  -2.509  1.00  0.00     0.012 A 
ATOM     80  C   UNL     1     -15.702   7.819  -1.979  1.00  0.00     0.148 A 
ATOM     81  C   UNL     1     -17.608   8.629  -3.869  1.00  0.00     0.002 A 
ATOM     82  C   UNL     1     -15.492   7.588  -3.336  1.00  0.00     0.091 A 
ATOM     83  F   UNL     1     -14.777   7.488  -1.068  1.00  0.00    -0.205 F 
ATOM     84  C   UNL     1     -16.436   8.005  -4.285  1.00  0.00     0.022 A 
BRANCH  82  85
ATOM     85  S   UNL     1     -13.979   6.848  -3.967  1.00  0.00     0.127 S 
ATOM     86  O   UNL     1     -14.499   5.771  -4.809  1.00  0.00    -0.237 OA
ATOM     87  O   UNL     1     -13.383   7.964  -4.698  1.00  0.00    -0.237 OA
ATOM     88  O   UNL     1     -13.239   6.397  -2.796  1.00  0.00    -0.744 OA
ENDBRANCH  82  85
ENDBRANCH  54  78
BRANCH  66  89
ATOM     89  C   UNL     1     -19.580  11.493   3.132  1.00  0.00     0.023 A 
ATOM     90  C   UNL     1     -19.503  10.117   3.426  1.00  0.00     0.012 A 
ATOM     91  C   UNL     1     -20.743  12.201   3.469  1.00  0.00     0.148 A 
ATOM     92  C   UNL     1     -20.578   9.457   4.029  1.00  0.00     0.002 A 
ATOM     93  C   UNL     1     -21.789  11.554   4.111  1.00  0.00     0.091 A 
ATOM     94  F   UNL     1     -20.796  13.508   3.173  1.00  0.00    -0.205 F 
ATOM     95  C   UNL     1     -21.716  10.179   4.384  1.00  0.00     0.022 A 
BRANCH  93  96
ATOM     96  S   UNL     1     -23.220  12.459   4.699  1.00  0.00     0.127 S 
ATOM     97  O   UNL     1     -24.243  12.075   3.730  1.00  0.00    -0.237 OA
ATOM     98  O   UNL     1     -23.408  11.908   6.042  1.00  0.00    -0.237 OA
ATOM     99  O   UNL     1     -22.837  13.866   4.684  1.00  0.00    -0.744 OA
ENDBRANCH  93  96
ENDBRANCH  66  89
ENDBRANCH  40  41
ENDBRANCH  32  35
ENDBRANCH  30  31
ENDBRANCH  29  30
ENDBRANCH   1  29
TORSDOF 18
