REMARK SMILES CC1(C)O[C@](C)(C(C)(C)O)CC[C@H]1C(=O)NCCCCCCNC(=O)c1ccc(-c2c3nc(c(-c4cccc(S(=O)(=O)[O-])c4F)c4ccc([nH]4)c(-c4cccc(S(=O)(=O)[O-])c4F)c4nc(c(-c5cccc(S(=O)(=O)[O-])c5F)c5ccc2[nH]5)C=C4)C=C3)cc1
REMARK SMILES IDX 20 1 19 2 18 3 17 4 16 5 14 6 15 7 13 9 1 10 2 11 3 12 4 13
REMARK SMILES IDX 5 14 12 15 6 16 11 17 7 18 8 19 9 20 10 21 21 23 22 24 23 25
REMARK SMILES IDX 24 26 25 28 26 29 27 30 88 31 28 32 87 33 29 34 30 35 31 36
REMARK SMILES IDX 81 37 32 38 86 39 80 40 82 41 33 42 85 43 79 44 78 45 34 47
REMARK SMILES IDX 66 48 46 49 65 50 47 51 50 52 64 53 83 54 48 55 49 56 63 58
REMARK SMILES IDX 84 59 51 60 35 61 36 62 44 63 37 64 39 65 45 66 38 67 40 68
REMARK SMILES IDX 41 69 42 70 43 71 67 72 68 73 76 74 69 75 71 76 77 77 70 78
REMARK SMILES IDX 72 79 73 80 74 81 75 82 52 83 53 84 61 85 54 86 56 87 62 88
REMARK SMILES IDX 55 89 57 90 58 91 59 92 60 93
REMARK H PARENT 16 8 10 22 23 27 82 46 50 57
REMARK Flexibility Score: inf
ROOT
ATOM      1  C   UNL     1       0.262   0.509   5.060  1.00  0.00     0.002 C 
ENDROOT
BRANCH   1   2
ATOM      2  C   UNL     1      -0.482   1.004   3.817  1.00  0.00     0.002 C 
BRANCH   2   3
ATOM      3  C   UNL     1       0.212   0.696   2.492  1.00  0.00     0.021 C 
BRANCH   3   4
ATOM      4  C   UNL     1       0.341  -0.795   2.187  1.00  0.00     0.116 C 
BRANCH   4   5
ATOM      5  N   UNL     1      -0.874  -1.310   1.591  1.00  0.00    -0.356 N 
ATOM      6  C   UNL     1      -1.125  -1.835   0.365  1.00  0.00     0.226 C 
ATOM      7  O   UNL     1      -2.307  -2.086   0.105  1.00  0.00    -0.275 OA
ATOM      8  H   UNL     1      -1.660  -1.272   2.183  1.00  0.00     0.163 HD
BRANCH   6   9
ATOM      9  C   UNL     1      -0.038  -2.137  -0.669  1.00  0.00     0.110 C 
ATOM     10  C   UNL     1       0.716   0.404  -0.836  1.00  0.00     0.043 C 
ATOM     11  C   UNL     1       0.450  -0.935  -1.529  1.00  0.00     0.075 C 
ATOM     12  C   UNL     1      -0.656  -0.619  -2.569  1.00  0.00     0.043 C 
ATOM     13  O   UNL     1       1.604  -1.251  -2.328  1.00  0.00    -0.366 OA
ATOM     14  C   UNL     1       2.680  -2.034  -1.777  1.00  0.00     0.094 C 
ATOM     15  C   UNL     1       1.034  -3.103  -0.157  1.00  0.00     0.019 C 
ATOM     16  C   UNL     1       3.444  -1.286  -0.660  1.00  0.00     0.045 C 
ATOM     17  C   UNL     1       2.100  -3.349  -1.220  1.00  0.00     0.039 C 
BRANCH  14  18
ATOM     18  C   UNL     1       3.689  -2.305  -2.970  1.00  0.00     0.088 C 
ATOM     19  C   UNL     1       3.027  -3.014  -4.162  1.00  0.00     0.045 C 
ATOM     20  C   UNL     1       4.318  -0.995  -3.488  1.00  0.00     0.045 C 
BRANCH  18  21
ATOM     21  O   UNL     1       4.749  -3.160  -2.514  1.00  0.00    -0.387 OA
ATOM     22  H   UNL     1       4.374  -3.991  -2.183  1.00  0.00     0.211 HD
ENDBRANCH  18  21
ENDBRANCH  14  18
ENDBRANCH   6   9
ENDBRANCH   4   5
ENDBRANCH   3   4
ENDBRANCH   2   3
ENDBRANCH   1   2
BRANCH   1  23
ATOM     23  C   UNL     1       1.733   0.925   5.146  1.00  0.00     0.021 C 
BRANCH  23  24
ATOM     24  C   UNL     1       1.986   2.422   4.996  1.00  0.00     0.116 C 
BRANCH  24  25
ATOM     25  N   UNL     1       1.272   3.196   5.999  1.00  0.00    -0.352 N 
ATOM     26  C   UNL     1       1.771   4.041   6.957  1.00  0.00     0.251 C 
ATOM     27  H   UNL     1       0.292   3.099   5.989  1.00  0.00     0.163 HD
ATOM     28  O   UNL     1       1.049   4.439   7.865  1.00  0.00    -0.269 OA
BRANCH  26  29
ATOM     29  C   UNL     1       3.186   4.458   6.891  1.00  0.00     0.039 A 
ATOM     30  C   UNL     1       3.961   4.411   8.051  1.00  0.00     0.014 A 
ATOM     31  C   UNL     1       3.742   4.894   5.685  1.00  0.00     0.014 A 
ATOM     32  C   UNL     1       5.312   4.759   7.991  1.00  0.00     0.010 A 
ATOM     33  C   UNL     1       5.104   5.169   5.612  1.00  0.00     0.010 A 
ATOM     34  C   UNL     1       5.900   5.116   6.765  1.00  0.00    -0.014 A 
BRANCH  34  35
ATOM     35  C   UNL     1       7.346   5.439   6.673  1.00  0.00     0.031 A 
ATOM     36  C   UNL     1       7.787   6.818   6.258  1.00  0.00     0.074 A 
ATOM     37  C   UNL     1       8.260   4.473   6.889  1.00  0.00     0.049 A 
ATOM     38  N   UNL     1       8.998   7.274   6.070  1.00  0.00    -0.248 NA
ATOM     39  C   UNL     1       6.727   7.807   5.996  1.00  0.00     0.031 C 
ATOM     40  C   UNL     1       7.955   3.080   7.225  1.00  0.00     0.029 A 
ATOM     41  N   UNL     1       9.630   4.507   6.835  1.00  0.00    -0.354 N 
ATOM     42  C   UNL     1       8.847   8.588   5.644  1.00  0.00     0.074 A 
ATOM     43  C   UNL     1       7.426   8.844   5.559  1.00  0.00     0.031 C 
ATOM     44  C   UNL     1       9.103   2.395   7.351  1.00  0.00     0.029 A 
ATOM     45  C   UNL     1      10.223   3.289   7.075  1.00  0.00     0.049 A 
ATOM     46  H   UNL     1      10.141   5.326   6.643  1.00  0.00     0.167 HD
ATOM     47  C   UNL     1       9.803   9.511   5.381  1.00  0.00     0.034 A 
ATOM     48  C   UNL     1      11.522   2.932   7.065  1.00  0.00     0.034 A 
ATOM     49  C   UNL     1      11.214   9.262   5.500  1.00  0.00     0.049 A 
ATOM     50  C   UNL     1      12.564   3.982   6.788  1.00  0.00     0.074 A 
ATOM     51  C   UNL     1      12.262  10.148   5.321  1.00  0.00     0.029 A 
ATOM     52  N   UNL     1      11.776   8.037   5.824  1.00  0.00    -0.354 N 
ATOM     53  N   UNL     1      12.404   5.258   6.533  1.00  0.00    -0.248 NA
ATOM     54  C   UNL     1      13.969   3.553   6.835  1.00  0.00     0.031 C 
ATOM     55  C   UNL     1      13.459   9.452   5.516  1.00  0.00     0.029 A 
ATOM     56  C   UNL     1      13.156   8.141   5.846  1.00  0.00     0.049 A 
ATOM     57  H   UNL     1      11.268   7.215   6.011  1.00  0.00     0.167 HD
ATOM     58  C   UNL     1      13.684   5.791   6.430  1.00  0.00     0.074 A 
ATOM     59  C   UNL     1      14.608   4.703   6.672  1.00  0.00     0.031 C 
ATOM     60  C   UNL     1      14.061   7.062   6.146  1.00  0.00     0.034 A 
BRANCH  47  61
ATOM     61  C   UNL     1       9.350  10.896   4.995  1.00  0.00     0.023 A 
ATOM     62  C   UNL     1       8.749  11.725   5.965  1.00  0.00     0.012 A 
ATOM     63  C   UNL     1       9.569  11.401   3.698  1.00  0.00     0.148 A 
ATOM     64  C   UNL     1       8.339  13.017   5.644  1.00  0.00     0.002 A 
ATOM     65  C   UNL     1       9.200  12.707   3.397  1.00  0.00     0.091 A 
ATOM     66  F   UNL     1      10.124  10.594   2.783  1.00  0.00    -0.205 F 
ATOM     67  C   UNL     1       8.574  13.512   4.364  1.00  0.00     0.022 A 
BRANCH  65  68
ATOM     68  S   UNL     1       9.529  13.467   1.803  1.00  0.00     0.127 S 
ATOM     69  O   UNL     1       8.180  13.592   1.252  1.00  0.00    -0.237 OA
ATOM     70  O   UNL     1      10.149  14.735   2.189  1.00  0.00    -0.237 OA
ATOM     71  O   UNL     1      10.409  12.550   1.094  1.00  0.00    -0.744 OA
ENDBRANCH  65  68
ENDBRANCH  47  61
BRANCH  48  72
ATOM     72  C   UNL     1      11.918   1.530   7.382  1.00  0.00     0.023 A 
ATOM     73  C   UNL     1      12.608   1.259   8.581  1.00  0.00     0.012 A 
ATOM     74  C   UNL     1      11.613   0.466   6.512  1.00  0.00     0.148 A 
ATOM     75  C   UNL     1      13.022  -0.038   8.886  1.00  0.00     0.002 A 
ATOM     76  C   UNL     1      11.978  -0.832   6.849  1.00  0.00     0.091 A 
ATOM     77  F   UNL     1      10.967   0.744   5.370  1.00  0.00    -0.205 F 
ATOM     78  C   UNL     1      12.700  -1.084   8.026  1.00  0.00     0.022 A 
BRANCH  76  79
ATOM     79  S   UNL     1      11.490  -2.253   5.865  1.00  0.00     0.127 S 
ATOM     80  O   UNL     1      12.754  -2.635   5.243  1.00  0.00    -0.237 OA
ATOM     81  O   UNL     1      11.002  -3.178   6.889  1.00  0.00    -0.237 OA
ATOM     82  O   UNL     1      10.457  -1.765   4.960  1.00  0.00    -0.744 OA
ENDBRANCH  76  79
ENDBRANCH  48  72
BRANCH  60  83
ATOM     83  C   UNL     1      15.537   7.363   6.126  1.00  0.00     0.023 A 
ATOM     84  C   UNL     1      16.339   6.884   5.072  1.00  0.00     0.012 A 
ATOM     85  C   UNL     1      16.113   8.183   7.117  1.00  0.00     0.148 A 
ATOM     86  C   UNL     1      17.700   7.185   5.024  1.00  0.00     0.002 A 
ATOM     87  C   UNL     1      17.458   8.522   7.034  1.00  0.00     0.091 A 
ATOM     88  F   UNL     1      15.336   8.615   8.121  1.00  0.00    -0.205 F 
ATOM     89  C   UNL     1      18.256   8.013   5.996  1.00  0.00     0.022 A 
BRANCH  87  90
ATOM     90  S   UNL     1      18.238   9.661   8.184  1.00  0.00     0.127 S 
ATOM     91  O   UNL     1      19.091   8.762   8.960  1.00  0.00    -0.237 OA
ATOM     92  O   UNL     1      18.958  10.563   7.285  1.00  0.00    -0.237 OA
ATOM     93  O   UNL     1      17.153  10.287   8.927  1.00  0.00    -0.744 OA
ENDBRANCH  87  90
ENDBRANCH  60  83
ENDBRANCH  34  35
ENDBRANCH  26  29
ENDBRANCH  24  25
ENDBRANCH  23  24
ENDBRANCH   1  23
TORSDOF 18
