REMARK SMILES CC[C@H](C)[C@H](C(=O)NCCCCCCNC(=O)c1ccc(-c2c3nc(c(-c4cccc(S(=O)(=O)[O-])c4F)c4ccc([nH]4)c(-c4cccc(S(=O)(=O)[O-])c4F)c4nc(c(-c5cccc(S(=O)(=O)[O-])c5F)c5ccc2[nH]5)C=C4)C=C3)cc1)N1C(=O)/C(=C/c2ccc(C)o2)SC1=S
REMARK SMILES IDX 12 1 11 2 10 3 9 4 8 5 6 6 7 7 5 9 3 10 4 11 2 12 1 13 81 14
REMARK SMILES IDX 82 15 93 16 83 17 84 18 92 19 94 20 85 21 86 22 87 23 91 24
REMARK SMILES IDX 88 25 89 26 90 27 13 28 14 29 15 30 16 31 17 33 18 34 19 35
REMARK SMILES IDX 80 36 20 37 79 38 21 39 22 40 23 41 73 42 24 43 78 44 72 45
REMARK SMILES IDX 74 46 25 47 77 48 71 49 70 50 26 52 58 53 38 54 57 55 39 56
REMARK SMILES IDX 42 57 56 58 75 59 40 60 41 61 55 63 76 64 43 65 27 66 28 67
REMARK SMILES IDX 36 68 29 69 31 70 37 71 30 72 32 73 33 74 34 75 35 76 59 77
REMARK SMILES IDX 60 78 68 79 61 80 63 81 69 82 62 83 64 84 65 85 66 86 67 87
REMARK SMILES IDX 44 88 45 89 53 90 46 91 48 92 54 93 47 94 49 95 50 96 51 97
REMARK SMILES IDX 52 98
REMARK H PARENT 8 8 15 32 74 51 42 62
REMARK Flexibility Score: inf
ROOT
ATOM      1  C   UNL     1       6.491   2.231   0.311  1.00  0.00     0.002 C 
ENDROOT
BRANCH   1   2
ATOM      2  C   UNL     1       5.391   1.325   0.871  1.00  0.00     0.002 C 
BRANCH   2   3
ATOM      3  C   UNL     1       4.180   2.069   1.431  1.00  0.00     0.021 C 
BRANCH   3   4
ATOM      4  C   UNL     1       3.333   2.771   0.365  1.00  0.00     0.116 C 
BRANCH   4   5
ATOM      5  N   UNL     1       2.074   2.070   0.203  1.00  0.00    -0.354 N 
ATOM      6  C   UNL     1       0.780   2.435   0.389  1.00  0.00     0.243 C 
ATOM      7  O   UNL     1      -0.060   1.534   0.244  1.00  0.00    -0.273 OA
ATOM      8  H   UNL     1       2.179   1.141  -0.105  1.00  0.00     0.163 HD
BRANCH   6   9
ATOM      9  C   UNL     1       0.312   3.839   0.869  1.00  0.00     0.184 C 
BRANCH   9  10
ATOM     10  C   UNL     1       0.378   3.885   2.454  1.00  0.00     0.018 C 
ATOM     11  C   UNL     1      -0.432   2.733   3.075  1.00  0.00     0.010 C 
BRANCH  10  12
ATOM     12  C   UNL     1       1.805   3.917   3.027  1.00  0.00     0.002 C 
ATOM     13  C   UNL     1       1.906   4.277   4.504  1.00  0.00     0.004 C 
ENDBRANCH  10  12
ENDBRANCH   9  10
BRANCH   9  14
ATOM     14  N   UNL     1       0.864   5.024   0.136  1.00  0.00    -0.280 N 
ATOM     15  C   UNL     1       0.601   6.302   0.627  1.00  0.00     0.267 C 
ATOM     16  C   UNL     1       1.142   5.048  -1.225  1.00  0.00     0.149 C 
ATOM     17  O   UNL     1      -0.078   6.584   1.612  1.00  0.00    -0.268 OA
ATOM     18  C   UNL     1       1.048   7.360  -0.315  1.00  0.00     0.084 C 
ATOM     19  S   UNL     1       1.746   6.631  -1.692  1.00  0.00    -0.054 SA
ATOM     20  S   UNL     1       0.939   3.888  -2.410  1.00  0.00    -0.052 S 
ATOM     21  C   UNL     1       0.819   8.661  -0.087  1.00  0.00     0.068 C 
BRANCH  21  22
ATOM     22  C   UNL     1       1.159   9.677  -1.018  1.00  0.00     0.128 A 
ATOM     23  C   UNL     1       0.713   9.889  -2.319  1.00  0.00     0.050 A 
ATOM     24  O   UNL     1       2.051  10.675  -0.721  1.00  0.00    -0.462 OA
ATOM     25  C   UNL     1       1.405  11.008  -2.838  1.00  0.00     0.046 A 
ATOM     26  C   UNL     1       2.224  11.446  -1.825  1.00  0.00     0.101 A 
ATOM     27  C   UNL     1       3.225  12.528  -1.722  1.00  0.00     0.087 C 
ENDBRANCH  21  22
ENDBRANCH   9  14
ENDBRANCH   6   9
ENDBRANCH   4   5
ENDBRANCH   3   4
ENDBRANCH   2   3
ENDBRANCH   1   2
BRANCH   1  28
ATOM     28  C   UNL     1       7.008   3.305   1.273  1.00  0.00     0.021 C 
BRANCH  28  29
ATOM     29  C   UNL     1       7.425   2.793   2.650  1.00  0.00     0.116 C 
BRANCH  29  30
ATOM     30  N   UNL     1       8.468   1.783   2.561  1.00  0.00    -0.352 N 
ATOM     31  C   UNL     1       9.748   1.821   3.050  1.00  0.00     0.251 C 
ATOM     32  H   UNL     1       8.221   0.957   2.085  1.00  0.00     0.163 HD
ATOM     33  O   UNL     1      10.572   0.977   2.703  1.00  0.00    -0.269 OA
BRANCH  31  34
ATOM     34  C   UNL     1      10.130   2.890   3.993  1.00  0.00     0.039 A 
ATOM     35  C   UNL     1      11.301   3.618   3.768  1.00  0.00     0.014 A 
ATOM     36  C   UNL     1       9.321   3.168   5.098  1.00  0.00     0.014 A 
ATOM     37  C   UNL     1      11.638   4.664   4.630  1.00  0.00     0.010 A 
ATOM     38  C   UNL     1       9.623   4.251   5.914  1.00  0.00     0.010 A 
ATOM     39  C   UNL     1      10.790   5.001   5.697  1.00  0.00    -0.014 A 
BRANCH  39  40
ATOM     40  C   UNL     1      11.103   6.114   6.627  1.00  0.00     0.031 A 
ATOM     41  C   UNL     1      11.343   5.813   8.081  1.00  0.00     0.074 A 
ATOM     42  C   UNL     1      11.051   7.388   6.193  1.00  0.00     0.049 A 
ATOM     43  N   UNL     1      11.476   6.639   9.084  1.00  0.00    -0.248 NA
ATOM     44  C   UNL     1      11.406   4.391   8.462  1.00  0.00     0.031 C 
ATOM     45  C   UNL     1      10.767   7.805   4.819  1.00  0.00     0.029 A 
ATOM     46  N   UNL     1      11.195   8.571   6.876  1.00  0.00    -0.354 N 
ATOM     47  C   UNL     1      11.586   5.843  10.218  1.00  0.00     0.074 A 
ATOM     48  C   UNL     1      11.479   4.468   9.783  1.00  0.00     0.031 C 
ATOM     49  C   UNL     1      10.744   9.147   4.762  1.00  0.00     0.029 A 
ATOM     50  C   UNL     1      10.978   9.685   6.099  1.00  0.00     0.049 A 
ATOM     51  H   UNL     1      11.431   8.617   7.830  1.00  0.00     0.167 HD
ATOM     52  C   UNL     1      11.782   6.221  11.502  1.00  0.00     0.034 A 
ATOM     53  C   UNL     1      10.952  10.991   6.431  1.00  0.00     0.034 A 
ATOM     54  C   UNL     1      11.946   7.587  11.917  1.00  0.00     0.049 A 
ATOM     55  C   UNL     1      11.222  11.386   7.859  1.00  0.00     0.074 A 
ATOM     56  C   UNL     1      12.240   8.072  13.179  1.00  0.00     0.029 A 
ATOM     57  N   UNL     1      11.833   8.685  11.079  1.00  0.00    -0.354 N 
ATOM     58  N   UNL     1      11.464  10.619   8.894  1.00  0.00    -0.248 NA
ATOM     59  C   UNL     1      11.251  12.825   8.161  1.00  0.00     0.031 C 
ATOM     60  C   UNL     1      12.288   9.468  13.107  1.00  0.00     0.029 A 
ATOM     61  C   UNL     1      12.049   9.848  11.795  1.00  0.00     0.049 A 
ATOM     62  H   UNL     1      11.629   8.643  10.117  1.00  0.00     0.167 HD
ATOM     63  C   UNL     1      11.720  11.479   9.956  1.00  0.00     0.074 A 
ATOM     64  C   UNL     1      11.610  12.826   9.438  1.00  0.00     0.031 C 
ATOM     65  C   UNL     1      12.010  11.179  11.245  1.00  0.00     0.034 A 
BRANCH  52  66
ATOM     66  C   UNL     1      11.884   5.140  12.546  1.00  0.00     0.023 A 
ATOM     67  C   UNL     1      13.027   4.316  12.585  1.00  0.00     0.012 A 
ATOM     68  C   UNL     1      10.881   4.977  13.521  1.00  0.00     0.148 A 
ATOM     69  C   UNL     1      13.154   3.322  13.554  1.00  0.00     0.002 A 
ATOM     70  C   UNL     1      11.036   4.015  14.513  1.00  0.00     0.091 A 
ATOM     71  F   UNL     1       9.791   5.755  13.456  1.00  0.00    -0.205 F 
ATOM     72  C   UNL     1      12.165   3.179  14.523  1.00  0.00     0.022 A 
BRANCH  70  73
ATOM     73  S   UNL     1       9.857   3.807  15.852  1.00  0.00     0.127 S 
ATOM     74  O   UNL     1       9.216   2.545  15.488  1.00  0.00    -0.237 OA
ATOM     75  O   UNL     1      10.732   3.730  17.023  1.00  0.00    -0.237 OA
ATOM     76  O   UNL     1       8.997   4.981  15.815  1.00  0.00    -0.744 OA
ENDBRANCH  70  73
ENDBRANCH  52  66
BRANCH  53  77
ATOM     77  C   UNL     1      10.726  12.023   5.379  1.00  0.00     0.023 A 
ATOM     78  C   UNL     1      11.796  12.849   4.984  1.00  0.00     0.012 A 
ATOM     79  C   UNL     1       9.476  12.170   4.746  1.00  0.00     0.148 A 
ATOM     80  C   UNL     1      11.619  13.823   4.001  1.00  0.00     0.002 A 
ATOM     81  C   UNL     1       9.321  13.107   3.729  1.00  0.00     0.091 A 
ATOM     82  F   UNL     1       8.466  11.382   5.142  1.00  0.00    -0.205 F 
ATOM     83  C   UNL     1      10.386  13.945   3.367  1.00  0.00     0.022 A 
BRANCH  81  84
ATOM     84  S   UNL     1       7.808  13.245   2.770  1.00  0.00     0.127 S 
ATOM     85  O   UNL     1       7.261  14.510   3.253  1.00  0.00    -0.237 OA
ATOM     86  O   UNL     1       8.320  13.279   1.399  1.00  0.00    -0.237 OA
ATOM     87  O   UNL     1       7.032  12.054   3.089  1.00  0.00    -0.744 OA
ENDBRANCH  81  84
ENDBRANCH  53  77
BRANCH  65  88
ATOM     88  C   UNL     1      12.295  12.315  12.190  1.00  0.00     0.023 A 
ATOM     89  C   UNL     1      11.237  13.103  12.681  1.00  0.00     0.012 A 
ATOM     90  C   UNL     1      13.600  12.515  12.684  1.00  0.00     0.148 A 
ATOM     91  C   UNL     1      11.477  14.087  13.640  1.00  0.00     0.002 A 
ATOM     92  C   UNL     1      13.823  13.465  13.673  1.00  0.00     0.091 A 
ATOM     93  F   UNL     1      14.593  11.763  12.188  1.00  0.00    -0.205 F 
ATOM     94  C   UNL     1      12.765  14.258  14.146  1.00  0.00     0.022 A 
BRANCH  92  95
ATOM     95  S   UNL     1      15.425  13.684  14.456  1.00  0.00     0.127 S 
ATOM     96  O   UNL     1      15.827  14.995  13.949  1.00  0.00    -0.237 OA
ATOM     97  O   UNL     1      15.080  13.658  15.877  1.00  0.00    -0.237 OA
ATOM     98  O   UNL     1      16.248  12.567  14.012  1.00  0.00    -0.744 OA
ENDBRANCH  92  95
ENDBRANCH  65  88
ENDBRANCH  39  40
ENDBRANCH  31  34
ENDBRANCH  29  30
ENDBRANCH  28  29
ENDBRANCH   1  28
TORSDOF 20
