REMARK SMILES C[NH2+][C@]1(C(=O)NCCCCCCNC(=O)c2ccc(-c3c4nc(c(-c5cccc(S(=O)(=O)[O-])c5F)c5ccc([nH]5)c(-c5cccc(S(=O)(=O)[O-])c5F)c5nc(c(-c6cccc(S(=O)(=O)[O-])c6F)c6ccc3[nH]6)C=C5)C=C4)cc2)CCC[C@@H](Sc2nccs2)C1
REMARK SMILES IDX 10 1 9 2 8 3 7 4 6 5 4 6 5 7 3 9 79 10 89 11 80 12 82 13
REMARK SMILES IDX 81 14 2 15 1 16 83 19 84 20 85 21 88 22 86 23 87 24 11 25
REMARK SMILES IDX 12 26 13 27 14 28 15 30 16 31 17 32 78 33 18 34 77 35 19 36
REMARK SMILES IDX 20 37 21 38 71 39 22 40 76 41 70 42 72 43 23 44 75 45 69 46
REMARK SMILES IDX 68 47 24 49 56 50 36 51 55 52 37 53 40 54 54 55 73 56 38 57
REMARK SMILES IDX 39 58 53 60 74 61 41 62 25 63 26 64 34 65 27 66 29 67 35 68
REMARK SMILES IDX 28 69 30 70 31 71 32 72 33 73 57 74 58 75 66 76 59 77 61 78
REMARK SMILES IDX 67 79 60 80 62 81 63 82 64 83 65 84 42 85 43 86 51 87 44 88
REMARK SMILES IDX 46 89 52 90 45 91 47 92 48 93 49 94 50 95
REMARK H PARENT 6 8 2 17 2 18 13 29 72 48 40 59
REMARK Flexibility Score: inf
ROOT
ATOM      1  C   UNL     1       3.167  -2.727   3.963  1.00  0.00     0.002 C 
ENDROOT
BRANCH   1   2
ATOM      2  C   UNL     1       2.597  -3.525   2.784  1.00  0.00     0.002 C 
BRANCH   2   3
ATOM      3  C   UNL     1       1.096  -3.323   2.548  1.00  0.00     0.021 C 
BRANCH   3   4
ATOM      4  C   UNL     1       0.734  -1.877   2.216  1.00  0.00     0.116 C 
BRANCH   4   5
ATOM      5  N   UNL     1       1.100  -1.580   0.843  1.00  0.00    -0.351 N 
ATOM      6  C   UNL     1       0.355  -1.469  -0.290  1.00  0.00     0.281 C 
ATOM      7  O   UNL     1       0.987  -1.289  -1.340  1.00  0.00    -0.268 OA
ATOM      8  H   UNL     1       2.064  -1.432   0.706  1.00  0.00     0.163 HD
BRANCH   6   9
ATOM      9  C   UNL     1      -1.218  -1.454  -0.277  1.00  0.00     0.176 C 
ATOM     10  C   UNL     1      -1.853  -2.710   0.370  1.00  0.00     0.079 C 
ATOM     11  C   UNL     1      -1.637  -0.150   0.458  1.00  0.00     0.094 C 
ATOM     12  C   UNL     1      -3.356  -2.570   0.612  1.00  0.00     0.008 C 
ATOM     13  C   UNL     1      -3.138  -0.068   0.746  1.00  0.00     0.061 C 
ATOM     14  C   UNL     1      -3.664  -1.326   1.442  1.00  0.00     0.015 C 
BRANCH   9  15
ATOM     15  N   UNL     1      -1.694  -1.273  -1.694  1.00  0.00    -0.336 N 
ATOM     16  C   UNL     1      -1.645  -2.477  -2.518  1.00  0.00     0.331 C 
ATOM     17  H   UNL     1      -2.660  -0.949  -1.665  1.00  0.00     0.346 HD
ATOM     18  H   UNL     1      -1.057  -0.604  -2.127  1.00  0.00     0.346 HD
ENDBRANCH   9  15
BRANCH  13  19
ATOM     19  S   UNL     1      -3.585   1.468   1.639  1.00  0.00    -0.092 SA
BRANCH  19  20
ATOM     20  C   UNL     1      -2.968   1.196   3.255  1.00  0.00     0.150 A 
ATOM     21  N   UNL     1      -1.685   1.038   3.496  1.00  0.00    -0.238 NA
ATOM     22  S   UNL     1      -3.996   1.178   4.628  1.00  0.00    -0.116 S 
ATOM     23  C   UNL     1      -1.488   0.912   4.860  1.00  0.00     0.124 A 
ATOM     24  C   UNL     1      -2.628   0.949   5.635  1.00  0.00     0.087 A 
ENDBRANCH  19  20
ENDBRANCH  13  19
ENDBRANCH   6   9
ENDBRANCH   4   5
ENDBRANCH   3   4
ENDBRANCH   2   3
ENDBRANCH   1   2
BRANCH   1  25
ATOM     25  C   UNL     1       2.447  -2.954   5.295  1.00  0.00     0.021 C 
BRANCH  25  26
ATOM     26  C   UNL     1       2.461  -4.402   5.772  1.00  0.00     0.116 C 
BRANCH  26  27
ATOM     27  N   UNL     1       3.817  -4.866   6.027  1.00  0.00    -0.352 N 
ATOM     28  C   UNL     1       4.347  -5.389   7.176  1.00  0.00     0.251 C 
ATOM     29  H   UNL     1       4.440  -4.794   5.267  1.00  0.00     0.163 HD
ATOM     30  O   UNL     1       5.568  -5.505   7.296  1.00  0.00    -0.269 OA
BRANCH  28  31
ATOM     31  C   UNL     1       3.450  -5.806   8.273  1.00  0.00     0.039 A 
ATOM     32  C   UNL     1       3.773  -5.459   9.586  1.00  0.00     0.014 A 
ATOM     33  C   UNL     1       2.294  -6.544   8.001  1.00  0.00     0.014 A 
ATOM     34  C   UNL     1       2.909  -5.811  10.624  1.00  0.00     0.010 A 
ATOM     35  C   UNL     1       1.398  -6.827   9.027  1.00  0.00     0.010 A 
ATOM     36  C   UNL     1       1.701  -6.473  10.350  1.00  0.00    -0.014 A 
BRANCH  36  37
ATOM     37  C   UNL     1       0.738  -6.797  11.433  1.00  0.00     0.031 A 
ATOM     38  C   UNL     1       0.394  -8.229  11.739  1.00  0.00     0.074 A 
ATOM     39  C   UNL     1       0.110  -5.797  12.082  1.00  0.00     0.049 A 
ATOM     40  N   UNL     1      -0.460  -8.702  12.610  1.00  0.00    -0.248 NA
ATOM     41  C   UNL     1       1.075  -9.266  10.946  1.00  0.00     0.031 C 
ATOM     42  C   UNL     1       0.298  -4.369  11.819  1.00  0.00     0.029 A 
ATOM     43  N   UNL     1      -0.835  -5.830  13.077  1.00  0.00    -0.354 N 
ATOM     44  C   UNL     1      -0.447 -10.082  12.444  1.00  0.00     0.074 A 
ATOM     45  C   UNL     1       0.475 -10.369  11.368  1.00  0.00     0.031 C 
ATOM     46  C   UNL     1      -0.503  -3.663  12.633  1.00  0.00     0.029 A 
ATOM     47  C   UNL     1      -1.284  -4.585  13.451  1.00  0.00     0.049 A 
ATOM     48  H   UNL     1      -1.160  -6.665  13.485  1.00  0.00     0.167 HD
ATOM     49  C   UNL     1      -1.121 -11.026  13.142  1.00  0.00     0.034 A 
ATOM     50  C   UNL     1      -2.228  -4.225  14.344  1.00  0.00     0.034 A 
ATOM     51  C   UNL     1      -2.005 -10.738  14.239  1.00  0.00     0.049 A 
ATOM     52  C   UNL     1      -2.929  -5.293  15.136  1.00  0.00     0.074 A 
ATOM     53  C   UNL     1      -2.659 -11.628  15.072  1.00  0.00     0.029 A 
ATOM     54  N   UNL     1      -2.371  -9.465  14.648  1.00  0.00    -0.354 N 
ATOM     55  N   UNL     1      -2.781  -6.595  15.077  1.00  0.00    -0.248 NA
ATOM     56  C   UNL     1      -3.900  -4.845  16.145  1.00  0.00     0.031 C 
ATOM     57  C   UNL     1      -3.446 -10.893  15.964  1.00  0.00     0.029 A 
ATOM     58  C   UNL     1      -3.253  -9.545  15.712  1.00  0.00     0.049 A 
ATOM     59  H   UNL     1      -2.050  -8.627  14.242  1.00  0.00     0.167 HD
ATOM     60  C   UNL     1      -3.611  -7.118  16.062  1.00  0.00     0.074 A 
ATOM     61  C   UNL     1      -4.243  -5.991  16.717  1.00  0.00     0.031 C 
ATOM     62  C   UNL     1      -3.839  -8.415  16.386  1.00  0.00     0.034 A 
BRANCH  49  63
ATOM     63  C   UNL     1      -0.897 -12.469  12.770  1.00  0.00     0.023 A 
ATOM     64  C   UNL     1       0.339 -13.083  13.060  1.00  0.00     0.012 A 
ATOM     65  C   UNL     1      -1.929 -13.235  12.192  1.00  0.00     0.148 A 
ATOM     66  C   UNL     1       0.557 -14.424  12.749  1.00  0.00     0.002 A 
ATOM     67  C   UNL     1      -1.720 -14.584  11.929  1.00  0.00     0.091 A 
ATOM     68  F   UNL     1      -3.090 -12.630  11.904  1.00  0.00    -0.205 F 
ATOM     69  C   UNL     1      -0.475 -15.176  12.195  1.00  0.00     0.022 A 
BRANCH  67  70
ATOM     70  S   UNL     1      -3.011 -15.658  11.293  1.00  0.00     0.127 S 
ATOM     71  O   UNL     1      -2.528 -15.929   9.939  1.00  0.00    -0.237 OA
ATOM     72  O   UNL     1      -2.938 -16.799  12.206  1.00  0.00    -0.237 OA
ATOM     73  O   UNL     1      -4.247 -14.894  11.372  1.00  0.00    -0.744 OA
ENDBRANCH  67  70
ENDBRANCH  49  63
BRANCH  50  74
ATOM     74  C   UNL     1      -2.519  -2.781  14.573  1.00  0.00     0.023 A 
ATOM     75  C   UNL     1      -2.141  -2.181  15.789  1.00  0.00     0.012 A 
ATOM     76  C   UNL     1      -3.134  -1.994  13.580  1.00  0.00     0.148 A 
ATOM     77  C   UNL     1      -2.400  -0.831  16.026  1.00  0.00     0.002 A 
ATOM     78  C   UNL     1      -3.336  -0.637  13.799  1.00  0.00     0.091 A 
ATOM     79  F   UNL     1      -3.495  -2.587  12.433  1.00  0.00    -0.205 F 
ATOM     80  C   UNL     1      -2.988  -0.057  15.029  1.00  0.00     0.022 A 
BRANCH  78  81
ATOM     81  S   UNL     1      -3.954   0.462  12.519  1.00  0.00     0.127 S 
ATOM     82  O   UNL     1      -5.282   0.795  13.025  1.00  0.00    -0.237 OA
ATOM     83  O   UNL     1      -2.983   1.556  12.567  1.00  0.00    -0.237 OA
ATOM     84  O   UNL     1      -3.921  -0.311  11.284  1.00  0.00    -0.744 OA
ENDBRANCH  78  81
ENDBRANCH  50  74
BRANCH  62  85
ATOM     85  C   UNL     1      -4.783  -8.696  17.526  1.00  0.00     0.023 A 
ATOM     86  C   UNL     1      -6.167  -8.487  17.363  1.00  0.00     0.012 A 
ATOM     87  C   UNL     1      -4.304  -9.241  18.734  1.00  0.00     0.148 A 
ATOM     88  C   UNL     1      -7.055  -8.784  18.397  1.00  0.00     0.002 A 
ATOM     89  C   UNL     1      -5.199  -9.582  19.740  1.00  0.00     0.091 A 
ATOM     90  F   UNL     1      -2.982  -9.415  18.877  1.00  0.00    -0.205 F 
ATOM     91  C   UNL     1      -6.573  -9.342  19.578  1.00  0.00     0.022 A 
BRANCH  89  92
ATOM     92  S   UNL     1      -4.681 -10.398  21.255  1.00  0.00     0.127 S 
ATOM     93  O   UNL     1      -4.853  -9.331  22.240  1.00  0.00    -0.237 OA
ATOM     94  O   UNL     1      -5.648 -11.490  21.364  1.00  0.00    -0.237 OA
ATOM     95  O   UNL     1      -3.307 -10.826  21.031  1.00  0.00    -0.744 OA
ENDBRANCH  89  92
ENDBRANCH  62  85
ENDBRANCH  36  37
ENDBRANCH  28  31
ENDBRANCH  26  27
ENDBRANCH  25  26
ENDBRANCH   1  25
TORSDOF 19
