REMARK SMILES C[C@H]([NH2+]C[C@@]1(C)CCCO1)C(=O)NCCCCCCNC(=O)c1ccc(-c2c3nc(c(-c4cccc(S(=O)(=O)[O-])c4F)c4ccc([nH]4)c(-c4cccc(S(=O)(=O)[O-])c4F)c4nc(c(-c5cccc(S(=O)(=O)[O-])c5F)c5ccc2[nH]5)C=C4)C=C3)cc1
REMARK SMILES IDX 16 1 15 2 14 3 13 4 11 5 12 6 2 8 1 9 3 10 4 13 5 14 6 15
REMARK SMILES IDX 7 16 10 17 8 18 9 19 17 20 18 21 19 22 20 23 21 24 22 26
REMARK SMILES IDX 23 27 24 28 85 29 25 30 84 31 26 32 27 33 28 34 78 35 29 36
REMARK SMILES IDX 83 37 77 38 79 39 30 40 82 41 76 42 75 43 31 45 63 46 43 47
REMARK SMILES IDX 62 48 44 49 47 50 61 51 80 52 45 53 46 54 60 56 81 57 48 58
REMARK SMILES IDX 32 59 33 60 41 61 34 62 36 63 42 64 35 65 37 66 38 67 39 68
REMARK SMILES IDX 40 69 64 70 65 71 73 72 66 73 68 74 74 75 67 76 69 77 70 78
REMARK SMILES IDX 71 79 72 80 49 81 50 82 58 83 51 84 53 85 59 86 52 87 54 88
REMARK SMILES IDX 55 89 56 90 57 91
REMARK H PARENT 13 7 3 11 3 12 20 25 79 44 47 55
REMARK Flexibility Score: inf
ROOT
ATOM      1  C   UNL     1      -3.396   0.752   2.691  1.00  0.00     0.002 C 
ENDROOT
BRANCH   1   2
ATOM      2  C   UNL     1      -1.905   0.620   2.369  1.00  0.00     0.021 C 
BRANCH   2   3
ATOM      3  C   UNL     1      -1.474  -0.809   2.029  1.00  0.00     0.116 C 
BRANCH   3   4
ATOM      4  N   UNL     1      -1.716  -1.089   0.628  1.00  0.00    -0.351 N 
ATOM      5  C   UNL     1      -0.874  -1.214  -0.430  1.00  0.00     0.277 C 
ATOM      6  O   UNL     1      -1.401  -1.204  -1.551  1.00  0.00    -0.268 OA
ATOM      7  H   UNL     1      -2.666  -1.211   0.401  1.00  0.00     0.163 HD
BRANCH   5   8
ATOM      8  C   UNL     1       0.661  -1.352  -0.311  1.00  0.00     0.269 C 
ATOM      9  C   UNL     1       1.201  -2.310   0.743  1.00  0.00     0.086 C 
BRANCH   8  10
ATOM     10  N   UNL     1       1.392  -0.069  -0.408  1.00  0.00    -0.334 N 
ATOM     11  H   UNL     1       1.115   0.384  -1.279  1.00  0.00     0.347 HD
ATOM     12  H   UNL     1       2.382  -0.312  -0.362  1.00  0.00     0.347 HD
BRANCH  10  13
ATOM     13  C   UNL     1       1.167   0.880   0.681  1.00  0.00     0.296 C 
BRANCH  13  14
ATOM     14  C   UNL     1       2.365   1.815   0.969  1.00  0.00     0.114 C 
ATOM     15  C   UNL     1       3.509   1.022   1.617  1.00  0.00     0.048 C 
ATOM     16  C   UNL     1       2.825   2.607  -0.252  1.00  0.00     0.043 C 
ATOM     17  O   UNL     1       1.938   2.816   1.922  1.00  0.00    -0.369 OA
ATOM     18  C   UNL     1       3.414   3.851   0.366  1.00  0.00     0.032 C 
ATOM     19  C   UNL     1       2.517   4.081   1.564  1.00  0.00     0.161 C 
ENDBRANCH  13  14
ENDBRANCH  10  13
ENDBRANCH   8  10
ENDBRANCH   5   8
ENDBRANCH   3   4
ENDBRANCH   2   3
ENDBRANCH   1   2
BRANCH   1  20
ATOM     20  C   UNL     1      -3.852  -0.010   3.940  1.00  0.00     0.002 C 
BRANCH  20  21
ATOM     21  C   UNL     1      -3.059   0.296   5.214  1.00  0.00     0.021 C 
BRANCH  21  22
ATOM     22  C   UNL     1      -3.037   1.770   5.612  1.00  0.00     0.116 C 
BRANCH  22  23
ATOM     23  N   UNL     1      -4.377   2.278   5.865  1.00  0.00    -0.352 N 
ATOM     24  C   UNL     1      -4.885   2.851   7.000  1.00  0.00     0.251 C 
ATOM     25  H   UNL     1      -5.008   2.199   5.114  1.00  0.00     0.163 HD
ATOM     26  O   UNL     1      -6.103   3.008   7.115  1.00  0.00    -0.269 OA
BRANCH  24  27
ATOM     27  C   UNL     1      -3.979   3.277   8.085  1.00  0.00     0.039 A 
ATOM     28  C   UNL     1      -4.326   2.999   9.410  1.00  0.00     0.014 A 
ATOM     29  C   UNL     1      -2.800   3.973   7.798  1.00  0.00     0.014 A 
ATOM     30  C   UNL     1      -3.471   3.385  10.444  1.00  0.00     0.010 A 
ATOM     31  C   UNL     1      -1.916   4.293   8.824  1.00  0.00     0.010 A 
ATOM     32  C   UNL     1      -2.249   4.017  10.158  1.00  0.00    -0.014 A 
BRANCH  32  33
ATOM     33  C   UNL     1      -1.315   4.410  11.244  1.00  0.00     0.031 A 
ATOM     34  C   UNL     1      -0.997   5.862  11.479  1.00  0.00     0.074 A 
ATOM     35  C   UNL     1      -0.697   3.456  11.968  1.00  0.00     0.049 A 
ATOM     36  N   UNL     1      -0.175   6.397  12.345  1.00  0.00    -0.248 NA
ATOM     37  C   UNL     1      -1.671   6.843  10.611  1.00  0.00     0.031 C 
ATOM     38  C   UNL     1      -0.860   2.012  11.780  1.00  0.00     0.029 A 
ATOM     39  N   UNL     1       0.213   3.556  12.990  1.00  0.00    -0.354 N 
ATOM     40  C   UNL     1      -0.211   7.766  12.108  1.00  0.00     0.074 A 
ATOM     41  C   UNL     1      -1.103   7.978  10.990  1.00  0.00     0.031 C 
ATOM     42  C   UNL     1      -0.077   1.363  12.657  1.00  0.00     0.029 A 
ATOM     43  C   UNL     1       0.659   2.340  13.453  1.00  0.00     0.049 A 
ATOM     44  H   UNL     1       0.517   4.417  13.357  1.00  0.00     0.167 HD
ATOM     45  C   UNL     1       0.412   8.762  12.783  1.00  0.00     0.034 A 
ATOM     46  C   UNL     1       1.561   2.047  14.410  1.00  0.00     0.034 A 
ATOM     47  C   UNL     1       1.267   8.550  13.920  1.00  0.00     0.049 A 
ATOM     48  C   UNL     1       2.204   3.173  15.175  1.00  0.00     0.074 A 
ATOM     49  C   UNL     1       1.893   9.493  14.715  1.00  0.00     0.029 A 
ATOM     50  N   UNL     1       1.614   7.307  14.426  1.00  0.00    -0.354 N 
ATOM     51  N   UNL     1       2.038   4.466  15.035  1.00  0.00    -0.248 NA
ATOM     52  C   UNL     1       3.124   2.800  16.259  1.00  0.00     0.031 C 
ATOM     53  C   UNL     1       2.629   8.819  15.695  1.00  0.00     0.029 A 
ATOM     54  C   UNL     1       2.444   7.457  15.524  1.00  0.00     0.049 A 
ATOM     55  H   UNL     1       1.315   6.444  14.058  1.00  0.00     0.167 HD
ATOM     56  C   UNL     1       2.799   5.058  16.036  1.00  0.00     0.074 A 
ATOM     57  C   UNL     1       3.408   3.981  16.789  1.00  0.00     0.031 C 
ATOM     58  C   UNL     1       2.991   6.375  16.300  1.00  0.00     0.034 A 
BRANCH  45  59
ATOM     59  C   UNL     1       0.138  10.179  12.348  1.00  0.00     0.023 A 
ATOM     60  C   UNL     1      -1.130  10.744  12.597  1.00  0.00     0.012 A 
ATOM     61  C   UNL     1       1.138  10.967  11.746  1.00  0.00     0.148 A 
ATOM     62  C   UNL     1      -1.412  12.057  12.223  1.00  0.00     0.002 A 
ATOM     63  C   UNL     1       0.864  12.291  11.416  1.00  0.00     0.091 A 
ATOM     64  F   UNL     1       2.331  10.409  11.498  1.00  0.00    -0.205 F 
ATOM     65  C   UNL     1      -0.412  12.832  11.642  1.00  0.00     0.022 A 
BRANCH  63  66
ATOM     66  S   UNL     1       2.104  13.398  10.736  1.00  0.00     0.127 S 
ATOM     67  O   UNL     1       1.637  13.554   9.359  1.00  0.00    -0.237 OA
ATOM     68  O   UNL     1       1.946  14.589  11.572  1.00  0.00    -0.237 OA
ATOM     69  O   UNL     1       3.381  12.715  10.889  1.00  0.00    -0.744 OA
ENDBRANCH  63  66
ENDBRANCH  45  59
BRANCH  46  70
ATOM     70  C   UNL     1       1.856   0.626  14.748  1.00  0.00     0.023 A 
ATOM     71  C   UNL     1       1.426   0.106  15.985  1.00  0.00     0.012 A 
ATOM     72  C   UNL     1       2.541  -0.216  13.852  1.00  0.00     0.148 A 
ATOM     73  C   UNL     1       1.707  -1.214  16.339  1.00  0.00     0.002 A 
ATOM     74  C   UNL     1       2.769  -1.547  14.187  1.00  0.00     0.091 A 
ATOM     75  F   UNL     1       2.954   0.298  12.685  1.00  0.00    -0.205 F 
ATOM     76  C   UNL     1       2.369  -2.043  15.438  1.00  0.00     0.022 A 
BRANCH  74  77
ATOM     77  S   UNL     1       3.495  -2.715  13.032  1.00  0.00     0.127 S 
ATOM     78  O   UNL     1       4.841  -2.874  13.574  1.00  0.00    -0.237 OA
ATOM     79  O   UNL     1       2.625  -3.881  13.190  1.00  0.00    -0.237 OA
ATOM     80  O   UNL     1       3.405  -2.077  11.726  1.00  0.00    -0.744 OA
ENDBRANCH  74  77
ENDBRANCH  46  70
BRANCH  58  81
ATOM     81  C   UNL     1       3.859   6.730  17.478  1.00  0.00     0.023 A 
ATOM     82  C   UNL     1       5.254   6.540  17.406  1.00  0.00     0.012 A 
ATOM     83  C   UNL     1       3.299   7.313  18.632  1.00  0.00     0.148 A 
ATOM     84  C   UNL     1       6.073   6.892  18.478  1.00  0.00     0.002 A 
ATOM     85  C   UNL     1       4.128   7.707  19.676  1.00  0.00     0.091 A 
ATOM     86  F   UNL     1       1.968   7.468  18.690  1.00  0.00    -0.205 F 
ATOM     87  C   UNL     1       5.512   7.485  19.606  1.00  0.00     0.022 A 
BRANCH  85  88
ATOM     88  S   UNL     1       3.503   8.566  21.125  1.00  0.00     0.127 S 
ATOM     89  O   UNL     1       3.549   7.513  22.138  1.00  0.00    -0.237 OA
ATOM     90  O   UNL     1       4.490   9.630  21.306  1.00  0.00    -0.237 OA
ATOM     91  O   UNL     1       2.171   9.035  20.767  1.00  0.00    -0.744 OA
ENDBRANCH  85  88
ENDBRANCH  58  81
ENDBRANCH  32  33
ENDBRANCH  24  27
ENDBRANCH  22  23
ENDBRANCH  21  22
ENDBRANCH  20  21
ENDBRANCH   1  20
TORSDOF 19
