REMARK SMILES CC[C@](C)(NC(=O)Cc1cccc(F)c1)C(=O)NCCCCCCNC(=O)c1ccc(-c2c3nc(c(-c4cccc(S(=O)(=O)[O-])c4F)c4ccc([nH]4)c(-c4cccc(S(=O)(=O)[O-])c4F)c4nc(c(-c5cccc(S(=O)(=O)[O-])c5F)c5ccc2[nH]5)C=C4)C=C3)cc1
REMARK SMILES IDX 21 1 20 2 19 3 18 4 16 5 17 6 3 8 4 9 2 10 1 11 5 12 6 13
REMARK SMILES IDX 7 15 8 16 9 17 10 18 15 19 11 20 13 21 12 22 14 23 22 24
REMARK SMILES IDX 23 25 24 26 25 27 26 28 27 30 28 31 29 32 90 33 30 34 89 35
REMARK SMILES IDX 31 36 32 37 33 38 83 39 34 40 88 41 82 42 84 43 35 44 87 45
REMARK SMILES IDX 81 46 80 47 36 49 68 50 48 51 67 52 49 53 52 54 66 55 85 56
REMARK SMILES IDX 50 57 51 58 65 60 86 61 53 62 37 63 38 64 46 65 39 66 41 67
REMARK SMILES IDX 47 68 40 69 42 70 43 71 44 72 45 73 69 74 70 75 78 76 71 77
REMARK SMILES IDX 73 78 79 79 72 80 74 81 75 82 76 83 77 84 54 85 55 86 63 87
REMARK SMILES IDX 56 88 58 89 64 90 57 91 59 92 60 93 61 94 62 95
REMARK H PARENT 18 7 5 14 25 29 84 48 52 59
REMARK Flexibility Score: inf
ROOT
ATOM      1  C   UNL     1       4.455  -4.619   3.951  1.00  0.00     0.002 C 
ENDROOT
BRANCH   1   2
ATOM      2  C   UNL     1       2.925  -4.609   3.879  1.00  0.00     0.021 C 
BRANCH   2   3
ATOM      3  C   UNL     1       2.268  -3.235   3.997  1.00  0.00     0.116 C 
BRANCH   3   4
ATOM      4  N   UNL     1       2.822  -2.223   3.111  1.00  0.00    -0.354 N 
ATOM      5  C   UNL     1       2.297  -1.601   2.013  1.00  0.00     0.245 C 
ATOM      6  O   UNL     1       2.892  -0.592   1.618  1.00  0.00    -0.272 OA
ATOM      7  H   UNL     1       3.735  -1.937   3.342  1.00  0.00     0.163 HD
BRANCH   5   8
ATOM      8  C   UNL     1       0.935  -2.035   1.399  1.00  0.00     0.116 C 
ATOM      9  C   UNL     1       0.710  -1.458  -0.011  1.00  0.00     0.045 C 
BRANCH   8  10
ATOM     10  C   UNL     1      -0.161  -1.447   2.354  1.00  0.00     0.035 C 
ATOM     11  C   UNL     1      -0.385   0.062   2.236  1.00  0.00     0.007 C 
ENDBRANCH   8  10
BRANCH   8  12
ATOM     12  N   UNL     1       0.773  -3.511   1.313  1.00  0.00    -0.342 N 
ATOM     13  C   UNL     1       1.492  -4.440   0.609  1.00  0.00     0.225 C 
ATOM     14  H   UNL     1       0.032  -3.878   1.847  1.00  0.00     0.164 HD
ATOM     15  O   UNL     1       0.887  -5.450   0.234  1.00  0.00    -0.275 OA
BRANCH  13  16
ATOM     16  C   UNL     1       2.997  -4.323   0.395  1.00  0.00     0.135 C 
BRANCH  16  17
ATOM     17  C   UNL     1       3.439  -3.660  -0.879  1.00  0.00    -0.036 A 
ATOM     18  C   UNL     1       4.018  -2.382  -0.841  1.00  0.00     0.004 A 
ATOM     19  C   UNL     1       3.295  -4.297  -2.115  1.00  0.00     0.043 A 
ATOM     20  C   UNL     1       4.343  -1.703  -2.014  1.00  0.00     0.003 A 
ATOM     21  C   UNL     1       3.666  -3.630  -3.279  1.00  0.00     0.123 A 
ATOM     22  C   UNL     1       4.160  -2.330  -3.241  1.00  0.00     0.039 A 
ATOM     23  F   UNL     1       3.538  -4.246  -4.461  1.00  0.00    -0.207 F 
ENDBRANCH  16  17
ENDBRANCH  13  16
ENDBRANCH   8  12
ENDBRANCH   5   8
ENDBRANCH   3   4
ENDBRANCH   2   3
ENDBRANCH   1   2
BRANCH   1  24
ATOM     24  C   UNL     1       5.044  -4.016   5.227  1.00  0.00     0.002 C 
BRANCH  24  25
ATOM     25  C   UNL     1       4.453  -4.560   6.527  1.00  0.00     0.021 C 
BRANCH  25  26
ATOM     26  C   UNL     1       4.512  -6.076   6.663  1.00  0.00     0.116 C 
BRANCH  26  27
ATOM     27  N   UNL     1       5.878  -6.557   6.776  1.00  0.00    -0.352 N 
ATOM     28  C   UNL     1       6.424  -7.345   7.759  1.00  0.00     0.251 C 
ATOM     29  H   UNL     1       6.490  -6.283   6.055  1.00  0.00     0.163 HD
ATOM     30  O   UNL     1       7.638  -7.492   7.830  1.00  0.00    -0.269 OA
BRANCH  28  31
ATOM     31  C   UNL     1       5.531  -8.001   8.739  1.00  0.00     0.039 A 
ATOM     32  C   UNL     1       5.857  -7.946  10.095  1.00  0.00     0.014 A 
ATOM     33  C   UNL     1       4.372  -8.661   8.317  1.00  0.00     0.014 A 
ATOM     34  C   UNL     1       5.002  -8.528  11.032  1.00  0.00     0.010 A 
ATOM     35  C   UNL     1       3.481  -9.165   9.258  1.00  0.00     0.010 A 
ATOM     36  C   UNL     1       3.798  -9.127  10.623  1.00  0.00    -0.014 A 
BRANCH  36  37
ATOM     37  C   UNL     1       2.873  -9.738  11.611  1.00  0.00     0.031 A 
ATOM     38  C   UNL     1       2.576 -11.212  11.559  1.00  0.00     0.074 A 
ATOM     39  C   UNL     1       2.251  -8.959  12.517  1.00  0.00     0.049 A 
ATOM     40  N   UNL     1       1.794 -11.920  12.331  1.00  0.00    -0.248 NA
ATOM     41  C   UNL     1       3.217 -11.989  10.485  1.00  0.00     0.031 C 
ATOM     42  C   UNL     1       2.388  -7.505  12.613  1.00  0.00     0.029 A 
ATOM     43  N   UNL     1       1.363  -9.277  13.515  1.00  0.00    -0.354 N 
ATOM     44  C   UNL     1       1.817 -13.210  11.814  1.00  0.00     0.074 A 
ATOM     45  C   UNL     1       2.659 -13.181  10.640  1.00  0.00     0.031 C 
ATOM     46  C   UNL     1       1.626  -7.059  13.623  1.00  0.00     0.029 A 
ATOM     47  C   UNL     1       0.923  -8.187  14.228  1.00  0.00     0.049 A 
ATOM     48  H   UNL     1       1.070 -10.198  13.702  1.00  0.00     0.167 HD
ATOM     49  C   UNL     1       1.218 -14.325  12.292  1.00  0.00     0.034 A 
ATOM     50  C   UNL     1       0.050  -8.101  15.252  1.00  0.00     0.034 A 
ATOM     51  C   UNL     1       0.429 -14.358  13.493  1.00  0.00     0.049 A 
ATOM     52  C   UNL     1      -0.568  -9.358  15.799  1.00  0.00     0.074 A 
ATOM     53  C   UNL     1      -0.115 -15.460  14.129  1.00  0.00     0.029 A 
ATOM     54  N   UNL     1       0.057 -13.244  14.229  1.00  0.00    -0.354 N 
ATOM     55  N   UNL     1      -0.391 -10.597  15.408  1.00  0.00    -0.248 NA
ATOM     56  C   UNL     1      -1.479  -9.216  16.944  1.00  0.00     0.031 C 
ATOM     57  C   UNL     1      -0.851 -15.007  15.227  1.00  0.00     0.029 A 
ATOM     58  C   UNL     1      -0.735 -13.627  15.297  1.00  0.00     0.049 A 
ATOM     59  H   UNL     1       0.318 -12.318  14.022  1.00  0.00     0.167 HD
ATOM     60  C   UNL     1      -1.151 -11.383  16.265  1.00  0.00     0.074 A 
ATOM     61  C   UNL     1      -1.775 -10.482  17.213  1.00  0.00     0.031 C 
ATOM     62  C   UNL     1      -1.324 -12.728  16.257  1.00  0.00     0.034 A 
BRANCH  49  63
ATOM     63  C   UNL     1       1.433 -15.617  11.548  1.00  0.00     0.023 A 
ATOM     64  C   UNL     1       2.700 -16.235  11.569  1.00  0.00     0.012 A 
ATOM     65  C   UNL     1       0.363 -16.257  10.891  1.00  0.00     0.148 A 
ATOM     66  C   UNL     1       2.909 -17.450  10.919  1.00  0.00     0.002 A 
ATOM     67  C   UNL     1       0.567 -17.493  10.289  1.00  0.00     0.091 A 
ATOM     68  F   UNL     1      -0.829 -15.645  10.863  1.00  0.00    -0.205 F 
ATOM     69  C   UNL     1       1.841 -18.084  10.291  1.00  0.00     0.022 A 
BRANCH  67  70
ATOM     70  S   UNL     1      -0.764 -18.434   9.534  1.00  0.00     0.127 S 
ATOM     71  O   UNL     1      -0.429 -18.330   8.114  1.00  0.00    -0.237 OA
ATOM     72  O   UNL     1      -0.566 -19.764  10.111  1.00  0.00    -0.237 OA
ATOM     73  O   UNL     1      -1.999 -17.775   9.935  1.00  0.00    -0.744 OA
ENDBRANCH  67  70
ENDBRANCH  49  63
BRANCH  50  74
ATOM     74  C   UNL     1      -0.220  -6.768  15.860  1.00  0.00     0.023 A 
ATOM     75  C   UNL     1       0.322  -6.461  17.122  1.00  0.00     0.012 A 
ATOM     76  C   UNL     1      -0.915  -5.771  15.147  1.00  0.00     0.148 A 
ATOM     77  C   UNL     1       0.174  -5.184  17.666  1.00  0.00     0.002 A 
ATOM     78  C   UNL     1      -1.009  -4.486  15.668  1.00  0.00     0.091 A 
ATOM     79  F   UNL     1      -1.426  -6.089  13.949  1.00  0.00    -0.205 F 
ATOM     80  C   UNL     1      -0.477  -4.194  16.934  1.00  0.00     0.022 A 
BRANCH  78  81
ATOM     81  S   UNL     1      -1.693  -3.111  14.737  1.00  0.00     0.127 S 
ATOM     82  O   UNL     1      -2.840  -2.732  15.560  1.00  0.00    -0.237 OA
ATOM     83  O   UNL     1      -0.582  -2.160  14.752  1.00  0.00    -0.237 OA
ATOM     84  O   UNL     1      -2.017  -3.642  13.420  1.00  0.00    -0.744 OA
ENDBRANCH  78  81
ENDBRANCH  50  74
BRANCH  62  85
ATOM     85  C   UNL     1      -2.227 -13.340  17.296  1.00  0.00     0.023 A 
ATOM     86  C   UNL     1      -3.623 -13.201  17.171  1.00  0.00     0.012 A 
ATOM     87  C   UNL     1      -1.701 -14.177  18.302  1.00  0.00     0.148 A 
ATOM     88  C   UNL     1      -4.482 -13.878  18.036  1.00  0.00     0.002 A 
ATOM     89  C   UNL     1      -2.564 -14.887  19.127  1.00  0.00     0.091 A 
ATOM     90  F   UNL     1      -0.369 -14.285  18.409  1.00  0.00    -0.205 F 
ATOM     91  C   UNL     1      -3.954 -14.732  19.002  1.00  0.00     0.022 A 
BRANCH  89  92
ATOM     92  S   UNL     1      -1.984 -16.093  20.327  1.00  0.00     0.127 S 
ATOM     93  O   UNL     1      -2.366 -15.464  21.590  1.00  0.00    -0.237 OA
ATOM     94  O   UNL     1      -2.766 -17.278  19.974  1.00  0.00    -0.237 OA
ATOM     95  O   UNL     1      -0.550 -16.224  20.110  1.00  0.00    -0.744 OA
ENDBRANCH  89  92
ENDBRANCH  62  85
ENDBRANCH  36  37
ENDBRANCH  28  31
ENDBRANCH  26  27
ENDBRANCH  25  26
ENDBRANCH  24  25
ENDBRANCH   1  24
TORSDOF 20
