REMARK SMILES CC(C)c1ccc(NC(=O)C[C@H]2SC[C@@H](C(=O)NCCCCCCNC(=O)c3ccc(-c4c5nc(c(-c6cccc(S(=O)(=O)[O-])c6F)c6ccc([nH]6)c(-c6cccc(S(=O)(=O)[O-])c6F)c6nc(c(-c7cccc(S(=O)(=O)[O-])c7F)c7ccc4[nH]7)C=C6)C=C5)cc3)NC2=O)cc1
REMARK SMILES IDX 21 1 20 2 19 3 18 4 16 5 17 6 15 8 12 9 13 10 92 11 14 12
REMARK SMILES IDX 91 13 93 14 11 16 9 17 8 18 10 20 7 21 4 22 5 23 95 24 6 25
REMARK SMILES IDX 94 26 2 27 1 28 3 29 22 30 23 31 24 32 25 33 26 34 27 36
REMARK SMILES IDX 28 37 29 38 90 39 30 40 89 41 31 42 32 43 33 44 83 45 34 46
REMARK SMILES IDX 88 47 82 48 84 49 35 50 87 51 81 52 80 53 36 55 68 56 48 57
REMARK SMILES IDX 67 58 49 59 52 60 66 61 85 62 50 63 51 64 65 66 86 67 53 68
REMARK SMILES IDX 37 69 38 70 46 71 39 72 41 73 47 74 40 75 42 76 43 77 44 78
REMARK SMILES IDX 45 79 69 80 70 81 78 82 71 83 73 84 79 85 72 86 74 87 75 88
REMARK SMILES IDX 76 89 77 90 54 91 55 92 63 93 56 94 58 95 64 96 57 97 59 98
REMARK SMILES IDX 60 99 61 100 62 101
REMARK H PARENT 18 7 91 15 8 19 25 35 84 54 52 65
REMARK Flexibility Score: inf
ROOT
ATOM      1  C   UNL     1       3.354   1.773   2.599  1.00  0.00     0.002 C 
ENDROOT
BRANCH   1   2
ATOM      2  C   UNL     1       2.357   1.784   1.430  1.00  0.00     0.021 C 
BRANCH   2   3
ATOM      3  C   UNL     1       1.206   0.792   1.600  1.00  0.00     0.116 C 
BRANCH   3   4
ATOM      4  N   UNL     1       0.469   1.130   2.798  1.00  0.00    -0.354 N 
ATOM      5  C   UNL     1      -0.541   2.046   2.903  1.00  0.00     0.243 C 
ATOM      6  O   UNL     1      -0.662   2.639   3.974  1.00  0.00    -0.273 OA
ATOM      7  H   UNL     1       0.719   0.652   3.621  1.00  0.00     0.163 HD
BRANCH   5   8
ATOM      8  C   UNL     1      -1.625   2.045   1.804  1.00  0.00     0.181 C 
ATOM      9  C   UNL     1      -4.240   2.329   3.357  1.00  0.00     0.145 C 
ATOM     10  S   UNL     1      -3.403   3.924   2.955  1.00  0.00    -0.145 SA
ATOM     11  C   UNL     1      -3.294   1.123   3.335  1.00  0.00     0.234 C 
ATOM     12  C   UNL     1      -2.317   3.385   1.601  1.00  0.00     0.105 C 
ATOM     13  N   UNL     1      -2.506   0.964   2.220  1.00  0.00    -0.343 N 
ATOM     14  O   UNL     1      -3.260   0.220   4.166  1.00  0.00    -0.274 OA
ATOM     15  H   UNL     1      -2.538   0.125   1.706  1.00  0.00     0.164 HD
BRANCH   9  16
ATOM     16  C   UNL     1      -5.085   2.552   4.621  1.00  0.00     0.124 C 
BRANCH  16  17
ATOM     17  C   UNL     1      -5.298   1.421   5.609  1.00  0.00     0.226 C 
ATOM     18  N   UNL     1      -5.782   0.197   5.268  1.00  0.00    -0.326 N 
ATOM     19  H   UNL     1      -5.834  -0.435   6.021  1.00  0.00     0.169 HD
ATOM     20  O   UNL     1      -5.043   1.609   6.806  1.00  0.00    -0.275 OA
BRANCH  18  21
ATOM     21  C   UNL     1      -6.222  -0.335   4.052  1.00  0.00     0.041 A 
ATOM     22  C   UNL     1      -6.857  -1.529   1.583  1.00  0.00    -0.045 A 
ATOM     23  C   UNL     1      -7.143  -0.178   1.825  1.00  0.00     0.006 A 
ATOM     24  C   UNL     1      -6.289  -2.287   2.612  1.00  0.00     0.006 A 
ATOM     25  C   UNL     1      -6.842   0.410   3.056  1.00  0.00     0.026 A 
ATOM     26  C   UNL     1      -5.989  -1.697   3.841  1.00  0.00     0.026 A 
BRANCH  22  27
ATOM     27  C   UNL     1      -7.170  -2.181   0.249  1.00  0.00     0.013 C 
ATOM     28  C   UNL     1      -8.675  -2.156  -0.023  1.00  0.00     0.012 C 
ATOM     29  C   UNL     1      -6.390  -1.531  -0.896  1.00  0.00     0.012 C 
ENDBRANCH  22  27
ENDBRANCH  18  21
ENDBRANCH  16  17
ENDBRANCH   9  16
ENDBRANCH   5   8
ENDBRANCH   3   4
ENDBRANCH   2   3
ENDBRANCH   1   2
BRANCH   1  30
ATOM     30  C   UNL     1       3.965   0.402   2.909  1.00  0.00     0.002 C 
BRANCH  30  31
ATOM     31  C   UNL     1       4.613  -0.291   1.709  1.00  0.00     0.021 C 
BRANCH  31  32
ATOM     32  C   UNL     1       5.699   0.529   1.024  1.00  0.00     0.116 C 
BRANCH  32  33
ATOM     33  N   UNL     1       6.835   0.766   1.899  1.00  0.00    -0.352 N 
ATOM     34  C   UNL     1       8.166   0.550   1.650  1.00  0.00     0.251 C 
ATOM     35  H   UNL     1       6.621   1.131   2.788  1.00  0.00     0.163 HD
ATOM     36  O   UNL     1       8.986   0.622   2.564  1.00  0.00    -0.269 OA
BRANCH  34  37
ATOM     37  C   UNL     1       8.605   0.209   0.281  1.00  0.00     0.039 A 
ATOM     38  C   UNL     1       9.494  -0.852   0.099  1.00  0.00     0.014 A 
ATOM     39  C   UNL     1       8.130   0.928  -0.820  1.00  0.00     0.014 A 
ATOM     40  C   UNL     1       9.866  -1.227  -1.194  1.00  0.00     0.010 A 
ATOM     41  C   UNL     1       8.443   0.506  -2.109  1.00  0.00     0.010 A 
ATOM     42  C   UNL     1       9.322  -0.569  -2.310  1.00  0.00    -0.014 A 
BRANCH  42  43
ATOM     43  C   UNL     1       9.654  -0.996  -3.693  1.00  0.00     0.031 A 
ATOM     44  C   UNL     1      10.365  -0.052  -4.627  1.00  0.00     0.074 A 
ATOM     45  C   UNL     1       9.238  -2.199  -4.138  1.00  0.00     0.049 A 
ATOM     46  N   UNL     1      10.693  -0.227  -5.881  1.00  0.00    -0.248 NA
ATOM     47  C   UNL     1      10.730   1.271  -4.094  1.00  0.00     0.031 C 
ATOM     48  C   UNL     1       8.471  -3.172  -3.355  1.00  0.00     0.029 A 
ATOM     49  N   UNL     1       9.377  -2.799  -5.365  1.00  0.00    -0.354 N 
ATOM     50  C   UNL     1      11.258   0.972  -6.298  1.00  0.00     0.074 A 
ATOM     51  C   UNL     1      11.210   1.877  -5.171  1.00  0.00     0.031 C 
ATOM     52  C   UNL     1       8.210  -4.245  -4.120  1.00  0.00     0.029 A 
ATOM     53  C   UNL     1       8.763  -4.027  -5.453  1.00  0.00     0.049 A 
ATOM     54  H   UNL     1       9.870  -2.389  -6.112  1.00  0.00     0.167 HD
ATOM     55  C   UNL     1      11.790   1.284  -7.503  1.00  0.00     0.034 A 
ATOM     56  C   UNL     1       8.650  -4.878  -6.492  1.00  0.00     0.034 A 
ATOM     57  C   UNL     1      11.891   0.363  -8.602  1.00  0.00     0.049 A 
ATOM     58  C   UNL     1       9.299  -4.521  -7.803  1.00  0.00     0.074 A 
ATOM     59  C   UNL     1      12.521   0.547  -9.820  1.00  0.00     0.029 A 
ATOM     60  N   UNL     1      11.340  -0.907  -8.623  1.00  0.00    -0.354 N 
ATOM     61  N   UNL     1       9.992  -3.454  -8.117  1.00  0.00    -0.248 NA
ATOM     62  C   UNL     1       9.181  -5.502  -8.892  1.00  0.00     0.031 C 
ATOM     63  C   UNL     1      12.322  -0.602 -10.592  1.00  0.00     0.029 A 
ATOM     64  C   UNL     1      11.597  -1.513  -9.841  1.00  0.00     0.049 A 
ATOM     65  H   UNL     1      10.839  -1.319  -7.882  1.00  0.00     0.167 HD
ATOM     66  C   UNL     1      10.428  -3.655  -9.422  1.00  0.00     0.074 A 
ATOM     67  C   UNL     1       9.938  -4.954  -9.832  1.00  0.00     0.031 C 
ATOM     68  C   UNL     1      11.157  -2.831 -10.215  1.00  0.00     0.034 A 
BRANCH  55  69
ATOM     69  C   UNL     1      12.351   2.669  -7.694  1.00  0.00     0.023 A 
ATOM     70  C   UNL     1      13.562   3.027  -7.069  1.00  0.00     0.012 A 
ATOM     71  C   UNL     1      11.725   3.582  -8.566  1.00  0.00     0.148 A 
ATOM     72  C   UNL     1      14.129   4.282  -7.288  1.00  0.00     0.002 A 
ATOM     73  C   UNL     1      12.320   4.813  -8.816  1.00  0.00     0.091 A 
ATOM     74  F   UNL     1      10.563   3.229  -9.135  1.00  0.00    -0.205 F 
ATOM     75  C   UNL     1      13.516   5.168  -8.170  1.00  0.00     0.022 A 
BRANCH  73  76
ATOM     76  S   UNL     1      11.654   5.990  -9.997  1.00  0.00     0.127 S 
ATOM     77  O   UNL     1      11.213   7.072  -9.117  1.00  0.00    -0.237 OA
ATOM     78  O   UNL     1      12.828   6.306 -10.810  1.00  0.00    -0.237 OA
ATOM     79  O   UNL     1      10.591   5.293 -10.706  1.00  0.00    -0.744 OA
ENDBRANCH  73  76
ENDBRANCH  55  69
BRANCH  56  80
ATOM     80  C   UNL     1       7.942  -6.180  -6.326  1.00  0.00     0.023 A 
ATOM     81  C   UNL     1       8.680  -7.379  -6.375  1.00  0.00     0.012 A 
ATOM     82  C   UNL     1       6.550  -6.240  -6.125  1.00  0.00     0.148 A 
ATOM     83  C   UNL     1       8.039  -8.615  -6.271  1.00  0.00     0.002 A 
ATOM     84  C   UNL     1       5.925  -7.471  -5.964  1.00  0.00     0.091 A 
ATOM     85  F   UNL     1       5.861  -5.090  -6.095  1.00  0.00    -0.205 F 
ATOM     86  C   UNL     1       6.664  -8.661  -6.057  1.00  0.00     0.022 A 
BRANCH  84  87
ATOM     87  S   UNL     1       4.182  -7.614  -5.555  1.00  0.00     0.127 S 
ATOM     88  O   UNL     1       3.611  -8.056  -6.823  1.00  0.00    -0.237 OA
ATOM     89  O   UNL     1       4.198  -8.626  -4.498  1.00  0.00    -0.237 OA
ATOM     90  O   UNL     1       3.779  -6.288  -5.103  1.00  0.00    -0.744 OA
ENDBRANCH  84  87
ENDBRANCH  56  80
BRANCH  68  91
ATOM     91  C   UNL     1      11.515  -3.321 -11.594  1.00  0.00     0.023 A 
ATOM     92  C   UNL     1      10.524  -3.406 -12.591  1.00  0.00     0.012 A 
ATOM     93  C   UNL     1      12.853  -3.621 -11.920  1.00  0.00     0.148 A 
ATOM     94  C   UNL     1      10.852  -3.817 -13.882  1.00  0.00     0.002 A 
ATOM     95  C   UNL     1      13.181  -3.979 -13.222  1.00  0.00     0.091 A 
ATOM     96  F   UNL     1      13.779  -3.551 -10.953  1.00  0.00    -0.205 F 
ATOM     97  C   UNL     1      12.180  -4.090 -14.201  1.00  0.00     0.022 A 
BRANCH  95  98
ATOM     98  S   UNL     1      14.877  -4.250 -13.747  1.00  0.00     0.127 S 
ATOM     99  O   UNL     1      14.908  -5.701 -13.918  1.00  0.00    -0.237 OA
ATOM    100  O   UNL     1      14.941  -3.487 -14.994  1.00  0.00    -0.237 OA
ATOM    101  O   UNL     1      15.716  -3.728 -12.677  1.00  0.00    -0.744 OA
ENDBRANCH  95  98
ENDBRANCH  68  91
ENDBRANCH  42  43
ENDBRANCH  34  37
ENDBRANCH  32  33
ENDBRANCH  31  32
ENDBRANCH  30  31
ENDBRANCH   1  30
TORSDOF 20
