REMARK SMILES O=C(/C=C/c1ccc(O)c(O)c1)NCCCCCCNC(=O)c1ccc(-c2c3nc(c(-c4cccc(S(=O)(=O)[O-])c4F)c4ccc([nH]4)c(-c4cccc(S(=O)(=O)[O-])c4F)c4nc(c(-c5cccc(S(=O)(=O)[O-])c5F)c5ccc2[nH]5)C=C4)C=C3)cc1
REMARK SMILES IDX 17 1 16 2 15 3 14 4 13 5 1 6 2 7 3 9 4 10 5 11 6 12 12 13
REMARK SMILES IDX 7 14 10 15 8 16 11 17 9 19 18 21 19 22 20 23 21 24 22 26
REMARK SMILES IDX 23 27 24 28 85 29 25 30 84 31 26 32 27 33 28 34 78 35 29 36
REMARK SMILES IDX 83 37 77 38 79 39 30 40 82 41 76 42 75 43 31 45 63 46 43 47
REMARK SMILES IDX 62 48 44 49 47 50 61 51 80 52 45 53 46 54 60 56 81 57 48 58
REMARK SMILES IDX 32 59 33 60 41 61 34 62 36 63 42 64 35 65 37 66 38 67 39 68
REMARK SMILES IDX 40 69 64 70 65 71 73 72 66 73 68 74 74 75 67 76 69 77 70 78
REMARK SMILES IDX 71 79 72 80 49 81 50 82 58 83 51 84 53 85 59 86 52 87 54 88
REMARK SMILES IDX 55 89 56 90 57 91
REMARK H PARENT 13 8 11 18 9 20 20 25 79 44 47 55
REMARK Flexibility Score: inf
ROOT
ATOM      1  C   UNL     1       4.675   4.060  -1.128  1.00  0.00     0.002 C 
ENDROOT
BRANCH   1   2
ATOM      2  C   UNL     1       4.214   3.609   0.261  1.00  0.00     0.002 C 
BRANCH   2   3
ATOM      3  C   UNL     1       2.715   3.305   0.390  1.00  0.00     0.021 C 
BRANCH   3   4
ATOM      4  C   UNL     1       2.197   2.233  -0.569  1.00  0.00     0.116 C 
BRANCH   4   5
ATOM      5  N   UNL     1       2.872   0.965  -0.365  1.00  0.00    -0.353 N 
ATOM      6  O   UNL     1       1.047  -0.169   0.449  1.00  0.00    -0.270 OA
ATOM      7  C   UNL     1       2.241  -0.121   0.174  1.00  0.00     0.243 C 
ATOM      8  H   UNL     1       3.819   0.884  -0.623  1.00  0.00     0.163 HD
BRANCH   7   9
ATOM      9  C   UNL     1       3.078  -1.327   0.406  1.00  0.00     0.072 C 
ATOM     10  C   UNL     1       4.417  -1.368   0.488  1.00  0.00     0.014 C 
BRANCH  10  11
ATOM     11  C   UNL     1       5.148  -2.601   0.817  1.00  0.00    -0.022 A 
ATOM     12  C   UNL     1       4.786  -3.848   0.277  1.00  0.00     0.012 A 
ATOM     13  C   UNL     1       6.251  -2.526   1.677  1.00  0.00     0.058 A 
ATOM     14  C   UNL     1       5.487  -5.010   0.619  1.00  0.00     0.051 A 
ATOM     15  C   UNL     1       6.941  -3.684   2.012  1.00  0.00     0.157 A 
ATOM     16  C   UNL     1       6.561  -4.919   1.494  1.00  0.00     0.157 A 
BRANCH  15  17
ATOM     17  O   UNL     1       8.003  -3.603   2.868  1.00  0.00    -0.504 OA
ATOM     18  H   UNL     1       8.476  -4.378   3.101  1.00  0.00     0.293 HD
ENDBRANCH  15  17
BRANCH  16  19
ATOM     19  O   UNL     1       7.277  -6.019   1.877  1.00  0.00    -0.504 OA
ATOM     20  H   UNL     1       7.047  -6.865   1.547  1.00  0.00     0.293 HD
ENDBRANCH  16  19
ENDBRANCH  10  11
ENDBRANCH   7   9
ENDBRANCH   4   5
ENDBRANCH   3   4
ENDBRANCH   2   3
ENDBRANCH   1   2
BRANCH   1  21
ATOM     21  C   UNL     1       3.986   5.314  -1.670  1.00  0.00     0.021 C 
BRANCH  21  22
ATOM     22  C   UNL     1       4.132   6.559  -0.799  1.00  0.00     0.116 C 
BRANCH  22  23
ATOM     23  N   UNL     1       5.519   6.982  -0.663  1.00  0.00    -0.352 N 
ATOM     24  C   UNL     1       6.080   8.215  -0.888  1.00  0.00     0.251 C 
ATOM     25  H   UNL     1       6.145   6.283  -0.365  1.00  0.00     0.163 HD
ATOM     26  O   UNL     1       7.304   8.340  -0.884  1.00  0.00    -0.269 OA
BRANCH  24  27
ATOM     27  C   UNL     1       5.218   9.386  -1.159  1.00  0.00     0.039 A 
ATOM     28  C   UNL     1       5.563  10.254  -2.199  1.00  0.00     0.014 A 
ATOM     29  C   UNL     1       4.072   9.628  -0.397  1.00  0.00     0.014 A 
ATOM     30  C   UNL     1       4.723  11.324  -2.516  1.00  0.00     0.010 A 
ATOM     31  C   UNL     1       3.197  10.647  -0.764  1.00  0.00     0.010 A 
ATOM     32  C   UNL     1       3.512  11.507  -1.827  1.00  0.00    -0.014 A 
BRANCH  32  33
ATOM     33  C   UNL     1       2.552  12.568  -2.230  1.00  0.00     0.031 A 
ATOM     34  C   UNL     1       2.176  13.668  -1.276  1.00  0.00     0.074 A 
ATOM     35  C   UNL     1       1.946  12.489  -3.431  1.00  0.00     0.049 A 
ATOM     36  N   UNL     1       1.326  14.648  -1.442  1.00  0.00    -0.248 NA
ATOM     37  C   UNL     1       2.820  13.650   0.047  1.00  0.00     0.031 C 
ATOM     38  C   UNL     1       2.155  11.422  -4.413  1.00  0.00     0.029 A 
ATOM     39  N   UNL     1       1.008  13.302  -4.019  1.00  0.00    -0.354 N 
ATOM     40  C   UNL     1       1.307  15.344  -0.239  1.00  0.00     0.074 A 
ATOM     41  C   UNL     1       2.202  14.648   0.661  1.00  0.00     0.031 C 
ATOM     42  C   UNL     1       1.371  11.646  -5.478  1.00  0.00     0.029 A 
ATOM     43  C   UNL     1       0.578  12.849  -5.244  1.00  0.00     0.049 A 
ATOM     44  H   UNL     1       0.675  14.129  -3.602  1.00  0.00     0.167 HD
ATOM     45  C   UNL     1       0.630  16.473   0.082  1.00  0.00     0.034 A 
ATOM     46  C   UNL     1      -0.361  13.334  -6.080  1.00  0.00     0.034 A 
ATOM     47  C   UNL     1      -0.245  17.172  -0.822  1.00  0.00     0.049 A 
ATOM     48  C   UNL     1      -1.082  14.602  -5.718  1.00  0.00     0.074 A 
ATOM     49  C   UNL     1      -0.907  18.372  -0.625  1.00  0.00     0.029 A 
ATOM     50  N   UNL     1      -0.599  16.726  -2.087  1.00  0.00    -0.354 N 
ATOM     51  N   UNL     1      -0.961  15.340  -4.641  1.00  0.00    -0.248 NA
ATOM     52  C   UNL     1      -2.043  15.124  -6.699  1.00  0.00     0.031 C 
ATOM     53  C   UNL     1      -1.692  18.630  -1.754  1.00  0.00     0.029 A 
ATOM     54  C   UNL     1      -1.487  17.614  -2.674  1.00  0.00     0.049 A 
ATOM     55  H   UNL     1      -0.268  15.899  -2.506  1.00  0.00     0.167 HD
ATOM     56  C   UNL     1      -1.809  16.426  -4.825  1.00  0.00     0.074 A 
ATOM     57  C   UNL     1      -2.419  16.261  -6.129  1.00  0.00     0.031 C 
ATOM     58  C   UNL     1      -2.066  17.459  -3.985  1.00  0.00     0.034 A 
BRANCH  45  59
ATOM     59  C   UNL     1       0.841  17.040   1.464  1.00  0.00     0.023 A 
ATOM     60  C   UNL     1       2.094  17.590   1.810  1.00  0.00     0.012 A 
ATOM     61  C   UNL     1      -0.202  17.057   2.410  1.00  0.00     0.148 A 
ATOM     62  C   UNL     1       2.322  18.095   3.090  1.00  0.00     0.002 A 
ATOM     63  C   UNL     1       0.017  17.610   3.667  1.00  0.00     0.091 A 
ATOM     64  F   UNL     1      -1.381  16.515   2.074  1.00  0.00    -0.205 F 
ATOM     65  C   UNL     1       1.282  18.113   4.014  1.00  0.00     0.022 A 
BRANCH  63  66
ATOM     66  S   UNL     1      -1.282  17.756   4.899  1.00  0.00     0.127 S 
ATOM     67  O   UNL     1      -0.887  16.734   5.867  1.00  0.00    -0.237 OA
ATOM     68  O   UNL     1      -1.111  19.134   5.364  1.00  0.00    -0.237 OA
ATOM     69  O   UNL     1      -2.531  17.505   4.196  1.00  0.00    -0.744 OA
ENDBRANCH  63  66
ENDBRANCH  45  59
BRANCH  46  70
ATOM     70  C   UNL     1      -0.629  12.632  -7.367  1.00  0.00     0.023 A 
ATOM     71  C   UNL     1      -0.216  13.216  -8.579  1.00  0.00     0.012 A 
ATOM     72  C   UNL     1      -1.237  11.361  -7.386  1.00  0.00     0.148 A 
ATOM     73  C   UNL     1      -0.424  12.557  -9.791  1.00  0.00     0.002 A 
ATOM     74  C   UNL     1      -1.387  10.685  -8.590  1.00  0.00     0.091 A 
ATOM     75  F   UNL     1      -1.627  10.828  -6.220  1.00  0.00    -0.205 F 
ATOM     76  C   UNL     1      -0.997  11.288  -9.796  1.00  0.00     0.022 A 
BRANCH  74  77
ATOM     77  S   UNL     1      -1.986   8.994  -8.680  1.00  0.00     0.127 S 
ATOM     78  O   UNL     1      -3.246   9.161  -9.399  1.00  0.00    -0.237 OA
ATOM     79  O   UNL     1      -0.921   8.341  -9.443  1.00  0.00    -0.237 OA
ATOM     80  O   UNL     1      -2.104   8.541  -7.301  1.00  0.00    -0.744 OA
ENDBRANCH  74  77
ENDBRANCH  46  70
BRANCH  58  81
ATOM     81  C   UNL     1      -3.036  18.515  -4.453  1.00  0.00     0.023 A 
ATOM     82  C   UNL     1      -4.410  18.219  -4.544  1.00  0.00     0.012 A 
ATOM     83  C   UNL     1      -2.591  19.822  -4.739  1.00  0.00     0.148 A 
ATOM     84  C   UNL     1      -5.322  19.195  -4.947  1.00  0.00     0.002 A 
ATOM     85  C   UNL     1      -3.512  20.803  -5.088  1.00  0.00     0.091 A 
ATOM     86  F   UNL     1      -1.278  20.081  -4.663  1.00  0.00    -0.205 F 
ATOM     87  C   UNL     1      -4.875  20.488  -5.206  1.00  0.00     0.022 A 
BRANCH  85  88
ATOM     88  S   UNL     1      -3.044  22.518  -5.347  1.00  0.00     0.127 S 
ATOM     89  O   UNL     1      -3.231  22.663  -6.790  1.00  0.00    -0.237 OA
ATOM     90  O   UNL     1      -4.025  23.233  -4.530  1.00  0.00    -0.237 OA
ATOM     91  O   UNL     1      -1.668  22.636  -4.883  1.00  0.00    -0.744 OA
ENDBRANCH  85  88
ENDBRANCH  58  81
ENDBRANCH  32  33
ENDBRANCH  24  27
ENDBRANCH  22  23
ENDBRANCH  21  22
ENDBRANCH   1  21
TORSDOF 19
