REMARK SMILES C[NH2+]C[C@H](C)C(=O)N1CCC[C@@H]1C(=O)NCCCCCCNC(=O)c1ccc(-c2c3nc(c(-c4cccc(S(=O)(=O)[O-])c4F)c4ccc([nH]4)c(-c4cccc(S(=O)(=O)[O-])c4F)c4nc(c(-c5cccc(S(=O)(=O)[O-])c5F)c5ccc2[nH]5)C=C4)C=C3)cc1
REMARK SMILES IDX 18 1 17 2 16 3 15 4 13 5 14 6 12 8 8 9 9 10 10 11 11 12 6 13
REMARK SMILES IDX 7 14 4 15 5 16 3 17 2 18 1 19 19 22 20 23 21 24 22 25 23 26
REMARK SMILES IDX 24 28 25 29 26 30 87 31 27 32 86 33 28 34 29 35 30 36 80 37
REMARK SMILES IDX 31 38 85 39 79 40 81 41 32 42 84 43 78 44 77 45 33 47 65 48
REMARK SMILES IDX 45 49 64 50 46 51 49 52 63 53 82 54 47 55 48 56 62 58 83 59
REMARK SMILES IDX 50 60 34 61 35 62 43 63 36 64 38 65 44 66 37 67 39 68 40 69
REMARK SMILES IDX 41 70 42 71 66 72 67 73 75 74 68 75 70 76 76 77 69 78 71 79
REMARK SMILES IDX 72 80 73 81 74 82 51 83 52 84 60 85 53 86 55 87 61 88 54 89
REMARK SMILES IDX 56 90 57 91 58 92 59 93
REMARK H PARENT 15 7 2 20 2 21 22 27 81 46 49 57
REMARK Flexibility Score: inf
ROOT
ATOM      1  C   UNL     1      -2.619   3.908  -6.550  1.00  0.00     0.002 C 
ENDROOT
BRANCH   1   2
ATOM      2  C   UNL     1      -3.064   2.498  -6.149  1.00  0.00     0.021 C 
BRANCH   2   3
ATOM      3  C   UNL     1      -2.924   2.228  -4.656  1.00  0.00     0.116 C 
BRANCH   3   4
ATOM      4  N   UNL     1      -4.011   2.810  -3.900  1.00  0.00    -0.354 N 
ATOM      5  C   UNL     1      -4.926   2.225  -3.073  1.00  0.00     0.242 C 
ATOM      6  O   UNL     1      -5.888   2.921  -2.728  1.00  0.00    -0.273 OA
ATOM      7  H   UNL     1      -4.107   3.785  -3.997  1.00  0.00     0.163 HD
BRANCH   5   8
ATOM      8  C   UNL     1      -4.876   0.720  -2.717  1.00  0.00     0.174 C 
ATOM      9  N   UNL     1      -3.553   0.229  -2.329  1.00  0.00    -0.330 N 
ATOM     10  C   UNL     1      -3.231  -1.010  -3.011  1.00  0.00     0.120 C 
ATOM     11  C   UNL     1      -4.152  -1.073  -4.220  1.00  0.00     0.024 C 
ATOM     12  C   UNL     1      -5.328  -0.157  -3.888  1.00  0.00     0.037 C 
BRANCH   9  13
ATOM     13  C   UNL     1      -2.990   0.697  -1.159  1.00  0.00     0.231 C 
ATOM     14  O   UNL     1      -3.666   1.364  -0.367  1.00  0.00    -0.274 OA
BRANCH  13  15
ATOM     15  C   UNL     1      -1.482   0.588  -0.914  1.00  0.00     0.130 C 
ATOM     16  C   UNL     1      -0.910  -0.828  -0.895  1.00  0.00     0.024 C 
BRANCH  15  17
ATOM     17  C   UNL     1      -0.709   1.503  -1.885  1.00  0.00     0.273 C 
BRANCH  17  18
ATOM     18  N   UNL     1      -1.104   2.920  -1.873  1.00  0.00    -0.348 N 
ATOM     19  C   UNL     1      -0.516   3.663  -0.769  1.00  0.00     0.330 C 
ATOM     20  H   UNL     1      -0.806   3.349  -2.749  1.00  0.00     0.346 HD
ATOM     21  H   UNL     1      -2.117   2.954  -1.758  1.00  0.00     0.346 HD
ENDBRANCH  17  18
ENDBRANCH  15  17
ENDBRANCH  13  15
ENDBRANCH   9  13
ENDBRANCH   5   8
ENDBRANCH   3   4
ENDBRANCH   2   3
ENDBRANCH   1   2
BRANCH   1  22
ATOM     22  C   UNL     1      -1.175   4.267  -6.172  1.00  0.00     0.002 C 
BRANCH  22  23
ATOM     23  C   UNL     1      -0.108   3.280  -6.655  1.00  0.00     0.021 C 
BRANCH  23  24
ATOM     24  C   UNL     1      -0.073   3.079  -8.167  1.00  0.00     0.116 C 
BRANCH  24  25
ATOM     25  N   UNL     1       0.170   4.328  -8.875  1.00  0.00    -0.352 N 
ATOM     26  C   UNL     1       1.156   4.645  -9.771  1.00  0.00     0.251 C 
ATOM     27  H   UNL     1      -0.469   5.052  -8.680  1.00  0.00     0.163 HD
ATOM     28  O   UNL     1       1.334   5.819 -10.098  1.00  0.00    -0.269 OA
BRANCH  26  29
ATOM     29  C   UNL     1       2.010   3.581 -10.336  1.00  0.00     0.039 A 
ATOM     30  C   UNL     1       3.388   3.792 -10.416  1.00  0.00     0.014 A 
ATOM     31  C   UNL     1       1.453   2.381 -10.788  1.00  0.00     0.014 A 
ATOM     32  C   UNL     1       4.215   2.773 -10.891  1.00  0.00     0.010 A 
ATOM     33  C   UNL     1       2.285   1.342 -11.194  1.00  0.00     0.010 A 
ATOM     34  C   UNL     1       3.675   1.526 -11.247  1.00  0.00    -0.014 A 
BRANCH  34  35
ATOM     35  C   UNL     1       4.553   0.392 -11.631  1.00  0.00     0.031 A 
ATOM     36  C   UNL     1       4.470  -0.214 -13.004  1.00  0.00     0.074 A 
ATOM     37  C   UNL     1       5.371  -0.146 -10.704  1.00  0.00     0.049 A 
ATOM     38  N   UNL     1       5.128  -1.232 -13.495  1.00  0.00    -0.248 NA
ATOM     39  C   UNL     1       3.505   0.384 -13.941  1.00  0.00     0.031 C 
ATOM     40  C   UNL     1       5.482   0.302  -9.314  1.00  0.00     0.029 A 
ATOM     41  N   UNL     1       6.242  -1.204 -10.781  1.00  0.00    -0.354 N 
ATOM     42  C   UNL     1       4.640  -1.417 -14.783  1.00  0.00     0.074 A 
ATOM     43  C   UNL     1       3.606  -0.425 -14.987  1.00  0.00     0.031 C 
ATOM     44  C   UNL     1       6.373  -0.469  -8.672  1.00  0.00     0.029 A 
ATOM     45  C   UNL     1       6.868  -1.489  -9.590  1.00  0.00     0.049 A 
ATOM     46  H   UNL     1       6.403  -1.711 -11.610  1.00  0.00     0.167 HD
ATOM     47  C   UNL     1       5.034  -2.313 -15.718  1.00  0.00     0.034 A 
ATOM     48  C   UNL     1       7.734  -2.470  -9.267  1.00  0.00     0.034 A 
ATOM     49  C   UNL     1       6.082  -3.279 -15.519  1.00  0.00     0.049 A 
ATOM     50  C   UNL     1       8.169  -3.439 -10.332  1.00  0.00     0.074 A 
ATOM     51  C   UNL     1       6.614  -4.171 -16.434  1.00  0.00     0.029 A 
ATOM     52  N   UNL     1       6.745  -3.495 -14.320  1.00  0.00    -0.354 N 
ATOM     53  N   UNL     1       7.816  -3.493 -11.593  1.00  0.00    -0.248 NA
ATOM     54  C   UNL     1       9.148  -4.462  -9.938  1.00  0.00     0.031 C 
ATOM     55  C   UNL     1       7.573  -4.950 -15.778  1.00  0.00     0.029 A 
ATOM     56  C   UNL     1       7.666  -4.519 -14.465  1.00  0.00     0.049 A 
ATOM     57  H   UNL     1       6.584  -2.993 -13.489  1.00  0.00     0.167 HD
ATOM     58  C   UNL     1       8.550  -4.533 -12.151  1.00  0.00     0.074 A 
ATOM     59  C   UNL     1       9.388  -5.064 -11.095  1.00  0.00     0.031 C 
ATOM     60  C   UNL     1       8.523  -5.014 -13.418  1.00  0.00     0.034 A 
BRANCH  47  61
ATOM     61  C   UNL     1       4.356  -2.268 -17.064  1.00  0.00     0.023 A 
ATOM     62  C   UNL     1       4.604  -1.188 -17.935  1.00  0.00     0.012 A 
ATOM     63  C   UNL     1       3.526  -3.323 -17.492  1.00  0.00     0.148 A 
ATOM     64  C   UNL     1       4.011  -1.140 -19.197  1.00  0.00     0.002 A 
ATOM     65  C   UNL     1       2.977  -3.292 -18.769  1.00  0.00     0.091 A 
ATOM     66  F   UNL     1       3.286  -4.332 -16.644  1.00  0.00    -0.205 F 
ATOM     67  C   UNL     1       3.208  -2.196 -19.617  1.00  0.00     0.022 A 
BRANCH  65  68
ATOM     68  S   UNL     1       1.993  -4.639 -19.435  1.00  0.00     0.127 S 
ATOM     69  O   UNL     1       0.665  -4.031 -19.498  1.00  0.00    -0.237 OA
ATOM     70  O   UNL     1       2.623  -4.864 -20.737  1.00  0.00    -0.237 OA
ATOM     71  O   UNL     1       2.131  -5.742 -18.494  1.00  0.00    -0.744 OA
ENDBRANCH  65  68
ENDBRANCH  47  61
BRANCH  48  72
ATOM     72  C   UNL     1       8.281  -2.554  -7.884  1.00  0.00     0.023 A 
ATOM     73  C   UNL     1       9.640  -2.264  -7.655  1.00  0.00     0.012 A 
ATOM     74  C   UNL     1       7.458  -2.892  -6.792  1.00  0.00     0.148 A 
ATOM     75  C   UNL     1      10.177  -2.342  -6.370  1.00  0.00     0.002 A 
ATOM     76  C   UNL     1       7.985  -2.911  -5.507  1.00  0.00     0.091 A 
ATOM     77  F   UNL     1       6.169  -3.174  -7.032  1.00  0.00    -0.205 F 
ATOM     78  C   UNL     1       9.349  -2.656  -5.295  1.00  0.00     0.022 A 
BRANCH  76  79
ATOM     79  S   UNL     1       6.965  -3.172  -4.052  1.00  0.00     0.127 S 
ATOM     80  O   UNL     1       7.414  -4.487  -3.603  1.00  0.00    -0.237 OA
ATOM     81  O   UNL     1       7.369  -2.056  -3.196  1.00  0.00    -0.237 OA
ATOM     82  O   UNL     1       5.586  -3.101  -4.517  1.00  0.00    -0.744 OA
ENDBRANCH  76  79
ENDBRANCH  48  72
BRANCH  60  83
ATOM     83  C   UNL     1       9.445  -6.159 -13.749  1.00  0.00     0.023 A 
ATOM     84  C   UNL     1       9.183  -7.444 -13.232  1.00  0.00     0.012 A 
ATOM     85  C   UNL     1      10.533  -5.976 -14.625  1.00  0.00     0.148 A 
ATOM     86  C   UNL     1      10.011  -8.519 -13.552  1.00  0.00     0.002 A 
ATOM     87  C   UNL     1      11.322  -7.062 -14.981  1.00  0.00     0.091 A 
ATOM     88  F   UNL     1      10.775  -4.743 -15.093  1.00  0.00    -0.205 F 
ATOM     89  C   UNL     1      11.072  -8.331 -14.434  1.00  0.00     0.022 A 
BRANCH  87  90
ATOM     90  S   UNL     1      12.650  -6.938 -16.184  1.00  0.00     0.127 S 
ATOM     91  O   UNL     1      13.833  -7.105 -15.341  1.00  0.00    -0.237 OA
ATOM     92  O   UNL     1      12.369  -8.066 -17.072  1.00  0.00    -0.237 OA
ATOM     93  O   UNL     1      12.509  -5.628 -16.806  1.00  0.00    -0.744 OA
ENDBRANCH  87  90
ENDBRANCH  60  83
ENDBRANCH  34  35
ENDBRANCH  26  29
ENDBRANCH  24  25
ENDBRANCH  23  24
ENDBRANCH  22  23
ENDBRANCH   1  22
TORSDOF 20
