REMARK SMILES CC[C@@H](C(=O)NCCCCCCNC(=O)c1ccc(-c2c3nc(c(-c4cccc(S(=O)(=O)[O-])c4F)c4ccc([nH]4)c(-c4cccc(S(=O)(=O)[O-])c4F)c4nc(c(-c5cccc(S(=O)(=O)[O-])c5F)c5ccc2[nH]5)C=C4)C=C3)cc1)N1C(=O)/C(=C/c2ccccc2[N+](=O)[O-])SC1=S
REMARK SMILES IDX 9 1 8 2 7 3 6 4 4 5 5 6 3 8 2 9 1 10 79 11 80 12 94 13 81 14
REMARK SMILES IDX 82 15 93 16 95 17 83 18 84 19 85 20 89 21 86 22 88 23 87 24
REMARK SMILES IDX 90 25 91 26 92 27 10 28 11 29 12 30 13 31 14 32 15 34 16 35
REMARK SMILES IDX 17 36 78 37 18 38 77 39 19 40 20 41 21 42 71 43 22 44 76 45
REMARK SMILES IDX 70 46 72 47 23 48 75 49 69 50 68 51 24 53 56 54 36 55 55 56
REMARK SMILES IDX 37 57 40 58 54 59 73 60 38 61 39 62 53 64 74 65 41 66 25 67
REMARK SMILES IDX 26 68 34 69 27 70 29 71 35 72 28 73 30 74 31 75 32 76 33 77
REMARK SMILES IDX 57 78 58 79 66 80 59 81 61 82 67 83 60 84 62 85 63 86 64 87
REMARK SMILES IDX 65 88 42 89 43 90 51 91 44 92 46 93 52 94 45 95 47 96 48 97
REMARK SMILES IDX 49 98 50 99
REMARK H PARENT 6 7 13 33 72 52 40 63
REMARK Flexibility Score: inf
ROOT
ATOM      1  C   UNL     1       0.709  -3.373   2.170  1.00  0.00     0.002 C 
ENDROOT
BRANCH   1   2
ATOM      2  C   UNL     1       0.975  -2.051   1.445  1.00  0.00     0.021 C 
BRANCH   2   3
ATOM      3  C   UNL     1       1.552  -2.209   0.034  1.00  0.00     0.116 C 
BRANCH   3   4
ATOM      4  N   UNL     1       0.474  -2.487  -0.899  1.00  0.00    -0.354 N 
ATOM      5  C   UNL     1      -0.139  -1.659  -1.795  1.00  0.00     0.243 C 
ATOM      6  O   UNL     1      -1.278  -1.961  -2.169  1.00  0.00    -0.273 OA
ATOM      7  H   UNL     1       0.135  -3.411  -0.883  1.00  0.00     0.163 HD
BRANCH   5   8
ATOM      8  C   UNL     1       0.565  -0.371  -2.300  1.00  0.00     0.181 C 
BRANCH   8   9
ATOM      9  C   UNL     1      -0.095   0.791  -1.499  1.00  0.00     0.032 C 
ATOM     10  C   UNL     1       0.581   1.112  -0.176  1.00  0.00     0.006 C 
ENDBRANCH   8   9
BRANCH   8  11
ATOM     11  N   UNL     1       0.333  -0.211  -3.771  1.00  0.00    -0.280 N 
ATOM     12  C   UNL     1       0.212  -1.319  -4.596  1.00  0.00     0.266 C 
ATOM     13  C   UNL     1       0.612   0.929  -4.496  1.00  0.00     0.149 C 
ATOM     14  O   UNL     1       0.509  -2.482  -4.324  1.00  0.00    -0.268 OA
ATOM     15  C   UNL     1      -0.207  -0.905  -5.963  1.00  0.00     0.081 C 
ATOM     16  S   UNL     1      -0.140   0.805  -6.080  1.00  0.00    -0.054 SA
ATOM     17  S   UNL     1       1.573   2.237  -4.103  1.00  0.00    -0.052 S 
ATOM     18  C   UNL     1      -0.544  -1.770  -6.931  1.00  0.00     0.036 C 
BRANCH  18  19
ATOM     19  C   UNL     1      -0.942  -1.377  -8.295  1.00  0.00     0.054 A 
ATOM     20  C   UNL     1      -2.290  -1.563  -8.644  1.00  0.00     0.015 A 
ATOM     21  C   UNL     1      -0.096  -0.770  -9.243  1.00  0.00     0.276 A 
ATOM     22  C   UNL     1      -2.778  -1.128  -9.882  1.00  0.00     0.001 A 
ATOM     23  C   UNL     1      -0.587  -0.320 -10.480  1.00  0.00     0.086 A 
ATOM     24  C   UNL     1      -1.932  -0.498 -10.793  1.00  0.00     0.007 A 
BRANCH  21  25
ATOM     25  N   UNL     1       1.331  -0.589  -8.984  1.00  0.00     0.063 N 
ATOM     26  O   UNL     1       1.845   0.472  -9.367  1.00  0.00    -0.258 OA
ATOM     27  O   UNL     1       1.943  -1.517  -8.440  1.00  0.00    -0.258 OA
ENDBRANCH  21  25
ENDBRANCH  18  19
ENDBRANCH   8  11
ENDBRANCH   5   8
ENDBRANCH   3   4
ENDBRANCH   2   3
ENDBRANCH   1   2
BRANCH   1  28
ATOM     28  C   UNL     1       1.961  -4.113   2.646  1.00  0.00     0.002 C 
BRANCH  28  29
ATOM     29  C   UNL     1       2.913  -3.302   3.531  1.00  0.00     0.021 C 
BRANCH  29  30
ATOM     30  C   UNL     1       2.272  -2.638   4.748  1.00  0.00     0.116 C 
BRANCH  30  31
ATOM     31  N   UNL     1       1.705  -3.607   5.670  1.00  0.00    -0.352 N 
ATOM     32  C   UNL     1       1.930  -3.764   7.015  1.00  0.00     0.251 C 
ATOM     33  H   UNL     1       1.067  -4.243   5.273  1.00  0.00     0.163 HD
ATOM     34  O   UNL     1       1.497  -4.757   7.593  1.00  0.00    -0.269 OA
BRANCH  32  35
ATOM     35  C   UNL     1       2.699  -2.747   7.767  1.00  0.00     0.039 A 
ATOM     36  C   UNL     1       3.660  -3.173   8.689  1.00  0.00     0.014 A 
ATOM     37  C   UNL     1       2.449  -1.382   7.598  1.00  0.00     0.014 A 
ATOM     38  C   UNL     1       4.391  -2.231   9.418  1.00  0.00     0.010 A 
ATOM     39  C   UNL     1       3.224  -0.444   8.277  1.00  0.00     0.010 A 
ATOM     40  C   UNL     1       4.187  -0.858   9.210  1.00  0.00    -0.014 A 
BRANCH  40  41
ATOM     41  C   UNL     1       4.941   0.159   9.988  1.00  0.00     0.031 A 
ATOM     42  C   UNL     1       4.212   1.063  10.947  1.00  0.00     0.074 A 
ATOM     43  C   UNL     1       6.263   0.318   9.784  1.00  0.00     0.049 A 
ATOM     44  N   UNL     1       4.682   2.037  11.682  1.00  0.00    -0.248 NA
ATOM     45  C   UNL     1       2.758   0.866  11.074  1.00  0.00     0.031 C 
ATOM     46  C   UNL     1       7.069  -0.441   8.826  1.00  0.00     0.029 A 
ATOM     47  N   UNL     1       7.157   1.190  10.354  1.00  0.00    -0.354 N 
ATOM     48  C   UNL     1       3.582   2.593  12.325  1.00  0.00     0.074 A 
ATOM     49  C   UNL     1       2.416   1.870  11.867  1.00  0.00     0.031 C 
ATOM     50  C   UNL     1       8.339  -0.004   8.877  1.00  0.00     0.029 A 
ATOM     51  C   UNL     1       8.435   1.074   9.858  1.00  0.00     0.049 A 
ATOM     52  H   UNL     1       6.907   1.837  11.052  1.00  0.00     0.167 HD
ATOM     53  C   UNL     1       3.546   3.591  13.241  1.00  0.00     0.034 A 
ATOM     54  C   UNL     1       9.557   1.753  10.166  1.00  0.00     0.034 A 
ATOM     55  C   UNL     1       4.712   4.266  13.741  1.00  0.00     0.049 A 
ATOM     56  C   UNL     1       9.505   2.799  11.248  1.00  0.00     0.074 A 
ATOM     57  C   UNL     1       4.792   5.237  14.723  1.00  0.00     0.029 A 
ATOM     58  N   UNL     1       6.007   4.032  13.303  1.00  0.00    -0.354 N 
ATOM     59  N   UNL     1       8.477   3.205  11.954  1.00  0.00    -0.248 NA
ATOM     60  C   UNL     1      10.775   3.444  11.612  1.00  0.00     0.031 C 
ATOM     61  C   UNL     1       6.137   5.591  14.879  1.00  0.00     0.029 A 
ATOM     62  C   UNL     1       6.895   4.831  14.002  1.00  0.00     0.049 A 
ATOM     63  H   UNL     1       6.258   3.392  12.599  1.00  0.00     0.167 HD
ATOM     64  C   UNL     1       8.983   4.117  12.874  1.00  0.00     0.074 A 
ATOM     65  C   UNL     1      10.411   4.192  12.645  1.00  0.00     0.031 C 
ATOM     66  C   UNL     1       8.322   4.839  13.813  1.00  0.00     0.034 A 
BRANCH  53  67
ATOM     67  C   UNL     1       2.202   3.963  13.812  1.00  0.00     0.023 A 
ATOM     68  C   UNL     1       1.564   3.080  14.707  1.00  0.00     0.012 A 
ATOM     69  C   UNL     1       1.590   5.193  13.503  1.00  0.00     0.148 A 
ATOM     70  C   UNL     1       0.322   3.396  15.256  1.00  0.00     0.002 A 
ATOM     71  C   UNL     1       0.371   5.521  14.088  1.00  0.00     0.091 A 
ATOM     72  F   UNL     1       2.198   6.011  12.632  1.00  0.00    -0.205 F 
ATOM     73  C   UNL     1      -0.269   4.620  14.955  1.00  0.00     0.022 A 
BRANCH  71  74
ATOM     74  S   UNL     1      -0.431   7.106  13.821  1.00  0.00     0.127 S 
ATOM     75  O   UNL     1      -1.515   6.739  12.910  1.00  0.00    -0.237 OA
ATOM     76  O   UNL     1      -0.867   7.466  15.171  1.00  0.00    -0.237 OA
ATOM     77  O   UNL     1       0.591   7.981  13.264  1.00  0.00    -0.744 OA
ENDBRANCH  71  74
ENDBRANCH  53  67
BRANCH  54  78
ATOM     78  C   UNL     1      10.847   1.390   9.514  1.00  0.00     0.023 A 
ATOM     79  C   UNL     1      11.833   0.723  10.268  1.00  0.00     0.012 A 
ATOM     80  C   UNL     1      11.092   1.669   8.156  1.00  0.00     0.148 A 
ATOM     81  C   UNL     1      13.052   0.367   9.690  1.00  0.00     0.002 A 
ATOM     82  C   UNL     1      12.289   1.265   7.573  1.00  0.00     0.091 A 
ATOM     83  F   UNL     1      10.148   2.316   7.459  1.00  0.00    -0.205 F 
ATOM     84  C   UNL     1      13.276   0.629   8.342  1.00  0.00     0.022 A 
BRANCH  82  85
ATOM     85  S   UNL     1      12.608   1.446   5.815  1.00  0.00     0.127 S 
ATOM     86  O   UNL     1      13.566   2.548   5.796  1.00  0.00    -0.237 OA
ATOM     87  O   UNL     1      13.167   0.138   5.470  1.00  0.00    -0.237 OA
ATOM     88  O   UNL     1      11.312   1.719   5.210  1.00  0.00    -0.744 OA
ENDBRANCH  82  85
ENDBRANCH  54  78
BRANCH  66  89
ATOM     89  C   UNL     1       9.137   5.737  14.705  1.00  0.00     0.023 A 
ATOM     90  C   UNL     1       9.671   6.936  14.193  1.00  0.00     0.012 A 
ATOM     91  C   UNL     1       9.313   5.428  16.068  1.00  0.00     0.148 A 
ATOM     92  C   UNL     1      10.395   7.797  15.017  1.00  0.00     0.002 A 
ATOM     93  C   UNL     1       9.997   6.313  16.893  1.00  0.00     0.091 A 
ATOM     94  F   UNL     1       8.818   4.271  16.533  1.00  0.00    -0.205 F 
ATOM     95  C   UNL     1      10.548   7.492  16.368  1.00  0.00     0.022 A 
BRANCH  93  96
ATOM     96  S   UNL     1      10.152   6.034  18.662  1.00  0.00     0.127 S 
ATOM     97  O   UNL     1      11.497   5.473  18.760  1.00  0.00    -0.237 OA
ATOM     98  O   UNL     1      10.013   7.384  19.209  1.00  0.00    -0.237 OA
ATOM     99  O   UNL     1       9.062   5.132  19.013  1.00  0.00    -0.744 OA
ENDBRANCH  93  96
ENDBRANCH  66  89
ENDBRANCH  40  41
ENDBRANCH  32  35
ENDBRANCH  30  31
ENDBRANCH  29  30
ENDBRANCH  28  29
ENDBRANCH   1  28
TORSDOF 20
