REMARK SMILES CCN(CC)C(=O)[C@@H]1CC=CC[C@H]1C(=O)Nc1ccc(C(=O)NCCCCCCNC(=O)c2ccc(-c3c4nc(c(-c5cccc(S(=O)(=O)[O-])c5F)c5ccc([nH]5)c(-c5cccc(S(=O)(=O)[O-])c5F)c5nc(c(-c6cccc(S(=O)(=O)[O-])c6F)c6ccc3[nH]6)C=C5)C=C4)cc2)cc1
REMARK SMILES IDX 26 1 25 2 24 3 23 4 21 5 22 6 20 8 17 9 18 10 97 11 19 12
REMARK SMILES IDX 96 13 16 14 14 15 15 16 13 18 8 19 9 20 10 21 12 22 11 23
REMARK SMILES IDX 6 24 3 25 7 26 2 27 1 28 4 29 5 30 27 31 28 32 29 33 30 34
REMARK SMILES IDX 31 35 32 37 33 38 34 39 95 40 35 41 94 42 36 43 37 44 38 45
REMARK SMILES IDX 88 46 39 47 93 48 87 49 89 50 40 51 92 52 86 53 85 54 41 56
REMARK SMILES IDX 73 57 53 58 72 59 54 60 57 61 71 62 90 63 55 64 56 65 70 67
REMARK SMILES IDX 91 68 58 69 42 70 43 71 51 72 44 73 46 74 52 75 45 76 47 77
REMARK SMILES IDX 48 78 49 79 50 80 74 81 75 82 83 83 76 84 78 85 84 86 77 87
REMARK SMILES IDX 79 88 80 89 81 90 82 91 59 92 60 93 68 94 61 95 63 96 69 97
REMARK SMILES IDX 62 98 64 99 65 100 66 101 67 102
REMARK H PARENT 23 7 16 17 30 36 89 55 57 66
REMARK Flexibility Score: inf
ROOT
ATOM      1  C   UNL     1      -4.032   3.030   1.201  1.00  0.00     0.002 C 
ENDROOT
BRANCH   1   2
ATOM      2  C   UNL     1      -2.520   2.771   1.216  1.00  0.00     0.021 C 
BRANCH   2   3
ATOM      3  C   UNL     1      -2.012   2.212   2.547  1.00  0.00     0.116 C 
BRANCH   3   4
ATOM      4  N   UNL     1      -2.435   0.827   2.699  1.00  0.00    -0.352 N 
ATOM      5  C   UNL     1      -1.743  -0.351   2.586  1.00  0.00     0.251 C 
ATOM      6  O   UNL     1      -2.335  -1.412   2.785  1.00  0.00    -0.269 OA
ATOM      7  H   UNL     1      -3.387   0.717   2.922  1.00  0.00     0.163 HD
BRANCH   5   8
ATOM      8  C   UNL     1      -0.282  -0.374   2.335  1.00  0.00     0.039 A 
ATOM      9  C   UNL     1       2.495  -0.229   2.310  1.00  0.00     0.041 A 
ATOM     10  C   UNL     1       1.869  -1.242   3.034  1.00  0.00     0.027 A 
ATOM     11  C   UNL     1       1.758   0.558   1.433  1.00  0.00     0.027 A 
ATOM     12  C   UNL     1       0.476  -1.297   3.066  1.00  0.00     0.016 A 
ATOM     13  C   UNL     1       0.364   0.483   1.441  1.00  0.00     0.016 A 
BRANCH   9  14
ATOM     14  N   UNL     1       3.865  -0.043   2.480  1.00  0.00    -0.326 N 
ATOM     15  C   UNL     1       4.521   0.967   3.125  1.00  0.00     0.228 C 
ATOM     16  O   UNL     1       5.726   0.759   3.342  1.00  0.00    -0.274 OA
ATOM     17  H   UNL     1       4.440  -0.735   2.081  1.00  0.00     0.169 HD
BRANCH  15  18
ATOM     18  C   UNL     1       3.873   2.221   3.738  1.00  0.00     0.095 C 
ATOM     19  C   UNL     1       3.006   3.177   2.901  1.00  0.00     0.095 C 
ATOM     20  C   UNL     1       2.366   4.277   3.812  1.00  0.00     0.041 C 
ATOM     21  C   UNL     1       1.835   3.796   5.123  1.00  0.00    -0.030 C 
ATOM     22  C   UNL     1       3.154   1.698   5.015  1.00  0.00     0.041 C 
ATOM     23  C   UNL     1       2.181   2.625   5.660  1.00  0.00    -0.030 C 
BRANCH  19  24
ATOM     24  C   UNL     1       3.416   3.955   1.619  1.00  0.00     0.226 C 
ATOM     25  N   UNL     1       4.641   3.976   0.983  1.00  0.00    -0.343 N 
ATOM     26  O   UNL     1       2.497   4.626   1.113  1.00  0.00    -0.275 OA
BRANCH  25  27
ATOM     27  C   UNL     1       4.783   4.906  -0.155  1.00  0.00     0.116 C 
ATOM     28  C   UNL     1       4.044   4.431  -1.402  1.00  0.00     0.027 C 
ENDBRANCH  25  27
BRANCH  25  29
ATOM     29  C   UNL     1       5.838   3.206   1.283  1.00  0.00     0.116 C 
ATOM     30  C   UNL     1       6.703   3.838   2.357  1.00  0.00     0.027 C 
ENDBRANCH  25  29
ENDBRANCH  19  24
ENDBRANCH  15  18
ENDBRANCH   9  14
ENDBRANCH   5   8
ENDBRANCH   3   4
ENDBRANCH   2   3
ENDBRANCH   1   2
BRANCH   1  31
ATOM     31  C   UNL     1      -4.512   4.097   2.191  1.00  0.00     0.002 C 
BRANCH  31  32
ATOM     32  C   UNL     1      -3.844   5.465   2.036  1.00  0.00     0.021 C 
BRANCH  32  33
ATOM     33  C   UNL     1      -4.050   6.114   0.672  1.00  0.00     0.116 C 
BRANCH  33  34
ATOM     34  N   UNL     1      -5.454   6.417   0.426  1.00  0.00    -0.352 N 
ATOM     35  C   UNL     1      -6.034   7.619   0.113  1.00  0.00     0.251 C 
ATOM     36  H   UNL     1      -6.071   5.652   0.493  1.00  0.00     0.163 HD
ATOM     37  O   UNL     1      -7.258   7.745   0.163  1.00  0.00    -0.269 OA
BRANCH  35  38
ATOM     38  C   UNL     1      -5.185   8.763  -0.274  1.00  0.00     0.039 A 
ATOM     39  C   UNL     1      -5.447  10.024   0.268  1.00  0.00     0.014 A 
ATOM     40  C   UNL     1      -4.131   8.589  -1.175  1.00  0.00     0.014 A 
ATOM     41  C   UNL     1      -4.618  11.101  -0.057  1.00  0.00     0.010 A 
ATOM     42  C   UNL     1      -3.262   9.643  -1.435  1.00  0.00     0.010 A 
ATOM     43  C   UNL     1      -3.503  10.913  -0.890  1.00  0.00    -0.014 A 
BRANCH  43  44
ATOM     44  C   UNL     1      -2.579  12.030  -1.213  1.00  0.00     0.031 A 
ATOM     45  C   UNL     1      -2.418  12.484  -2.639  1.00  0.00     0.074 A 
ATOM     46  C   UNL     1      -1.822  12.574  -0.240  1.00  0.00     0.049 A 
ATOM     47  N   UNL     1      -1.607  13.385  -3.131  1.00  0.00    -0.248 NA
ATOM     48  C   UNL     1      -3.257  11.819  -3.650  1.00  0.00     0.031 C 
ATOM     49  C   UNL     1      -1.836  12.171   1.168  1.00  0.00     0.029 A 
ATOM     50  N   UNL     1      -0.871  13.563  -0.292  1.00  0.00    -0.354 N 
ATOM     51  C   UNL     1      -1.809  13.366  -4.506  1.00  0.00     0.074 A 
ATOM     52  C   UNL     1      -2.793  12.342  -4.776  1.00  0.00     0.031 C 
ATOM     53  C   UNL     1      -0.938  12.905   1.845  1.00  0.00     0.029 A 
ATOM     54  C   UNL     1      -0.259  13.804   0.916  1.00  0.00     0.049 A 
ATOM     55  H   UNL     1      -0.648  14.053  -1.116  1.00  0.00     0.167 HD
ATOM     56  C   UNL     1      -1.246  14.149  -5.457  1.00  0.00     0.034 A 
ATOM     57  C   UNL     1       0.744  14.644   1.238  1.00  0.00     0.034 A 
ATOM     58  C   UNL     1      -0.296  15.192  -5.180  1.00  0.00     0.049 A 
ATOM     59  C   UNL     1       1.331  15.524   0.166  1.00  0.00     0.074 A 
ATOM     60  C   UNL     1       0.269  16.097  -6.061  1.00  0.00     0.029 A 
ATOM     61  N   UNL     1       0.237  15.465  -3.929  1.00  0.00    -0.354 N 
ATOM     62  N   UNL     1       1.020  15.595  -1.105  1.00  0.00    -0.248 NA
ATOM     63  C   UNL     1       2.382  16.465   0.580  1.00  0.00     0.031 C 
ATOM     64  C   UNL     1       1.169  16.895  -5.349  1.00  0.00     0.029 A 
ATOM     65  C   UNL     1       1.133  16.516  -4.016  1.00  0.00     0.049 A 
ATOM     66  H   UNL     1       0.011  14.982  -3.102  1.00  0.00     0.167 HD
ATOM     67  C   UNL     1       1.803  16.616  -1.633  1.00  0.00     0.074 A 
ATOM     68  C   UNL     1       2.593  17.144  -0.540  1.00  0.00     0.031 C 
ATOM     69  C   UNL     1       1.869  17.069  -2.909  1.00  0.00     0.034 A 
BRANCH  56  70
ATOM     70  C   UNL     1      -1.673  13.936  -6.887  1.00  0.00     0.023 A 
ATOM     71  C   UNL     1      -2.975  14.299  -7.289  1.00  0.00     0.012 A 
ATOM     72  C   UNL     1      -0.770  13.433  -7.845  1.00  0.00     0.148 A 
ATOM     73  C   UNL     1      -3.384  14.130  -8.611  1.00  0.00     0.002 A 
ATOM     74  C   UNL     1      -1.170  13.315  -9.171  1.00  0.00     0.091 A 
ATOM     75  F   UNL     1       0.457  13.076  -7.441  1.00  0.00    -0.205 F 
ATOM     76  C   UNL     1      -2.479  13.649  -9.553  1.00  0.00     0.022 A 
BRANCH  74  77
ATOM     77  S   UNL     1      -0.055  12.785 -10.476  1.00  0.00     0.127 S 
ATOM     78  O   UNL     1      -0.609  11.476 -10.823  1.00  0.00    -0.237 OA
ATOM     79  O   UNL     1      -0.256  13.820 -11.490  1.00  0.00    -0.237 OA
ATOM     80  O   UNL     1       1.276  12.761  -9.885  1.00  0.00    -0.744 OA
ENDBRANCH  74  77
ENDBRANCH  56  70
BRANCH  57  81
ATOM     81  C   UNL     1       1.221  14.736   2.647  1.00  0.00     0.023 A 
ATOM     82  C   UNL     1       0.964  15.904   3.391  1.00  0.00     0.012 A 
ATOM     83  C   UNL     1       1.910  13.671   3.259  1.00  0.00     0.148 A 
ATOM     84  C   UNL     1       1.419  16.027   4.704  1.00  0.00     0.002 A 
ATOM     85  C   UNL     1       2.310  13.777   4.586  1.00  0.00     0.091 A 
ATOM     86  F   UNL     1       2.151  12.570   2.533  1.00  0.00    -0.205 F 
ATOM     87  C   UNL     1       2.083  14.960   5.304  1.00  0.00     0.022 A 
BRANCH  85  88
ATOM     88  S   UNL     1       3.059  12.411   5.480  1.00  0.00     0.127 S 
ATOM     89  O   UNL     1       4.426  12.889   5.668  1.00  0.00    -0.237 OA
ATOM     90  O   UNL     1       2.248  12.367   6.697  1.00  0.00    -0.237 OA
ATOM     91  O   UNL     1       2.911  11.246   4.618  1.00  0.00    -0.744 OA
ENDBRANCH  85  88
ENDBRANCH  57  81
BRANCH  69  92
ATOM     92  C   UNL     1       2.782  18.232  -3.196  1.00  0.00     0.023 A 
ATOM     93  C   UNL     1       4.179  18.054  -3.190  1.00  0.00     0.012 A 
ATOM     94  C   UNL     1       2.245  19.485  -3.555  1.00  0.00     0.148 A 
ATOM     95  C   UNL     1       5.029  19.114  -3.506  1.00  0.00     0.002 A 
ATOM     96  C   UNL     1       3.096  20.521  -3.920  1.00  0.00     0.091 A 
ATOM     97  F   UNL     1       0.913  19.638  -3.537  1.00  0.00    -0.205 F 
ATOM     98  C   UNL     1       4.488  20.341  -3.883  1.00  0.00     0.022 A 
BRANCH  96  99
ATOM     99  S   UNL     1       2.488  22.102  -4.518  1.00  0.00     0.127 S 
ATOM    100  O   UNL     1       2.836  22.992  -3.412  1.00  0.00    -0.237 OA
ATOM    101  O   UNL     1       3.282  22.298  -5.732  1.00  0.00    -0.237 OA
ATOM    102  O   UNL     1       1.061  21.924  -4.750  1.00  0.00    -0.744 OA
ENDBRANCH  96  99
ENDBRANCH  69  92
ENDBRANCH  43  44
ENDBRANCH  35  38
ENDBRANCH  33  34
ENDBRANCH  32  33
ENDBRANCH  31  32
ENDBRANCH   1  31
TORSDOF 21
