REMARK SMILES CCOc1ccc(NC(=O)CC2(CC(=O)NCCCCCCNC(=O)c3ccc(-c4c5nc(c(-c6cccc(S(=O)(=O)[O-])c6F)c6ccc([nH]6)c(-c6cccc(S(=O)(=O)[O-])c6F)c6nc(c(-c7cccc(S(=O)(=O)[O-])c7F)c7ccc4[nH]7)C=C6)C=C5)cc3)CCCCC2)cc1
REMARK SMILES IDX 18 1 17 2 16 3 14 4 15 5 13 7 12 8 89 9 93 10 90 11 92 12
REMARK SMILES IDX 91 13 11 14 9 15 8 16 10 18 7 19 4 20 5 21 95 22 6 23 94 24
REMARK SMILES IDX 3 25 2 26 1 27 19 28 20 29 21 30 22 31 23 32 24 33 25 35
REMARK SMILES IDX 26 36 27 37 88 38 28 39 87 40 29 41 30 42 31 43 81 44 32 45
REMARK SMILES IDX 86 46 80 47 82 48 33 49 85 50 79 51 78 52 34 54 66 55 46 56
REMARK SMILES IDX 65 57 47 58 50 59 64 60 83 61 48 62 49 63 63 65 84 66 51 67
REMARK SMILES IDX 35 68 36 69 44 70 37 71 39 72 45 73 38 74 40 75 41 76 42 77
REMARK SMILES IDX 43 78 67 79 68 80 76 81 69 82 71 83 77 84 70 85 72 86 73 87
REMARK SMILES IDX 74 88 75 89 52 90 53 91 61 92 54 93 56 94 62 95 55 96 57 97
REMARK SMILES IDX 58 98 59 99 60 100
REMARK H PARENT 16 6 8 17 23 34 82 53 50 64
REMARK Flexibility Score: inf
ROOT
ATOM      1  C   UNL     1       2.885  -1.580  -3.799  1.00  0.00     0.021 C 
ENDROOT
BRANCH   1   2
ATOM      2  C   UNL     1       1.883  -2.395  -4.889  1.00  0.00     0.116 C 
BRANCH   2   3
ATOM      3  N   UNL     1       2.527  -2.296  -6.210  1.00  0.00    -0.356 N 
ATOM      4  C   UNL     1       3.710  -2.838  -6.621  1.00  0.00     0.220 C 
ATOM      5  O   UNL     1       4.308  -2.289  -7.550  1.00  0.00    -0.275 OA
ATOM      6  H   UNL     1       2.041  -1.769  -6.884  1.00  0.00     0.163 HD
BRANCH   4   7
ATOM      7  C   UNL     1       4.225  -4.137  -6.007  1.00  0.00     0.107 C 
BRANCH   7   8
ATOM      8  C   UNL     1       5.401  -4.181  -4.946  1.00  0.00    -0.012 C 
ATOM      9  C   UNL     1       6.316  -5.386  -5.374  1.00  0.00     0.008 C 
ATOM     10  C   UNL     1       5.024  -4.627  -3.523  1.00  0.00     0.008 C 
ATOM     11  C   UNL     1       5.585  -6.760  -5.246  1.00  0.00     0.001 C 
ATOM     12  C   UNL     1       4.147  -5.845  -3.392  1.00  0.00     0.001 C 
ATOM     13  C   UNL     1       4.950  -7.029  -3.874  1.00  0.00     0.000 C 
BRANCH   8  14
ATOM     14  C   UNL     1       6.148  -2.793  -4.860  1.00  0.00     0.108 C 
BRANCH  14  15
ATOM     15  C   UNL     1       6.705  -2.319  -3.493  1.00  0.00     0.224 C 
ATOM     16  N   UNL     1       5.922  -1.765  -2.496  1.00  0.00    -0.326 N 
ATOM     17  H   UNL     1       6.384  -1.625  -1.638  1.00  0.00     0.169 HD
ATOM     18  O   UNL     1       7.913  -2.452  -3.261  1.00  0.00    -0.275 OA
BRANCH  16  19
ATOM     19  C   UNL     1       4.569  -1.368  -2.513  1.00  0.00     0.041 A 
ATOM     20  C   UNL     1       1.107  -0.656  -3.243  1.00  0.00     0.119 A 
ATOM     21  C   UNL     1       2.390   0.472  -3.779  1.00  0.00     0.048 A 
ATOM     22  C   UNL     1       1.547  -2.202  -2.369  1.00  0.00     0.048 A 
ATOM     23  C   UNL     1       4.119   0.133  -3.366  1.00  0.00     0.030 A 
ATOM     24  C   UNL     1       3.274  -2.505  -1.927  1.00  0.00     0.030 A 
BRANCH  20  25
ATOM     25  O   UNL     1      -0.229  -0.350  -3.303  1.00  0.00    -0.494 OA
BRANCH  25  26
ATOM     26  C   UNL     1      -0.548   1.049  -3.276  1.00  0.00     0.226 C 
ATOM     27  C   UNL     1      -0.439   1.723  -1.909  1.00  0.00     0.049 C 
ENDBRANCH  25  26
ENDBRANCH  20  25
ENDBRANCH  16  19
ENDBRANCH  14  15
ENDBRANCH   8  14
ENDBRANCH   7   8
ENDBRANCH   4   7
ENDBRANCH   2   3
ENDBRANCH   1   2
BRANCH   1  28
ATOM     28  C   UNL     1       2.669  -0.523  -1.896  1.00  0.00     0.002 C 
BRANCH  28  29
ATOM     29  C   UNL     1       1.403  -0.530  -0.692  1.00  0.00     0.002 C 
BRANCH  29  30
ATOM     30  C   UNL     1       1.492  -1.472   0.502  1.00  0.00     0.021 C 
BRANCH  30  31
ATOM     31  C   UNL     1       2.321  -0.871   1.610  1.00  0.00     0.116 C 
BRANCH  31  32
ATOM     32  N   UNL     1       1.808   0.461   1.988  1.00  0.00    -0.352 N 
ATOM     33  C   UNL     1       0.819   0.771   2.896  1.00  0.00     0.251 C 
ATOM     34  H   UNL     1       2.228   1.226   1.533  1.00  0.00     0.163 HD
ATOM     35  O   UNL     1       0.156   1.796   2.803  1.00  0.00    -0.269 OA
BRANCH  33  36
ATOM     36  C   UNL     1       0.633  -0.169   4.009  1.00  0.00     0.039 A 
ATOM     37  C   UNL     1      -0.620  -0.512   4.511  1.00  0.00     0.014 A 
ATOM     38  C   UNL     1       1.789  -0.779   4.484  1.00  0.00     0.014 A 
ATOM     39  C   UNL     1      -0.695  -1.531   5.463  1.00  0.00     0.010 A 
ATOM     40  C   UNL     1       1.681  -1.937   5.207  1.00  0.00     0.010 A 
ATOM     41  C   UNL     1       0.458  -2.264   5.791  1.00  0.00    -0.014 A 
BRANCH  41  42
ATOM     42  C   UNL     1       0.496  -3.317   6.824  1.00  0.00     0.031 A 
ATOM     43  C   UNL     1       1.511  -3.189   7.939  1.00  0.00     0.074 A 
ATOM     44  C   UNL     1      -0.251  -4.425   6.676  1.00  0.00     0.049 A 
ATOM     45  N   UNL     1       1.844  -4.058   8.853  1.00  0.00    -0.248 NA
ATOM     46  C   UNL     1       2.333  -1.959   7.974  1.00  0.00     0.031 C 
ATOM     47  C   UNL     1      -1.152  -4.705   5.555  1.00  0.00     0.029 A 
ATOM     48  N   UNL     1      -0.350  -5.536   7.467  1.00  0.00    -0.354 N 
ATOM     49  C   UNL     1       2.948  -3.513   9.500  1.00  0.00     0.074 A 
ATOM     50  C   UNL     1       3.298  -2.298   8.811  1.00  0.00     0.031 C 
ATOM     51  C   UNL     1      -1.744  -5.894   5.753  1.00  0.00     0.029 A 
ATOM     52  C   UNL     1      -1.240  -6.469   6.995  1.00  0.00     0.049 A 
ATOM     53  H   UNL     1       0.167  -5.655   8.297  1.00  0.00     0.167 HD
ATOM     54  C   UNL     1       3.573  -3.946  10.617  1.00  0.00     0.034 A 
ATOM     55  C   UNL     1      -1.609  -7.650   7.525  1.00  0.00     0.034 A 
ATOM     56  C   UNL     1       3.122  -5.089  11.351  1.00  0.00     0.049 A 
ATOM     57  C   UNL     1      -1.008  -8.044   8.846  1.00  0.00     0.074 A 
ATOM     58  C   UNL     1       3.558  -5.560  12.573  1.00  0.00     0.029 A 
ATOM     59  N   UNL     1       2.106  -5.932  10.926  1.00  0.00    -0.354 N 
ATOM     60  N   UNL     1      -0.082  -7.431   9.546  1.00  0.00    -0.248 NA
ATOM     61  C   UNL     1      -1.532  -9.261   9.477  1.00  0.00     0.031 C 
ATOM     62  C   UNL     1       2.821  -6.709  12.874  1.00  0.00     0.029 A 
ATOM     63  C   UNL     1       1.901  -6.928  11.858  1.00  0.00     0.049 A 
ATOM     64  H   UNL     1       1.605  -5.835  10.084  1.00  0.00     0.167 HD
ATOM     65  C   UNL     1       0.063  -8.164  10.715  1.00  0.00     0.074 A 
ATOM     66  C   UNL     1      -0.886  -9.258  10.636  1.00  0.00     0.031 C 
ATOM     67  C   UNL     1       0.909  -7.967  11.757  1.00  0.00     0.034 A 
BRANCH  54  68
ATOM     68  C   UNL     1       4.740  -3.141  11.130  1.00  0.00     0.023 A 
ATOM     69  C   UNL     1       4.541  -1.826  11.607  1.00  0.00     0.012 A 
ATOM     70  C   UNL     1       6.036  -3.688  11.149  1.00  0.00     0.148 A 
ATOM     71  C   UNL     1       5.617  -1.051  12.035  1.00  0.00     0.002 A 
ATOM     72  C   UNL     1       7.096  -2.930  11.634  1.00  0.00     0.091 A 
ATOM     73  F   UNL     1       6.215  -4.927  10.670  1.00  0.00    -0.205 F 
ATOM     74  C   UNL     1       6.892  -1.606  12.059  1.00  0.00     0.022 A 
BRANCH  72  75
ATOM     75  S   UNL     1       8.761  -3.583  11.791  1.00  0.00     0.127 S 
ATOM     76  O   UNL     1       9.477  -2.811  10.776  1.00  0.00    -0.237 OA
ATOM     77  O   UNL     1       9.095  -3.233  13.172  1.00  0.00    -0.237 OA
ATOM     78  O   UNL     1       8.659  -5.012  11.532  1.00  0.00    -0.744 OA
ENDBRANCH  72  75
ENDBRANCH  54  68
BRANCH  55  79
ATOM     79  C   UNL     1      -2.664  -8.464   6.861  1.00  0.00     0.023 A 
ATOM     80  C   UNL     1      -3.944  -8.549   7.444  1.00  0.00     0.012 A 
ATOM     81  C   UNL     1      -2.430  -9.099   5.627  1.00  0.00     0.148 A 
ATOM     82  C   UNL     1      -4.961  -9.280   6.827  1.00  0.00     0.002 A 
ATOM     83  C   UNL     1      -3.462  -9.779   4.990  1.00  0.00     0.091 A 
ATOM     84  F   UNL     1      -1.206  -9.005   5.088  1.00  0.00    -0.205 F 
ATOM     85  C   UNL     1      -4.724  -9.886   5.596  1.00  0.00     0.022 A 
BRANCH  83  86
ATOM     86  S   UNL     1      -3.287 -10.471   3.341  1.00  0.00     0.127 S 
ATOM     87  O   UNL     1      -3.316 -11.905   3.614  1.00  0.00    -0.237 OA
ATOM     88  O   UNL     1      -4.476  -9.947   2.667  1.00  0.00    -0.237 OA
ATOM     89  O   UNL     1      -2.028  -9.949   2.827  1.00  0.00    -0.744 OA
ENDBRANCH  83  86
ENDBRANCH  55  79
BRANCH  67  90
ATOM     90  C   UNL     1       0.815  -8.921  12.912  1.00  0.00     0.023 A 
ATOM     91  C   UNL     1       1.304 -10.234  12.780  1.00  0.00     0.012 A 
ATOM     92  C   UNL     1       0.333  -8.476  14.158  1.00  0.00     0.148 A 
ATOM     93  C   UNL     1       1.284 -11.104  13.868  1.00  0.00     0.002 A 
ATOM     94  C   UNL     1       0.370  -9.329  15.250  1.00  0.00     0.091 A 
ATOM     95  F   UNL     1      -0.140  -7.224  14.251  1.00  0.00    -0.205 F 
ATOM     96  C   UNL     1       0.831 -10.648  15.104  1.00  0.00     0.022 A 
BRANCH  94  97
ATOM     97  S   UNL     1      -0.086  -8.790  16.900  1.00  0.00     0.127 S 
ATOM     98  O   UNL     1      -1.357  -9.483  17.098  1.00  0.00    -0.237 OA
ATOM     99  O   UNL     1       1.021  -9.301  17.709  1.00  0.00    -0.237 OA
ATOM    100  O   UNL     1      -0.169  -7.337  16.840  1.00  0.00    -0.744 OA
ENDBRANCH  94  97
ENDBRANCH  67  90
ENDBRANCH  41  42
ENDBRANCH  33  36
ENDBRANCH  31  32
ENDBRANCH  30  31
ENDBRANCH  29  30
ENDBRANCH  28  29
ENDBRANCH   1  28
TORSDOF 22
