REMARK SMILES O=C(CC1(NS(=O)(=O)C[C@H]2CCCO2)CCC1)NCCCCCCNC(=O)c1ccc(-c2c3nc(c(-c4cccc(S(=O)(=O)[O-])c4F)c4ccc([nH]4)c(-c4cccc(S(=O)(=O)[O-])c4F)c4nc(c(-c5cccc(S(=O)(=O)[O-])c5F)c5ccc2[nH]5)C=C4)C=C3)cc1
REMARK SMILES IDX 20 1 19 2 18 3 1 4 2 5 3 7 4 8 15 9 17 10 16 11 5 12 6 14
REMARK SMILES IDX 7 15 8 16 9 17 10 18 11 19 14 20 12 21 13 22 21 23 22 24
REMARK SMILES IDX 23 25 24 26 25 27 26 28 27 30 28 31 29 32 90 33 30 34 89 35
REMARK SMILES IDX 31 36 32 37 33 38 83 39 34 40 88 41 82 42 84 43 35 44 87 45
REMARK SMILES IDX 81 46 80 47 36 49 68 50 48 51 67 52 49 53 52 54 66 55 85 56
REMARK SMILES IDX 50 57 51 58 65 60 86 61 53 62 37 63 38 64 46 65 39 66 41 67
REMARK SMILES IDX 47 68 40 69 42 70 43 71 44 72 45 73 69 74 70 75 78 76 71 77
REMARK SMILES IDX 73 78 79 79 72 80 74 81 75 82 76 83 77 84 54 85 55 86 63 87
REMARK SMILES IDX 56 88 58 89 64 90 57 91 59 92 60 93 61 94 62 95
REMARK H PARENT 18 6 5 13 25 29 84 48 52 59
REMARK Flexibility Score: inf
ROOT
ATOM      1  C   UNL     1      -1.625  -2.791   2.075  1.00  0.00     0.021 C 
ENDROOT
BRANCH   1   2
ATOM      2  C   UNL     1      -0.205  -2.407   2.498  1.00  0.00     0.116 C 
BRANCH   2   3
ATOM      3  N   UNL     1       0.741  -3.019   1.599  1.00  0.00    -0.356 N 
ATOM      4  O   UNL     1       2.179  -1.244   1.381  1.00  0.00    -0.275 OA
ATOM      5  C   UNL     1       1.773  -2.341   1.021  1.00  0.00     0.221 C 
ATOM      6  H   UNL     1       0.635  -3.975   1.391  1.00  0.00     0.163 HD
BRANCH   5   7
ATOM      7  C   UNL     1       2.294  -3.033  -0.200  1.00  0.00     0.123 C 
BRANCH   7   8
ATOM      8  C   UNL     1       3.513  -3.938  -0.069  1.00  0.00     0.042 C 
ATOM      9  C   UNL     1       4.380  -3.910   1.230  1.00  0.00     0.024 C 
ATOM     10  C   UNL     1       3.070  -5.378   0.376  1.00  0.00     0.024 C 
ATOM     11  C   UNL     1       4.294  -5.444   1.292  1.00  0.00     0.004 C 
BRANCH   8  12
ATOM     12  N   UNL     1       4.278  -3.933  -1.388  1.00  0.00    -0.208 NA
ATOM     13  H   UNL     1       3.576  -4.161  -2.092  1.00  0.00     0.141 HD
BRANCH  12  14
ATOM     14  S   UNL     1       5.170  -2.688  -2.072  1.00  0.00     0.214 S 
ATOM     15  O   UNL     1       5.915  -2.062  -0.999  1.00  0.00    -0.212 OA
ATOM     16  O   UNL     1       5.884  -3.290  -3.176  1.00  0.00    -0.212 OA
BRANCH  14  17
ATOM     17  C   UNL     1       4.029  -1.480  -2.727  1.00  0.00     0.185 C 
BRANCH  17  18
ATOM     18  C   UNL     1       2.914  -1.943  -3.658  1.00  0.00     0.134 C 
ATOM     19  C   UNL     1       3.321  -2.354  -5.060  1.00  0.00     0.035 C 
ATOM     20  O   UNL     1       2.115  -3.005  -3.131  1.00  0.00    -0.377 OA
ATOM     21  C   UNL     1       3.257  -3.858  -5.030  1.00  0.00     0.031 C 
ATOM     22  C   UNL     1       2.199  -4.146  -3.991  1.00  0.00     0.160 C 
ENDBRANCH  17  18
ENDBRANCH  14  17
ENDBRANCH  12  14
ENDBRANCH   8  12
ENDBRANCH   7   8
ENDBRANCH   5   7
ENDBRANCH   2   3
ENDBRANCH   1   2
BRANCH   1  23
ATOM     23  C   UNL     1      -1.857  -4.304   1.925  1.00  0.00     0.002 C 
BRANCH  23  24
ATOM     24  C   UNL     1      -1.409  -5.146   3.125  1.00  0.00     0.002 C 
BRANCH  24  25
ATOM     25  C   UNL     1      -2.036  -4.728   4.454  1.00  0.00     0.021 C 
BRANCH  25  26
ATOM     26  C   UNL     1      -3.557  -4.716   4.445  1.00  0.00     0.116 C 
BRANCH  26  27
ATOM     27  N   UNL     1      -4.111  -6.041   4.215  1.00  0.00    -0.352 N 
ATOM     28  C   UNL     1      -5.090  -6.689   4.927  1.00  0.00     0.251 C 
ATOM     29  H   UNL     1      -3.737  -6.537   3.451  1.00  0.00     0.163 HD
ATOM     30  O   UNL     1      -5.319  -7.877   4.727  1.00  0.00    -0.269 OA
BRANCH  28  31
ATOM     31  C   UNL     1      -5.844  -5.940   5.953  1.00  0.00     0.039 A 
ATOM     32  C   UNL     1      -6.017  -6.508   7.216  1.00  0.00     0.014 A 
ATOM     33  C   UNL     1      -6.342  -4.663   5.675  1.00  0.00     0.014 A 
ATOM     34  C   UNL     1      -6.646  -5.769   8.220  1.00  0.00     0.010 A 
ATOM     35  C   UNL     1      -6.889  -3.899   6.699  1.00  0.00     0.010 A 
ATOM     36  C   UNL     1      -7.059  -4.448   7.979  1.00  0.00    -0.014 A 
BRANCH  36  37
ATOM     37  C   UNL     1      -7.665  -3.623   9.055  1.00  0.00     0.031 A 
ATOM     38  C   UNL     1      -9.073  -3.111   8.912  1.00  0.00     0.074 A 
ATOM     39  C   UNL     1      -6.923  -3.271  10.123  1.00  0.00     0.049 A 
ATOM     40  N   UNL     1      -9.759  -2.350   9.726  1.00  0.00    -0.248 NA
ATOM     41  C   UNL     1      -9.797  -3.478   7.684  1.00  0.00     0.031 C 
ATOM     42  C   UNL     1      -5.523  -3.643  10.342  1.00  0.00     0.029 A 
ATOM     43  N   UNL     1      -7.236  -2.504  11.217  1.00  0.00    -0.354 N 
ATOM     44  C   UNL     1     -10.976  -2.119   9.095  1.00  0.00     0.074 A 
ATOM     45  C   UNL     1     -10.919  -2.787   7.813  1.00  0.00     0.031 C 
ATOM     46  C   UNL     1      -5.104  -3.118  11.504  1.00  0.00     0.029 A 
ATOM     47  C   UNL     1      -6.189  -2.342  12.095  1.00  0.00     0.049 A 
ATOM     48  H   UNL     1      -8.126  -2.107  11.361  1.00  0.00     0.167 HD
ATOM     49  C   UNL     1     -12.053  -1.437   9.550  1.00  0.00     0.034 A 
ATOM     50  C   UNL     1      -6.111  -1.641  13.243  1.00  0.00     0.034 A 
ATOM     51  C   UNL     1     -12.115  -0.800  10.837  1.00  0.00     0.049 A 
ATOM     52  C   UNL     1      -7.327  -0.903  13.733  1.00  0.00     0.074 A 
ATOM     53  C   UNL     1     -13.189  -0.159  11.429  1.00  0.00     0.029 A 
ATOM     54  N   UNL     1     -11.055  -0.707  11.726  1.00  0.00    -0.354 N 
ATOM     55  N   UNL     1      -8.521  -0.830  13.197  1.00  0.00    -0.248 NA
ATOM     56  C   UNL     1      -7.195  -0.179  15.006  1.00  0.00     0.031 C 
ATOM     57  C   UNL     1     -12.766   0.357  12.658  1.00  0.00     0.029 A 
ATOM     58  C   UNL     1     -11.442  -0.002  12.853  1.00  0.00     0.049 A 
ATOM     59  H   UNL     1     -10.159  -1.087  11.578  1.00  0.00     0.167 HD
ATOM     60  C   UNL     1      -9.293  -0.089  14.085  1.00  0.00     0.074 A 
ATOM     61  C   UNL     1      -8.435   0.248  15.202  1.00  0.00     0.031 C 
ATOM     62  C   UNL     1     -10.592   0.286  13.980  1.00  0.00     0.034 A 
BRANCH  49  63
ATOM     63  C   UNL     1     -13.268  -1.373   8.658  1.00  0.00     0.023 A 
ATOM     64  C   UNL     1     -14.024  -2.539   8.417  1.00  0.00     0.012 A 
ATOM     65  C   UNL     1     -13.687  -0.152   8.094  1.00  0.00     0.148 A 
ATOM     66  C   UNL     1     -15.148  -2.501   7.594  1.00  0.00     0.002 A 
ATOM     67  C   UNL     1     -14.838  -0.112   7.317  1.00  0.00     0.091 A 
ATOM     68  F   UNL     1     -12.946   0.943   8.317  1.00  0.00    -0.205 F 
ATOM     69  C   UNL     1     -15.560  -1.287   7.053  1.00  0.00     0.022 A 
BRANCH  67  70
ATOM     70  S   UNL     1     -15.499   1.416   6.643  1.00  0.00     0.127 S 
ATOM     71  O   UNL     1     -15.235   1.247   5.215  1.00  0.00    -0.237 OA
ATOM     72  O   UNL     1     -16.912   1.329   7.016  1.00  0.00    -0.237 OA
ATOM     73  O   UNL     1     -14.765   2.493   7.292  1.00  0.00    -0.744 OA
ENDBRANCH  67  70
ENDBRANCH  49  63
BRANCH  50  74
ATOM     74  C   UNL     1      -4.853  -1.653  14.043  1.00  0.00     0.023 A 
ATOM     75  C   UNL     1      -4.832  -2.311  15.288  1.00  0.00     0.012 A 
ATOM     76  C   UNL     1      -3.679  -1.033  13.574  1.00  0.00     0.148 A 
ATOM     77  C   UNL     1      -3.676  -2.320  16.070  1.00  0.00     0.002 A 
ATOM     78  C   UNL     1      -2.515  -1.094  14.331  1.00  0.00     0.091 A 
ATOM     79  F   UNL     1      -3.721  -0.407  12.390  1.00  0.00    -0.205 F 
ATOM     80  C   UNL     1      -2.516  -1.720  15.588  1.00  0.00     0.022 A 
BRANCH  78  81
ATOM     81  S   UNL     1      -0.942  -0.461  13.737  1.00  0.00     0.127 S 
ATOM     82  O   UNL     1      -0.713   0.663  14.641  1.00  0.00    -0.237 OA
ATOM     83  O   UNL     1      -0.060  -1.610  13.944  1.00  0.00    -0.237 OA
ATOM     84  O   UNL     1      -1.160  -0.114  12.340  1.00  0.00    -0.744 OA
ENDBRANCH  78  81
ENDBRANCH  50  74
BRANCH  62  85
ATOM     85  C   UNL     1     -11.190   1.065  15.124  1.00  0.00     0.023 A 
ATOM     86  C   UNL     1     -10.802   2.400  15.352  1.00  0.00     0.012 A 
ATOM     87  C   UNL     1     -12.190   0.488  15.932  1.00  0.00     0.148 A 
ATOM     88  C   UNL     1     -11.374   3.137  16.389  1.00  0.00     0.002 A 
ATOM     89  C   UNL     1     -12.795   1.246  16.928  1.00  0.00     0.091 A 
ATOM     90  F   UNL     1     -12.534  -0.789  15.711  1.00  0.00    -0.205 F 
ATOM     91  C   UNL     1     -12.377   2.565  17.168  1.00  0.00     0.022 A 
BRANCH  89  92
ATOM     92  S   UNL     1     -14.165   0.628  17.912  1.00  0.00     0.127 S 
ATOM     93  O   UNL     1     -13.542   0.477  19.226  1.00  0.00    -0.237 OA
ATOM     94  O   UNL     1     -15.131   1.723  17.816  1.00  0.00    -0.237 OA
ATOM     95  O   UNL     1     -14.590  -0.612  17.278  1.00  0.00    -0.744 OA
ENDBRANCH  89  92
ENDBRANCH  62  85
ENDBRANCH  36  37
ENDBRANCH  28  31
ENDBRANCH  26  27
ENDBRANCH  25  26
ENDBRANCH  24  25
ENDBRANCH  23  24
ENDBRANCH   1  23
TORSDOF 21
