REMARK SMILES CC(C)[C@@H](ON1C(=O)c2ccccc2C1=O)C(=O)NCCCCCCNC(=O)c1ccc(-c2c3nc(c(-c4cccc(S(=O)(=O)[O-])c4F)c4ccc([nH]4)c(-c4cccc(S(=O)(=O)[O-])c4F)c4nc(c(-c5cccc(S(=O)(=O)[O-])c5F)c5ccc2[nH]5)C=C4)C=C3)cc1
REMARK SMILES IDX 23 1 22 2 21 3 20 4 19 5 17 6 18 7 4 9 2 10 1 11 3 12 5 13
REMARK SMILES IDX 6 14 7 15 15 16 8 17 9 18 14 19 16 20 10 21 13 22 11 23
REMARK SMILES IDX 12 24 24 25 25 26 26 27 27 28 28 30 29 31 30 32 91 33 31 34
REMARK SMILES IDX 90 35 32 36 33 37 34 38 84 39 35 40 89 41 83 42 85 43 36 44
REMARK SMILES IDX 88 45 82 46 81 47 37 49 69 50 49 51 68 52 50 53 53 54 67 55
REMARK SMILES IDX 86 56 51 57 52 58 66 60 87 61 54 62 38 63 39 64 47 65 40 66
REMARK SMILES IDX 42 67 48 68 41 69 43 70 44 71 45 72 46 73 70 74 71 75 79 76
REMARK SMILES IDX 72 77 74 78 80 79 73 80 75 81 76 82 77 83 78 84 55 85 56 86
REMARK SMILES IDX 64 87 57 88 59 89 65 90 58 91 60 92 61 93 62 94 63 95
REMARK H PARENT 19 8 26 29 85 48 53 59
REMARK Flexibility Score: inf
ROOT
ATOM      1  C   UNL     1      -0.508   3.611  -5.988  1.00  0.00     0.002 C 
ENDROOT
BRANCH   1   2
ATOM      2  C   UNL     1       0.239   2.322  -5.638  1.00  0.00     0.002 C 
BRANCH   2   3
ATOM      3  C   UNL     1       0.585   2.154  -4.154  1.00  0.00     0.021 C 
BRANCH   3   4
ATOM      4  C   UNL     1      -0.627   2.156  -3.218  1.00  0.00     0.116 C 
BRANCH   4   5
ATOM      5  N   UNL     1      -1.430   0.959  -3.405  1.00  0.00    -0.354 N 
ATOM      6  C   UNL     1      -1.594  -0.130  -2.594  1.00  0.00     0.252 C 
ATOM      7  O   UNL     1      -2.308  -1.048  -3.010  1.00  0.00    -0.272 OA
ATOM      8  H   UNL     1      -1.936   0.926  -4.250  1.00  0.00     0.163 HD
BRANCH   6   9
ATOM      9  C   UNL     1      -0.900  -0.222  -1.217  1.00  0.00     0.241 C 
BRANCH   9  10
ATOM     10  C   UNL     1       0.647  -0.296  -1.376  1.00  0.00     0.024 C 
ATOM     11  C   UNL     1       1.457  -0.267  -0.079  1.00  0.00     0.011 C 
ATOM     12  C   UNL     1       1.036  -1.563  -2.153  1.00  0.00     0.011 C 
ENDBRANCH   9  10
BRANCH   9  13
ATOM     13  O   UNL     1      -1.461   0.901  -0.520  1.00  0.00    -0.249 OA
BRANCH  13  14
ATOM     14  N   UNL     1      -1.149   0.956   0.834  1.00  0.00    -0.144 N 
ATOM     15  C   UNL     1      -1.133  -0.061   1.730  1.00  0.00     0.285 C 
ATOM     16  C   UNL     1      -0.815   2.167   1.371  1.00  0.00     0.285 C 
ATOM     17  O   UNL     1      -1.425  -1.238   1.621  1.00  0.00    -0.266 OA
ATOM     18  C   UNL     1      -0.593   0.520   2.959  1.00  0.00     0.055 A 
ATOM     19  C   UNL     1      -0.426   1.881   2.751  1.00  0.00     0.055 A 
ATOM     20  O   UNL     1      -0.779   3.272   0.866  1.00  0.00    -0.266 OA
ATOM     21  C   UNL     1      -0.180  -0.096   4.124  1.00  0.00     0.015 A 
ATOM     22  C   UNL     1       0.127   2.706   3.708  1.00  0.00     0.015 A 
ATOM     23  C   UNL     1       0.404   0.716   5.101  1.00  0.00     0.001 A 
ATOM     24  C   UNL     1       0.547   2.105   4.899  1.00  0.00     0.001 A 
ENDBRANCH  13  14
ENDBRANCH   9  13
ENDBRANCH   6   9
ENDBRANCH   4   5
ENDBRANCH   3   4
ENDBRANCH   2   3
ENDBRANCH   1   2
BRANCH   1  25
ATOM     25  C   UNL     1       0.172   4.903  -5.526  1.00  0.00     0.021 C 
BRANCH  25  26
ATOM     26  C   UNL     1       1.578   5.119  -6.077  1.00  0.00     0.116 C 
BRANCH  26  27
ATOM     27  N   UNL     1       1.581   5.263  -7.524  1.00  0.00    -0.352 N 
ATOM     28  C   UNL     1       2.169   6.233  -8.297  1.00  0.00     0.251 C 
ATOM     29  H   UNL     1       1.094   4.566  -8.020  1.00  0.00     0.163 HD
ATOM     30  O   UNL     1       1.906   6.302  -9.495  1.00  0.00    -0.269 OA
BRANCH  28  31
ATOM     31  C   UNL     1       3.108   7.200  -7.687  1.00  0.00     0.039 A 
ATOM     32  C   UNL     1       3.018   8.549  -8.045  1.00  0.00     0.014 A 
ATOM     33  C   UNL     1       4.093   6.778  -6.790  1.00  0.00     0.014 A 
ATOM     34  C   UNL     1       3.895   9.477  -7.478  1.00  0.00     0.010 A 
ATOM     35  C   UNL     1       4.919   7.714  -6.174  1.00  0.00     0.010 A 
ATOM     36  C   UNL     1       4.843   9.070  -6.526  1.00  0.00    -0.014 A 
BRANCH  36  37
ATOM     37  C   UNL     1       5.789  10.039  -5.914  1.00  0.00     0.031 A 
ATOM     38  C   UNL     1       7.269   9.901  -6.162  1.00  0.00     0.074 A 
ATOM     39  C   UNL     1       5.329  10.994  -5.083  1.00  0.00     0.049 A 
ATOM     40  N   UNL     1       8.257  10.605  -5.673  1.00  0.00    -0.248 NA
ATOM     41  C   UNL     1       7.697   8.810  -7.054  1.00  0.00     0.031 C 
ATOM     42  C   UNL     1       3.927  11.188  -4.708  1.00  0.00     0.029 A 
ATOM     43  N   UNL     1       5.997  11.969  -4.384  1.00  0.00    -0.354 N 
ATOM     44  C   UNL     1       9.419  10.024  -6.166  1.00  0.00     0.074 A 
ATOM     45  C   UNL     1       9.017   8.885  -6.963  1.00  0.00     0.031 C 
ATOM     46  C   UNL     1       3.839  12.219  -3.851  1.00  0.00     0.029 A 
ATOM     47  C   UNL     1       5.177  12.745  -3.598  1.00  0.00     0.049 A 
ATOM     48  H   UNL     1       6.971  12.100  -4.439  1.00  0.00     0.167 HD
ATOM     49  C   UNL     1      10.704  10.420  -6.003  1.00  0.00     0.034 A 
ATOM     50  C   UNL     1       5.472  13.765  -2.768  1.00  0.00     0.034 A 
ATOM     51  C   UNL     1      11.097  11.584  -5.256  1.00  0.00     0.049 A 
ATOM     52  C   UNL     1       6.904  14.217  -2.647  1.00  0.00     0.074 A 
ATOM     53  C   UNL     1      12.365  12.111  -5.089  1.00  0.00     0.029 A 
ATOM     54  N   UNL     1      10.226  12.405  -4.558  1.00  0.00    -0.354 N 
ATOM     55  N   UNL     1       7.973  13.741  -3.236  1.00  0.00    -0.248 NA
ATOM     56  C   UNL     1       7.163  15.376  -1.778  1.00  0.00     0.031 C 
ATOM     57  C   UNL     1      12.262  13.248  -4.280  1.00  0.00     0.029 A 
ATOM     58  C   UNL     1      10.927  13.439  -3.963  1.00  0.00     0.049 A 
ATOM     59  H   UNL     1       9.253  12.273  -4.496  1.00  0.00     0.167 HD
ATOM     60  C   UNL     1       9.022  14.567  -2.849  1.00  0.00     0.074 A 
ATOM     61  C   UNL     1       8.456  15.584  -1.986  1.00  0.00     0.031 C 
ATOM     62  C   UNL     1      10.338  14.484  -3.166  1.00  0.00     0.034 A 
BRANCH  49  63
ATOM     63  C   UNL     1      11.776   9.624  -6.702  1.00  0.00     0.023 A 
ATOM     64  C   UNL     1      11.895   9.707  -8.105  1.00  0.00     0.012 A 
ATOM     65  C   UNL     1      12.698   8.845  -5.977  1.00  0.00     0.148 A 
ATOM     66  C   UNL     1      12.889   9.000  -8.779  1.00  0.00     0.002 A 
ATOM     67  C   UNL     1      13.715   8.178  -6.652  1.00  0.00     0.091 A 
ATOM     68  F   UNL     1      12.559   8.761  -4.646  1.00  0.00    -0.205 F 
ATOM     69  C   UNL     1      13.805   8.245  -8.052  1.00  0.00     0.022 A 
BRANCH  67  70
ATOM     70  S   UNL     1      14.991   7.241  -5.802  1.00  0.00     0.127 S 
ATOM     71  O   UNL     1      14.631   5.868  -6.151  1.00  0.00    -0.237 OA
ATOM     72  O   UNL     1      16.212   7.732  -6.442  1.00  0.00    -0.237 OA
ATOM     73  O   UNL     1      14.867   7.581  -4.391  1.00  0.00    -0.744 OA
ENDBRANCH  67  70
ENDBRANCH  49  63
BRANCH  50  74
ATOM     74  C   UNL     1       4.382  14.488  -2.052  1.00  0.00     0.023 A 
ATOM     75  C   UNL     1       4.063  15.805  -2.435  1.00  0.00     0.012 A 
ATOM     76  C   UNL     1       3.655  13.881  -1.010  1.00  0.00     0.148 A 
ATOM     77  C   UNL     1       3.067  16.520  -1.769  1.00  0.00     0.002 A 
ATOM     78  C   UNL     1       2.628  14.580  -0.385  1.00  0.00     0.091 A 
ATOM     79  F   UNL     1       3.981  12.632  -0.650  1.00  0.00    -0.205 F 
ATOM     80  C   UNL     1       2.344  15.905  -0.751  1.00  0.00     0.022 A 
BRANCH  78  81
ATOM     81  S   UNL     1       1.566  13.824   0.850  1.00  0.00     0.127 S 
ATOM     82  O   UNL     1       2.043  14.450   2.080  1.00  0.00    -0.237 OA
ATOM     83  O   UNL     1       0.237  14.256   0.415  1.00  0.00    -0.237 OA
ATOM     84  O   UNL     1       1.795  12.390   0.736  1.00  0.00    -0.744 OA
ENDBRANCH  78  81
ENDBRANCH  50  74
BRANCH  62  85
ATOM     85  C   UNL     1      11.257  15.549  -2.628  1.00  0.00     0.023 A 
ATOM     86  C   UNL     1      11.604  15.554  -1.263  1.00  0.00     0.012 A 
ATOM     87  C   UNL     1      11.838  16.497  -3.494  1.00  0.00     0.148 A 
ATOM     88  C   UNL     1      12.490  16.506  -0.762  1.00  0.00     0.002 A 
ATOM     89  C   UNL     1      12.758  17.412  -2.997  1.00  0.00     0.091 A 
ATOM     90  F   UNL     1      11.479  16.488  -4.786  1.00  0.00    -0.205 F 
ATOM     91  C   UNL     1      13.076  17.426  -1.629  1.00  0.00     0.022 A 
BRANCH  89  92
ATOM     92  S   UNL     1      13.632  18.566  -4.059  1.00  0.00     0.127 S 
ATOM     93  O   UNL     1      12.951  19.824  -3.758  1.00  0.00    -0.237 OA
ATOM     94  O   UNL     1      15.003  18.479  -3.554  1.00  0.00    -0.237 OA
ATOM     95  O   UNL     1      13.460  18.068  -5.417  1.00  0.00    -0.744 OA
ENDBRANCH  89  92
ENDBRANCH  62  85
ENDBRANCH  36  37
ENDBRANCH  28  31
ENDBRANCH  26  27
ENDBRANCH  25  26
ENDBRANCH   1  25
TORSDOF 19
