REMARK SMILES Cn1cc(SCC[C@H]2CCC[C@]2([NH2+]C2CC2)C(=O)NCCCCCCNC(=O)c2ccc(-c3c4nc(c(-c5cccc(S(=O)(=O)[O-])c5F)c5ccc([nH]5)c(-c5cccc(S(=O)(=O)[O-])c5F)c5nc(c(-c6cccc(S(=O)(=O)[O-])c6F)c6ccc3[nH]6)C=C5)C=C4)cc2)cn1
REMARK SMILES IDX 22 1 21 2 20 3 19 4 17 5 18 6 12 8 8 9 9 10 10 11 11 12 7 13
REMARK SMILES IDX 6 14 5 15 4 16 1 17 2 18 3 19 93 20 92 21 13 22 14 25 15 26
REMARK SMILES IDX 16 27 23 28 24 29 25 30 26 31 27 32 28 34 29 35 30 36 91 37
REMARK SMILES IDX 31 38 90 39 32 40 33 41 34 42 84 43 35 44 89 45 83 46 85 47
REMARK SMILES IDX 36 48 88 49 82 50 81 51 37 53 69 54 49 55 68 56 50 57 53 58
REMARK SMILES IDX 67 59 86 60 51 61 52 62 66 64 87 65 54 66 38 67 39 68 47 69
REMARK SMILES IDX 40 70 42 71 48 72 41 73 43 74 44 75 45 76 46 77 70 78 71 79
REMARK SMILES IDX 79 80 72 81 74 82 80 83 73 84 75 85 76 86 77 87 78 88 55 89
REMARK SMILES IDX 56 90 64 91 57 92 59 93 65 94 58 95 60 96 61 97 62 98 63 99
REMARK H PARENT 19 7 13 23 13 24 26 33 85 52 53 63
REMARK Flexibility Score: inf
ROOT
ATOM      1  C   UNL     1       5.099  -3.543  -0.483  1.00  0.00     0.002 C 
ENDROOT
BRANCH   1   2
ATOM      2  C   UNL     1       4.008  -3.486   0.592  1.00  0.00     0.021 C 
BRANCH   2   3
ATOM      3  C   UNL     1       3.424  -2.092   0.835  1.00  0.00     0.116 C 
BRANCH   3   4
ATOM      4  N   UNL     1       2.707  -1.608  -0.336  1.00  0.00    -0.351 N 
ATOM      5  C   UNL     1       1.417  -1.162  -0.455  1.00  0.00     0.281 C 
ATOM      6  O   UNL     1       1.015  -0.885  -1.591  1.00  0.00    -0.268 OA
ATOM      7  H   UNL     1       3.230  -1.600  -1.171  1.00  0.00     0.163 HD
BRANCH   5   8
ATOM      8  C   UNL     1       0.475  -1.093   0.803  1.00  0.00     0.178 C 
ATOM      9  C   UNL     1       0.093  -2.598   1.092  1.00  0.00     0.061 C 
ATOM     10  C   UNL     1      -1.017  -2.793   0.058  1.00  0.00     0.011 C 
ATOM     11  C   UNL     1      -1.797  -1.518  -0.071  1.00  0.00     0.008 C 
ATOM     12  C   UNL     1      -0.907  -0.455   0.516  1.00  0.00     0.079 C 
BRANCH   9  13
ATOM     13  C   UNL     1      -0.338  -3.033   2.504  1.00  0.00     0.022 C 
BRANCH  13  14
ATOM     14  C   UNL     1      -1.255  -4.287   2.614  1.00  0.00     0.075 C 
BRANCH  14  15
ATOM     15  S   UNL     1      -0.688  -5.959   2.140  1.00  0.00    -0.123 SA
BRANCH  15  16
ATOM     16  C   UNL     1      -0.491  -6.106   0.415  1.00  0.00     0.045 A 
ATOM     17  C   UNL     1      -0.409  -5.103  -2.983  1.00  0.00     0.173 C 
ATOM     18  N   UNL     1      -0.411  -5.865  -1.754  1.00  0.00    -0.275 N 
ATOM     19  C   UNL     1      -1.236  -5.696  -0.669  1.00  0.00     0.123 A 
ATOM     20  N   UNL     1       0.590  -6.726  -1.508  1.00  0.00    -0.181 NA
ATOM     21  C   UNL     1       0.542  -6.867  -0.179  1.00  0.00     0.150 A 
ENDBRANCH  15  16
ENDBRANCH  14  15
ENDBRANCH  13  14
ENDBRANCH   9  13
BRANCH   8  22
ATOM     22  N   UNL     1       1.136  -0.280   1.846  1.00  0.00    -0.331 N 
ATOM     23  H   UNL     1       1.951  -0.806   2.161  1.00  0.00     0.347 HD
ATOM     24  H   UNL     1       0.398  -0.121   2.532  1.00  0.00     0.347 HD
BRANCH  22  25
ATOM     25  C   UNL     1       1.608   1.093   1.510  1.00  0.00     0.183 C 
ATOM     26  C   UNL     1       1.432   1.818   0.199  1.00  0.00     0.071 C 
ATOM     27  C   UNL     1       0.631   2.241   1.392  1.00  0.00     0.071 C 
ENDBRANCH  22  25
ENDBRANCH   8  22
ENDBRANCH   5   8
ENDBRANCH   3   4
ENDBRANCH   2   3
ENDBRANCH   1   2
BRANCH   1  28
ATOM     28  C   UNL     1       6.318  -2.652  -0.223  1.00  0.00     0.002 C 
BRANCH  28  29
ATOM     29  C   UNL     1       7.032  -2.898   1.109  1.00  0.00     0.021 C 
BRANCH  29  30
ATOM     30  C   UNL     1       7.546  -4.321   1.309  1.00  0.00     0.116 C 
BRANCH  30  31
ATOM     31  N   UNL     1       8.541  -4.689   0.313  1.00  0.00    -0.352 N 
ATOM     32  C   UNL     1       9.793  -5.219   0.488  1.00  0.00     0.251 C 
ATOM     33  H   UNL     1       8.277  -4.536  -0.623  1.00  0.00     0.163 HD
ATOM     34  O   UNL     1      10.567  -5.280  -0.471  1.00  0.00    -0.269 OA
BRANCH  32  35
ATOM     35  C   UNL     1      10.225  -5.702   1.817  1.00  0.00     0.039 A 
ATOM     36  C   UNL     1      11.523  -5.417   2.248  1.00  0.00     0.014 A 
ATOM     37  C   UNL     1       9.369  -6.454   2.627  1.00  0.00     0.014 A 
ATOM     38  C   UNL     1      11.946  -5.848   3.507  1.00  0.00     0.010 A 
ATOM     39  C   UNL     1       9.767  -6.816   3.913  1.00  0.00     0.010 A 
ATOM     40  C   UNL     1      11.064  -6.530   4.363  1.00  0.00    -0.014 A 
BRANCH  40  41
ATOM     41  C   UNL     1      11.492  -6.936   5.728  1.00  0.00     0.031 A 
ATOM     42  C   UNL     1      11.553  -8.391   6.114  1.00  0.00     0.074 A 
ATOM     43  C   UNL     1      11.776  -5.986   6.642  1.00  0.00     0.049 A 
ATOM     44  N   UNL     1      11.928  -8.926   7.247  1.00  0.00    -0.248 NA
ATOM     45  C   UNL     1      11.112  -9.373   5.109  1.00  0.00     0.031 C 
ATOM     46  C   UNL     1      11.668  -4.542   6.422  1.00  0.00     0.029 A 
ATOM     47  N   UNL     1      12.198  -6.091   7.944  1.00  0.00    -0.354 N 
ATOM     48  C   UNL     1      11.736 -10.296   7.106  1.00  0.00     0.074 A 
ATOM     49  C   UNL     1      11.181 -10.509   5.788  1.00  0.00     0.031 C 
ATOM     50  C   UNL     1      12.032  -3.897   7.542  1.00  0.00     0.029 A 
ATOM     51  C   UNL     1      12.373  -4.878   8.567  1.00  0.00     0.049 A 
ATOM     52  H   UNL     1      12.360  -6.954   8.389  1.00  0.00     0.167 HD
ATOM     53  C   UNL     1      12.021 -11.289   7.983  1.00  0.00     0.034 A 
ATOM     54  C   UNL     1      12.768  -4.586   9.822  1.00  0.00     0.034 A 
ATOM     55  C   UNL     1      12.615 -11.076   9.275  1.00  0.00     0.049 A 
ATOM     56  C   UNL     1      13.132  -5.712  10.753  1.00  0.00     0.074 A 
ATOM     57  C   UNL     1      13.041 -12.023  10.191  1.00  0.00     0.029 A 
ATOM     58  N   UNL     1      12.856  -9.835   9.842  1.00  0.00    -0.354 N 
ATOM     59  N   UNL     1      13.121  -7.004  10.532  1.00  0.00    -0.248 NA
ATOM     60  C   UNL     1      13.606  -5.337  12.093  1.00  0.00     0.031 C 
ATOM     61  C   UNL     1      13.507 -11.353  11.328  1.00  0.00     0.029 A 
ATOM     62  C   UNL     1      13.408  -9.989  11.103  1.00  0.00     0.049 A 
ATOM     63  H   UNL     1      12.663  -8.971   9.412  1.00  0.00     0.167 HD
ATOM     64  C   UNL     1      13.621  -7.593  11.688  1.00  0.00     0.074 A 
ATOM     65  C   UNL     1      13.952  -6.514  12.595  1.00  0.00     0.031 C 
ATOM     66  C   UNL     1      13.780  -8.908  11.978  1.00  0.00     0.034 A 
BRANCH  53  67
ATOM     67  C   UNL     1      11.735 -12.707   7.560  1.00  0.00     0.023 A 
ATOM     68  C   UNL     1      12.531 -13.316   6.568  1.00  0.00     0.012 A 
ATOM     69  C   UNL     1      10.731 -13.462   8.198  1.00  0.00     0.148 A 
ATOM     70  C   UNL     1      12.311 -14.642   6.194  1.00  0.00     0.002 A 
ATOM     71  C   UNL     1      10.550 -14.797   7.854  1.00  0.00     0.091 A 
ATOM     72  F   UNL     1       9.971 -12.861   9.125  1.00  0.00    -0.205 F 
ATOM     73  C   UNL     1      11.330 -15.384   6.845  1.00  0.00     0.022 A 
BRANCH  71  74
ATOM     74  S   UNL     1       9.370 -15.861   8.694  1.00  0.00     0.127 S 
ATOM     75  O   UNL     1       8.377 -16.087   7.641  1.00  0.00    -0.237 OA
ATOM     76  O   UNL     1      10.191 -17.032   9.014  1.00  0.00    -0.237 OA
ATOM     77  O   UNL     1       8.899 -15.114   9.845  1.00  0.00    -0.744 OA
ENDBRANCH  71  74
ENDBRANCH  53  67
BRANCH  54  78
ATOM     78  C   UNL     1      12.909  -3.166  10.255  1.00  0.00     0.023 A 
ATOM     79  C   UNL     1      14.192  -2.644  10.511  1.00  0.00     0.012 A 
ATOM     80  C   UNL     1      11.786  -2.332  10.410  1.00  0.00     0.148 A 
ATOM     81  C   UNL     1      14.351  -1.331  10.956  1.00  0.00     0.002 A 
ATOM     82  C   UNL     1      11.955  -1.008  10.797  1.00  0.00     0.091 A 
ATOM     83  F   UNL     1      10.572  -2.849  10.173  1.00  0.00    -0.205 F 
ATOM     84  C   UNL     1      13.234  -0.511  11.091  1.00  0.00     0.022 A 
BRANCH  82  85
ATOM     85  S   UNL     1      10.586   0.153  10.867  1.00  0.00     0.127 S 
ATOM     86  O   UNL     1      10.417   0.330  12.308  1.00  0.00    -0.237 OA
ATOM     87  O   UNL     1      11.138   1.314  10.165  1.00  0.00    -0.237 OA
ATOM     88  O   UNL     1       9.485  -0.496  10.173  1.00  0.00    -0.744 OA
ENDBRANCH  82  85
ENDBRANCH  54  78
BRANCH  66  89
ATOM     89  C   UNL     1      14.375  -9.258  13.318  1.00  0.00     0.023 A 
ATOM     90  C   UNL     1      13.632  -9.047  14.497  1.00  0.00     0.012 A 
ATOM     91  C   UNL     1      15.655  -9.841  13.404  1.00  0.00     0.148 A 
ATOM     92  C   UNL     1      14.171  -9.367  15.742  1.00  0.00     0.002 A 
ATOM     93  C   UNL     1      16.163 -10.208  14.644  1.00  0.00     0.091 A 
ATOM     94  F   UNL     1      16.356 -10.018  12.274  1.00  0.00    -0.205 F 
ATOM     95  C   UNL     1      15.431  -9.957  15.815  1.00  0.00     0.022 A 
BRANCH  93  96
ATOM     96  S   UNL     1      17.732 -11.065  14.821  1.00  0.00     0.127 S 
ATOM     97  O   UNL     1      18.595 -10.003  15.336  1.00  0.00    -0.237 OA
ATOM     98  O   UNL     1      17.408 -12.112  15.791  1.00  0.00    -0.237 OA
ATOM     99  O   UNL     1      18.070 -11.559  13.493  1.00  0.00    -0.744 OA
ENDBRANCH  93  96
ENDBRANCH  66  89
ENDBRANCH  40  41
ENDBRANCH  32  35
ENDBRANCH  30  31
ENDBRANCH  29  30
ENDBRANCH  28  29
ENDBRANCH   1  28
TORSDOF 22
