REMARK SMILES O=C(NCCCCCCNC(=O)c1ccc(-c2c3nc(c(-c4cccc(S(=O)(=O)[O-])c4F)c4ccc([nH]4)c(-c4cccc(S(=O)(=O)[O-])c4F)c4nc(c(-c5cccc(S(=O)(=O)[O-])c5F)c5ccc2[nH]5)C=C4)C=C3)cc1)c1ccc(/C=C/c2ccnc(-c3cccc([N+](=O)[O-])c3)[n+]2[O-])cc1
REMARK SMILES IDX 6 1 5 2 4 3 3 4 1 5 2 6 76 8 77 9 99 10 78 11 98 12 79 13
REMARK SMILES IDX 80 14 81 15 82 16 83 17 96 18 84 19 86 20 97 21 85 22 87 23
REMARK SMILES IDX 88 24 95 25 89 26 91 27 90 28 92 29 93 30 94 31 7 32 8 33
REMARK SMILES IDX 9 34 10 35 11 36 12 38 13 39 14 40 75 41 15 42 74 43 16 44
REMARK SMILES IDX 17 45 18 46 68 47 19 48 73 49 67 50 69 51 20 52 72 53 66 54
REMARK SMILES IDX 65 55 21 57 53 58 33 59 52 60 34 61 37 62 51 63 70 64 35 65
REMARK SMILES IDX 36 66 50 68 71 69 38 70 22 71 23 72 31 73 24 74 26 75 32 76
REMARK SMILES IDX 25 77 27 78 28 79 29 80 30 81 54 82 55 83 63 84 56 85 58 86
REMARK SMILES IDX 64 87 57 88 59 89 60 90 61 91 62 92 39 93 40 94 48 95 41 96
REMARK SMILES IDX 43 97 49 98 42 99 44 100 45 101 46 102 47 103
REMARK H PARENT 3 7 10 37 69 56 37 67
REMARK Flexibility Score: inf
ROOT
ATOM      1  C   UNL     1       4.304   3.173   1.985  1.00  0.00     0.002 C 
ENDROOT
BRANCH   1   2
ATOM      2  C   UNL     1       4.774   2.390   0.755  1.00  0.00     0.021 C 
BRANCH   2   3
ATOM      3  C   UNL     1       4.425   0.903   0.762  1.00  0.00     0.116 C 
BRANCH   3   4
ATOM      4  N   UNL     1       2.987   0.679   0.761  1.00  0.00    -0.352 N 
ATOM      5  O   UNL     1       1.027  -0.121  -0.042  1.00  0.00    -0.269 OA
ATOM      6  C   UNL     1       2.255  -0.149  -0.051  1.00  0.00     0.251 C 
ATOM      7  H   UNL     1       2.473   1.187   1.431  1.00  0.00     0.163 HD
BRANCH   6   8
ATOM      8  C   UNL     1       2.963  -1.075  -0.953  1.00  0.00     0.039 A 
ATOM      9  C   UNL     1       3.875  -1.999  -0.438  1.00  0.00     0.014 A 
ATOM     10  C   UNL     1       2.720  -1.010  -2.323  1.00  0.00     0.014 A 
ATOM     11  C   UNL     1       4.596  -2.819  -1.307  1.00  0.00     0.009 A 
ATOM     12  C   UNL     1       3.443  -1.837  -3.188  1.00  0.00     0.009 A 
ATOM     13  C   UNL     1       4.401  -2.741  -2.694  1.00  0.00    -0.025 A 
BRANCH  13  14
ATOM     14  C   UNL     1       5.166  -3.543  -3.664  1.00  0.00     0.012 C 
ATOM     15  C   UNL     1       6.152  -4.407  -3.372  1.00  0.00     0.053 C 
BRANCH  15  16
ATOM     16  C   UNL     1       6.921  -5.162  -4.380  1.00  0.00     0.134 A 
ATOM     17  C   UNL     1       7.213  -6.503  -4.121  1.00  0.00     0.100 A 
ATOM     18  N   UNL     1       7.401  -4.551  -5.550  1.00  0.00    -0.228 N 
ATOM     19  C   UNL     1       7.937  -7.203  -5.057  1.00  0.00     0.259 A 
ATOM     20  C   UNL     1       8.168  -5.328  -6.424  1.00  0.00     0.333 A 
ATOM     21  O   UNL     1       7.153  -3.320  -5.813  1.00  0.00    -0.710 OA
ATOM     22  N   UNL     1       8.402  -6.657  -6.194  1.00  0.00    -0.049 NA
BRANCH  20  23
ATOM     23  C   UNL     1       8.807  -4.720  -7.591  1.00  0.00     0.076 A 
ATOM     24  C   UNL     1       8.542  -5.183  -8.892  1.00  0.00     0.017 A 
ATOM     25  C   UNL     1       9.717  -3.659  -7.431  1.00  0.00     0.102 A 
ATOM     26  C   UNL     1       9.140  -4.585 -10.006  1.00  0.00     0.008 A 
ATOM     27  C   UNL     1      10.322  -3.069  -8.547  1.00  0.00     0.270 A 
ATOM     28  C   UNL     1      10.031  -3.525  -9.838  1.00  0.00     0.085 A 
BRANCH  27  29
ATOM     29  N   UNL     1      11.274  -1.968  -8.359  1.00  0.00     0.062 N 
ATOM     30  O   UNL     1      11.702  -1.402  -9.376  1.00  0.00    -0.258 OA
ATOM     31  O   UNL     1      11.605  -1.683  -7.201  1.00  0.00    -0.258 OA
ENDBRANCH  27  29
ENDBRANCH  20  23
ENDBRANCH  15  16
ENDBRANCH  13  14
ENDBRANCH   6   8
ENDBRANCH   3   4
ENDBRANCH   2   3
ENDBRANCH   1   2
BRANCH   1  32
ATOM     32  C   UNL     1       4.786   2.633   3.334  1.00  0.00     0.002 C 
BRANCH  32  33
ATOM     33  C   UNL     1       6.302   2.485   3.482  1.00  0.00     0.021 C 
BRANCH  33  34
ATOM     34  C   UNL     1       7.112   3.750   3.212  1.00  0.00     0.116 C 
BRANCH  34  35
ATOM     35  N   UNL     1       6.766   4.839   4.112  1.00  0.00    -0.352 N 
ATOM     36  C   UNL     1       7.591   5.657   4.846  1.00  0.00     0.251 C 
ATOM     37  H   UNL     1       5.803   5.015   4.210  1.00  0.00     0.163 HD
ATOM     38  O   UNL     1       7.109   6.431   5.669  1.00  0.00    -0.269 OA
BRANCH  36  39
ATOM     39  C   UNL     1       9.058   5.589   4.663  1.00  0.00     0.039 A 
ATOM     40  C   UNL     1       9.878   5.565   5.795  1.00  0.00     0.014 A 
ATOM     41  C   UNL     1       9.626   5.556   3.386  1.00  0.00     0.014 A 
ATOM     42  C   UNL     1      11.263   5.447   5.647  1.00  0.00     0.010 A 
ATOM     43  C   UNL     1      10.999   5.372   3.243  1.00  0.00     0.010 A 
ATOM     44  C   UNL     1      11.833   5.319   4.370  1.00  0.00    -0.014 A 
BRANCH  44  45
ATOM     45  C   UNL     1      13.294   5.112   4.194  1.00  0.00     0.031 A 
ATOM     46  C   UNL     1      14.127   6.141   3.478  1.00  0.00     0.074 A 
ATOM     47  C   UNL     1      13.854   3.953   4.596  1.00  0.00     0.049 A 
ATOM     48  N   UNL     1      15.401   6.109   3.182  1.00  0.00    -0.248 NA
ATOM     49  C   UNL     1      13.435   7.353   3.009  1.00  0.00     0.031 C 
ATOM     50  C   UNL     1      13.140   2.844   5.232  1.00  0.00     0.029 A 
ATOM     51  N   UNL     1      15.148   3.503   4.504  1.00  0.00    -0.354 N 
ATOM     52  C   UNL     1      15.653   7.268   2.458  1.00  0.00     0.074 A 
ATOM     53  C   UNL     1      14.396   7.973   2.339  1.00  0.00     0.031 C 
ATOM     54  C   UNL     1      14.005   1.845   5.476  1.00  0.00     0.029 A 
ATOM     55  C   UNL     1      15.327   2.229   4.991  1.00  0.00     0.049 A 
ATOM     56  H   UNL     1      15.880   4.042   4.125  1.00  0.00     0.167 HD
ATOM     57  C   UNL     1      16.830   7.718   1.960  1.00  0.00     0.034 A 
ATOM     58  C   UNL     1      16.429   1.455   5.039  1.00  0.00     0.034 A 
ATOM     59  C   UNL     1      18.088   7.044   2.131  1.00  0.00     0.049 A 
ATOM     60  C   UNL     1      17.733   2.005   4.524  1.00  0.00     0.074 A 
ATOM     61  C   UNL     1      19.351   7.476   1.764  1.00  0.00     0.029 A 
ATOM     62  N   UNL     1      18.246   5.796   2.712  1.00  0.00    -0.354 N 
ATOM     63  N   UNL     1      17.984   3.183   4.006  1.00  0.00    -0.248 NA
ATOM     64  C   UNL     1      18.912   1.134   4.633  1.00  0.00     0.031 C 
ATOM     65  C   UNL     1      20.270   6.478   2.106  1.00  0.00     0.029 A 
ATOM     66  C   UNL     1      19.582   5.435   2.703  1.00  0.00     0.049 A 
ATOM     67  H   UNL     1      17.515   5.247   3.078  1.00  0.00     0.167 HD
ATOM     68  C   UNL     1      19.353   3.209   3.764  1.00  0.00     0.074 A 
ATOM     69  C   UNL     1      19.880   1.936   4.211  1.00  0.00     0.031 C 
ATOM     70  C   UNL     1      20.104   4.192   3.209  1.00  0.00     0.034 A 
BRANCH  57  71
ATOM     71  C   UNL     1      16.828   9.034   1.227  1.00  0.00     0.023 A 
ATOM     72  C   UNL     1      16.674  10.232   1.953  1.00  0.00     0.012 A 
ATOM     73  C   UNL     1      17.054   9.091  -0.162  1.00  0.00     0.148 A 
ATOM     74  C   UNL     1      16.714  11.466   1.304  1.00  0.00     0.002 A 
ATOM     75  C   UNL     1      17.136  10.326  -0.795  1.00  0.00     0.091 A 
ATOM     76  F   UNL     1      17.177   7.940  -0.839  1.00  0.00    -0.205 F 
ATOM     77  C   UNL     1      16.956  11.513  -0.066  1.00  0.00     0.022 A 
BRANCH  75  78
ATOM     78  S   UNL     1      17.523  10.497  -2.541  1.00  0.00     0.127 S 
ATOM     79  O   UNL     1      16.236  10.922  -3.089  1.00  0.00    -0.237 OA
ATOM     80  O   UNL     1      18.553  11.536  -2.529  1.00  0.00    -0.237 OA
ATOM     81  O   UNL     1      17.988   9.188  -2.979  1.00  0.00    -0.744 OA
ENDBRANCH  75  78
ENDBRANCH  57  71
BRANCH  58  82
ATOM     82  C   UNL     1      16.370   0.106   5.671  1.00  0.00     0.023 A 
ATOM     83  C   UNL     1      17.018  -0.101   6.905  1.00  0.00     0.012 A 
ATOM     84  C   UNL     1      15.668  -0.960   5.078  1.00  0.00     0.148 A 
ATOM     85  C   UNL     1      16.999  -1.354   7.518  1.00  0.00     0.002 A 
ATOM     86  C   UNL     1      15.607  -2.192   5.721  1.00  0.00     0.091 A 
ATOM     87  F   UNL     1      15.069  -0.750   3.897  1.00  0.00    -0.205 F 
ATOM     88  C   UNL     1      16.287  -2.396   6.932  1.00  0.00     0.022 A 
BRANCH  86  89
ATOM     89  S   UNL     1      14.605  -3.549   5.102  1.00  0.00     0.127 S 
ATOM     90  O   UNL     1      15.619  -4.449   4.558  1.00  0.00    -0.237 OA
ATOM     91  O   UNL     1      13.949  -4.026   6.320  1.00  0.00    -0.237 OA
ATOM     92  O   UNL     1      13.697  -2.952   4.132  1.00  0.00    -0.744 OA
ENDBRANCH  86  89
ENDBRANCH  58  82
BRANCH  70  93
ATOM     93  C   UNL     1      21.586   3.955   3.082  1.00  0.00     0.023 A 
ATOM     94  C   UNL     1      22.070   3.058   2.110  1.00  0.00     0.012 A 
ATOM     95  C   UNL     1      22.500   4.682   3.870  1.00  0.00     0.148 A 
ATOM     96  C   UNL     1      23.441   2.865   1.945  1.00  0.00     0.002 A 
ATOM     97  C   UNL     1      23.866   4.519   3.668  1.00  0.00     0.091 A 
ATOM     98  F   UNL     1      22.020   5.516   4.804  1.00  0.00    -0.205 F 
ATOM     99  C   UNL     1      24.338   3.603   2.714  1.00  0.00     0.022 A 
BRANCH  97 100
ATOM    100  S   UNL     1      25.090   5.499   4.545  1.00  0.00     0.127 S 
ATOM    101  O   UNL     1      25.619   4.529   5.501  1.00  0.00    -0.237 OA
ATOM    102  O   UNL     1      26.017   5.871   3.476  1.00  0.00    -0.237 OA
ATOM    103  O   UNL     1      24.362   6.620   5.126  1.00  0.00    -0.744 OA
ENDBRANCH  97 100
ENDBRANCH  70  93
ENDBRANCH  44  45
ENDBRANCH  36  39
ENDBRANCH  34  35
ENDBRANCH  33  34
ENDBRANCH  32  33
ENDBRANCH   1  32
TORSDOF 20
