REMARK SMILES C=CC[N@@H+](CC(=O)NCCCCCCNC(=O)c1ccc(-c2c3nc(c(-c4cccc(S(=O)(=O)[O-])c4F)c4ccc([nH]4)c(-c4cccc(S(=O)(=O)[O-])c4F)c4nc(c(-c5cccc(S(=O)(=O)[O-])c5F)c5ccc2[nH]5)C=C4)C=C3)cc1)CC(=O)NC(=O)NC
REMARK SMILES IDX 11 1 10 2 9 3 8 4 6 5 7 6 5 8 4 9 3 11 2 12 1 13 81 14 82 15
REMARK SMILES IDX 83 16 84 17 85 18 86 20 87 21 88 22 12 24 13 25 14 26 15 27
REMARK SMILES IDX 16 28 17 30 18 31 19 32 80 33 20 34 79 35 21 36 22 37 23 38
REMARK SMILES IDX 73 39 24 40 78 41 72 42 74 43 25 44 77 45 71 46 70 47 26 49
REMARK SMILES IDX 58 50 38 51 57 52 39 53 42 54 56 55 75 56 40 57 41 58 55 60
REMARK SMILES IDX 76 61 43 62 27 63 28 64 36 65 29 66 31 67 37 68 30 69 32 70
REMARK SMILES IDX 33 71 34 72 35 73 59 74 60 75 68 76 61 77 63 78 69 79 62 80
REMARK SMILES IDX 64 81 65 82 66 83 67 84 44 85 45 86 53 87 46 88 48 89 54 90
REMARK SMILES IDX 47 91 49 92 50 93 51 94 52 95
REMARK H PARENT 8 7 4 10 84 19 87 23 15 29 74 48 42 59
REMARK Flexibility Score: inf
ROOT
ATOM      1  C   UNL     1      -2.097   2.257   2.436  1.00  0.00     0.002 C 
ENDROOT
BRANCH   1   2
ATOM      2  C   UNL     1      -1.675   0.936   1.792  1.00  0.00     0.021 C 
BRANCH   2   3
ATOM      3  C   UNL     1      -2.764  -0.135   1.750  1.00  0.00     0.116 C 
BRANCH   3   4
ATOM      4  N   UNL     1      -3.701   0.099   0.681  1.00  0.00    -0.351 N 
ATOM      5  C   UNL     1      -3.792  -0.520  -0.526  1.00  0.00     0.275 C 
ATOM      6  O   UNL     1      -4.739  -0.217  -1.256  1.00  0.00    -0.269 OA
ATOM      7  H   UNL     1      -4.367   0.804   0.847  1.00  0.00     0.163 HD
BRANCH   5   8
ATOM      8  C   UNL     1      -2.794  -1.600  -0.952  1.00  0.00     0.364 C 
BRANCH   8   9
ATOM      9  N   UNL     1      -1.439  -1.134  -1.237  1.00  0.00    -0.316 N 
ATOM     10  H   UNL     1      -1.449  -1.634  -2.126  1.00  0.00     0.349 HD
BRANCH   9  11
ATOM     11  C   UNL     1      -0.395  -1.557  -0.320  1.00  0.00     0.291 C 
BRANCH  11  12
ATOM     12  C   UNL     1       1.020  -1.486  -0.819  1.00  0.00     0.025 C 
ATOM     13  C   UNL     1       1.913  -0.591  -0.368  1.00  0.00     0.010 C 
ENDBRANCH  11  12
ENDBRANCH   9  11
BRANCH   9  14
ATOM     14  C   UNL     1      -1.132  -0.141  -2.259  1.00  0.00     0.364 C 
BRANCH  14  15
ATOM     15  C   UNL     1      -2.161   0.949  -2.512  1.00  0.00     0.283 C 
ATOM     16  O   UNL     1      -2.285   1.904  -1.737  1.00  0.00    -0.268 OA
ATOM     17  N   UNL     1      -2.814   0.982  -3.726  1.00  0.00    -0.273 N 
ATOM     18  C   UNL     1      -3.924   0.276  -4.063  1.00  0.00     0.321 C 
ATOM     19  H   UNL     1      -2.439   1.575  -4.417  1.00  0.00     0.175 HD
ATOM     20  O   UNL     1      -4.994   0.871  -4.210  1.00  0.00    -0.248 OA
ATOM     21  N   UNL     1      -3.881  -1.039  -4.343  1.00  0.00    -0.341 N 
ATOM     22  C   UNL     1      -2.790  -1.912  -4.684  1.00  0.00     0.144 C 
ATOM     23  H   UNL     1      -4.758  -1.486  -4.308  1.00  0.00     0.165 HD
ENDBRANCH  14  15
ENDBRANCH   9  14
ENDBRANCH   8   9
ENDBRANCH   5   8
ENDBRANCH   3   4
ENDBRANCH   2   3
ENDBRANCH   1   2
BRANCH   1  24
ATOM     24  C   UNL     1      -2.651   2.143   3.860  1.00  0.00     0.002 C 
BRANCH  24  25
ATOM     25  C   UNL     1      -1.824   1.287   4.824  1.00  0.00     0.021 C 
BRANCH  25  26
ATOM     26  C   UNL     1      -0.359   1.691   4.956  1.00  0.00     0.116 C 
BRANCH  26  27
ATOM     27  N   UNL     1      -0.215   3.053   5.438  1.00  0.00    -0.352 N 
ATOM     28  C   UNL     1       0.384   3.508   6.584  1.00  0.00     0.251 C 
ATOM     29  H   UNL     1      -0.603   3.748   4.859  1.00  0.00     0.163 HD
ATOM     30  O   UNL     1       0.215   4.668   6.944  1.00  0.00    -0.269 OA
BRANCH  28  31
ATOM     31  C   UNL     1       1.224   2.596   7.389  1.00  0.00     0.039 A 
ATOM     32  C   UNL     1       1.069   2.589   8.777  1.00  0.00     0.014 A 
ATOM     33  C   UNL     1       2.178   1.771   6.783  1.00  0.00     0.014 A 
ATOM     34  C   UNL     1       1.845   1.727   9.553  1.00  0.00     0.010 A 
ATOM     35  C   UNL     1       2.902   0.864   7.553  1.00  0.00     0.010 A 
ATOM     36  C   UNL     1       2.754   0.844   8.947  1.00  0.00    -0.014 A 
BRANCH  36  37
ATOM     37  C   UNL     1       3.544  -0.107   9.769  1.00  0.00     0.031 A 
ATOM     38  C   UNL     1       5.042   0.010   9.851  1.00  0.00     0.074 A 
ATOM     39  C   UNL     1       2.910  -1.112  10.405  1.00  0.00     0.049 A 
ATOM     40  N   UNL     1       5.884  -0.704  10.553  1.00  0.00    -0.248 NA
ATOM     41  C   UNL     1       5.681   1.043   9.020  1.00  0.00     0.031 C 
ATOM     42  C   UNL     1       1.475  -1.392  10.319  1.00  0.00     0.029 A 
ATOM     43  N   UNL     1       3.391  -2.093  11.233  1.00  0.00    -0.354 N 
ATOM     44  C   UNL     1       7.149  -0.227  10.230  1.00  0.00     0.074 A 
ATOM     45  C   UNL     1       6.968   0.812   9.240  1.00  0.00     0.031 C 
ATOM     46  C   UNL     1       1.191  -2.464  11.075  1.00  0.00     0.029 A 
ATOM     47  C   UNL     1       2.421  -2.955  11.688  1.00  0.00     0.049 A 
ATOM     48  H   UNL     1       4.341  -2.173  11.479  1.00  0.00     0.167 HD
ATOM     49  C   UNL     1       8.350  -0.596  10.736  1.00  0.00     0.034 A 
ATOM     50  C   UNL     1       2.511  -4.014  12.515  1.00  0.00     0.034 A 
ATOM     51  C   UNL     1       8.521  -1.597  11.755  1.00  0.00     0.049 A 
ATOM     52  C   UNL     1       3.845  -4.351  13.124  1.00  0.00     0.074 A 
ATOM     53  C   UNL     1       9.682  -1.974  12.407  1.00  0.00     0.029 A 
ATOM     54  N   UNL     1       7.502  -2.386  12.266  1.00  0.00    -0.354 N 
ATOM     55  N   UNL     1       5.004  -3.764  12.950  1.00  0.00    -0.248 NA
ATOM     56  C   UNL     1       3.874  -5.467  14.080  1.00  0.00     0.031 C 
ATOM     57  C   UNL     1       9.367  -3.003  13.302  1.00  0.00     0.029 A 
ATOM     58  C   UNL     1       8.007  -3.255  13.219  1.00  0.00     0.049 A 
ATOM     59  H   UNL     1       6.558  -2.336  11.992  1.00  0.00     0.167 HD
ATOM     60  C   UNL     1       5.895  -4.420  13.790  1.00  0.00     0.074 A 
ATOM     61  C   UNL     1       5.132  -5.428  14.499  1.00  0.00     0.031 C 
ATOM     62  C   UNL     1       7.228  -4.224  13.947  1.00  0.00     0.034 A 
BRANCH  49  63
ATOM     63  C   UNL     1       9.572   0.136  10.243  1.00  0.00     0.023 A 
ATOM     64  C   UNL     1       9.787   1.471  10.642  1.00  0.00     0.012 A 
ATOM     65  C   UNL     1      10.534  -0.508   9.440  1.00  0.00     0.148 A 
ATOM     66  C   UNL     1      10.921   2.165  10.224  1.00  0.00     0.002 A 
ATOM     67  C   UNL     1      11.683   0.178   9.061  1.00  0.00     0.091 A 
ATOM     68  F   UNL     1      10.302  -1.770   9.051  1.00  0.00    -0.205 F 
ATOM     69  C   UNL     1      11.873   1.516   9.443  1.00  0.00     0.022 A 
BRANCH  67  70
ATOM     70  S   UNL     1      13.005  -0.593   8.119  1.00  0.00     0.127 S 
ATOM     71  O   UNL     1      12.848   0.047   6.814  1.00  0.00    -0.237 OA
ATOM     72  O   UNL     1      14.196  -0.179   8.862  1.00  0.00    -0.237 OA
ATOM     73  O   UNL     1      12.737  -2.024   8.150  1.00  0.00    -0.744 OA
ENDBRANCH  67  70
ENDBRANCH  49  63
BRANCH  50  74
ATOM     74  C   UNL     1       1.283  -4.773  12.883  1.00  0.00     0.023 A 
ATOM     75  C   UNL     1       0.763  -4.660  14.187  1.00  0.00     0.012 A 
ATOM     76  C   UNL     1       0.606  -5.572  11.941  1.00  0.00     0.148 A 
ATOM     77  C   UNL     1      -0.391  -5.351  14.556  1.00  0.00     0.002 A 
ATOM     78  C   UNL     1      -0.574  -6.213  12.299  1.00  0.00     0.091 A 
ATOM     79  F   UNL     1       1.123  -5.679  10.709  1.00  0.00    -0.205 F 
ATOM     80  C   UNL     1      -1.065  -6.119  13.611  1.00  0.00     0.022 A 
BRANCH  78  81
ATOM     81  S   UNL     1      -1.578  -7.105  11.105  1.00  0.00     0.127 S 
ATOM     82  O   UNL     1      -1.304  -8.494  11.460  1.00  0.00    -0.237 OA
ATOM     83  O   UNL     1      -2.927  -6.639  11.431  1.00  0.00    -0.237 OA
ATOM     84  O   UNL     1      -1.100  -6.675   9.798  1.00  0.00    -0.744 OA
ENDBRANCH  78  81
ENDBRANCH  50  74
BRANCH  62  85
ATOM     85  C   UNL     1       7.946  -5.112  14.929  1.00  0.00     0.023 A 
ATOM     86  C   UNL     1       8.161  -6.468  14.612  1.00  0.00     0.012 A 
ATOM     87  C   UNL     1       8.448  -4.597  16.140  1.00  0.00     0.148 A 
ATOM     88  C   UNL     1       8.827  -7.308  15.503  1.00  0.00     0.002 A 
ATOM     89  C   UNL     1       9.154  -5.430  17.002  1.00  0.00     0.091 A 
ATOM     90  F   UNL     1       8.217  -3.310  16.436  1.00  0.00    -0.205 F 
ATOM     91  C   UNL     1       9.332  -6.787  16.691  1.00  0.00     0.022 A 
BRANCH  89  92
ATOM     92  S   UNL     1       9.916  -4.815  18.508  1.00  0.00     0.127 S 
ATOM     93  O   UNL     1       8.957  -5.241  19.524  1.00  0.00    -0.237 OA
ATOM     94  O   UNL     1      11.190  -5.536  18.533  1.00  0.00    -0.237 OA
ATOM     95  O   UNL     1      10.047  -3.376  18.324  1.00  0.00    -0.744 OA
ENDBRANCH  89  92
ENDBRANCH  62  85
ENDBRANCH  36  37
ENDBRANCH  28  31
ENDBRANCH  26  27
ENDBRANCH  25  26
ENDBRANCH  24  25
ENDBRANCH   1  24
TORSDOF 21
