REMARK SMILES CCN(Cc1ccccn1)C(=O)NC(CC)(CC)C(=O)NCCCCCCNC(=O)c1ccc(-c2c3nc(c(-c4cccc(S(=O)(=O)[O-])c4F)c4ccc([nH]4)c(-c4cccc(S(=O)(=O)[O-])c4F)c4nc(c(-c5cccc(S(=O)(=O)[O-])c5F)c5ccc2[nH]5)C=C4)C=C3)cc1
REMARK SMILES IDX 24 1 23 2 22 3 21 4 19 5 20 6 14 8 13 9 11 10 12 11 3 13
REMARK SMILES IDX 2 14 1 15 4 16 5 17 6 18 10 19 7 20 9 21 8 22 15 23 16 24
REMARK SMILES IDX 17 25 18 26 25 27 26 28 27 29 28 30 29 31 30 33 31 34 32 35
REMARK SMILES IDX 93 36 33 37 92 38 34 39 35 40 36 41 86 42 37 43 91 44 85 45
REMARK SMILES IDX 87 46 38 47 90 48 84 49 83 50 39 52 71 53 51 54 70 55 52 56
REMARK SMILES IDX 55 57 69 58 88 59 53 60 54 61 68 63 89 64 56 65 40 66 41 67
REMARK SMILES IDX 49 68 42 69 44 70 50 71 43 72 45 73 46 74 47 75 48 76 72 77
REMARK SMILES IDX 73 78 81 79 74 80 76 81 82 82 75 83 77 84 78 85 79 86 80 87
REMARK SMILES IDX 57 88 58 89 66 90 59 91 61 92 67 93 60 94 62 95 63 96 64 97
REMARK SMILES IDX 65 98
REMARK H PARENT 21 7 13 12 28 32 87 51 55 62
REMARK Flexibility Score: inf
ROOT
ATOM      1  C   UNL     1      -2.599  -3.935   5.963  1.00  0.00     0.002 C 
ENDROOT
BRANCH   1   2
ATOM      2  C   UNL     1      -1.147  -4.058   6.449  1.00  0.00     0.021 C 
BRANCH   2   3
ATOM      3  C   UNL     1      -0.234  -4.823   5.495  1.00  0.00     0.116 C 
BRANCH   3   4
ATOM      4  N   UNL     1      -0.235  -4.188   4.202  1.00  0.00    -0.354 N 
ATOM      5  C   UNL     1       0.571  -3.144   3.860  1.00  0.00     0.245 C 
ATOM      6  O   UNL     1       0.052  -2.044   3.656  1.00  0.00    -0.272 OA
ATOM      7  H   UNL     1      -0.859  -4.530   3.521  1.00  0.00     0.163 HD
BRANCH   5   8
ATOM      8  C   UNL     1       2.089  -3.406   3.719  1.00  0.00     0.120 C 
BRANCH   8   9
ATOM      9  N   UNL     1       2.619  -2.677   2.529  1.00  0.00    -0.323 N 
ATOM     10  C   UNL     1       2.328  -2.366   1.261  1.00  0.00     0.318 C 
ATOM     11  O   UNL     1       3.308  -1.924   0.639  1.00  0.00    -0.249 OA
ATOM     12  H   UNL     1       3.492  -2.286   2.759  1.00  0.00     0.166 HD
BRANCH  10  13
ATOM     13  N   UNL     1       1.102  -2.373   0.666  1.00  0.00    -0.319 N 
BRANCH  13  14
ATOM     14  C   UNL     1       0.909  -1.335  -0.363  1.00  0.00     0.118 C 
ATOM     15  C   UNL     1       1.137   0.092   0.136  1.00  0.00     0.027 C 
ENDBRANCH  13  14
BRANCH  13  16
ATOM     16  C   UNL     1      -0.092  -3.212   0.884  1.00  0.00     0.177 C 
BRANCH  16  17
ATOM     17  C   UNL     1       0.059  -4.709   1.004  1.00  0.00     0.060 A 
ATOM     18  C   UNL     1       1.114  -5.401   0.421  1.00  0.00     0.026 A 
ATOM     19  N   UNL     1      -0.951  -5.354   1.656  1.00  0.00    -0.259 NA
ATOM     20  C   UNL     1       1.204  -6.778   0.615  1.00  0.00     0.004 A 
ATOM     21  C   UNL     1      -0.848  -6.692   1.810  1.00  0.00     0.111 A 
ATOM     22  C   UNL     1       0.213  -7.437   1.333  1.00  0.00     0.020 A 
ENDBRANCH  16  17
ENDBRANCH  13  16
ENDBRANCH  10  13
ENDBRANCH   8   9
BRANCH   8  23
ATOM     23  C   UNL     1       2.497  -4.908   3.577  1.00  0.00     0.035 C 
ATOM     24  C   UNL     1       3.899  -5.295   4.046  1.00  0.00     0.007 C 
ENDBRANCH   8  23
BRANCH   8  25
ATOM     25  C   UNL     1       2.753  -2.794   5.000  1.00  0.00     0.035 C 
ATOM     26  C   UNL     1       2.502  -1.308   5.248  1.00  0.00     0.007 C 
ENDBRANCH   8  25
ENDBRANCH   5   8
ENDBRANCH   3   4
ENDBRANCH   2   3
ENDBRANCH   1   2
BRANCH   1  27
ATOM     27  C   UNL     1      -3.282  -5.257   5.599  1.00  0.00     0.002 C 
BRANCH  27  28
ATOM     28  C   UNL     1      -3.207  -6.341   6.675  1.00  0.00     0.021 C 
BRANCH  28  29
ATOM     29  C   UNL     1      -3.676  -5.899   8.054  1.00  0.00     0.116 C 
BRANCH  29  30
ATOM     30  N   UNL     1      -5.073  -5.507   8.060  1.00  0.00    -0.352 N 
ATOM     31  C   UNL     1      -6.053  -5.848   8.954  1.00  0.00     0.251 C 
ATOM     32  H   UNL     1      -5.354  -4.918   7.323  1.00  0.00     0.163 HD
ATOM     33  O   UNL     1      -7.227  -5.570   8.710  1.00  0.00    -0.269 OA
BRANCH  31  34
ATOM     34  C   UNL     1      -5.702  -6.570  10.196  1.00  0.00     0.039 A 
ATOM     35  C   UNL     1      -6.518  -7.625  10.607  1.00  0.00     0.014 A 
ATOM     36  C   UNL     1      -4.585  -6.208  10.958  1.00  0.00     0.014 A 
ATOM     37  C   UNL     1      -6.197  -8.335  11.765  1.00  0.00     0.010 A 
ATOM     38  C   UNL     1      -4.219  -6.973  12.062  1.00  0.00     0.010 A 
ATOM     39  C   UNL     1      -5.033  -8.029  12.493  1.00  0.00    -0.014 A 
BRANCH  39  40
ATOM     40  C   UNL     1      -4.678  -8.813  13.703  1.00  0.00     0.031 A 
ATOM     41  C   UNL     1      -4.626  -8.157  15.056  1.00  0.00     0.074 A 
ATOM     42  C   UNL     1      -4.372 -10.120  13.576  1.00  0.00     0.049 A 
ATOM     43  N   UNL     1      -4.421  -8.704  16.227  1.00  0.00    -0.248 NA
ATOM     44  C   UNL     1      -4.801  -6.697  15.104  1.00  0.00     0.031 C 
ATOM     45  C   UNL     1      -4.301 -10.851  12.308  1.00  0.00     0.029 A 
ATOM     46  N   UNL     1      -4.066 -11.065  14.521  1.00  0.00    -0.354 N 
ATOM     47  C   UNL     1      -4.410  -7.658  17.142  1.00  0.00     0.074 A 
ATOM     48  C   UNL     1      -4.590  -6.438  16.387  1.00  0.00     0.031 C 
ATOM     49  C   UNL     1      -4.011 -12.137  12.558  1.00  0.00     0.029 A 
ATOM     50  C   UNL     1      -3.850 -12.319  13.998  1.00  0.00     0.049 A 
ATOM     51  H   UNL     1      -4.006 -10.866  15.483  1.00  0.00     0.167 HD
ATOM     52  C   UNL     1      -4.288  -7.707  18.490  1.00  0.00     0.034 A 
ATOM     53  C   UNL     1      -3.571 -13.486  14.609  1.00  0.00     0.034 A 
ATOM     54  C   UNL     1      -4.146  -8.928  19.238  1.00  0.00     0.049 A 
ATOM     55  C   UNL     1      -3.496 -13.523  16.111  1.00  0.00     0.074 A 
ATOM     56  C   UNL     1      -4.118  -9.097  20.611  1.00  0.00     0.029 A 
ATOM     57  N   UNL     1      -3.989 -10.186  18.677  1.00  0.00    -0.354 N 
ATOM     58  N   UNL     1      -3.668 -12.549  16.971  1.00  0.00    -0.248 NA
ATOM     59  C   UNL     1      -3.230 -14.830  16.728  1.00  0.00     0.031 C 
ATOM     60  C   UNL     1      -3.903 -10.454  20.879  1.00  0.00     0.029 A 
ATOM     61  C   UNL     1      -3.844 -11.135  19.674  1.00  0.00     0.049 A 
ATOM     62  H   UNL     1      -3.982 -10.376  17.711  1.00  0.00     0.167 HD
ATOM     63  C   UNL     1      -3.577 -13.131  18.230  1.00  0.00     0.074 A 
ATOM     64  C   UNL     1      -3.352 -14.547  18.017  1.00  0.00     0.031 C 
ATOM     65  C   UNL     1      -3.665 -12.547  19.451  1.00  0.00     0.034 A 
BRANCH  52  66
ATOM     66  C   UNL     1      -4.336  -6.404  19.247  1.00  0.00     0.023 A 
ATOM     67  C   UNL     1      -5.543  -5.677  19.323  1.00  0.00     0.012 A 
ATOM     68  C   UNL     1      -3.199  -5.922  19.924  1.00  0.00     0.148 A 
ATOM     69  C   UNL     1      -5.605  -4.471  20.021  1.00  0.00     0.002 A 
ATOM     70  C   UNL     1      -3.282  -4.745  20.660  1.00  0.00     0.091 A 
ATOM     71  F   UNL     1      -2.054  -6.612  19.825  1.00  0.00    -0.205 F 
ATOM     72  C   UNL     1      -4.479  -4.012  20.698  1.00  0.00     0.022 A 
BRANCH  70  73
ATOM     73  S   UNL     1      -1.911  -4.118  21.636  1.00  0.00     0.127 S 
ATOM     74  O   UNL     1      -1.499  -2.954  20.852  1.00  0.00    -0.237 OA
ATOM     75  O   UNL     1      -2.559  -3.796  22.908  1.00  0.00    -0.237 OA
ATOM     76  O   UNL     1      -0.940  -5.200  21.707  1.00  0.00    -0.744 OA
ENDBRANCH  70  73
ENDBRANCH  52  66
BRANCH  53  77
ATOM     77  C   UNL     1      -3.439 -14.734  13.805  1.00  0.00     0.023 A 
ATOM     78  C   UNL     1      -4.434 -15.727  13.902  1.00  0.00     0.012 A 
ATOM     79  C   UNL     1      -2.356 -14.931  12.928  1.00  0.00     0.148 A 
ATOM     80  C   UNL     1      -4.335 -16.908  13.167  1.00  0.00     0.002 A 
ATOM     81  C   UNL     1      -2.292 -16.085  12.156  1.00  0.00     0.091 A 
ATOM     82  F   UNL     1      -1.417 -13.977  12.856  1.00  0.00    -0.205 F 
ATOM     83  C   UNL     1      -3.271 -17.083  12.288  1.00  0.00     0.022 A 
BRANCH  81  84
ATOM     84  S   UNL     1      -1.031 -16.339  10.903  1.00  0.00     0.127 S 
ATOM     85  O   UNL     1      -0.257 -17.438  11.476  1.00  0.00    -0.237 OA
ATOM     86  O   UNL     1      -1.836 -16.694   9.734  1.00  0.00    -0.237 OA
ATOM     87  O   UNL     1      -0.330 -15.068  10.786  1.00  0.00    -0.744 OA
ENDBRANCH  81  84
ENDBRANCH  53  77
BRANCH  65  88
ATOM     88  C   UNL     1      -3.568 -13.443  20.660  1.00  0.00     0.023 A 
ATOM     89  C   UNL     1      -2.342 -14.050  20.997  1.00  0.00     0.012 A 
ATOM     90  C   UNL     1      -4.688 -13.642  21.491  1.00  0.00     0.148 A 
ATOM     91  C   UNL     1      -2.244 -14.878  22.115  1.00  0.00     0.002 A 
ATOM     92  C   UNL     1      -4.569 -14.422  22.635  1.00  0.00     0.091 A 
ATOM     93  F   UNL     1      -5.852 -13.073  21.145  1.00  0.00    -0.205 F 
ATOM     94  C   UNL     1      -3.353 -15.054  22.939  1.00  0.00     0.022 A 
BRANCH  92  95
ATOM     95  S   UNL     1      -5.916 -14.618  23.806  1.00  0.00     0.127 S 
ATOM     96  O   UNL     1      -6.356 -15.984  23.529  1.00  0.00    -0.237 OA
ATOM     97  O   UNL     1      -5.239 -14.444  25.092  1.00  0.00    -0.237 OA
ATOM     98  O   UNL     1      -6.878 -13.571  23.487  1.00  0.00    -0.744 OA
ENDBRANCH  92  95
ENDBRANCH  65  88
ENDBRANCH  39  40
ENDBRANCH  31  34
ENDBRANCH  29  30
ENDBRANCH  28  29
ENDBRANCH  27  28
ENDBRANCH   1  27
TORSDOF 23
