REMARK SMILES O=C(NCCCCCCNC(=O)c1ccc(C[NH2+][C@@H]2CCCc3sccc32)nc1)c1ccc(-c2c3nc(c(-c4cccc(S(=O)(=O)[O-])c4F)c4ccc([nH]4)c(-c4cccc(S(=O)(=O)[O-])c4F)c4nc(c(-c5cccc(S(=O)(=O)[O-])c5F)c5ccc2[nH]5)C=C4)C=C3)cc1
REMARK SMILES IDX 6 1 5 2 4 3 3 4 1 5 2 6 30 8 31 9 92 10 32 11 91 12 33 13
REMARK SMILES IDX 34 14 35 15 85 16 36 17 90 18 84 19 86 20 37 21 89 22 83 23
REMARK SMILES IDX 82 24 38 26 70 27 50 28 69 29 51 30 54 31 68 32 87 33 52 34
REMARK SMILES IDX 53 35 67 37 88 38 55 39 39 40 40 41 48 42 41 43 43 44 49 45
REMARK SMILES IDX 42 46 44 47 45 48 46 49 47 50 71 51 72 52 80 53 73 54 75 55
REMARK SMILES IDX 81 56 74 57 76 58 77 59 78 60 79 61 56 62 57 63 65 64 58 65
REMARK SMILES IDX 60 66 66 67 59 68 61 69 62 70 63 71 64 72 7 73 8 74 9 75
REMARK SMILES IDX 10 76 11 77 12 79 13 80 14 81 29 82 15 83 28 84 16 85 17 86
REMARK SMILES IDX 18 87 19 90 20 91 27 92 21 93 23 94 26 95 22 96 24 97 25 98
REMARK H PARENT 3 7 86 25 54 36 10 78 18 88 18 89
REMARK Flexibility Score: inf
ROOT
ATOM      1  C   UNL     1       4.239  -2.054  -3.373  1.00  0.00     0.002 C 
ENDROOT
BRANCH   1   2
ATOM      2  C   UNL     1       4.719  -1.963  -1.925  1.00  0.00     0.021 C 
BRANCH   2   3
ATOM      3  C   UNL     1       4.492  -0.615  -1.254  1.00  0.00     0.116 C 
BRANCH   3   4
ATOM      4  N   UNL     1       3.083  -0.283  -1.129  1.00  0.00    -0.352 N 
ATOM      5  O   UNL     1       1.157   0.181  -0.056  1.00  0.00    -0.269 OA
ATOM      6  C   UNL     1       2.381   0.097  -0.010  1.00  0.00     0.251 C 
ATOM      7  H   UNL     1       2.560  -0.338  -1.961  1.00  0.00     0.163 HD
BRANCH   6   8
ATOM      8  C   UNL     1       3.106   0.371   1.250  1.00  0.00     0.039 A 
ATOM      9  C   UNL     1       4.275   1.136   1.247  1.00  0.00     0.014 A 
ATOM     10  C   UNL     1       2.612  -0.149   2.450  1.00  0.00     0.014 A 
ATOM     11  C   UNL     1       5.024   1.259   2.412  1.00  0.00     0.010 A 
ATOM     12  C   UNL     1       3.323   0.050   3.637  1.00  0.00     0.010 A 
ATOM     13  C   UNL     1       4.551   0.728   3.623  1.00  0.00    -0.014 A 
BRANCH  13  14
ATOM     14  C   UNL     1       5.324   0.963   4.870  1.00  0.00     0.031 A 
ATOM     15  C   UNL     1       5.930  -0.174   5.646  1.00  0.00     0.074 A 
ATOM     16  C   UNL     1       5.479   2.232   5.299  1.00  0.00     0.049 A 
ATOM     17  N   UNL     1       6.663  -0.128   6.729  1.00  0.00    -0.248 NA
ATOM     18  C   UNL     1       5.678  -1.537   5.153  1.00  0.00     0.031 C 
ATOM     19  C   UNL     1       4.894   3.412   4.656  1.00  0.00     0.029 A 
ATOM     20  N   UNL     1       6.168   2.744   6.367  1.00  0.00    -0.354 N 
ATOM     21  C   UNL     1       6.928  -1.449   7.071  1.00  0.00     0.074 A 
ATOM     22  C   UNL     1       6.270  -2.277   6.082  1.00  0.00     0.031 C 
ATOM     23  C   UNL     1       5.272   4.511   5.324  1.00  0.00     0.029 A 
ATOM     24  C   UNL     1       6.083   4.113   6.469  1.00  0.00     0.049 A 
ATOM     25  H   UNL     1       6.675   2.186   7.000  1.00  0.00     0.167 HD
ATOM     26  C   UNL     1       7.665  -1.927   8.103  1.00  0.00     0.034 A 
ATOM     27  C   UNL     1       6.590   4.957   7.387  1.00  0.00     0.034 A 
ATOM     28  C   UNL     1       8.346  -1.096   9.062  1.00  0.00     0.049 A 
ATOM     29  C   UNL     1       7.428   4.400   8.501  1.00  0.00     0.074 A 
ATOM     30  C   UNL     1       9.171  -1.484  10.104  1.00  0.00     0.029 A 
ATOM     31  N   UNL     1       8.276   0.288   9.105  1.00  0.00    -0.354 N 
ATOM     32  N   UNL     1       7.778   3.157   8.725  1.00  0.00    -0.248 NA
ATOM     33  C   UNL     1       7.964   5.364   9.471  1.00  0.00     0.031 C 
ATOM     34  C   UNL     1       9.586  -0.336  10.787  1.00  0.00     0.029 A 
ATOM     35  C   UNL     1       9.036   0.770  10.159  1.00  0.00     0.049 A 
ATOM     36  H   UNL     1       7.762   0.847   8.479  1.00  0.00     0.167 HD
ATOM     37  C   UNL     1       8.595   3.190   9.848  1.00  0.00     0.074 A 
ATOM     38  C   UNL     1       8.710   4.581  10.239  1.00  0.00     0.031 C 
ATOM     39  C   UNL     1       9.180   2.160  10.508  1.00  0.00     0.034 A 
BRANCH  26  40
ATOM     40  C   UNL     1       7.816  -3.421   8.230  1.00  0.00     0.023 A 
ATOM     41  C   UNL     1       8.658  -4.112   7.335  1.00  0.00     0.012 A 
ATOM     42  C   UNL     1       7.190  -4.130   9.274  1.00  0.00     0.148 A 
ATOM     43  C   UNL     1       8.854  -5.487   7.460  1.00  0.00     0.002 A 
ATOM     44  C   UNL     1       7.420  -5.495   9.416  1.00  0.00     0.091 A 
ATOM     45  F   UNL     1       6.376  -3.462  10.104  1.00  0.00    -0.205 F 
ATOM     46  C   UNL     1       8.244  -6.176   8.505  1.00  0.00     0.022 A 
BRANCH  44  47
ATOM     47  S   UNL     1       6.740  -6.455  10.774  1.00  0.00     0.127 S 
ATOM     48  O   UNL     1       5.693  -7.220  10.098  1.00  0.00    -0.237 OA
ATOM     49  O   UNL     1       7.894  -7.248  11.201  1.00  0.00    -0.237 OA
ATOM     50  O   UNL     1       6.276  -5.485  11.755  1.00  0.00    -0.744 OA
ENDBRANCH  44  47
ENDBRANCH  26  40
BRANCH  27  51
ATOM     51  C   UNL     1       6.357   6.422   7.248  1.00  0.00     0.023 A 
ATOM     52  C   UNL     1       7.431   7.264   6.905  1.00  0.00     0.012 A 
ATOM     53  C   UNL     1       5.070   6.974   7.397  1.00  0.00     0.148 A 
ATOM     54  C   UNL     1       7.232   8.634   6.734  1.00  0.00     0.002 A 
ATOM     55  C   UNL     1       4.868   8.329   7.166  1.00  0.00     0.091 A 
ATOM     56  F   UNL     1       4.064   6.158   7.741  1.00  0.00    -0.205 F 
ATOM     57  C   UNL     1       5.950   9.164   6.851  1.00  0.00     0.022 A 
BRANCH  55  58
ATOM     58  S   UNL     1       3.227   9.059   7.151  1.00  0.00     0.127 S 
ATOM     59  O   UNL     1       3.208   9.779   8.421  1.00  0.00    -0.237 OA
ATOM     60  O   UNL     1       3.282   9.910   5.961  1.00  0.00    -0.237 OA
ATOM     61  O   UNL     1       2.304   7.938   7.039  1.00  0.00    -0.744 OA
ENDBRANCH  55  58
ENDBRANCH  27  51
BRANCH  39  62
ATOM     62  C   UNL     1      10.018   2.499  11.711  1.00  0.00     0.023 A 
ATOM     63  C   UNL     1       9.390   2.901  12.907  1.00  0.00     0.012 A 
ATOM     64  C   UNL     1      11.419   2.366  11.676  1.00  0.00     0.148 A 
ATOM     65  C   UNL     1      10.147   3.197  14.040  1.00  0.00     0.002 A 
ATOM     66  C   UNL     1      12.164   2.618  12.822  1.00  0.00     0.091 A 
ATOM     67  F   UNL     1      12.000   2.005  10.522  1.00  0.00    -0.205 F 
ATOM     68  C   UNL     1      11.531   3.045  14.001  1.00  0.00     0.022 A 
BRANCH  66  69
ATOM     69  S   UNL     1      13.940   2.360  12.885  1.00  0.00     0.127 S 
ATOM     70  O   UNL     1      14.444   3.730  12.821  1.00  0.00    -0.237 OA
ATOM     71  O   UNL     1      14.116   1.706  14.183  1.00  0.00    -0.237 OA
ATOM     72  O   UNL     1      14.260   1.517  11.741  1.00  0.00    -0.744 OA
ENDBRANCH  66  69
ENDBRANCH  39  62
ENDBRANCH  13  14
ENDBRANCH   6   8
ENDBRANCH   3   4
ENDBRANCH   2   3
ENDBRANCH   1   2
BRANCH   1  73
ATOM     73  C   UNL     1       4.799  -0.989  -4.320  1.00  0.00     0.002 C 
BRANCH  73  74
ATOM     74  C   UNL     1       6.325  -0.869  -4.354  1.00  0.00     0.021 C 
BRANCH  74  75
ATOM     75  C   UNL     1       7.071  -2.170  -4.639  1.00  0.00     0.116 C 
BRANCH  75  76
ATOM     76  N   UNL     1       6.724  -2.724  -5.938  1.00  0.00    -0.352 N 
ATOM     77  C   UNL     1       7.556  -3.068  -6.972  1.00  0.00     0.252 C 
ATOM     78  H   UNL     1       5.764  -2.872  -6.097  1.00  0.00     0.163 HD
ATOM     79  O   UNL     1       7.107  -3.364  -8.074  1.00  0.00    -0.269 OA
BRANCH  77  80
ATOM     80  C   UNL     1       9.006  -3.069  -6.751  1.00  0.00     0.058 A 
ATOM     81  C   UNL     1       9.595  -3.825  -5.739  1.00  0.00     0.017 A 
ATOM     82  C   UNL     1       9.812  -2.288  -7.560  1.00  0.00     0.125 A 
ATOM     83  C   UNL     1      10.966  -3.718  -5.532  1.00  0.00     0.030 A 
ATOM     84  N   UNL     1      11.146  -2.164  -7.374  1.00  0.00    -0.255 NA
ATOM     85  C   UNL     1      11.707  -2.867  -6.353  1.00  0.00     0.094 A 
BRANCH  85  86
ATOM     86  C   UNL     1      13.193  -2.678  -6.100  1.00  0.00     0.318 C 
BRANCH  86  87
ATOM     87  N   UNL     1      14.013  -3.221  -7.189  1.00  0.00    -0.335 N 
ATOM     88  H   UNL     1      13.819  -2.678  -8.031  1.00  0.00     0.347 HD
ATOM     89  H   UNL     1      13.758  -4.205  -7.273  1.00  0.00     0.347 HD
BRANCH  87  90
ATOM     90  C   UNL     1      15.457  -3.193  -6.954  1.00  0.00     0.215 C 
ATOM     91  C   UNL     1      15.913  -4.236  -5.903  1.00  0.00     0.071 C 
ATOM     92  C   UNL     1      15.950  -1.803  -6.634  1.00  0.00     0.023 A 
ATOM     93  C   UNL     1      17.373  -4.012  -5.480  1.00  0.00     0.012 C 
ATOM     94  C   UNL     1      16.914  -1.574  -5.668  1.00  0.00     0.014 A 
ATOM     95  C   UNL     1      15.564  -0.578  -7.269  1.00  0.00     0.022 A 
ATOM     96  C   UNL     1      17.562  -2.632  -4.830  1.00  0.00     0.047 C 
ATOM     97  S   UNL     1      17.286   0.076  -5.481  1.00  0.00    -0.148 S 
ATOM     98  C   UNL     1      16.192   0.518  -6.719  1.00  0.00     0.065 A 
ENDBRANCH  87  90
ENDBRANCH  86  87
ENDBRANCH  85  86
ENDBRANCH  77  80
ENDBRANCH  75  76
ENDBRANCH  74  75
ENDBRANCH  73  74
ENDBRANCH   1  73
TORSDOF 19
