REMARK SMILES Cc1nsc(NC(=O)C2([NH3+])CCCCC2)c1C(=O)NCCCCCCNC(=O)c1ccc(-c2c3nc(c(-c4cccc(S(=O)(=O)[O-])c4F)c4ccc([nH]4)c(-c4cccc(S(=O)(=O)[O-])c4F)c4nc(c(-c5cccc(S(=O)(=O)[O-])c5F)c5ccc2[nH]5)C=C4)C=C3)cc1
REMARK SMILES IDX 22 1 21 2 20 3 19 4 17 5 18 6 16 8 1 9 2 10 3 11 4 12 5 13
REMARK SMILES IDX 6 14 7 15 8 17 9 18 11 19 15 20 12 21 14 22 13 23 10 24
REMARK SMILES IDX 23 28 24 29 25 30 26 31 27 32 28 34 29 35 30 36 91 37 31 38
REMARK SMILES IDX 90 39 32 40 33 41 34 42 84 43 35 44 89 45 83 46 85 47 36 48
REMARK SMILES IDX 88 49 82 50 81 51 37 53 69 54 49 55 68 56 50 57 53 58 67 59
REMARK SMILES IDX 86 60 51 61 52 62 66 64 87 65 54 66 38 67 39 68 47 69 40 70
REMARK SMILES IDX 42 71 48 72 41 73 43 74 44 75 45 76 46 77 70 78 71 79 79 80
REMARK SMILES IDX 72 81 74 82 80 83 73 84 75 85 76 86 77 87 78 88 55 89 56 90
REMARK SMILES IDX 64 91 57 92 59 93 65 94 58 95 60 96 61 97 62 98 63 99
REMARK H PARENT 19 7 6 16 10 25 10 26 10 27 26 33 85 52 53 63
REMARK Flexibility Score: inf
ROOT
ATOM      1  C   UNL     1       1.240   3.238  -2.793  1.00  0.00     0.002 C 
ENDROOT
BRANCH   1   2
ATOM      2  C   UNL     1       0.910   2.094  -1.829  1.00  0.00     0.021 C 
BRANCH   2   3
ATOM      3  C   UNL     1       1.829   2.042  -0.610  1.00  0.00     0.116 C 
BRANCH   3   4
ATOM      4  N   UNL     1       1.308   2.844   0.457  1.00  0.00    -0.352 N 
ATOM      5  C   UNL     1       0.644   2.570   1.613  1.00  0.00     0.256 C 
ATOM      6  O   UNL     1       0.455   3.583   2.303  1.00  0.00    -0.269 OA
ATOM      7  H   UNL     1       1.465   3.807   0.325  1.00  0.00     0.163 HD
BRANCH   5   8
ATOM      8  C   UNL     1       0.225   1.246   2.112  1.00  0.00     0.097 A 
ATOM      9  C   UNL     1       0.372  -0.649   0.176  1.00  0.00     0.069 C 
ATOM     10  C   UNL     1       0.110  -0.101   1.535  1.00  0.00     0.066 A 
ATOM     11  N   UNL     1      -0.301  -1.053   2.374  1.00  0.00    -0.195 NA
ATOM     12  S   UNL     1      -0.750  -0.387   3.776  1.00  0.00    -0.017 S 
ATOM     13  C   UNL     1      -0.193   1.166   3.459  1.00  0.00     0.129 A 
BRANCH  13  14
ATOM     14  N   UNL     1      -0.142   2.183   4.404  1.00  0.00    -0.310 N 
ATOM     15  C   UNL     1      -0.404   2.337   5.734  1.00  0.00     0.286 C 
ATOM     16  H   UNL     1       0.168   3.027   4.003  1.00  0.00     0.171 HD
ATOM     17  O   UNL     1      -0.042   3.425   6.211  1.00  0.00    -0.267 OA
BRANCH  15  18
ATOM     18  C   UNL     1      -1.137   1.299   6.643  1.00  0.00     0.174 C 
ATOM     19  C   UNL     1      -1.070   1.694   8.141  1.00  0.00     0.079 C 
ATOM     20  C   UNL     1      -2.611   1.179   6.196  1.00  0.00     0.079 C 
ATOM     21  C   UNL     1      -1.970   2.857   8.551  1.00  0.00     0.007 C 
ATOM     22  C   UNL     1      -3.438   2.414   6.564  1.00  0.00     0.007 C 
ATOM     23  C   UNL     1      -3.399   2.673   8.062  1.00  0.00     0.001 C 
BRANCH  18  24
ATOM     24  N   UNL     1      -0.407   0.005   6.641  1.00  0.00    -0.345 N 
ATOM     25  H   UNL     1       0.555   0.157   6.945  1.00  0.00     0.345 HD
ATOM     26  H   UNL     1      -0.408  -0.384   5.698  1.00  0.00     0.345 HD
ATOM     27  H   UNL     1      -0.866  -0.645   7.278  1.00  0.00     0.345 HD
ENDBRANCH  18  24
ENDBRANCH  15  18
ENDBRANCH  13  14
ENDBRANCH   5   8
ENDBRANCH   3   4
ENDBRANCH   2   3
ENDBRANCH   1   2
BRANCH   1  28
ATOM     28  C   UNL     1       2.694   3.276  -3.290  1.00  0.00     0.002 C 
BRANCH  28  29
ATOM     29  C   UNL     1       3.269   1.944  -3.800  1.00  0.00     0.021 C 
BRANCH  29  30
ATOM     30  C   UNL     1       2.666   1.506  -5.124  1.00  0.00     0.116 C 
BRANCH  30  31
ATOM     31  N   UNL     1       3.010   2.439  -6.199  1.00  0.00    -0.352 N 
ATOM     32  C   UNL     1       2.546   2.485  -7.501  1.00  0.00     0.251 C 
ATOM     33  H   UNL     1       3.667   3.133  -5.961  1.00  0.00     0.163 HD
ATOM     34  O   UNL     1       3.146   3.102  -8.360  1.00  0.00    -0.269 OA
BRANCH  32  35
ATOM     35  C   UNL     1       1.301   1.767  -7.815  1.00  0.00     0.039 A 
ATOM     36  C   UNL     1       1.167   1.015  -8.985  1.00  0.00     0.014 A 
ATOM     37  C   UNL     1       0.281   1.821  -6.875  1.00  0.00     0.014 A 
ATOM     38  C   UNL     1       0.013   0.257  -9.161  1.00  0.00     0.010 A 
ATOM     39  C   UNL     1      -0.744   0.921  -6.951  1.00  0.00     0.010 A 
ATOM     40  C   UNL     1      -0.933   0.207  -8.129  1.00  0.00    -0.014 A 
BRANCH  40  41
ATOM     41  C   UNL     1      -2.115  -0.639  -8.217  1.00  0.00     0.031 A 
ATOM     42  C   UNL     1      -1.848  -2.079  -8.468  1.00  0.00     0.074 A 
ATOM     43  C   UNL     1      -3.334  -0.186  -7.850  1.00  0.00     0.049 A 
ATOM     44  N   UNL     1      -2.156  -2.768  -9.517  1.00  0.00    -0.248 NA
ATOM     45  C   UNL     1      -1.024  -2.811  -7.494  1.00  0.00     0.031 C 
ATOM     46  C   UNL     1      -3.681   1.126  -7.279  1.00  0.00     0.029 A 
ATOM     47  N   UNL     1      -4.503  -0.870  -7.748  1.00  0.00    -0.354 N 
ATOM     48  C   UNL     1      -1.794  -4.080  -9.218  1.00  0.00     0.074 A 
ATOM     49  C   UNL     1      -0.916  -4.005  -8.080  1.00  0.00     0.031 C 
ATOM     50  C   UNL     1      -4.867   1.041  -6.642  1.00  0.00     0.029 A 
ATOM     51  C   UNL     1      -5.448  -0.251  -6.937  1.00  0.00     0.049 A 
ATOM     52  H   UNL     1      -4.667  -1.726  -8.207  1.00  0.00     0.167 HD
ATOM     53  C   UNL     1      -2.472  -5.137  -9.747  1.00  0.00     0.034 A 
ATOM     54  C   UNL     1      -6.613  -0.781  -6.502  1.00  0.00     0.034 A 
ATOM     55  C   UNL     1      -3.291  -4.735 -10.864  1.00  0.00     0.049 A 
ATOM     56  C   UNL     1      -6.956  -1.880  -7.430  1.00  0.00     0.074 A 
ATOM     57  C   UNL     1      -3.067  -4.110 -12.074  1.00  0.00     0.029 A 
ATOM     58  N   UNL     1      -4.642  -4.628 -10.633  1.00  0.00    -0.354 N 
ATOM     59  N   UNL     1      -7.223  -1.692  -8.694  1.00  0.00    -0.248 NA
ATOM     60  C   UNL     1      -6.571  -3.232  -7.066  1.00  0.00     0.031 C 
ATOM     61  C   UNL     1      -4.192  -3.250 -12.255  1.00  0.00     0.029 A 
ATOM     62  C   UNL     1      -5.062  -3.445 -11.179  1.00  0.00     0.049 A 
ATOM     63  H   UNL     1      -5.205  -5.283 -10.160  1.00  0.00     0.167 HD
ATOM     64  C   UNL     1      -6.602  -2.753  -9.340  1.00  0.00     0.074 A 
ATOM     65  C   UNL     1      -6.333  -3.728  -8.284  1.00  0.00     0.031 C 
ATOM     66  C   UNL     1      -6.102  -2.615 -10.606  1.00  0.00     0.034 A 
BRANCH  53  67
ATOM     67  C   UNL     1      -2.722  -6.450  -9.032  1.00  0.00     0.023 A 
ATOM     68  C   UNL     1      -3.320  -7.490  -9.782  1.00  0.00     0.012 A 
ATOM     69  C   UNL     1      -2.678  -6.622  -7.630  1.00  0.00     0.148 A 
ATOM     70  C   UNL     1      -3.901  -8.603  -9.164  1.00  0.00     0.002 A 
ATOM     71  C   UNL     1      -3.183  -7.768  -7.027  1.00  0.00     0.091 A 
ATOM     72  F   UNL     1      -2.279  -5.622  -6.840  1.00  0.00    -0.205 F 
ATOM     73  C   UNL     1      -3.828  -8.746  -7.785  1.00  0.00     0.022 A 
BRANCH  71  74
ATOM     74  S   UNL     1      -3.067  -8.015  -5.250  1.00  0.00     0.127 S 
ATOM     75  O   UNL     1      -4.424  -7.690  -4.824  1.00  0.00    -0.237 OA
ATOM     76  O   UNL     1      -2.709  -9.431  -5.166  1.00  0.00    -0.237 OA
ATOM     77  O   UNL     1      -2.014  -7.110  -4.806  1.00  0.00    -0.744 OA
ENDBRANCH  71  74
ENDBRANCH  53  67
BRANCH  54  78
ATOM     78  C   UNL     1      -7.301  -0.558  -5.213  1.00  0.00     0.023 A 
ATOM     79  C   UNL     1      -8.682  -0.801  -5.100  1.00  0.00     0.012 A 
ATOM     80  C   UNL     1      -6.557  -0.349  -4.028  1.00  0.00     0.148 A 
ATOM     81  C   UNL     1      -9.299  -0.861  -3.844  1.00  0.00     0.002 A 
ATOM     82  C   UNL     1      -7.176  -0.400  -2.783  1.00  0.00     0.091 A 
ATOM     83  F   UNL     1      -5.231  -0.185  -4.120  1.00  0.00    -0.205 F 
ATOM     84  C   UNL     1      -8.547  -0.668  -2.687  1.00  0.00     0.022 A 
BRANCH  82  85
ATOM     85  S   UNL     1      -6.267  -0.174  -1.247  1.00  0.00     0.127 S 
ATOM     86  O   UNL     1      -7.064   0.852  -0.574  1.00  0.00    -0.237 OA
ATOM     87  O   UNL     1      -6.348  -1.503  -0.648  1.00  0.00    -0.237 OA
ATOM     88  O   UNL     1      -4.930   0.263  -1.632  1.00  0.00    -0.744 OA
ENDBRANCH  82  85
ENDBRANCH  54  78
BRANCH  66  89
ATOM     89  C   UNL     1      -6.437  -1.354 -11.371  1.00  0.00     0.023 A 
ATOM     90  C   UNL     1      -5.974  -0.086 -10.959  1.00  0.00     0.012 A 
ATOM     91  C   UNL     1      -7.057  -1.470 -12.626  1.00  0.00     0.148 A 
ATOM     92  C   UNL     1      -6.142   1.042 -11.767  1.00  0.00     0.002 A 
ATOM     93  C   UNL     1      -7.186  -0.353 -13.446  1.00  0.00     0.091 A 
ATOM     94  F   UNL     1      -7.476  -2.684 -13.014  1.00  0.00    -0.205 F 
ATOM     95  C   UNL     1      -6.737   0.906 -13.017  1.00  0.00     0.022 A 
BRANCH  93  96
ATOM     96  S   UNL     1      -7.829  -0.474 -15.117  1.00  0.00     0.127 S 
ATOM     97  O   UNL     1      -9.115   0.211 -14.999  1.00  0.00    -0.237 OA
ATOM     98  O   UNL     1      -6.819   0.250 -15.892  1.00  0.00    -0.237 OA
ATOM     99  O   UNL     1      -7.906  -1.897 -15.419  1.00  0.00    -0.744 OA
ENDBRANCH  93  96
ENDBRANCH  66  89
ENDBRANCH  40  41
ENDBRANCH  32  35
ENDBRANCH  30  31
ENDBRANCH  29  30
ENDBRANCH  28  29
ENDBRANCH   1  28
TORSDOF 19
