REMARK SMILES O=C(NCCCCCCNC(=O)[C@@H]1CCCN(c2ccc3cc(S(=O)(=O)N4CCCCC4)ccc3n2)C1)c1ccc(-c2c3nc(c(-c4cccc(S(=O)(=O)[O-])c4F)c4ccc([nH]4)c(-c4cccc(S(=O)(=O)[O-])c4F)c4nc(c(-c5cccc(S(=O)(=O)[O-])c5F)c5ccc2[nH]5)C=C4)C=C3)cc1
REMARK SMILES IDX 6 1 5 2 4 3 3 4 1 5 2 6 38 8 39 9 100 10 40 11 99 12 41 13
REMARK SMILES IDX 42 14 43 15 93 16 44 17 98 18 92 19 94 20 45 21 97 22 91 23
REMARK SMILES IDX 90 24 46 26 78 27 58 28 77 29 59 30 62 31 76 32 95 33 60 34
REMARK SMILES IDX 61 35 75 37 96 38 63 39 47 40 48 41 56 42 49 43 51 44 57 45
REMARK SMILES IDX 50 46 52 47 53 48 54 49 55 50 79 51 80 52 88 53 81 54 83 55
REMARK SMILES IDX 89 56 82 57 84 58 85 59 86 60 87 61 64 62 65 63 73 64 66 65
REMARK SMILES IDX 68 66 74 67 67 68 69 69 70 70 71 71 72 72 7 73 8 74 9 75
REMARK SMILES IDX 10 76 11 77 12 79 13 80 14 81 37 82 15 83 17 84 16 85 18 86
REMARK SMILES IDX 19 87 36 88 20 89 35 90 21 91 34 92 22 93 33 94 23 95 24 96
REMARK SMILES IDX 25 97 26 98 27 99 28 100 32 101 29 102 31 103 30 104
REMARK H PARENT 3 7 94 25 62 36 10 78
REMARK Flexibility Score: inf
ROOT
ATOM      1  C   UNL     1       3.719  -3.277  -1.801  1.00  0.00     0.002 C 
ENDROOT
BRANCH   1   2
ATOM      2  C   UNL     1       4.298  -2.496  -0.620  1.00  0.00     0.021 C 
BRANCH   2   3
ATOM      3  C   UNL     1       4.248  -0.982  -0.787  1.00  0.00     0.116 C 
BRANCH   3   4
ATOM      4  N   UNL     1       2.880  -0.491  -0.856  1.00  0.00    -0.352 N 
ATOM      5  O   UNL     1       0.976   0.412  -0.054  1.00  0.00    -0.269 OA
ATOM      6  C   UNL     1       2.194   0.298   0.036  1.00  0.00     0.251 C 
ATOM      7  H   UNL     1       2.374  -0.763  -1.655  1.00  0.00     0.163 HD
BRANCH   6   8
ATOM      8  C   UNL     1       2.937   0.988   1.112  1.00  0.00     0.039 A 
ATOM      9  C   UNL     1       4.143   1.631   0.828  1.00  0.00     0.014 A 
ATOM     10  C   UNL     1       2.432   0.983   2.414  1.00  0.00     0.014 A 
ATOM     11  C   UNL     1       4.924   2.118   1.868  1.00  0.00     0.010 A 
ATOM     12  C   UNL     1       3.174   1.566   3.445  1.00  0.00     0.010 A 
ATOM     13  C   UNL     1       4.446   2.101   3.188  1.00  0.00    -0.014 A 
BRANCH  13  14
ATOM     14  C   UNL     1       5.281   2.698   4.263  1.00  0.00     0.031 A 
ATOM     15  C   UNL     1       5.795   1.869   5.409  1.00  0.00     0.074 A 
ATOM     16  C   UNL     1       5.593   4.007   4.182  1.00  0.00     0.049 A 
ATOM     17  N   UNL     1       6.584   2.227   6.390  1.00  0.00    -0.248 NA
ATOM     18  C   UNL     1       5.364   0.464   5.474  1.00  0.00     0.031 C 
ATOM     19  C   UNL     1       5.116   4.922   3.141  1.00  0.00     0.029 A 
ATOM     20  N   UNL     1       6.387   4.794   4.975  1.00  0.00    -0.354 N 
ATOM     21  C   UNL     1       6.705   1.113   7.213  1.00  0.00     0.074 A 
ATOM     22  C   UNL     1       5.904   0.064   6.618  1.00  0.00     0.031 C 
ATOM     23  C   UNL     1       5.660   6.131   3.333  1.00  0.00     0.029 A 
ATOM     24  C   UNL     1       6.476   6.096   4.540  1.00  0.00     0.049 A 
ATOM     25  H   UNL     1       6.849   4.460   5.777  1.00  0.00     0.167 HD
ATOM     26  C   UNL     1       7.426   0.973   8.351  1.00  0.00     0.034 A 
ATOM     27  C   UNL     1       7.134   7.150   5.059  1.00  0.00     0.034 A 
ATOM     28  C   UNL     1       8.253   2.009   8.915  1.00  0.00     0.049 A 
ATOM     29  C   UNL     1       7.953   6.953   6.301  1.00  0.00     0.074 A 
ATOM     30  C   UNL     1       9.081   1.941  10.022  1.00  0.00     0.029 A 
ATOM     31  N   UNL     1       8.348   3.303   8.425  1.00  0.00    -0.354 N 
ATOM     32  N   UNL     1       8.162   5.855   6.985  1.00  0.00    -0.248 NA
ATOM     33  C   UNL     1       8.650   8.134   6.827  1.00  0.00     0.031 C 
ATOM     34  C   UNL     1       9.656   3.202  10.217  1.00  0.00     0.029 A 
ATOM     35  C   UNL     1       9.212   4.046   9.213  1.00  0.00     0.049 A 
ATOM     36  H   UNL     1       7.873   3.643   7.633  1.00  0.00     0.167 HD
ATOM     37  C   UNL     1       9.042   6.203   8.002  1.00  0.00     0.074 A 
ATOM     38  C   UNL     1       9.344   7.610   7.827  1.00  0.00     0.031 C 
ATOM     39  C   UNL     1       9.543   5.432   8.998  1.00  0.00     0.034 A 
BRANCH  26  40
ATOM     40  C   UNL     1       7.379  -0.358   9.059  1.00  0.00     0.023 A 
ATOM     41  C   UNL     1       8.037  -1.474   8.503  1.00  0.00     0.012 A 
ATOM     42  C   UNL     1       6.741  -0.487  10.310  1.00  0.00     0.148 A 
ATOM     43  C   UNL     1       8.033  -2.703   9.162  1.00  0.00     0.002 A 
ATOM     44  C   UNL     1       6.779  -1.704  10.982  1.00  0.00     0.091 A 
ATOM     45  F   UNL     1       6.103   0.578  10.816  1.00  0.00    -0.205 F 
ATOM     46  C   UNL     1       7.414  -2.815  10.404  1.00  0.00     0.022 A 
BRANCH  44  47
ATOM     47  S   UNL     1       6.083  -1.926  12.623  1.00  0.00     0.127 S 
ATOM     48  O   UNL     1       4.901  -2.737  12.334  1.00  0.00    -0.237 OA
ATOM     49  O   UNL     1       7.155  -2.638  13.319  1.00  0.00    -0.237 OA
ATOM     50  O   UNL     1       5.816  -0.587  13.130  1.00  0.00    -0.744 OA
ENDBRANCH  44  47
ENDBRANCH  26  40
BRANCH  27  51
ATOM     51  C   UNL     1       7.087   8.468   4.366  1.00  0.00     0.023 A 
ATOM     52  C   UNL     1       8.249   8.967   3.747  1.00  0.00     0.012 A 
ATOM     53  C   UNL     1       5.891   9.207   4.281  1.00  0.00     0.148 A 
ATOM     54  C   UNL     1       8.229  10.193   3.082  1.00  0.00     0.002 A 
ATOM     55  C   UNL     1       5.863  10.398   3.566  1.00  0.00     0.091 A 
ATOM     56  F   UNL     1       4.799   8.721   4.888  1.00  0.00    -0.205 F 
ATOM     57  C   UNL     1       7.035  10.902   2.981  1.00  0.00     0.022 A 
BRANCH  55  58
ATOM     58  S   UNL     1       4.341  11.302   3.266  1.00  0.00     0.127 S 
ATOM     59  O   UNL     1       4.519  12.476   4.116  1.00  0.00    -0.237 OA
ATOM     60  O   UNL     1       4.424  11.563   1.828  1.00  0.00    -0.237 OA
ATOM     61  O   UNL     1       3.266  10.397   3.648  1.00  0.00    -0.744 OA
ENDBRANCH  55  58
ENDBRANCH  27  51
BRANCH  39  62
ATOM     62  C   UNL     1      10.509   6.080   9.954  1.00  0.00     0.023 A 
ATOM     63  C   UNL     1      10.045   7.021  10.895  1.00  0.00     0.012 A 
ATOM     64  C   UNL     1      11.870   5.717   9.953  1.00  0.00     0.148 A 
ATOM     65  C   UNL     1      10.929   7.621  11.791  1.00  0.00     0.002 A 
ATOM     66  C   UNL     1      12.734   6.280  10.884  1.00  0.00     0.091 A 
ATOM     67  F   UNL     1      12.297   4.837   9.036  1.00  0.00    -0.205 F 
ATOM     68  C   UNL     1      12.269   7.242  11.794  1.00  0.00     0.022 A 
BRANCH  66  69
ATOM     69  S   UNL     1      14.453   5.775  11.020  1.00  0.00     0.127 S 
ATOM     70  O   UNL     1      15.146   6.907  10.408  1.00  0.00    -0.237 OA
ATOM     71  O   UNL     1      14.631   5.662  12.468  1.00  0.00    -0.237 OA
ATOM     72  O   UNL     1      14.556   4.512  10.301  1.00  0.00    -0.744 OA
ENDBRANCH  66  69
ENDBRANCH  39  62
ENDBRANCH  13  14
ENDBRANCH   6   8
ENDBRANCH   3   4
ENDBRANCH   2   3
ENDBRANCH   1   2
BRANCH   1  73
ATOM     73  C   UNL     1       4.370  -2.977  -3.156  1.00  0.00     0.002 C 
BRANCH  73  74
ATOM     74  C   UNL     1       5.899  -3.057  -3.165  1.00  0.00     0.021 C 
BRANCH  74  75
ATOM     75  C   UNL     1       6.457  -4.436  -2.827  1.00  0.00     0.116 C 
BRANCH  75  76
ATOM     76  N   UNL     1       6.529  -5.315  -3.971  1.00  0.00    -0.356 N 
ATOM     77  C   UNL     1       7.567  -5.798  -4.692  1.00  0.00     0.224 C 
ATOM     78  H   UNL     1       5.650  -5.624  -4.289  1.00  0.00     0.163 HD
ATOM     79  O   UNL     1       7.261  -6.614  -5.576  1.00  0.00    -0.275 OA
BRANCH  77  80
ATOM     80  C   UNL     1       9.030  -5.354  -4.596  1.00  0.00     0.098 C 
ATOM     81  C   UNL     1       9.689  -4.919  -3.284  1.00  0.00     0.017 C 
ATOM     82  C   UNL     1       9.311  -4.362  -5.715  1.00  0.00     0.131 C 
ATOM     83  C   UNL     1       9.781  -3.404  -3.003  1.00  0.00     0.022 C 
ATOM     84  N   UNL     1       8.913  -3.040  -5.269  1.00  0.00    -0.356 N 
ATOM     85  C   UNL     1       9.718  -2.455  -4.210  1.00  0.00     0.118 C 
BRANCH  84  86
ATOM     86  C   UNL     1       8.100  -2.249  -6.055  1.00  0.00     0.129 A 
ATOM     87  C   UNL     1       6.991  -2.799  -6.702  1.00  0.00     0.047 A 
ATOM     88  N   UNL     1       8.342  -0.925  -6.120  1.00  0.00    -0.231 NA
ATOM     89  C   UNL     1       6.093  -1.981  -7.376  1.00  0.00     0.014 A 
ATOM     90  C   UNL     1       7.507  -0.134  -6.814  1.00  0.00     0.073 A 
ATOM     91  C   UNL     1       6.343  -0.617  -7.443  1.00  0.00     0.002 A 
ATOM     92  C   UNL     1       7.790   1.216  -6.931  1.00  0.00     0.030 A 
ATOM     93  C   UNL     1       5.475   0.252  -8.121  1.00  0.00     0.032 A 
ATOM     94  C   UNL     1       6.952   2.089  -7.636  1.00  0.00     0.024 A 
ATOM     95  C   UNL     1       5.780   1.611  -8.217  1.00  0.00     0.083 A 
BRANCH  95  96
ATOM     96  S   UNL     1       4.619   2.620  -9.121  1.00  0.00     0.243 S 
ATOM     97  O   UNL     1       4.556   2.043 -10.454  1.00  0.00    -0.207 OA
ATOM     98  O   UNL     1       3.441   2.716  -8.295  1.00  0.00    -0.207 OA
BRANCH  96  99
ATOM     99  N   UNL     1       5.292   4.179  -9.277  1.00  0.00    -0.198 NA
ATOM    100  C   UNL     1       5.274   5.024  -8.055  1.00  0.00     0.102 C 
ATOM    101  C   UNL     1       6.449   4.299 -10.194  1.00  0.00     0.102 C 
ATOM    102  C   UNL     1       5.722   6.452  -8.336  1.00  0.00     0.017 C 
ATOM    103  C   UNL     1       6.841   5.749 -10.430  1.00  0.00     0.017 C 
ATOM    104  C   UNL     1       7.029   6.485  -9.114  1.00  0.00     0.003 C 
ENDBRANCH  96  99
ENDBRANCH  95  96
ENDBRANCH  84  86
ENDBRANCH  77  80
ENDBRANCH  75  76
ENDBRANCH  74  75
ENDBRANCH  73  74
ENDBRANCH   1  73
TORSDOF 19
