REMARK SMILES CCCC[C@H](C(=O)NCCCCCCNC(=O)c1ccc(-c2c3nc(c(-c4cccc(S(=O)(=O)[O-])c4F)c4ccc([nH]4)c(-c4cccc(S(=O)(=O)[O-])c4F)c4nc(c(-c5cccc(S(=O)(=O)[O-])c5F)c5ccc2[nH]5)C=C4)C=C3)cc1)[C@](C)(O)c1ccc(Cl)c(Cl)c1
REMARK SMILES IDX 11 1 10 2 9 3 8 4 6 5 7 6 5 8 4 9 3 10 2 11 1 12 81 13 82 14
REMARK SMILES IDX 83 15 84 17 85 18 91 19 86 20 89 21 87 22 90 23 88 24 12 25
REMARK SMILES IDX 13 26 14 27 15 28 16 29 17 31 18 32 19 33 80 34 20 35 79 36
REMARK SMILES IDX 21 37 22 38 23 39 73 40 24 41 78 42 72 43 74 44 25 45 77 46
REMARK SMILES IDX 71 47 70 48 26 50 58 51 38 52 57 53 39 54 42 55 56 56 75 57
REMARK SMILES IDX 40 58 41 59 55 61 76 62 43 63 27 64 28 65 36 66 29 67 31 68
REMARK SMILES IDX 37 69 30 70 32 71 33 72 34 73 35 74 59 75 60 76 68 77 61 78
REMARK SMILES IDX 63 79 69 80 62 81 64 82 65 83 66 84 67 85 44 86 45 87 53 88
REMARK SMILES IDX 46 89 48 90 54 91 47 92 49 93 50 94 51 95 52 96
REMARK H PARENT 8 7 83 16 15 30 74 49 42 60
REMARK Flexibility Score: inf
ROOT
ATOM      1  C   UNL     1      -5.086  -6.602  -0.468  1.00  0.00     0.002 C 
ENDROOT
BRANCH   1   2
ATOM      2  C   UNL     1      -4.641  -5.147  -0.646  1.00  0.00     0.021 C 
BRANCH   2   3
ATOM      3  C   UNL     1      -3.536  -4.703   0.311  1.00  0.00     0.116 C 
BRANCH   3   4
ATOM      4  N   UNL     1      -2.316  -5.446   0.080  1.00  0.00    -0.356 N 
ATOM      5  C   UNL     1      -1.124  -5.042  -0.434  1.00  0.00     0.226 C 
ATOM      6  O   UNL     1      -0.274  -5.916  -0.622  1.00  0.00    -0.275 OA
ATOM      7  H   UNL     1      -2.355  -6.396   0.335  1.00  0.00     0.163 HD
BRANCH   5   8
ATOM      8  C   UNL     1      -0.861  -3.562  -0.736  1.00  0.00     0.114 C 
BRANCH   8   9
ATOM      9  C   UNL     1       0.611  -3.247  -0.352  1.00  0.00     0.017 C 
BRANCH   9  10
ATOM     10  C   UNL     1       0.770  -2.825   1.125  1.00  0.00     0.001 C 
BRANCH  10  11
ATOM     11  C   UNL     1       0.368  -3.845   2.193  1.00  0.00    -0.003 C 
ATOM     12  C   UNL     1       1.283  -5.058   2.255  1.00  0.00     0.004 C 
ENDBRANCH  10  11
ENDBRANCH   9  10
ENDBRANCH   8   9
BRANCH   8  13
ATOM     13  C   UNL     1      -1.287  -3.161  -2.198  1.00  0.00     0.098 C 
ATOM     14  C   UNL     1      -0.922  -1.685  -2.489  1.00  0.00     0.048 C 
BRANCH  13  15
ATOM     15  O   UNL     1      -2.732  -3.162  -2.256  1.00  0.00    -0.385 OA
ATOM     16  H   UNL     1      -3.019  -2.917  -3.149  1.00  0.00     0.211 HD
ENDBRANCH  13  15
BRANCH  13  17
ATOM     17  C   UNL     1      -0.848  -4.121  -3.311  1.00  0.00    -0.014 A 
ATOM     18  C   UNL     1      -1.476  -5.377  -3.447  1.00  0.00     0.008 A 
ATOM     19  C   UNL     1       0.142  -3.804  -4.255  1.00  0.00     0.028 A 
ATOM     20  C   UNL     1      -1.096  -6.297  -4.428  1.00  0.00     0.022 A 
ATOM     21  C   UNL     1       0.506  -4.710  -5.266  1.00  0.00     0.060 A 
ATOM     22  C   UNL     1      -0.101  -5.966  -5.341  1.00  0.00     0.059 A 
ATOM     23  Cl  UNL     1       1.710  -4.202  -6.400  1.00  0.00    -0.083 Cl
ATOM     24  Cl  UNL     1       0.326  -7.141  -6.532  1.00  0.00    -0.083 Cl
ENDBRANCH  13  17
ENDBRANCH   8  13
ENDBRANCH   5   8
ENDBRANCH   3   4
ENDBRANCH   2   3
ENDBRANCH   1   2
BRANCH   1  25
ATOM     25  C   UNL     1      -5.543  -6.969   0.946  1.00  0.00     0.002 C 
BRANCH  25  26
ATOM     26  C   UNL     1      -6.602  -6.040   1.543  1.00  0.00     0.021 C 
BRANCH  26  27
ATOM     27  C   UNL     1      -7.866  -5.896   0.705  1.00  0.00     0.116 C 
BRANCH  27  28
ATOM     28  N   UNL     1      -8.571  -7.159   0.564  1.00  0.00    -0.352 N 
ATOM     29  C   UNL     1      -9.889  -7.440   0.810  1.00  0.00     0.251 C 
ATOM     30  H   UNL     1      -8.027  -7.917   0.248  1.00  0.00     0.163 HD
ATOM     31  O   UNL     1     -10.271  -8.611   0.833  1.00  0.00    -0.269 OA
BRANCH  29  32
ATOM     32  C   UNL     1     -10.846  -6.342   1.058  1.00  0.00     0.039 A 
ATOM     33  C   UNL     1     -11.786  -6.483   2.082  1.00  0.00     0.014 A 
ATOM     34  C   UNL     1     -10.832  -5.185   0.273  1.00  0.00     0.014 A 
ATOM     35  C   UNL     1     -12.691  -5.451   2.337  1.00  0.00     0.010 A 
ATOM     36  C   UNL     1     -11.682  -4.126   0.581  1.00  0.00     0.010 A 
ATOM     37  C   UNL     1     -12.637  -4.257   1.599  1.00  0.00    -0.014 A 
BRANCH  37  38
ATOM     38  C   UNL     1     -13.592  -3.150   1.860  1.00  0.00     0.031 A 
ATOM     39  C   UNL     1     -14.560  -2.721   0.788  1.00  0.00     0.074 A 
ATOM     40  C   UNL     1     -13.549  -2.490   3.034  1.00  0.00     0.049 A 
ATOM     41  N   UNL     1     -15.446  -1.759   0.814  1.00  0.00    -0.248 NA
ATOM     42  C   UNL     1     -14.510  -3.450  -0.491  1.00  0.00     0.031 C 
ATOM     43  C   UNL     1     -12.608  -2.760   4.123  1.00  0.00     0.029 A 
ATOM     44  N   UNL     1     -14.303  -1.442   3.501  1.00  0.00    -0.354 N 
ATOM     45  C   UNL     1     -16.030  -1.745  -0.447  1.00  0.00     0.074 A 
ATOM     46  C   UNL     1     -15.371  -2.767  -1.229  1.00  0.00     0.031 C 
ATOM     47  C   UNL     1     -12.847  -1.907   5.133  1.00  0.00     0.029 A 
ATOM     48  C   UNL     1     -13.937  -1.014   4.755  1.00  0.00     0.049 A 
ATOM     49  H   UNL     1     -15.037  -1.036   2.986  1.00  0.00     0.167 HD
ATOM     50  C   UNL     1     -17.047  -0.976  -0.905  1.00  0.00     0.034 A 
ATOM     51  C   UNL     1     -14.424  -0.013   5.514  1.00  0.00     0.034 A 
ATOM     52  C   UNL     1     -17.731   0.008  -0.111  1.00  0.00     0.049 A 
ATOM     53  C   UNL     1     -15.585   0.796   4.998  1.00  0.00     0.074 A 
ATOM     54  C   UNL     1     -18.821   0.786  -0.456  1.00  0.00     0.029 A 
ATOM     55  N   UNL     1     -17.390   0.350   1.188  1.00  0.00    -0.354 N 
ATOM     56  N   UNL     1     -16.220   0.694   3.856  1.00  0.00    -0.248 NA
ATOM     57  C   UNL     1     -16.125   1.829   5.894  1.00  0.00     0.031 C 
ATOM     58  C   UNL     1     -19.127   1.616   0.628  1.00  0.00     0.029 A 
ATOM     59  C   UNL     1     -18.247   1.329   1.660  1.00  0.00     0.049 A 
ATOM     60  H   UNL     1     -16.648  -0.044   1.700  1.00  0.00     0.167 HD
ATOM     61  C   UNL     1     -17.261   1.613   3.915  1.00  0.00     0.074 A 
ATOM     62  C   UNL     1     -17.180   2.251   5.213  1.00  0.00     0.031 C 
ATOM     63  C   UNL     1     -18.193   1.911   2.976  1.00  0.00     0.034 A 
BRANCH  50  64
ATOM     64  C   UNL     1     -17.519  -1.206  -2.318  1.00  0.00     0.023 A 
ATOM     65  C   UNL     1     -18.212  -2.392  -2.637  1.00  0.00     0.012 A 
ATOM     66  C   UNL     1     -17.331  -0.228  -3.315  1.00  0.00     0.148 A 
ATOM     67  C   UNL     1     -18.679  -2.618  -3.931  1.00  0.00     0.002 A 
ATOM     68  C   UNL     1     -17.841  -0.439  -4.591  1.00  0.00     0.091 A 
ATOM     69  F   UNL     1     -16.652   0.885  -3.000  1.00  0.00    -0.205 F 
ATOM     70  C   UNL     1     -18.503  -1.638  -4.904  1.00  0.00     0.022 A 
BRANCH  68  71
ATOM     71  S   UNL     1     -17.741   0.795  -5.893  1.00  0.00     0.127 S 
ATOM     72  O   UNL     1     -16.795   0.171  -6.817  1.00  0.00    -0.237 OA
ATOM     73  O   UNL     1     -19.122   0.845  -6.374  1.00  0.00    -0.237 OA
ATOM     74  O   UNL     1     -17.274   2.017  -5.254  1.00  0.00    -0.744 OA
ENDBRANCH  68  71
ENDBRANCH  50  64
BRANCH  51  75
ATOM     75  C   UNL     1     -13.866   0.236   6.874  1.00  0.00     0.023 A 
ATOM     76  C   UNL     1     -14.652  -0.049   8.008  1.00  0.00     0.012 A 
ATOM     77  C   UNL     1     -12.563   0.739   7.051  1.00  0.00     0.148 A 
ATOM     78  C   UNL     1     -14.166   0.202   9.292  1.00  0.00     0.002 A 
ATOM     79  C   UNL     1     -12.064   0.933   8.334  1.00  0.00     0.091 A 
ATOM     80  F   UNL     1     -11.834   1.012   5.960  1.00  0.00    -0.205 F 
ATOM     81  C   UNL     1     -12.871   0.684   9.455  1.00  0.00     0.022 A 
BRANCH  79  82
ATOM     82  S   UNL     1     -10.364   1.426   8.640  1.00  0.00     0.127 S 
ATOM     83  O   UNL     1     -10.530   2.799   9.108  1.00  0.00    -0.237 OA
ATOM     84  O   UNL     1      -9.952   0.469   9.667  1.00  0.00    -0.237 OA
ATOM     85  O   UNL     1      -9.675   1.269   7.366  1.00  0.00    -0.744 OA
ENDBRANCH  79  82
ENDBRANCH  51  75
BRANCH  63  86
ATOM     86  C   UNL     1     -19.244   2.930   3.332  1.00  0.00     0.023 A 
ATOM     87  C   UNL     1     -18.901   4.293   3.436  1.00  0.00     0.012 A 
ATOM     88  C   UNL     1     -20.588   2.540   3.497  1.00  0.00     0.148 A 
ATOM     89  C   UNL     1     -19.873   5.246   3.738  1.00  0.00     0.002 A 
ATOM     90  C   UNL     1     -21.559   3.502   3.745  1.00  0.00     0.091 A 
ATOM     91  F   UNL     1     -20.891   1.236   3.413  1.00  0.00    -0.205 F 
ATOM     92  C   UNL     1     -21.202   4.853   3.880  1.00  0.00     0.022 A 
BRANCH  90  93
ATOM     93  S   UNL     1     -23.307   3.097   3.841  1.00  0.00     0.127 S 
ATOM     94  O   UNL     1     -23.559   3.207   5.277  1.00  0.00    -0.237 OA
ATOM     95  O   UNL     1     -23.915   4.154   3.032  1.00  0.00    -0.237 OA
ATOM     96  O   UNL     1     -23.439   1.759   3.281  1.00  0.00    -0.744 OA
ENDBRANCH  90  93
ENDBRANCH  63  86
ENDBRANCH  37  38
ENDBRANCH  29  32
ENDBRANCH  27  28
ENDBRANCH  26  27
ENDBRANCH  25  26
ENDBRANCH   1  25
TORSDOF 22
