REMARK SMILES C[NH+](C)CC[NH2+][C@@H](C(=O)NCCCCCCNC(=O)c1ccc(-c2c3nc(c(-c4cccc(S(=O)(=O)[O-])c4F)c4ccc([nH]4)c(-c4cccc(S(=O)(=O)[O-])c4F)c4nc(c(-c5cccc(S(=O)(=O)[O-])c5F)c5ccc2[nH]5)C=C4)C=C3)cc1)c1cccc(C2CC2)c1
REMARK SMILES IDX 13 1 12 2 11 3 10 4 8 5 9 6 7 8 6 9 5 12 4 13 2 14 1 15 3 16
REMARK SMILES IDX 83 18 84 19 91 20 85 21 87 22 86 23 88 24 89 25 90 26 14 27
REMARK SMILES IDX 15 28 16 29 17 30 18 31 19 33 20 34 21 35 82 36 22 37 81 38
REMARK SMILES IDX 23 39 24 40 25 41 75 42 26 43 80 44 74 45 76 46 27 47 79 48
REMARK SMILES IDX 73 49 72 50 28 52 60 53 40 54 59 55 41 56 44 57 58 58 77 59
REMARK SMILES IDX 42 60 43 61 57 63 78 64 45 65 29 66 30 67 38 68 31 69 33 70
REMARK SMILES IDX 39 71 32 72 34 73 35 74 36 75 37 76 61 77 62 78 70 79 63 80
REMARK SMILES IDX 65 81 71 82 64 83 66 84 67 85 68 86 69 87 46 88 47 89 55 90
REMARK SMILES IDX 48 91 50 92 56 93 49 94 51 95 52 96 53 97 54 98
REMARK H PARENT 10 7 6 10 6 11 2 17 17 32 76 51 44 62
REMARK Flexibility Score: inf
ROOT
ATOM      1  C   UNL     1      -3.404  -3.873   1.968  1.00  0.00     0.002 C 
ENDROOT
BRANCH   1   2
ATOM      2  C   UNL     1      -1.908  -3.753   1.673  1.00  0.00     0.021 C 
BRANCH   2   3
ATOM      3  C   UNL     1      -1.403  -4.598   0.490  1.00  0.00     0.116 C 
BRANCH   3   4
ATOM      4  N   UNL     1      -1.729  -3.927  -0.754  1.00  0.00    -0.351 N 
ATOM      5  C   UNL     1      -0.969  -3.116  -1.550  1.00  0.00     0.283 C 
ATOM      6  O   UNL     1      -1.619  -2.306  -2.222  1.00  0.00    -0.268 OA
ATOM      7  H   UNL     1      -2.646  -4.080  -1.077  1.00  0.00     0.163 HD
BRANCH   5   8
ATOM      8  C   UNL     1       0.599  -3.252  -1.644  1.00  0.00     0.304 C 
BRANCH   8   9
ATOM      9  N   UNL     1       1.349  -2.326  -0.756  1.00  0.00    -0.328 N 
ATOM     10  H   UNL     1       2.343  -2.493  -0.911  1.00  0.00     0.347 HD
ATOM     11  H   UNL     1       1.014  -1.397  -1.012  1.00  0.00     0.347 HD
BRANCH   9  12
ATOM     12  C   UNL     1       1.113  -2.419   0.667  1.00  0.00     0.323 C 
BRANCH  12  13
ATOM     13  C   UNL     1       1.614  -1.200   1.480  1.00  0.00     0.323 C 
BRANCH  13  14
ATOM     14  N   UNL     1       0.939   0.100   1.307  1.00  0.00    -0.335 N 
ATOM     15  C   UNL     1       1.318   0.834   0.109  1.00  0.00     0.332 C 
ATOM     16  C   UNL     1      -0.510   0.051   1.466  1.00  0.00     0.332 C 
ATOM     17  H   UNL     1       1.301   0.640   2.092  1.00  0.00     0.347 HD
ENDBRANCH  13  14
ENDBRANCH  12  13
ENDBRANCH   9  12
ENDBRANCH   8   9
BRANCH   8  18
ATOM     18  C   UNL     1       1.063  -2.897  -3.072  1.00  0.00     0.019 A 
ATOM     19  C   UNL     1       1.777  -3.782  -3.880  1.00  0.00     0.010 A 
ATOM     20  C   UNL     1       0.845  -1.585  -3.556  1.00  0.00     0.014 A 
ATOM     21  C   UNL     1       2.258  -3.349  -5.120  1.00  0.00     0.001 A 
ATOM     22  C   UNL     1       1.346  -1.104  -4.770  1.00  0.00    -0.044 A 
ATOM     23  C   UNL     1       2.054  -2.029  -5.549  1.00  0.00     0.004 A 
BRANCH  22  24
ATOM     24  C   UNL     1       1.168   0.337  -5.210  1.00  0.00     0.019 C 
ATOM     25  C   UNL     1       0.457   1.383  -4.377  1.00  0.00     0.009 C 
ATOM     26  C   UNL     1       1.951   1.410  -4.481  1.00  0.00     0.009 C 
ENDBRANCH  22  24
ENDBRANCH   8  18
ENDBRANCH   5   8
ENDBRANCH   3   4
ENDBRANCH   2   3
ENDBRANCH   1   2
BRANCH   1  27
ATOM     27  C   UNL     1      -3.826  -5.189   2.614  1.00  0.00     0.002 C 
BRANCH  27  28
ATOM     28  C   UNL     1      -3.055  -5.568   3.882  1.00  0.00     0.021 C 
BRANCH  28  29
ATOM     29  C   UNL     1      -3.007  -4.488   4.960  1.00  0.00     0.116 C 
BRANCH  29  30
ATOM     30  N   UNL     1      -4.333  -4.154   5.454  1.00  0.00    -0.352 N 
ATOM     31  C   UNL     1      -4.852  -4.313   6.716  1.00  0.00     0.251 C 
ATOM     32  H   UNL     1      -4.945  -3.760   4.792  1.00  0.00     0.163 HD
ATOM     33  O   UNL     1      -6.058  -4.195   6.905  1.00  0.00    -0.269 OA
BRANCH  31  34
ATOM     34  C   UNL     1      -3.950  -4.633   7.843  1.00  0.00     0.039 A 
ATOM     35  C   UNL     1      -4.303  -5.654   8.727  1.00  0.00     0.014 A 
ATOM     36  C   UNL     1      -2.764  -3.916   8.030  1.00  0.00     0.014 A 
ATOM     37  C   UNL     1      -3.443  -5.988   9.776  1.00  0.00     0.010 A 
ATOM     38  C   UNL     1      -1.877  -4.296   9.033  1.00  0.00     0.010 A 
ATOM     39  C   UNL     1      -2.212  -5.327   9.924  1.00  0.00    -0.014 A 
BRANCH  39  40
ATOM     40  C   UNL     1      -1.264  -5.700  11.005  1.00  0.00     0.031 A 
ATOM     41  C   UNL     1      -0.922  -4.713  12.089  1.00  0.00     0.074 A 
ATOM     42  C   UNL     1      -0.651  -6.899  10.967  1.00  0.00     0.049 A 
ATOM     43  N   UNL     1      -0.106  -4.852  13.102  1.00  0.00    -0.248 NA
ATOM     44  C   UNL     1      -1.557  -3.388  12.009  1.00  0.00     0.031 C 
ATOM     45  C   UNL     1      -0.838  -7.912   9.926  1.00  0.00     0.029 A 
ATOM     46  N   UNL     1       0.269  -7.462  11.816  1.00  0.00    -0.354 N 
ATOM     47  C   UNL     1      -0.098  -3.625  13.754  1.00  0.00     0.074 A 
ATOM     48  C   UNL     1      -0.965  -2.743  13.004  1.00  0.00     0.031 C 
ATOM     49  C   UNL     1      -0.071  -8.977  10.206  1.00  0.00     0.029 A 
ATOM     50  C   UNL     1       0.680  -8.716  11.430  1.00  0.00     0.049 A 
ATOM     51  H   UNL     1       0.603  -7.011  12.624  1.00  0.00     0.167 HD
ATOM     52  C   UNL     1       0.548  -3.271  14.891  1.00  0.00     0.034 A 
ATOM     53  C   UNL     1       1.558  -9.563  12.003  1.00  0.00     0.034 A 
ATOM     54  C   UNL     1       1.368  -4.167  15.662  1.00  0.00     0.049 A 
ATOM     55  C   UNL     1       2.227  -9.162  13.290  1.00  0.00     0.074 A 
ATOM     56  C   UNL     1       1.975  -3.942  16.884  1.00  0.00     0.029 A 
ATOM     57  N   UNL     1       1.704  -5.456  15.280  1.00  0.00    -0.354 N 
ATOM     58  N   UNL     1       2.082  -8.063  13.989  1.00  0.00    -0.248 NA
ATOM     59  C   UNL     1       3.154 -10.136  13.886  1.00  0.00     0.031 C 
ATOM     60  C   UNL     1       2.699  -5.089  17.230  1.00  0.00     0.029 A 
ATOM     61  C   UNL     1       2.524  -6.035  16.233  1.00  0.00     0.049 A 
ATOM     62  H   UNL     1       1.405  -5.896  14.451  1.00  0.00     0.167 HD
ATOM     63  C   UNL     1       2.866  -8.227  15.125  1.00  0.00     0.074 A 
ATOM     64  C   UNL     1       3.470  -9.540  15.029  1.00  0.00     0.031 C 
ATOM     65  C   UNL     1       3.078  -7.363  16.150  1.00  0.00     0.034 A 
BRANCH  52  66
ATOM     66  C   UNL     1       0.351  -1.865  15.396  1.00  0.00     0.023 A 
ATOM     67  C   UNL     1      -0.895  -1.486  15.936  1.00  0.00     0.012 A 
ATOM     68  C   UNL     1       1.405  -0.930  15.375  1.00  0.00     0.148 A 
ATOM     69  C   UNL     1      -1.103  -0.190  16.406  1.00  0.00     0.002 A 
ATOM     70  C   UNL     1       1.204   0.347  15.887  1.00  0.00     0.091 A 
ATOM     71  F   UNL     1       2.577  -1.298  14.836  1.00  0.00    -0.205 F 
ATOM     72  C   UNL     1      -0.052   0.723  16.391  1.00  0.00     0.022 A 
BRANCH  70  73
ATOM     73  S   UNL     1       2.521   1.565  15.983  1.00  0.00     0.127 S 
ATOM     74  O   UNL     1       2.174   2.462  14.882  1.00  0.00    -0.237 OA
ATOM     75  O   UNL     1       2.323   2.132  17.317  1.00  0.00    -0.237 OA
ATOM     76  O   UNL     1       3.762   0.820  15.822  1.00  0.00    -0.744 OA
ENDBRANCH  70  73
ENDBRANCH  52  66
BRANCH  53  77
ATOM     77  C   UNL     1       1.780 -10.914  11.414  1.00  0.00     0.023 A 
ATOM     78  C   UNL     1       1.280 -12.044  12.090  1.00  0.00     0.012 A 
ATOM     79  C   UNL     1       2.442 -11.087  10.183  1.00  0.00     0.148 A 
ATOM     80  C   UNL     1       1.460 -13.325  11.567  1.00  0.00     0.002 A 
ATOM     81  C   UNL     1       2.571 -12.361   9.641  1.00  0.00     0.091 A 
ATOM     82  F   UNL     1       2.918 -10.000   9.560  1.00  0.00    -0.205 F 
ATOM     83  C   UNL     1       2.096 -13.482  10.339  1.00  0.00     0.022 A 
BRANCH  81  84
ATOM     84  S   UNL     1       3.260 -12.649   8.007  1.00  0.00     0.127 S 
ATOM     85  O   UNL     1       4.524 -13.306   8.326  1.00  0.00    -0.237 OA
ATOM     86  O   UNL     1       2.249 -13.517   7.402  1.00  0.00    -0.237 OA
ATOM     87  O   UNL     1       3.369 -11.334   7.389  1.00  0.00    -0.744 OA
ENDBRANCH  81  84
ENDBRANCH  53  77
BRANCH  65  88
ATOM     88  C   UNL     1       3.977  -7.818  17.270  1.00  0.00     0.023 A 
ATOM     89  C   UNL     1       5.367  -7.909  17.058  1.00  0.00     0.012 A 
ATOM     90  C   UNL     1       3.453  -8.088  18.549  1.00  0.00     0.148 A 
ATOM     91  C   UNL     1       6.218  -8.296  18.093  1.00  0.00     0.002 A 
ATOM     92  C   UNL     1       4.312  -8.425  19.589  1.00  0.00     0.091 A 
ATOM     93  F   UNL     1       2.126  -8.016  18.727  1.00  0.00    -0.205 F 
ATOM     94  C   UNL     1       5.692  -8.542  19.360  1.00  0.00     0.022 A 
BRANCH  92  95
ATOM     95  S   UNL     1       3.733  -8.663  21.273  1.00  0.00     0.127 S 
ATOM     96  O   UNL     1       3.785 -10.118  21.404  1.00  0.00    -0.237 OA
ATOM     97  O   UNL     1       4.740  -7.944  22.054  1.00  0.00    -0.237 OA
ATOM     98  O   UNL     1       2.401  -8.075  21.323  1.00  0.00    -0.744 OA
ENDBRANCH  92  95
ENDBRANCH  65  88
ENDBRANCH  39  40
ENDBRANCH  31  34
ENDBRANCH  29  30
ENDBRANCH  28  29
ENDBRANCH  27  28
ENDBRANCH   1  27
TORSDOF 22
