REMARK SMILES C[C@H]1CCC[C@@](NC(=O)N2CCO[C@H](C#N)C2)(C(=O)NCCCCCCNC(=O)c2ccc(-c3c4nc(c(-c5cccc(S(=O)(=O)[O-])c5F)c5ccc([nH]5)c(-c5cccc(S(=O)(=O)[O-])c5F)c5nc(c(-c6cccc(S(=O)(=O)[O-])c6F)c6ccc3[nH]6)C=C5)C=C4)cc2)C1
REMARK SMILES IDX 23 1 22 2 21 3 20 4 18 5 19 6 6 8 1 9 2 10 3 11 93 12 4 13
REMARK SMILES IDX 5 14 7 15 8 16 9 18 10 19 11 20 17 21 12 22 14 23 13 24
REMARK SMILES IDX 15 25 16 26 24 27 25 28 26 29 27 30 28 31 29 33 30 34 31 35
REMARK SMILES IDX 92 36 32 37 91 38 33 39 34 40 35 41 85 42 36 43 90 44 84 45
REMARK SMILES IDX 86 46 37 47 89 48 83 49 82 50 38 52 70 53 50 54 69 55 51 56
REMARK SMILES IDX 54 57 68 58 87 59 52 60 53 61 67 63 88 64 55 65 39 66 40 67
REMARK SMILES IDX 48 68 41 69 43 70 49 71 42 72 44 73 45 74 46 75 47 76 71 77
REMARK SMILES IDX 72 78 80 79 73 80 75 81 81 82 74 83 76 84 77 85 78 86 79 87
REMARK SMILES IDX 56 88 57 89 65 90 58 91 60 92 66 93 59 94 61 95 62 96 63 97
REMARK SMILES IDX 64 98
REMARK H PARENT 20 7 7 17 27 32 86 51 54 62
REMARK Flexibility Score: inf
ROOT
ATOM      1  C   UNL     1      -6.405  -2.226  -0.642  1.00  0.00     0.002 C 
ENDROOT
BRANCH   1   2
ATOM      2  C   UNL     1      -5.582  -0.974  -0.328  1.00  0.00     0.021 C 
BRANCH   2   3
ATOM      3  C   UNL     1      -4.239  -1.348   0.270  1.00  0.00     0.116 C 
BRANCH   3   4
ATOM      4  N   UNL     1      -3.364  -1.830  -0.790  1.00  0.00    -0.354 N 
ATOM      5  C   UNL     1      -2.008  -1.793  -0.911  1.00  0.00     0.245 C 
ATOM      6  O   UNL     1      -1.522  -2.350  -1.901  1.00  0.00    -0.272 OA
ATOM      7  H   UNL     1      -3.832  -2.254  -1.546  1.00  0.00     0.163 HD
BRANCH   5   8
ATOM      8  C   UNL     1      -1.145  -1.005   0.101  1.00  0.00     0.121 C 
ATOM      9  C   UNL     1       2.694  -0.111  -0.059  1.00  0.00     0.008 C 
ATOM     10  C   UNL     1       1.243   0.007   0.406  1.00  0.00    -0.011 C 
ATOM     11  C   UNL     1       0.715   1.388   0.014  1.00  0.00     0.003 C 
ATOM     12  C   UNL     1       0.378  -1.138  -0.178  1.00  0.00     0.042 C 
ATOM     13  C   UNL     1      -0.719   1.547   0.462  1.00  0.00     0.003 C 
ATOM     14  C   UNL     1      -1.571   0.475  -0.183  1.00  0.00     0.039 C 
BRANCH   8  15
ATOM     15  N   UNL     1      -1.444  -1.429   1.490  1.00  0.00    -0.323 N 
ATOM     16  C   UNL     1      -1.771  -2.592   2.112  1.00  0.00     0.318 C 
ATOM     17  H   UNL     1      -1.393  -0.676   2.122  1.00  0.00     0.166 HD
ATOM     18  O   UNL     1      -1.890  -2.536   3.338  1.00  0.00    -0.249 OA
BRANCH  16  19
ATOM     19  N   UNL     1      -2.177  -3.699   1.413  1.00  0.00    -0.319 N 
ATOM     20  C   UNL     1      -3.238  -4.525   2.015  1.00  0.00     0.150 C 
ATOM     21  C   UNL     1      -1.380  -4.449   0.424  1.00  0.00     0.169 C 
ATOM     22  C   UNL     1      -4.067  -5.218   0.924  1.00  0.00     0.183 C 
ATOM     23  C   UNL     1      -2.289  -5.137  -0.620  1.00  0.00     0.240 C 
ATOM     24  O   UNL     1      -3.236  -6.003   0.058  1.00  0.00    -0.360 OA
BRANCH  23  25
ATOM     25  C   UNL     1      -1.506  -5.908  -1.602  1.00  0.00     0.096 C 
ATOM     26  N   UNL     1      -0.908  -6.507  -2.394  1.00  0.00    -0.195 NA
ENDBRANCH  23  25
ENDBRANCH  16  19
ENDBRANCH   8  15
ENDBRANCH   5   8
ENDBRANCH   3   4
ENDBRANCH   2   3
ENDBRANCH   1   2
BRANCH   1  27
ATOM     27  C   UNL     1      -6.889  -2.968   0.610  1.00  0.00     0.002 C 
BRANCH  27  28
ATOM     28  C   UNL     1      -7.743  -2.131   1.552  1.00  0.00     0.021 C 
BRANCH  28  29
ATOM     29  C   UNL     1      -8.889  -1.433   0.848  1.00  0.00     0.116 C 
BRANCH  29  30
ATOM     30  N   UNL     1      -9.750  -2.389   0.166  1.00  0.00    -0.352 N 
ATOM     31  C   UNL     1     -11.103  -2.555   0.292  1.00  0.00     0.251 C 
ATOM     32  H   UNL     1      -9.301  -2.994  -0.469  1.00  0.00     0.163 HD
ATOM     33  O   UNL     1     -11.649  -3.561  -0.149  1.00  0.00    -0.269 OA
BRANCH  31  34
ATOM     34  C   UNL     1     -11.878  -1.511   0.987  1.00  0.00     0.039 A 
ATOM     35  C   UNL     1     -12.854  -1.894   1.903  1.00  0.00     0.014 A 
ATOM     36  C   UNL     1     -11.595  -0.158   0.767  1.00  0.00     0.014 A 
ATOM     37  C   UNL     1     -13.517  -0.911   2.632  1.00  0.00     0.010 A 
ATOM     38  C   UNL     1     -12.166   0.806   1.584  1.00  0.00     0.010 A 
ATOM     39  C   UNL     1     -13.152   0.442   2.509  1.00  0.00    -0.014 A 
BRANCH  39  40
ATOM     40  C   UNL     1     -13.803   1.474   3.350  1.00  0.00     0.031 A 
ATOM     41  C   UNL     1     -14.572   2.602   2.717  1.00  0.00     0.074 A 
ATOM     42  C   UNL     1     -13.685   1.393   4.691  1.00  0.00     0.049 A 
ATOM     43  N   UNL     1     -15.254   3.555   3.298  1.00  0.00    -0.248 NA
ATOM     44  C   UNL     1     -14.561   2.692   1.246  1.00  0.00     0.031 C 
ATOM     45  C   UNL     1     -12.888   0.398   5.413  1.00  0.00     0.029 A 
ATOM     46  N   UNL     1     -14.236   2.158   5.685  1.00  0.00    -0.354 N 
ATOM     47  C   UNL     1     -15.741   4.355   2.272  1.00  0.00     0.074 A 
ATOM     48  C   UNL     1     -15.231   3.815   1.033  1.00  0.00     0.031 C 
ATOM     49  C   UNL     1     -13.035   0.588   6.733  1.00  0.00     0.029 A 
ATOM     50  C   UNL     1     -13.898   1.742   6.952  1.00  0.00     0.049 A 
ATOM     51  H   UNL     1     -14.819   2.932   5.510  1.00  0.00     0.167 HD
ATOM     52  C   UNL     1     -16.572   5.419   2.350  1.00  0.00     0.034 A 
ATOM     53  C   UNL     1     -14.241   2.242   8.154  1.00  0.00     0.034 A 
ATOM     54  C   UNL     1     -17.093   5.941   3.584  1.00  0.00     0.049 A 
ATOM     55  C   UNL     1     -15.173   3.422   8.204  1.00  0.00     0.074 A 
ATOM     56  C   UNL     1     -17.985   6.982   3.768  1.00  0.00     0.029 A 
ATOM     57  N   UNL     1     -16.762   5.469   4.845  1.00  0.00    -0.354 N 
ATOM     58  N   UNL     1     -15.741   4.071   7.217  1.00  0.00    -0.248 NA
ATOM     59  C   UNL     1     -15.541   3.914   9.538  1.00  0.00     0.031 C 
ATOM     60  C   UNL     1     -18.163   7.166   5.143  1.00  0.00     0.029 A 
ATOM     61  C   UNL     1     -17.424   6.205   5.813  1.00  0.00     0.049 A 
ATOM     62  H   UNL     1     -16.148   4.722   5.025  1.00  0.00     0.167 HD
ATOM     63  C   UNL     1     -16.562   5.021   7.811  1.00  0.00     0.074 A 
ATOM     64  C   UNL     1     -16.447   4.833   9.242  1.00  0.00     0.031 C 
ATOM     65  C   UNL     1     -17.328   5.978   7.231  1.00  0.00     0.034 A 
BRANCH  52  66
ATOM     66  C   UNL     1     -17.017   6.064   1.063  1.00  0.00     0.023 A 
ATOM     67  C   UNL     1     -17.908   5.377   0.212  1.00  0.00     0.012 A 
ATOM     68  C   UNL     1     -16.627   7.377   0.739  1.00  0.00     0.148 A 
ATOM     69  C   UNL     1     -18.386   5.978  -0.951  1.00  0.00     0.002 A 
ATOM     70  C   UNL     1     -17.146   7.988  -0.397  1.00  0.00     0.091 A 
ATOM     71  F   UNL     1     -15.765   8.005   1.550  1.00  0.00    -0.205 F 
ATOM     72  C   UNL     1     -18.017   7.287  -1.248  1.00  0.00     0.022 A 
BRANCH  70  73
ATOM     73  S   UNL     1     -16.797   9.696  -0.828  1.00  0.00     0.127 S 
ATOM     74  O   UNL     1     -16.089   9.540  -2.099  1.00  0.00    -0.237 OA
ATOM     75  O   UNL     1     -18.141  10.261  -0.943  1.00  0.00    -0.237 OA
ATOM     76  O   UNL     1     -15.995  10.233   0.262  1.00  0.00    -0.744 OA
ENDBRANCH  70  73
ENDBRANCH  52  66
BRANCH  53  77
ATOM     77  C   UNL     1     -13.729   1.624   9.410  1.00  0.00     0.023 A 
ATOM     78  C   UNL     1     -14.625   1.021  10.316  1.00  0.00     0.012 A 
ATOM     79  C   UNL     1     -12.359   1.665   9.729  1.00  0.00     0.148 A 
ATOM     80  C   UNL     1     -14.175   0.531  11.542  1.00  0.00     0.002 A 
ATOM     81  C   UNL     1     -11.908   1.115  10.921  1.00  0.00     0.091 A 
ATOM     82  F   UNL     1     -11.521   2.247   8.859  1.00  0.00    -0.205 F 
ATOM     83  C   UNL     1     -12.816   0.572  11.842  1.00  0.00     0.022 A 
BRANCH  81  84
ATOM     84  S   UNL     1     -10.162   1.009  11.325  1.00  0.00     0.127 S 
ATOM     85  O   UNL     1     -10.041   1.998  12.392  1.00  0.00    -0.237 OA
ATOM     86  O   UNL     1     -10.037  -0.384  11.756  1.00  0.00    -0.237 OA
ATOM     87  O   UNL     1      -9.454   1.319  10.089  1.00  0.00    -0.744 OA
ENDBRANCH  81  84
ENDBRANCH  53  77
BRANCH  65  88
ATOM     88  C   UNL     1     -18.138   6.859   8.147  1.00  0.00     0.023 A 
ATOM     89  C   UNL     1     -17.493   7.774   9.004  1.00  0.00     0.012 A 
ATOM     90  C   UNL     1     -19.544   6.789   8.145  1.00  0.00     0.148 A 
ATOM     91  C   UNL     1     -18.231   8.556   9.892  1.00  0.00     0.002 A 
ATOM     92  C   UNL     1     -20.276   7.616   8.987  1.00  0.00     0.091 A 
ATOM     93  F   UNL     1     -20.141   5.906   7.332  1.00  0.00    -0.205 F 
ATOM     94  C   UNL     1     -19.621   8.483   9.877  1.00  0.00     0.022 A 
BRANCH  92  95
ATOM     95  S   UNL     1     -22.070   7.666   8.967  1.00  0.00     0.127 S 
ATOM     96  O   UNL     1     -22.400   7.032  10.243  1.00  0.00    -0.237 OA
ATOM     97  O   UNL     1     -22.337   9.103   8.912  1.00  0.00    -0.237 OA
ATOM     98  O   UNL     1     -22.481   6.928   7.780  1.00  0.00    -0.744 OA
ENDBRANCH  92  95
ENDBRANCH  65  88
ENDBRANCH  39  40
ENDBRANCH  31  34
ENDBRANCH  29  30
ENDBRANCH  28  29
ENDBRANCH  27  28
ENDBRANCH   1  27
TORSDOF 19
