REMARK SMILES CC(C)CCn1nc(C(=O)NCCCCCCNC(=O)c2ccc(-c3c4nc(c(-c5cccc(S(=O)(=O)[O-])c5F)c5ccc([nH]5)c(-c5cccc(S(=O)(=O)[O-])c5F)c5nc(c(-c6cccc(S(=O)(=O)[O-])c6F)c6ccc3[nH]6)C=C5)C=C4)cc2)c2c1CCN(C(=O)[C@@H]1CCc3nn(C)c(=O)n3C1)C2
REMARK SMILES IDX 14 1 13 2 12 3 11 4 9 5 10 6 8 8 6 9 7 10 85 11 84 12 86 13
REMARK SMILES IDX 102 14 87 15 88 16 5 17 4 18 2 19 1 20 3 21 89 22 90 23
REMARK SMILES IDX 91 24 92 25 101 26 93 27 100 28 94 29 98 30 95 31 96 32
REMARK SMILES IDX 99 33 97 34 15 35 16 36 17 37 18 38 19 39 20 41 21 42 22 43
REMARK SMILES IDX 83 44 23 45 82 46 24 47 25 48 26 49 76 50 27 51 81 52 75 53
REMARK SMILES IDX 77 54 28 55 80 56 74 57 73 58 29 60 61 61 41 62 60 63 42 64
REMARK SMILES IDX 45 65 59 66 78 67 43 68 44 69 58 71 79 72 46 73 30 74 31 75
REMARK SMILES IDX 39 76 32 77 34 78 40 79 33 80 35 81 36 82 37 83 38 84 62 85
REMARK SMILES IDX 63 86 71 87 64 88 66 89 72 90 65 91 67 92 68 93 69 94 70 95
REMARK SMILES IDX 47 96 48 97 56 98 49 99 51 100 57 101 50 102 52 103 53 104
REMARK SMILES IDX 54 105 55 106
REMARK H PARENT 11 7 18 40 77 59 45 70
REMARK Flexibility Score: inf
ROOT
ATOM      1  C   UNL     1       0.910   9.963  -2.739  1.00  0.00     0.002 C 
ENDROOT
BRANCH   1   2
ATOM      2  C   UNL     1       0.527   8.505  -2.509  1.00  0.00     0.021 C 
BRANCH   2   3
ATOM      3  C   UNL     1       0.433   8.072  -1.033  1.00  0.00     0.116 C 
BRANCH   3   4
ATOM      4  N   UNL     1      -0.914   7.662  -0.669  1.00  0.00    -0.351 N 
ATOM      5  C   UNL     1      -1.546   6.455  -0.450  1.00  0.00     0.272 C 
ATOM      6  O   UNL     1      -2.653   6.559   0.093  1.00  0.00    -0.267 OA
ATOM      7  H   UNL     1      -1.520   8.430  -0.549  1.00  0.00     0.163 HD
BRANCH   5   8
ATOM      8  C   UNL     1      -0.958   5.131  -0.772  1.00  0.00     0.155 A 
ATOM      9  N   UNL     1      -0.716   2.983  -0.614  1.00  0.00    -0.268 N 
ATOM     10  N   UNL     1      -1.374   4.040  -0.078  1.00  0.00    -0.167 NA
ATOM     11  C   UNL     1       0.302   3.416  -1.400  1.00  0.00     0.046 A 
ATOM     12  C   UNL     1      -0.001   4.718  -1.739  1.00  0.00     0.026 A 
ATOM     13  C   UNL     1       1.509   2.727  -1.901  1.00  0.00     0.078 C 
ATOM     14  C   UNL     1       0.715   5.436  -2.824  1.00  0.00     0.159 C 
ATOM     15  C   UNL     1       2.446   3.769  -2.511  1.00  0.00     0.126 C 
ATOM     16  N   UNL     1       1.752   4.623  -3.463  1.00  0.00    -0.338 N 
BRANCH   9  17
ATOM     17  C   UNL     1      -1.187   1.651  -0.260  1.00  0.00     0.145 C 
BRANCH  17  18
ATOM     18  C   UNL     1      -0.925   0.456  -1.202  1.00  0.00     0.027 C 
BRANCH  18  19
ATOM     19  C   UNL     1       0.466  -0.200  -1.116  1.00  0.00    -0.016 C 
ATOM     20  C   UNL     1       0.793  -0.835   0.229  1.00  0.00     0.007 C 
ATOM     21  C   UNL     1       0.705  -1.169  -2.275  1.00  0.00     0.007 C 
ENDBRANCH  18  19
ENDBRANCH  17  18
ENDBRANCH   9  17
BRANCH  16  22
ATOM     22  C   UNL     1       2.237   5.091  -4.673  1.00  0.00     0.227 C 
ATOM     23  O   UNL     1       1.932   6.239  -5.033  1.00  0.00    -0.274 OA
BRANCH  22  24
ATOM     24  C   UNL     1       3.154   4.279  -5.611  1.00  0.00     0.099 C 
ATOM     25  C   UNL     1       2.552   3.016  -6.231  1.00  0.00     0.023 C 
ATOM     26  C   UNL     1       4.581   4.059  -5.127  1.00  0.00     0.142 C 
ATOM     27  C   UNL     1       2.688   1.758  -5.388  1.00  0.00     0.078 C 
ATOM     28  N   UNL     1       4.780   2.766  -4.512  1.00  0.00    -0.278 N 
ATOM     29  C   UNL     1       3.933   1.716  -4.553  1.00  0.00     0.133 A 
ATOM     30  C   UNL     1       5.672   2.504  -3.501  1.00  0.00     0.345 A 
ATOM     31  N   UNL     1       4.189   0.780  -3.681  1.00  0.00    -0.155 NA
ATOM     32  N   UNL     1       5.294   1.251  -3.007  1.00  0.00    -0.216 N 
ATOM     33  O   UNL     1       6.497   3.265  -3.022  1.00  0.00    -0.246 OA
ATOM     34  C   UNL     1       5.739   0.685  -1.766  1.00  0.00     0.179 C 
ENDBRANCH  22  24
ENDBRANCH  16  22
ENDBRANCH   5   8
ENDBRANCH   3   4
ENDBRANCH   2   3
ENDBRANCH   1   2
BRANCH   1  35
ATOM     35  C   UNL     1       2.320  10.336  -2.252  1.00  0.00     0.002 C 
BRANCH  35  36
ATOM     36  C   UNL     1       3.507   9.582  -2.880  1.00  0.00     0.021 C 
BRANCH  36  37
ATOM     37  C   UNL     1       3.652   9.792  -4.380  1.00  0.00     0.116 C 
BRANCH  37  38
ATOM     38  N   UNL     1       3.909  11.193  -4.731  1.00  0.00    -0.352 N 
ATOM     39  C   UNL     1       4.194  11.729  -5.970  1.00  0.00     0.251 C 
ATOM     40  H   UNL     1       3.873  11.835  -3.986  1.00  0.00     0.163 HD
ATOM     41  O   UNL     1       4.688  12.854  -6.067  1.00  0.00    -0.269 OA
BRANCH  39  42
ATOM     42  C   UNL     1       3.901  10.936  -7.174  1.00  0.00     0.039 A 
ATOM     43  C   UNL     1       4.748  10.938  -8.284  1.00  0.00     0.014 A 
ATOM     44  C   UNL     1       2.757  10.145  -7.161  1.00  0.00     0.014 A 
ATOM     45  C   UNL     1       4.463  10.076  -9.340  1.00  0.00     0.010 A 
ATOM     46  C   UNL     1       2.597   9.158  -8.094  1.00  0.00     0.010 A 
ATOM     47  C   UNL     1       3.395   9.168  -9.225  1.00  0.00    -0.014 A 
BRANCH  47  48
ATOM     48  C   UNL     1       3.153   8.153 -10.240  1.00  0.00     0.031 A 
ATOM     49  C   UNL     1       4.360   7.381 -10.619  1.00  0.00     0.074 A 
ATOM     50  C   UNL     1       1.924   7.832 -10.703  1.00  0.00     0.049 A 
ATOM     51  N   UNL     1       5.051   7.529 -11.699  1.00  0.00    -0.248 NA
ATOM     52  C   UNL     1       4.980   6.489  -9.630  1.00  0.00     0.031 C 
ATOM     53  C   UNL     1       0.615   8.319 -10.242  1.00  0.00     0.029 A 
ATOM     54  N   UNL     1       1.580   6.901 -11.633  1.00  0.00    -0.354 N 
ATOM     55  C   UNL     1       6.045   6.560 -11.645  1.00  0.00     0.074 A 
ATOM     56  C   UNL     1       6.082   6.102 -10.280  1.00  0.00     0.031 C 
ATOM     57  C   UNL     1      -0.362   7.511 -10.709  1.00  0.00     0.029 A 
ATOM     58  C   UNL     1       0.226   6.582 -11.650  1.00  0.00     0.049 A 
ATOM     59  H   UNL     1       2.234   6.488 -12.242  1.00  0.00     0.167 HD
ATOM     60  C   UNL     1       6.562   6.041 -12.792  1.00  0.00     0.034 A 
ATOM     61  C   UNL     1      -0.371   5.616 -12.388  1.00  0.00     0.034 A 
ATOM     62  C   UNL     1       6.156   6.816 -13.941  1.00  0.00     0.049 A 
ATOM     63  C   UNL     1       0.503   5.374 -13.554  1.00  0.00     0.074 A 
ATOM     64  C   UNL     1       6.342   8.112 -14.375  1.00  0.00     0.029 A 
ATOM     65  N   UNL     1       5.077   6.325 -14.636  1.00  0.00    -0.354 N 
ATOM     66  N   UNL     1       0.724   6.273 -14.472  1.00  0.00    -0.248 NA
ATOM     67  C   UNL     1       1.477   4.301 -13.481  1.00  0.00     0.031 C 
ATOM     68  C   UNL     1       5.109   8.475 -14.996  1.00  0.00     0.029 A 
ATOM     69  C   UNL     1       4.256   7.369 -14.966  1.00  0.00     0.049 A 
ATOM     70  H   UNL     1       4.921   5.379 -14.859  1.00  0.00     0.167 HD
ATOM     71  C   UNL     1       2.080   6.154 -14.744  1.00  0.00     0.074 A 
ATOM     72  C   UNL     1       2.452   4.841 -14.219  1.00  0.00     0.031 C 
ATOM     73  C   UNL     1       2.819   7.247 -15.101  1.00  0.00     0.034 A 
BRANCH  60  74
ATOM     74  C   UNL     1       7.067   4.627 -12.964  1.00  0.00     0.023 A 
ATOM     75  C   UNL     1       7.697   4.318 -14.191  1.00  0.00     0.012 A 
ATOM     76  C   UNL     1       6.696   3.540 -12.141  1.00  0.00     0.148 A 
ATOM     77  C   UNL     1       7.886   2.996 -14.608  1.00  0.00     0.002 A 
ATOM     78  C   UNL     1       6.945   2.228 -12.529  1.00  0.00     0.091 A 
ATOM     79  F   UNL     1       5.980   3.752 -11.034  1.00  0.00    -0.205 F 
ATOM     80  C   UNL     1       7.511   1.950 -13.775  1.00  0.00     0.022 A 
BRANCH  78  81
ATOM     81  S   UNL     1       6.502   0.834 -11.484  1.00  0.00     0.127 S 
ATOM     82  O   UNL     1       5.396   0.248 -12.236  1.00  0.00    -0.237 OA
ATOM     83  O   UNL     1       7.740   0.055 -11.490  1.00  0.00    -0.237 OA
ATOM     84  O   UNL     1       6.158   1.404 -10.187  1.00  0.00    -0.744 OA
ENDBRANCH  78  81
ENDBRANCH  60  74
BRANCH  61  85
ATOM     85  C   UNL     1      -1.494   4.723 -12.032  1.00  0.00     0.023 A 
ATOM     86  C   UNL     1      -2.241   4.087 -13.042  1.00  0.00     0.012 A 
ATOM     87  C   UNL     1      -1.636   4.266 -10.703  1.00  0.00     0.148 A 
ATOM     88  C   UNL     1      -3.082   3.007 -12.741  1.00  0.00     0.002 A 
ATOM     89  C   UNL     1      -2.469   3.191 -10.409  1.00  0.00     0.091 A 
ATOM     90  F   UNL     1      -0.885   4.829  -9.747  1.00  0.00    -0.205 F 
ATOM     91  C   UNL     1      -3.188   2.552 -11.428  1.00  0.00     0.022 A 
BRANCH  89  92
ATOM     92  S   UNL     1      -2.615   2.512  -8.750  1.00  0.00     0.127 S 
ATOM     93  O   UNL     1      -4.058   2.589  -8.522  1.00  0.00    -0.237 OA
ATOM     94  O   UNL     1      -2.094   1.159  -8.928  1.00  0.00    -0.237 OA
ATOM     95  O   UNL     1      -1.817   3.374  -7.888  1.00  0.00    -0.744 OA
ENDBRANCH  89  92
ENDBRANCH  61  85
BRANCH  73  96
ATOM     96  C   UNL     1       2.066   8.511 -15.450  1.00  0.00     0.023 A 
ATOM     97  C   UNL     1       1.313   9.233 -14.500  1.00  0.00     0.012 A 
ATOM     98  C   UNL     1       2.243   9.060 -16.730  1.00  0.00     0.148 A 
ATOM     99  C   UNL     1       0.728  10.461 -14.826  1.00  0.00     0.002 A 
ATOM    100  C   UNL     1       1.696  10.300 -17.039  1.00  0.00     0.091 A 
ATOM    101  F   UNL     1       2.971   8.367 -17.618  1.00  0.00    -0.205 F 
ATOM    102  C   UNL     1       0.929  10.999 -16.094  1.00  0.00     0.022 A 
BRANCH 100 103
ATOM    103  S   UNL     1       2.010  11.104 -18.611  1.00  0.00     0.127 S 
ATOM    104  O   UNL     1       0.700  11.036 -19.256  1.00  0.00    -0.237 OA
ATOM    105  O   UNL     1       2.421  12.447 -18.198  1.00  0.00    -0.237 OA
ATOM    106  O   UNL     1       3.063  10.331 -19.258  1.00  0.00    -0.744 OA
ENDBRANCH 100 103
ENDBRANCH  73  96
ENDBRANCH  47  48
ENDBRANCH  39  42
ENDBRANCH  37  38
ENDBRANCH  36  37
ENDBRANCH  35  36
ENDBRANCH   1  35
TORSDOF 21
