REMARK SMILES COc1ccc(C(=O)c2ccccc2)cc1[C@@H](C)C(=O)NCCCCCCNC(=O)c1ccc(-c2c3nc(c(-c4cccc(S(=O)(=O)[O-])c4F)c4ccc([nH]4)c(-c4cccc(S(=O)(=O)[O-])c4F)c4nc(c(-c5cccc(S(=O)(=O)[O-])c5F)c5ccc2[nH]5)C=C4)C=C3)cc1
REMARK SMILES IDX 24 1 23 2 22 3 21 4 19 5 20 6 17 8 18 9 16 10 3 11 4 12 5 13
REMARK SMILES IDX 15 14 6 15 2 16 1 17 7 18 8 19 9 20 10 21 14 22 11 23 13 24
REMARK SMILES IDX 12 25 25 26 26 27 27 28 28 29 29 30 30 32 31 33 32 34 93 35
REMARK SMILES IDX 33 36 92 37 34 38 35 39 36 40 86 41 37 42 91 43 85 44 87 45
REMARK SMILES IDX 38 46 90 47 84 48 83 49 39 51 71 52 51 53 70 54 52 55 55 56
REMARK SMILES IDX 69 57 88 58 53 59 54 60 68 62 89 63 56 64 40 65 41 66 49 67
REMARK SMILES IDX 42 68 44 69 50 70 43 71 45 72 46 73 47 74 48 75 72 76 73 77
REMARK SMILES IDX 81 78 74 79 76 80 82 81 75 82 77 83 78 84 79 85 80 86 57 87
REMARK SMILES IDX 58 88 66 89 59 90 61 91 67 92 60 93 62 94 63 95 64 96 65 97
REMARK H PARENT 21 7 28 31 87 50 55 61
REMARK Flexibility Score: inf
ROOT
ATOM      1  C   UNL     1       4.934  -5.428   3.658  1.00  0.00     0.002 C 
ENDROOT
BRANCH   1   2
ATOM      2  C   UNL     1       4.504  -3.962   3.780  1.00  0.00     0.021 C 
BRANCH   2   3
ATOM      3  C   UNL     1       5.151  -2.994   2.783  1.00  0.00     0.116 C 
BRANCH   3   4
ATOM      4  N   UNL     1       4.456  -2.998   1.506  1.00  0.00    -0.356 N 
ATOM      5  C   UNL     1       3.588  -2.140   0.908  1.00  0.00     0.227 C 
ATOM      6  O   UNL     1       3.096  -2.538  -0.158  1.00  0.00    -0.274 OA
ATOM      7  H   UNL     1       4.657  -3.792   0.959  1.00  0.00     0.163 HD
BRANCH   5   8
ATOM      8  C   UNL     1       3.190  -0.751   1.448  1.00  0.00     0.109 C 
ATOM      9  C   UNL     1       4.342   0.164   1.852  1.00  0.00     0.023 C 
BRANCH   8  10
ATOM     10  C   UNL     1       2.023  -0.782   2.429  1.00  0.00     0.007 A 
ATOM     11  C   UNL     1       0.722  -0.332   2.136  1.00  0.00     0.122 A 
ATOM     12  C   UNL     1      -0.295  -0.441   3.098  1.00  0.00     0.047 A 
ATOM     13  C   UNL     1      -0.039  -0.968   4.363  1.00  0.00     0.016 A 
ATOM     14  C   UNL     1       2.258  -1.267   3.736  1.00  0.00     0.020 A 
ATOM     15  C   UNL     1       1.253  -1.357   4.705  1.00  0.00     0.023 A 
BRANCH  11  16
ATOM     16  O   UNL     1       0.347   0.408   1.046  1.00  0.00    -0.496 OA
ATOM     17  C   UNL     1       0.538  -0.165  -0.239  1.00  0.00     0.278 C 
ENDBRANCH  11  16
BRANCH  15  18
ATOM     18  C   UNL     1       1.478  -1.913   6.069  1.00  0.00     0.193 C 
ATOM     19  O   UNL     1       0.500  -2.264   6.728  1.00  0.00    -0.289 OA
BRANCH  18  20
ATOM     20  C   UNL     1       2.821  -2.132   6.661  1.00  0.00     0.022 A 
ATOM     21  C   UNL     1       2.993  -3.292   7.423  1.00  0.00     0.012 A 
ATOM     22  C   UNL     1       3.876  -1.216   6.551  1.00  0.00     0.012 A 
ATOM     23  C   UNL     1       4.206  -3.537   8.057  1.00  0.00     0.001 A 
ATOM     24  C   UNL     1       5.105  -1.488   7.163  1.00  0.00     0.001 A 
ATOM     25  C   UNL     1       5.268  -2.647   7.918  1.00  0.00     0.000 A 
ENDBRANCH  18  20
ENDBRANCH  15  18
ENDBRANCH   8  10
ENDBRANCH   5   8
ENDBRANCH   3   4
ENDBRANCH   2   3
ENDBRANCH   1   2
BRANCH   1  26
ATOM     26  C   UNL     1       6.415  -5.720   3.932  1.00  0.00     0.002 C 
BRANCH  26  27
ATOM     27  C   UNL     1       6.987  -5.180   5.250  1.00  0.00     0.021 C 
BRANCH  27  28
ATOM     28  C   UNL     1       6.393  -5.771   6.531  1.00  0.00     0.116 C 
BRANCH  28  29
ATOM     29  N   UNL     1       6.845  -7.125   6.800  1.00  0.00    -0.352 N 
ATOM     30  C   UNL     1       7.318  -7.675   7.970  1.00  0.00     0.251 C 
ATOM     31  H   UNL     1       6.807  -7.740   6.032  1.00  0.00     0.163 HD
ATOM     32  O   UNL     1       7.762  -8.821   7.957  1.00  0.00    -0.269 OA
BRANCH  30  33
ATOM     33  C   UNL     1       7.328  -6.907   9.243  1.00  0.00     0.039 A 
ATOM     34  C   UNL     1       8.481  -6.925  10.030  1.00  0.00     0.014 A 
ATOM     35  C   UNL     1       6.200  -6.231   9.711  1.00  0.00     0.014 A 
ATOM     36  C   UNL     1       8.511  -6.240  11.254  1.00  0.00     0.010 A 
ATOM     37  C   UNL     1       6.258  -5.479  10.898  1.00  0.00     0.010 A 
ATOM     38  C   UNL     1       7.410  -5.485  11.700  1.00  0.00    -0.014 A 
BRANCH  38  39
ATOM     39  C   UNL     1       7.498  -4.725  12.990  1.00  0.00     0.031 A 
ATOM     40  C   UNL     1       6.567  -5.003  14.150  1.00  0.00     0.074 A 
ATOM     41  C   UNL     1       8.434  -3.762  13.142  1.00  0.00     0.049 A 
ATOM     42  N   UNL     1       6.599  -4.516  15.368  1.00  0.00    -0.248 NA
ATOM     43  C   UNL     1       5.448  -5.927  13.914  1.00  0.00     0.031 C 
ATOM     44  C   UNL     1       9.347  -3.301  12.095  1.00  0.00     0.029 A 
ATOM     45  N   UNL     1       8.773  -2.996  14.234  1.00  0.00    -0.354 N 
ATOM     46  C   UNL     1       5.500  -5.051  16.032  1.00  0.00     0.074 A 
ATOM     47  C   UNL     1       4.797  -5.871  15.068  1.00  0.00     0.031 C 
ATOM     48  C   UNL     1      10.160  -2.360  12.601  1.00  0.00     0.029 A 
ATOM     49  C   UNL     1       9.814  -2.126  14.001  1.00  0.00     0.049 A 
ATOM     50  H   UNL     1       8.314  -3.065  15.102  1.00  0.00     0.167 HD
ATOM     51  C   UNL     1       5.118  -4.906  17.326  1.00  0.00     0.034 A 
ATOM     52  C   UNL     1      10.432  -1.242  14.812  1.00  0.00     0.034 A 
ATOM     53  C   UNL     1       5.823  -4.122  18.307  1.00  0.00     0.049 A 
ATOM     54  C   UNL     1      10.026  -1.137  16.257  1.00  0.00     0.074 A 
ATOM     55  C   UNL     1       5.563  -4.005  19.663  1.00  0.00     0.029 A 
ATOM     56  N   UNL     1       6.909  -3.303  18.043  1.00  0.00    -0.354 N 
ATOM     57  N   UNL     1       9.103  -1.802  16.906  1.00  0.00    -0.248 NA
ATOM     58  C   UNL     1      10.780  -0.189  17.093  1.00  0.00     0.031 C 
ATOM     59  C   UNL     1       6.466  -3.087  20.210  1.00  0.00     0.029 A 
ATOM     60  C   UNL     1       7.318  -2.665  19.205  1.00  0.00     0.049 A 
ATOM     61  H   UNL     1       7.330  -3.191  17.160  1.00  0.00     0.167 HD
ATOM     62  C   UNL     1       9.185  -1.377  18.229  1.00  0.00     0.074 A 
ATOM     63  C   UNL     1      10.269  -0.421  18.295  1.00  0.00     0.031 C 
ATOM     64  C   UNL     1       8.420  -1.740  19.288  1.00  0.00     0.034 A 
BRANCH  51  65
ATOM     65  C   UNL     1       3.890  -5.657  17.785  1.00  0.00     0.023 A 
ATOM     66  C   UNL     1       3.935  -7.061  17.907  1.00  0.00     0.012 A 
ATOM     67  C   UNL     1       2.720  -4.970  18.168  1.00  0.00     0.148 A 
ATOM     68  C   UNL     1       2.825  -7.773  18.361  1.00  0.00     0.002 A 
ATOM     69  C   UNL     1       1.634  -5.682  18.666  1.00  0.00     0.091 A 
ATOM     70  F   UNL     1       2.688  -3.637  18.035  1.00  0.00    -0.205 F 
ATOM     71  C   UNL     1       1.680  -7.084  18.750  1.00  0.00     0.022 A 
BRANCH  69  72
ATOM     72  S   UNL     1       0.146  -4.884  19.279  1.00  0.00     0.127 S 
ATOM     73  O   UNL     1      -0.824  -5.234  18.244  1.00  0.00    -0.237 OA
ATOM     74  O   UNL     1      -0.059  -5.555  20.561  1.00  0.00    -0.237 OA
ATOM     75  O   UNL     1       0.466  -3.464  19.381  1.00  0.00    -0.744 OA
ENDBRANCH  69  72
ENDBRANCH  51  65
BRANCH  52  76
ATOM     76  C   UNL     1      11.555  -0.413  14.283  1.00  0.00     0.023 A 
ATOM     77  C   UNL     1      12.870  -0.643  14.733  1.00  0.00     0.012 A 
ATOM     78  C   UNL     1      11.323   0.592  13.324  1.00  0.00     0.148 A 
ATOM     79  C   UNL     1      13.929   0.135  14.262  1.00  0.00     0.002 A 
ATOM     80  C   UNL     1      12.390   1.319  12.813  1.00  0.00     0.091 A 
ATOM     81  F   UNL     1      10.063   0.804  12.920  1.00  0.00    -0.205 F 
ATOM     82  C   UNL     1      13.691   1.107  13.295  1.00  0.00     0.022 A 
BRANCH  80  83
ATOM     83  S   UNL     1      12.197   2.489  11.464  1.00  0.00     0.127 S 
ATOM     84  O   UNL     1      12.467   3.761  12.129  1.00  0.00    -0.237 OA
ATOM     85  O   UNL     1      13.235   2.047  10.533  1.00  0.00    -0.237 OA
ATOM     86  O   UNL     1      10.836   2.308  10.975  1.00  0.00    -0.744 OA
ENDBRANCH  80  83
ENDBRANCH  52  76
BRANCH  64  87
ATOM     87  C   UNL     1       8.742  -1.129  20.631  1.00  0.00     0.023 A 
ATOM     88  C   UNL     1       8.502   0.241  20.860  1.00  0.00     0.012 A 
ATOM     89  C   UNL     1       9.247  -1.921  21.682  1.00  0.00     0.148 A 
ATOM     90  C   UNL     1       8.804   0.821  22.093  1.00  0.00     0.002 A 
ATOM     91  C   UNL     1       9.496  -1.348  22.924  1.00  0.00     0.091 A 
ATOM     92  F   UNL     1       9.489  -3.219  21.446  1.00  0.00    -0.205 F 
ATOM     93  C   UNL     1       9.291   0.026  23.127  1.00  0.00     0.022 A 
BRANCH  91  94
ATOM     94  S   UNL     1      10.035  -2.314  24.340  1.00  0.00     0.127 S 
ATOM     95  O   UNL     1      11.441  -1.927  24.448  1.00  0.00    -0.237 OA
ATOM     96  O   UNL     1       9.179  -1.802  25.411  1.00  0.00    -0.237 OA
ATOM     97  O   UNL     1       9.793  -3.707  23.989  1.00  0.00    -0.744 OA
ENDBRANCH  91  94
ENDBRANCH  64  87
ENDBRANCH  38  39
ENDBRANCH  30  33
ENDBRANCH  28  29
ENDBRANCH  27  28
ENDBRANCH  26  27
ENDBRANCH   1  26
TORSDOF 20
