REMARK SMILES CSc1ncccc1C(=O)N1CSC[C@H]1C(=O)NCCCCNC(=O)c1ccc(-c2c3nc(c(-c4cccc(S(=O)(=O)[O-])c4F)c4ccc([nH]4)c(-c4cccc(S(=O)(=O)[O-])c4F)c4nc(c(-c5cccc(S(=O)(=O)[O-])c5F)c5ccc2[nH]5)C=C4)C=C3)cc1
REMARK SMILES IDX 20 1 19 2 18 3 16 4 17 5 15 7 11 8 12 9 13 10 14 11 9 12
REMARK SMILES IDX 10 13 8 14 3 15 4 16 5 17 7 18 6 19 2 20 1 21 21 22 22 23
REMARK SMILES IDX 23 24 24 25 25 27 26 28 27 29 88 30 28 31 87 32 29 33 30 34
REMARK SMILES IDX 31 35 81 36 32 37 86 38 80 39 82 40 33 41 85 42 79 43 78 44
REMARK SMILES IDX 34 46 66 47 46 48 65 49 47 50 50 51 64 52 83 53 48 54 49 55
REMARK SMILES IDX 63 57 84 58 51 59 35 60 36 61 44 62 37 63 39 64 45 65 38 66
REMARK SMILES IDX 40 67 41 68 42 69 43 70 67 71 68 72 76 73 69 74 71 75 77 76
REMARK SMILES IDX 70 77 72 78 73 79 74 80 75 81 52 82 53 83 61 84 54 85 56 86
REMARK SMILES IDX 62 87 55 88 57 89 58 90 59 91 60 92
REMARK H PARENT 18 6 23 26 82 45 50 56
REMARK Flexibility Score: inf
ROOT
ATOM      1  C   UNL     1       5.393  -3.611  -4.084  1.00  0.00     0.023 C 
ENDROOT
BRANCH   1   2
ATOM      2  C   UNL     1       4.864  -4.134  -5.414  1.00  0.00     0.116 C 
BRANCH   2   3
ATOM      3  N   UNL     1       3.530  -4.678  -5.306  1.00  0.00    -0.354 N 
ATOM      4  C   UNL     1       2.331  -4.202  -5.743  1.00  0.00     0.243 C 
ATOM      5  O   UNL     1       1.405  -5.021  -5.788  1.00  0.00    -0.273 OA
ATOM      6  H   UNL     1       3.479  -5.541  -4.835  1.00  0.00     0.163 HD
BRANCH   4   7
ATOM      7  C   UNL     1       2.131  -2.781  -6.317  1.00  0.00     0.185 C 
ATOM      8  N   UNL     1       2.446  -1.632  -5.450  1.00  0.00    -0.316 N 
ATOM      9  C   UNL     1       3.631  -0.898  -5.827  1.00  0.00     0.190 C 
ATOM     10  S   UNL     1       3.746  -1.050  -7.620  1.00  0.00    -0.138 SA
ATOM     11  C   UNL     1       2.808  -2.611  -7.678  1.00  0.00     0.106 C 
BRANCH   8  12
ATOM     12  C   UNL     1       1.474  -1.261  -4.519  1.00  0.00     0.257 C 
ATOM     13  O   UNL     1       0.582  -2.038  -4.191  1.00  0.00    -0.269 OA
BRANCH  12  14
ATOM     14  C   UNL     1       1.386   0.142  -4.039  1.00  0.00     0.072 A 
ATOM     15  C   UNL     1       1.095   0.488  -2.714  1.00  0.00     0.108 A 
ATOM     16  N   UNL     1       0.930   1.789  -2.336  1.00  0.00    -0.249 NA
ATOM     17  C   UNL     1       1.019   2.753  -3.277  1.00  0.00     0.112 A 
ATOM     18  C   UNL     1       1.427   1.172  -4.994  1.00  0.00     0.018 A 
ATOM     19  C   UNL     1       1.266   2.497  -4.609  1.00  0.00     0.021 A 
BRANCH  15  20
ATOM     20  S   UNL     1       0.851  -0.716  -1.414  1.00  0.00    -0.109 SA
ATOM     21  C   UNL     1       1.207   0.270   0.060  1.00  0.00     0.092 C 
ENDBRANCH  15  20
ENDBRANCH  12  14
ENDBRANCH   8  12
ENDBRANCH   4   7
ENDBRANCH   2   3
ENDBRANCH   1   2
BRANCH   1  22
ATOM     22  C   UNL     1       5.908  -4.692  -3.129  1.00  0.00     0.023 C 
BRANCH  22  23
ATOM     23  C   UNL     1       7.002  -5.601  -3.688  1.00  0.00     0.116 C 
BRANCH  23  24
ATOM     24  N   UNL     1       8.147  -4.880  -4.225  1.00  0.00    -0.352 N 
ATOM     25  C   UNL     1       9.457  -5.291  -4.294  1.00  0.00     0.251 C 
ATOM     26  H   UNL     1       7.960  -3.983  -4.585  1.00  0.00     0.163 HD
ATOM     27  O   UNL     1      10.323  -4.519  -4.698  1.00  0.00    -0.269 OA
BRANCH  25  28
ATOM     28  C   UNL     1       9.822  -6.650  -3.839  1.00  0.00     0.039 A 
ATOM     29  C   UNL     1      10.890  -6.797  -2.951  1.00  0.00     0.014 A 
ATOM     30  C   UNL     1       9.096  -7.768  -4.258  1.00  0.00     0.014 A 
ATOM     31  C   UNL     1      11.186  -8.058  -2.429  1.00  0.00     0.010 A 
ATOM     32  C   UNL     1       9.350  -9.012  -3.686  1.00  0.00     0.010 A 
ATOM     33  C   UNL     1      10.396  -9.171  -2.765  1.00  0.00    -0.014 A 
BRANCH  33  34
ATOM     34  C   UNL     1      10.637 -10.496  -2.141  1.00  0.00     0.031 A 
ATOM     35  C   UNL     1      11.065 -11.670  -2.980  1.00  0.00     0.074 A 
ATOM     36  C   UNL     1      10.398 -10.661  -0.824  1.00  0.00     0.049 A 
ATOM     37  N   UNL     1      11.307 -12.901  -2.611  1.00  0.00    -0.248 NA
ATOM     38  C   UNL     1      11.216 -11.440  -4.427  1.00  0.00     0.031 C 
ATOM     39  C   UNL     1       9.886  -9.627   0.079  1.00  0.00     0.029 A 
ATOM     40  N   UNL     1      10.532 -11.764  -0.019  1.00  0.00    -0.354 N 
ATOM     41  C   UNL     1      11.612 -13.596  -3.775  1.00  0.00     0.074 A 
ATOM     42  C   UNL     1      11.487 -12.659  -4.870  1.00  0.00     0.031 C 
ATOM     43  C   UNL     1       9.757 -10.142   1.313  1.00  0.00     0.029 A 
ATOM     44  C   UNL     1      10.163 -11.544   1.288  1.00  0.00     0.049 A 
ATOM     45  H   UNL     1      10.862 -12.632  -0.346  1.00  0.00     0.167 HD
ATOM     46  C   UNL     1      12.000 -14.886  -3.917  1.00  0.00     0.034 A 
ATOM     47  C   UNL     1      10.160 -12.376   2.348  1.00  0.00     0.034 A 
ATOM     48  C   UNL     1      12.172 -15.802  -2.822  1.00  0.00     0.049 A 
ATOM     49  C   UNL     1      10.669 -13.781   2.172  1.00  0.00     0.074 A 
ATOM     50  C   UNL     1      12.627 -17.109  -2.855  1.00  0.00     0.029 A 
ATOM     51  N   UNL     1      11.902 -15.507  -1.495  1.00  0.00    -0.354 N 
ATOM     52  N   UNL     1      11.113 -14.369   1.088  1.00  0.00    -0.248 NA
ATOM     53  C   UNL     1      10.721 -14.624   3.376  1.00  0.00     0.031 C 
ATOM     54  C   UNL     1      12.632 -17.604  -1.546  1.00  0.00     0.029 A 
ATOM     55  C   UNL     1      12.190 -16.602  -0.698  1.00  0.00     0.049 A 
ATOM     56  H   UNL     1      11.555 -14.646  -1.167  1.00  0.00     0.167 HD
ATOM     57  C   UNL     1      11.533 -15.633   1.485  1.00  0.00     0.074 A 
ATOM     58  C   UNL     1      11.316 -15.716   2.914  1.00  0.00     0.031 C 
ATOM     59  C   UNL     1      12.032 -16.644   0.732  1.00  0.00     0.034 A 
BRANCH  46  60
ATOM     60  C   UNL     1      12.349 -15.364  -5.302  1.00  0.00     0.023 A 
ATOM     61  C   UNL     1      13.551 -14.924  -5.895  1.00  0.00     0.012 A 
ATOM     62  C   UNL     1      11.541 -16.294  -5.984  1.00  0.00     0.148 A 
ATOM     63  C   UNL     1      13.931 -15.380  -7.156  1.00  0.00     0.002 A 
ATOM     64  C   UNL     1      11.947 -16.776  -7.224  1.00  0.00     0.091 A 
ATOM     65  F   UNL     1      10.394 -16.686  -5.413  1.00  0.00    -0.205 F 
ATOM     66  C   UNL     1      13.136 -16.313  -7.815  1.00  0.00     0.022 A 
BRANCH  64  67
ATOM     67  S   UNL     1      11.036 -18.034  -8.126  1.00  0.00     0.127 S 
ATOM     68  O   UNL     1      10.532 -17.271  -9.268  1.00  0.00    -0.237 OA
ATOM     69  O   UNL     1      12.086 -18.999  -8.454  1.00  0.00    -0.237 OA
ATOM     70  O   UNL     1      10.018 -18.529  -7.210  1.00  0.00    -0.744 OA
ENDBRANCH  64  67
ENDBRANCH  46  60
BRANCH  47  71
ATOM     71  C   UNL     1       9.750 -11.878   3.692  1.00  0.00     0.023 A 
ATOM     72  C   UNL     1      10.726 -11.723   4.697  1.00  0.00     0.012 A 
ATOM     73  C   UNL     1       8.412 -11.550   3.981  1.00  0.00     0.148 A 
ATOM     74  C   UNL     1      10.370 -11.292   5.976  1.00  0.00     0.002 A 
ATOM     75  C   UNL     1       8.074 -11.069   5.241  1.00  0.00     0.091 A 
ATOM     76  F   UNL     1       7.492 -11.717   3.020  1.00  0.00    -0.205 F 
ATOM     77  C   UNL     1       9.047 -10.956   6.245  1.00  0.00     0.022 A 
BRANCH  75  78
ATOM     78  S   UNL     1       6.416 -10.489   5.620  1.00  0.00     0.127 S 
ATOM     79  O   UNL     1       5.851 -11.634   6.325  1.00  0.00    -0.237 OA
ATOM     80  O   UNL     1       6.681  -9.318   6.458  1.00  0.00    -0.237 OA
ATOM     81  O   UNL     1       5.821 -10.170   4.328  1.00  0.00    -0.744 OA
ENDBRANCH  75  78
ENDBRANCH  47  71
BRANCH  59  82
ATOM     82  C   UNL     1      12.415 -17.915   1.443  1.00  0.00     0.023 A 
ATOM     83  C   UNL     1      11.409 -18.773   1.928  1.00  0.00     0.012 A 
ATOM     84  C   UNL     1      13.767 -18.286   1.581  1.00  0.00     0.148 A 
ATOM     85  C   UNL     1      11.743 -19.962   2.575  1.00  0.00     0.002 A 
ATOM     86  C   UNL     1      14.091 -19.495   2.186  1.00  0.00     0.091 A 
ATOM     87  F   UNL     1      14.713 -17.447   1.133  1.00  0.00    -0.205 F 
ATOM     88  C   UNL     1      13.082 -20.328   2.695  1.00  0.00     0.022 A 
BRANCH  86  89
ATOM     89  S   UNL     1      15.787 -20.078   2.295  1.00  0.00     0.127 S 
ATOM     90  O   UNL     1      16.137 -19.728   3.669  1.00  0.00    -0.237 OA
ATOM     91  O   UNL     1      15.643 -21.514   2.050  1.00  0.00    -0.237 OA
ATOM     92  O   UNL     1      16.515 -19.364   1.254  1.00  0.00    -0.744 OA
ENDBRANCH  86  89
ENDBRANCH  59  82
ENDBRANCH  33  34
ENDBRANCH  25  28
ENDBRANCH  23  24
ENDBRANCH  22  23
ENDBRANCH   1  22
TORSDOF 17
