REMARK SMILES O=C(NCCCCNC(=O)c1cn(C2C[NH+](CC[NH+]3CCCCC3)C2)nn1)c1ccc(-c2c3nc(c(-c4cccc(S(=O)(=O)[O-])c4F)c4ccc([nH]4)c(-c4cccc(S(=O)(=O)[O-])c4F)c4nc(c(-c5cccc(S(=O)(=O)[O-])c5F)c5ccc2[nH]5)C=C4)C=C3)cc1
REMARK SMILES IDX 6 1 5 2 4 3 3 4 1 5 2 6 28 8 29 9 90 10 30 11 89 12 31 13
REMARK SMILES IDX 32 14 33 15 83 16 34 17 88 18 82 19 84 20 35 21 87 22 81 23
REMARK SMILES IDX 80 24 36 26 68 27 48 28 67 29 49 30 52 31 66 32 85 33 50 34
REMARK SMILES IDX 51 35 65 37 86 38 53 39 37 40 38 41 46 42 39 43 41 44 47 45
REMARK SMILES IDX 40 46 42 47 43 48 44 49 45 50 69 51 70 52 78 53 71 54 73 55
REMARK SMILES IDX 79 56 72 57 74 58 75 59 76 60 77 61 54 62 55 63 63 64 56 65
REMARK SMILES IDX 58 66 64 67 57 68 59 69 60 70 61 71 62 72 7 73 8 74 9 75
REMARK SMILES IDX 10 77 11 78 12 79 27 80 13 81 26 82 14 83 15 84 25 85 16 86
REMARK SMILES IDX 17 88 18 89 19 90 20 91 24 92 21 94 23 95 22 96
REMARK H PARENT 3 7 84 25 52 36 8 76 16 87 19 93
REMARK Flexibility Score: inf
ROOT
ATOM      1  C   UNL     1       4.540  -2.312   2.638  1.00  0.00     0.023 C 
ENDROOT
BRANCH   1   2
ATOM      2  C   UNL     1       4.997  -0.988   2.013  1.00  0.00     0.023 C 
BRANCH   2   3
ATOM      3  C   UNL     1       4.759  -0.862   0.510  1.00  0.00     0.116 C 
BRANCH   3   4
ATOM      4  N   UNL     1       3.372  -0.943   0.107  1.00  0.00    -0.352 N 
ATOM      5  O   UNL     1       1.324  -0.422  -0.525  1.00  0.00    -0.269 OA
ATOM      6  C   UNL     1       2.339  -0.046   0.068  1.00  0.00     0.251 C 
ATOM      7  H   UNL     1       3.115  -1.840  -0.207  1.00  0.00     0.163 HD
BRANCH   6   8
ATOM      8  C   UNL     1       2.333   1.276   0.751  1.00  0.00     0.039 A 
ATOM      9  C   UNL     1       3.462   1.972   1.187  1.00  0.00     0.014 A 
ATOM     10  C   UNL     1       1.064   1.838   0.982  1.00  0.00     0.014 A 
ATOM     11  C   UNL     1       3.325   3.145   1.924  1.00  0.00     0.010 A 
ATOM     12  C   UNL     1       0.919   3.016   1.704  1.00  0.00     0.010 A 
ATOM     13  C   UNL     1       2.053   3.651   2.202  1.00  0.00    -0.014 A 
BRANCH  13  14
ATOM     14  C   UNL     1       1.955   4.978   2.806  1.00  0.00     0.031 A 
ATOM     15  C   UNL     1       2.433   6.064   1.905  1.00  0.00     0.074 A 
ATOM     16  C   UNL     1       1.350   5.228   3.986  1.00  0.00     0.049 A 
ATOM     17  N   UNL     1       3.450   6.847   2.072  1.00  0.00    -0.248 NA
ATOM     18  C   UNL     1       1.804   6.180   0.579  1.00  0.00     0.031 C 
ATOM     19  C   UNL     1       0.594   4.280   4.806  1.00  0.00     0.029 A 
ATOM     20  N   UNL     1       1.160   6.417   4.635  1.00  0.00    -0.354 N 
ATOM     21  C   UNL     1       3.420   7.725   0.987  1.00  0.00     0.074 A 
ATOM     22  C   UNL     1       2.550   7.128   0.012  1.00  0.00     0.031 C 
ATOM     23  C   UNL     1      -0.169   4.965   5.687  1.00  0.00     0.029 A 
ATOM     24  C   UNL     1       0.130   6.382   5.577  1.00  0.00     0.049 A 
ATOM     25  H   UNL     1       1.698   7.221   4.455  1.00  0.00     0.167 HD
ATOM     26  C   UNL     1       3.869   9.005   1.107  1.00  0.00     0.034 A 
ATOM     27  C   UNL     1      -0.488   7.442   6.158  1.00  0.00     0.034 A 
ATOM     28  C   UNL     1       4.723   9.149   2.260  1.00  0.00     0.049 A 
ATOM     29  C   UNL     1       0.399   8.614   6.006  1.00  0.00     0.074 A 
ATOM     30  C   UNL     1       5.887   8.559   2.709  1.00  0.00     0.029 A 
ATOM     31  N   UNL     1       4.182   9.792   3.345  1.00  0.00    -0.354 N 
ATOM     32  N   UNL     1       1.540   8.741   6.619  1.00  0.00    -0.248 NA
ATOM     33  C   UNL     1       0.202   9.478   4.855  1.00  0.00     0.031 C 
ATOM     34  C   UNL     1       5.744   8.492   4.127  1.00  0.00     0.029 A 
ATOM     35  C   UNL     1       4.536   9.103   4.468  1.00  0.00     0.049 A 
ATOM     36  H   UNL     1       3.633  10.609   3.317  1.00  0.00     0.167 HD
ATOM     37  C   UNL     1       2.369   9.318   5.668  1.00  0.00     0.074 A 
ATOM     38  C   UNL     1       1.465   9.864   4.658  1.00  0.00     0.031 C 
ATOM     39  C   UNL     1       3.703   9.031   5.645  1.00  0.00     0.034 A 
BRANCH  26  40
ATOM     40  C   UNL     1       3.195  10.219   0.480  1.00  0.00     0.023 A 
ATOM     41  C   UNL     1       3.803  11.475   0.718  1.00  0.00     0.012 A 
ATOM     42  C   UNL     1       1.877  10.243  -0.034  1.00  0.00     0.148 A 
ATOM     43  C   UNL     1       3.103  12.677   0.562  1.00  0.00     0.002 A 
ATOM     44  C   UNL     1       1.211  11.443  -0.259  1.00  0.00     0.091 A 
ATOM     45  F   UNL     1       1.194   9.112  -0.202  1.00  0.00    -0.205 F 
ATOM     46  C   UNL     1       1.803  12.661   0.077  1.00  0.00     0.022 A 
BRANCH  44  47
ATOM     47  S   UNL     1      -0.458  11.486  -0.929  1.00  0.00     0.127 S 
ATOM     48  O   UNL     1      -1.225  11.924   0.233  1.00  0.00    -0.237 OA
ATOM     49  O   UNL     1      -0.321  12.479  -1.995  1.00  0.00    -0.237 OA
ATOM     50  O   UNL     1      -0.731  10.135  -1.402  1.00  0.00    -0.744 OA
ENDBRANCH  44  47
ENDBRANCH  26  40
BRANCH  27  51
ATOM     51  C   UNL     1      -1.887   7.608   6.625  1.00  0.00     0.023 A 
ATOM     52  C   UNL     1      -2.212   8.664   7.504  1.00  0.00     0.012 A 
ATOM     53  C   UNL     1      -2.948   6.930   5.987  1.00  0.00     0.148 A 
ATOM     54  C   UNL     1      -3.542   9.056   7.707  1.00  0.00     0.002 A 
ATOM     55  C   UNL     1      -4.269   7.317   6.198  1.00  0.00     0.091 A 
ATOM     56  F   UNL     1      -2.658   5.970   5.099  1.00  0.00    -0.205 F 
ATOM     57  C   UNL     1      -4.569   8.389   7.048  1.00  0.00     0.022 A 
BRANCH  55  58
ATOM     58  S   UNL     1      -5.644   6.519   5.360  1.00  0.00     0.127 S 
ATOM     59  O   UNL     1      -6.563   6.256   6.468  1.00  0.00    -0.237 OA
ATOM     60  O   UNL     1      -6.082   7.561   4.436  1.00  0.00    -0.237 OA
ATOM     61  O   UNL     1      -5.092   5.318   4.744  1.00  0.00    -0.744 OA
ENDBRANCH  55  58
ENDBRANCH  27  51
BRANCH  39  62
ATOM     62  C   UNL     1       4.308   8.366   6.852  1.00  0.00     0.023 A 
ATOM     63  C   UNL     1       3.921   7.087   7.299  1.00  0.00     0.012 A 
ATOM     64  C   UNL     1       5.410   8.995   7.454  1.00  0.00     0.148 A 
ATOM     65  C   UNL     1       4.606   6.461   8.345  1.00  0.00     0.002 A 
ATOM     66  C   UNL     1       6.119   8.349   8.456  1.00  0.00     0.091 A 
ATOM     67  F   UNL     1       5.761  10.214   7.016  1.00  0.00    -0.205 F 
ATOM     68  C   UNL     1       5.715   7.085   8.913  1.00  0.00     0.022 A 
BRANCH  66  69
ATOM     69  S   UNL     1       7.626   9.051   9.128  1.00  0.00     0.127 S 
ATOM     70  O   UNL     1       7.178   9.551  10.425  1.00  0.00    -0.237 OA
ATOM     71  O   UNL     1       8.513   7.889   9.191  1.00  0.00    -0.237 OA
ATOM     72  O   UNL     1       8.052  10.069   8.175  1.00  0.00    -0.744 OA
ENDBRANCH  66  69
ENDBRANCH  39  62
ENDBRANCH  13  14
ENDBRANCH   6   8
ENDBRANCH   3   4
ENDBRANCH   2   3
ENDBRANCH   1   2
BRANCH   1  73
ATOM     73  C   UNL     1       5.066  -3.582   1.968  1.00  0.00     0.116 C 
BRANCH  73  74
ATOM     74  N   UNL     1       6.516  -3.632   1.944  1.00  0.00    -0.351 N 
ATOM     75  C   UNL     1       7.364  -4.688   2.180  1.00  0.00     0.273 C 
ATOM     76  H   UNL     1       6.960  -2.781   1.726  1.00  0.00     0.163 HD
ATOM     77  O   UNL     1       8.562  -4.453   2.313  1.00  0.00    -0.267 OA
BRANCH  75  78
ATOM     78  C   UNL     1       6.829  -6.037   2.265  1.00  0.00     0.170 A 
ATOM     79  C   UNL     1       5.868  -6.657   1.485  1.00  0.00     0.145 A 
ATOM     80  N   UNL     1       7.300  -6.939   3.186  1.00  0.00    -0.125 NA
ATOM     81  N   UNL     1       5.731  -7.892   2.049  1.00  0.00    -0.237 N 
ATOM     82  N   UNL     1       6.621  -8.065   3.046  1.00  0.00    -0.066 NA
BRANCH  81  83
ATOM     83  C   UNL     1       4.638  -8.802   1.953  1.00  0.00     0.218 C 
ATOM     84  C   UNL     1       3.263  -8.137   1.617  1.00  0.00     0.296 C 
ATOM     85  C   UNL     1       4.371  -9.577   0.665  1.00  0.00     0.296 C 
ATOM     86  N   UNL     1       2.906  -9.375   0.904  1.00  0.00    -0.326 N 
ATOM     87  H   UNL     1       2.250  -9.407   0.124  1.00  0.00     0.348 HD
BRANCH  86  88
ATOM     88  C   UNL     1       2.240 -10.368   1.789  1.00  0.00     0.324 C 
BRANCH  88  89
ATOM     89  C   UNL     1       2.551 -10.703   3.308  1.00  0.00     0.324 C 
BRANCH  89  90
ATOM     90  N   UNL     1       2.247  -9.788   4.435  1.00  0.00    -0.330 N 
ATOM     91  C   UNL     1       3.351  -8.932   4.874  1.00  0.00     0.262 C 
ATOM     92  C   UNL     1       0.926  -9.168   4.364  1.00  0.00     0.262 C 
ATOM     93  H   UNL     1       2.160 -10.407   5.241  1.00  0.00     0.348 HD
ATOM     94  C   UNL     1       3.044  -7.889   5.944  1.00  0.00     0.062 C 
ATOM     95  C   UNL     1       0.643  -8.180   5.500  1.00  0.00     0.062 C 
ATOM     96  C   UNL     1       1.758  -7.153   5.609  1.00  0.00     0.012 C 
ENDBRANCH  89  90
ENDBRANCH  88  89
ENDBRANCH  86  88
ENDBRANCH  81  83
ENDBRANCH  75  78
ENDBRANCH  73  74
ENDBRANCH   1  73
TORSDOF 18
