REMARK SMILES CC(C)(C)c1cc2c(cc1Cl)C=C(C(=O)NCCCCNC(=O)c1ccc(-c3c4nc(c(-c5cccc(S(=O)(=O)[O-])c5F)c5ccc([nH]5)c(-c5cccc(S(=O)(=O)[O-])c5F)c5nc(c(-c6cccc(S(=O)(=O)[O-])c6F)c6ccc3[nH]6)C=C5)C=C4)cc1)[C@@H](C(F)(F)F)O2
REMARK SMILES IDX 19 1 18 2 17 3 16 4 14 5 15 6 13 8 5 9 6 10 10 11 7 12 9 13
REMARK SMILES IDX 11 14 8 15 92 16 12 17 87 18 2 19 1 20 3 21 4 22 88 23 89 24
REMARK SMILES IDX 90 25 91 26 20 27 21 28 22 29 23 31 24 32 25 33 86 34 26 35
REMARK SMILES IDX 85 36 27 37 28 38 29 39 79 40 30 41 84 42 78 43 80 44 31 45
REMARK SMILES IDX 83 46 77 47 76 48 32 50 64 51 44 52 63 53 45 54 48 55 62 56
REMARK SMILES IDX 81 57 46 58 47 59 61 61 82 62 49 63 33 64 34 65 42 66 35 67
REMARK SMILES IDX 37 68 43 69 36 70 38 71 39 72 40 73 41 74 65 75 66 76 74 77
REMARK SMILES IDX 67 78 69 79 75 80 68 81 70 82 71 83 72 84 73 85 50 86 51 87
REMARK SMILES IDX 59 88 52 89 54 90 60 91 53 92 55 93 56 94 57 95 58 96
REMARK H PARENT 16 7 21 30 80 49 48 60
REMARK Flexibility Score: inf
ROOT
ATOM      1  C   UNL     1      -1.290  11.657   1.682  1.00  0.00     0.023 C 
ENDROOT
BRANCH   1   2
ATOM      2  C   UNL     1      -1.008  10.308   1.011  1.00  0.00     0.023 C 
BRANCH   2   3
ATOM      3  C   UNL     1       0.450  10.089   0.614  1.00  0.00     0.116 C 
BRANCH   3   4
ATOM      4  N   UNL     1       1.242   9.538   1.700  1.00  0.00    -0.352 N 
ATOM      5  C   UNL     1       1.692   8.317   2.075  1.00  0.00     0.251 C 
ATOM      6  O   UNL     1       2.371   8.297   3.107  1.00  0.00    -0.270 OA
ATOM      7  H   UNL     1       1.528  10.238   2.330  1.00  0.00     0.163 HD
BRANCH   5   8
ATOM      8  C   UNL     1       1.424   7.038   1.351  1.00  0.00     0.067 C 
ATOM      9  C   UNL     1       0.997   2.106   0.114  1.00  0.00    -0.020 A 
ATOM     10  C   UNL     1       0.475   3.337  -0.364  1.00  0.00     0.053 A 
ATOM     11  C   UNL     1       1.870   2.202   1.220  1.00  0.00     0.045 A 
ATOM     12  C   UNL     1       0.772   4.565   0.227  1.00  0.00     0.128 A 
ATOM     13  C   UNL     1       2.154   3.448   1.820  1.00  0.00     0.032 A 
ATOM     14  Cl  UNL     1       2.689   0.874   1.963  1.00  0.00    -0.084 Cl
ATOM     15  C   UNL     1       1.600   4.630   1.333  1.00  0.00     0.019 A 
ATOM     16  O   UNL     1       0.167   5.664  -0.309  1.00  0.00    -0.475 OA
ATOM     17  C   UNL     1       1.829   5.917   1.978  1.00  0.00     0.025 C 
ATOM     18  C   UNL     1       0.784   6.947  -0.006  1.00  0.00     0.314 C 
BRANCH   9  19
ATOM     19  C   UNL     1       0.540   0.831  -0.639  1.00  0.00    -0.012 C 
ATOM     20  C   UNL     1       0.971  -0.537  -0.072  1.00  0.00     0.016 C 
ATOM     21  C   UNL     1       1.076   0.889  -2.091  1.00  0.00     0.016 C 
ATOM     22  C   UNL     1      -1.012   0.785  -0.680  1.00  0.00     0.016 C 
ENDBRANCH   9  19
BRANCH  18  23
ATOM     23  C   UNL     1       1.757   7.319  -1.142  1.00  0.00     0.429 C 
ATOM     24  F   UNL     1       1.077   7.514  -2.300  1.00  0.00    -0.167 F 
ATOM     25  F   UNL     1       2.434   8.463  -0.894  1.00  0.00    -0.167 F 
ATOM     26  F   UNL     1       2.678   6.356  -1.373  1.00  0.00    -0.167 F 
ENDBRANCH  18  23
ENDBRANCH   5   8
ENDBRANCH   3   4
ENDBRANCH   2   3
ENDBRANCH   1   2
BRANCH   1  27
ATOM     27  C   UNL     1      -0.870  12.889   0.883  1.00  0.00     0.116 C 
BRANCH  27  28
ATOM     28  N   UNL     1      -1.392  12.938  -0.476  1.00  0.00    -0.352 N 
ATOM     29  C   UNL     1      -1.492  14.045  -1.295  1.00  0.00     0.251 C 
ATOM     30  H   UNL     1      -1.710  12.086  -0.853  1.00  0.00     0.163 HD
ATOM     31  O   UNL     1      -2.026  13.964  -2.395  1.00  0.00    -0.269 OA
BRANCH  29  32
ATOM     32  C   UNL     1      -1.000  15.341  -0.780  1.00  0.00     0.039 A 
ATOM     33  C   UNL     1       0.295  15.439  -0.271  1.00  0.00     0.014 A 
ATOM     34  C   UNL     1      -1.886  16.416  -0.683  1.00  0.00     0.014 A 
ATOM     35  C   UNL     1       0.634  16.533   0.514  1.00  0.00     0.010 A 
ATOM     36  C   UNL     1      -1.510  17.553   0.039  1.00  0.00     0.010 A 
ATOM     37  C   UNL     1      -0.277  17.587   0.708  1.00  0.00    -0.014 A 
BRANCH  37  38
ATOM     38  C   UNL     1       0.075  18.673   1.661  1.00  0.00     0.031 A 
ATOM     39  C   UNL     1      -0.701  18.859   2.941  1.00  0.00     0.074 A 
ATOM     40  C   UNL     1       1.160  19.433   1.419  1.00  0.00     0.049 A 
ATOM     41  N   UNL     1      -0.454  19.672   3.936  1.00  0.00    -0.248 NA
ATOM     42  C   UNL     1      -1.906  18.034   3.135  1.00  0.00     0.031 C 
ATOM     43  C   UNL     1       1.981  19.363   0.208  1.00  0.00     0.029 A 
ATOM     44  N   UNL     1       1.781  20.384   2.188  1.00  0.00    -0.354 N 
ATOM     45  C   UNL     1      -1.487  19.488   4.848  1.00  0.00     0.074 A 
ATOM     46  C   UNL     1      -2.370  18.489   4.291  1.00  0.00     0.031 C 
ATOM     47  C   UNL     1       3.034  20.183   0.345  1.00  0.00     0.029 A 
ATOM     48  C   UNL     1       2.942  20.866   1.632  1.00  0.00     0.049 A 
ATOM     49  H   UNL     1       1.429  20.692   3.055  1.00  0.00     0.167 HD
ATOM     50  C   UNL     1      -1.669  20.076   6.052  1.00  0.00     0.034 A 
ATOM     51  C   UNL     1       3.844  21.748   2.106  1.00  0.00     0.034 A 
ATOM     52  C   UNL     1      -0.754  21.010   6.646  1.00  0.00     0.049 A 
ATOM     53  C   UNL     1       3.637  22.359   3.461  1.00  0.00     0.074 A 
ATOM     54  C   UNL     1      -0.827  21.605   7.894  1.00  0.00     0.029 A 
ATOM     55  N   UNL     1       0.402  21.477   6.044  1.00  0.00    -0.354 N 
ATOM     56  N   UNL     1       2.702  22.101   4.342  1.00  0.00    -0.248 NA
ATOM     57  C   UNL     1       4.608  23.376   3.892  1.00  0.00     0.031 C 
ATOM     58  C   UNL     1       0.289  22.431   8.048  1.00  0.00     0.029 A 
ATOM     59  C   UNL     1       1.051  22.355   6.893  1.00  0.00     0.049 A 
ATOM     60  H   UNL     1       0.716  21.222   5.146  1.00  0.00     0.167 HD
ATOM     61  C   UNL     1       2.971  22.919   5.432  1.00  0.00     0.074 A 
ATOM     62  C   UNL     1       4.171  23.664   5.113  1.00  0.00     0.031 C 
ATOM     63  C   UNL     1       2.268  23.056   6.581  1.00  0.00     0.034 A 
BRANCH  50  64
ATOM     64  C   UNL     1      -2.875  19.684   6.860  1.00  0.00     0.023 A 
ATOM     65  C   UNL     1      -2.824  18.509   7.635  1.00  0.00     0.012 A 
ATOM     66  C   UNL     1      -4.001  20.526   6.942  1.00  0.00     0.148 A 
ATOM     67  C   UNL     1      -3.882  18.173   8.479  1.00  0.00     0.002 A 
ATOM     68  C   UNL     1      -5.041  20.196   7.803  1.00  0.00     0.091 A 
ATOM     69  F   UNL     1      -4.028  21.631   6.183  1.00  0.00    -0.205 F 
ATOM     70  C   UNL     1      -4.983  19.020   8.570  1.00  0.00     0.022 A 
BRANCH  68  71
ATOM     71  S   UNL     1      -6.484  21.241   8.034  1.00  0.00     0.127 S 
ATOM     72  O   UNL     1      -7.542  20.411   7.458  1.00  0.00    -0.237 OA
ATOM     73  O   UNL     1      -6.537  21.375   9.489  1.00  0.00    -0.237 OA
ATOM     74  O   UNL     1      -6.205  22.477   7.316  1.00  0.00    -0.744 OA
ENDBRANCH  68  71
ENDBRANCH  50  64
BRANCH  51  75
ATOM     75  C   UNL     1       5.064  22.036   1.306  1.00  0.00     0.023 A 
ATOM     76  C   UNL     1       6.294  21.480   1.706  1.00  0.00     0.012 A 
ATOM     77  C   UNL     1       4.995  22.773   0.108  1.00  0.00     0.148 A 
ATOM     78  C   UNL     1       7.437  21.653   0.925  1.00  0.00     0.002 A 
ATOM     79  C   UNL     1       6.126  22.902  -0.688  1.00  0.00     0.091 A 
ATOM     80  F   UNL     1       3.814  23.302  -0.242  1.00  0.00    -0.205 F 
ATOM     81  C   UNL     1       7.350  22.351  -0.277  1.00  0.00     0.022 A 
BRANCH  79  82
ATOM     82  S   UNL     1       6.079  23.674  -2.309  1.00  0.00     0.127 S 
ATOM     83  O   UNL     1       6.840  24.899  -2.078  1.00  0.00    -0.237 OA
ATOM     84  O   UNL     1       6.754  22.675  -3.138  1.00  0.00    -0.237 OA
ATOM     85  O   UNL     1       4.667  23.856  -2.617  1.00  0.00    -0.744 OA
ENDBRANCH  79  82
ENDBRANCH  51  75
BRANCH  63  86
ATOM     86  C   UNL     1       2.748  24.058   7.592  1.00  0.00     0.023 A 
ATOM     87  C   UNL     1       2.393  25.410   7.425  1.00  0.00     0.012 A 
ATOM     88  C   UNL     1       3.402  23.646   8.768  1.00  0.00     0.148 A 
ATOM     89  C   UNL     1       2.682  26.343   8.419  1.00  0.00     0.002 A 
ATOM     90  C   UNL     1       3.662  24.577   9.767  1.00  0.00     0.091 A 
ATOM     91  F   UNL     1       3.722  22.351   8.899  1.00  0.00    -0.205 F 
ATOM     92  C   UNL     1       3.306  25.925   9.593  1.00  0.00     0.022 A 
BRANCH  90  93
ATOM     93  S   UNL     1       4.397  24.131  11.344  1.00  0.00     0.127 S 
ATOM     94  O   UNL     1       5.617  24.937  11.343  1.00  0.00    -0.237 OA
ATOM     95  O   UNL     1       3.375  24.571  12.293  1.00  0.00    -0.237 OA
ATOM     96  O   UNL     1       4.614  22.692  11.299  1.00  0.00    -0.744 OA
ENDBRANCH  90  93
ENDBRANCH  63  86
ENDBRANCH  37  38
ENDBRANCH  29  32
ENDBRANCH  27  28
ENDBRANCH   1  27
TORSDOF 16
