REMARK SMILES O=C(NCCCCNC(=O)c1ccc(-c2c3nc(c(-c4cccc(S(=O)(=O)[O-])c4F)c4ccc([nH]4)c(-c4cccc(S(=O)(=O)[O-])c4F)c4nc(c(-c5cccc(S(=O)(=O)[O-])c5F)c5ccc2[nH]5)C=C4)C=C3)cc1)C1=Cc2c(cc(Cl)c(Cl)c2Cl)O[C@H]1C(F)(F)F
REMARK SMILES IDX 6 1 5 2 4 3 3 4 1 5 2 6 74 8 75 9 86 10 76 11 85 12 77 13
REMARK SMILES IDX 83 14 78 15 81 16 84 17 79 18 82 19 80 20 87 21 88 22 89 23
REMARK SMILES IDX 90 24 7 25 8 26 9 27 10 29 11 30 12 31 73 32 13 33 72 34
REMARK SMILES IDX 14 35 15 36 16 37 66 38 17 39 71 40 65 41 67 42 18 43 70 44
REMARK SMILES IDX 64 45 63 46 19 48 51 49 31 50 50 51 32 52 35 53 49 54 68 55
REMARK SMILES IDX 33 56 34 57 48 59 69 60 36 61 20 62 21 63 29 64 22 65 24 66
REMARK SMILES IDX 30 67 23 68 25 69 26 70 27 71 28 72 52 73 53 74 61 75 54 76
REMARK SMILES IDX 56 77 62 78 55 79 57 80 58 81 59 82 60 83 37 84 38 85 46 86
REMARK SMILES IDX 39 87 41 88 47 89 40 90 42 91 43 92 44 93 45 94
REMARK H PARENT 3 7 8 28 67 47 35 58
REMARK Flexibility Score: inf
ROOT
ATOM      1  C   UNL     1       3.934   1.481   3.926  1.00  0.00     0.023 C 
ENDROOT
BRANCH   1   2
ATOM      2  C   UNL     1       4.257   1.823   2.475  1.00  0.00     0.023 C 
BRANCH   2   3
ATOM      3  C   UNL     1       4.005   0.723   1.454  1.00  0.00     0.116 C 
BRANCH   3   4
ATOM      4  N   UNL     1       2.632   0.565   1.009  1.00  0.00    -0.352 N 
ATOM      5  O   UNL     1       0.977  -0.015  -0.421  1.00  0.00    -0.270 OA
ATOM      6  C   UNL     1       2.172  -0.018  -0.144  1.00  0.00     0.251 C 
ATOM      7  H   UNL     1       1.942   0.922   1.614  1.00  0.00     0.163 HD
BRANCH   6   8
ATOM      8  C   UNL     1       3.131  -0.624  -1.108  1.00  0.00     0.067 C 
ATOM      9  C   UNL     1       3.687  -1.791  -0.745  1.00  0.00     0.027 C 
ATOM     10  C   UNL     1       3.846   0.349  -2.005  1.00  0.00     0.314 C 
ATOM     11  C   UNL     1       5.131  -1.670  -0.443  1.00  0.00     0.037 A 
ATOM     12  O   UNL     1       5.300   0.299  -1.881  1.00  0.00    -0.475 OA
ATOM     13  C   UNL     1       5.836  -0.585  -0.980  1.00  0.00     0.131 A 
ATOM     14  C   UNL     1       5.739  -2.490   0.530  1.00  0.00     0.072 A 
ATOM     15  C   UNL     1       7.112  -0.283  -0.517  1.00  0.00     0.069 A 
ATOM     16  C   UNL     1       7.014  -2.166   1.024  1.00  0.00     0.079 A 
ATOM     17  Cl  UNL     1       4.854  -3.847   1.166  1.00  0.00    -0.082 Cl
ATOM     18  C   UNL     1       7.684  -1.047   0.505  1.00  0.00     0.064 A 
ATOM     19  Cl  UNL     1       7.726  -3.097   2.304  1.00  0.00    -0.081 Cl
ATOM     20  Cl  UNL     1       9.208  -0.507   1.120  1.00  0.00    -0.083 Cl
BRANCH  10  21
ATOM     21  C   UNL     1       3.429   0.186  -3.482  1.00  0.00     0.429 C 
ATOM     22  F   UNL     1       2.457  -0.737  -3.665  1.00  0.00    -0.167 F 
ATOM     23  F   UNL     1       2.970   1.356  -3.990  1.00  0.00    -0.167 F 
ATOM     24  F   UNL     1       4.472  -0.197  -4.261  1.00  0.00    -0.167 F 
ENDBRANCH  10  21
ENDBRANCH   6   8
ENDBRANCH   3   4
ENDBRANCH   2   3
ENDBRANCH   1   2
BRANCH   1  25
ATOM     25  C   UNL     1       4.568   0.213   4.495  1.00  0.00     0.116 C 
BRANCH  25  26
ATOM     26  N   UNL     1       6.023   0.157   4.401  1.00  0.00    -0.352 N 
ATOM     27  C   UNL     1       6.941  -0.244   5.350  1.00  0.00     0.251 C 
ATOM     28  H   UNL     1       6.402   0.445   3.539  1.00  0.00     0.163 HD
ATOM     29  O   UNL     1       8.142  -0.191   5.097  1.00  0.00    -0.269 OA
BRANCH  27  30
ATOM     30  C   UNL     1       6.482  -0.663   6.694  1.00  0.00     0.039 A 
ATOM     31  C   UNL     1       7.075  -0.078   7.817  1.00  0.00     0.014 A 
ATOM     32  C   UNL     1       5.421  -1.557   6.850  1.00  0.00     0.014 A 
ATOM     33  C   UNL     1       6.521  -0.288   9.083  1.00  0.00     0.010 A 
ATOM     34  C   UNL     1       4.822  -1.702   8.100  1.00  0.00     0.010 A 
ATOM     35  C   UNL     1       5.348  -1.048   9.225  1.00  0.00    -0.014 A 
BRANCH  35  36
ATOM     36  C   UNL     1       4.616  -1.105  10.518  1.00  0.00     0.031 A 
ATOM     37  C   UNL     1       4.406  -2.415  11.225  1.00  0.00     0.074 A 
ATOM     38  C   UNL     1       4.035   0.016  10.997  1.00  0.00     0.049 A 
ATOM     39  N   UNL     1       3.735  -2.661  12.320  1.00  0.00    -0.248 NA
ATOM     40  C   UNL     1       5.000  -3.610  10.604  1.00  0.00     0.031 C 
ATOM     41  C   UNL     1       4.075   1.331  10.352  1.00  0.00     0.029 A 
ATOM     42  N   UNL     1       3.270   0.224  12.119  1.00  0.00    -0.354 N 
ATOM     43  C   UNL     1       3.791  -4.038  12.500  1.00  0.00     0.074 A 
ATOM     44  C   UNL     1       4.538  -4.578  11.384  1.00  0.00     0.031 C 
ATOM     45  C   UNL     1       3.371   2.206  11.088  1.00  0.00     0.029 A 
ATOM     46  C   UNL     1       2.809   1.515  12.243  1.00  0.00     0.049 A 
ATOM     47  H   UNL     1       3.070  -0.484  12.773  1.00  0.00     0.167 HD
ATOM     48  C   UNL     1       3.293  -4.783  13.516  1.00  0.00     0.034 A 
ATOM     49  C   UNL     1       2.021   2.081  13.180  1.00  0.00     0.034 A 
ATOM     50  C   UNL     1       2.599  -4.238  14.651  1.00  0.00     0.049 A 
ATOM     51  C   UNL     1       1.548   1.246  14.339  1.00  0.00     0.074 A 
ATOM     52  C   UNL     1       2.147  -4.898  15.781  1.00  0.00     0.029 A 
ATOM     53  N   UNL     1       2.255  -2.904  14.803  1.00  0.00    -0.354 N 
ATOM     54  N   UNL     1       1.767  -0.024  14.581  1.00  0.00    -0.248 NA
ATOM     55  C   UNL     1       0.756   1.927  15.373  1.00  0.00     0.031 C 
ATOM     56  C   UNL     1       1.520  -3.963  16.611  1.00  0.00     0.029 A 
ATOM     57  C   UNL     1       1.593  -2.719  16.005  1.00  0.00     0.049 A 
ATOM     58  H   UNL     1       2.451  -2.192  14.152  1.00  0.00     0.167 HD
ATOM     59  C   UNL     1       1.168  -0.286  15.808  1.00  0.00     0.074 A 
ATOM     60  C   UNL     1       0.598   0.963  16.270  1.00  0.00     0.031 C 
ATOM     61  C   UNL     1       1.082  -1.460  16.481  1.00  0.00     0.034 A 
BRANCH  48  62
ATOM     62  C   UNL     1       3.543  -6.267  13.480  1.00  0.00     0.023 A 
ATOM     63  C   UNL     1       4.841  -6.755  13.738  1.00  0.00     0.012 A 
ATOM     64  C   UNL     1       2.495  -7.179  13.250  1.00  0.00     0.148 A 
ATOM     65  C   UNL     1       5.099  -8.125  13.734  1.00  0.00     0.002 A 
ATOM     66  C   UNL     1       2.752  -8.546  13.289  1.00  0.00     0.091 A 
ATOM     67  F   UNL     1       1.272  -6.697  12.986  1.00  0.00    -0.205 F 
ATOM     68  C   UNL     1       4.054  -9.019  13.520  1.00  0.00     0.022 A 
BRANCH  66  69
ATOM     69  S   UNL     1       1.461  -9.780  13.098  1.00  0.00     0.127 S 
ATOM     70  O   UNL     1       1.747 -10.303  11.763  1.00  0.00    -0.237 OA
ATOM     71  O   UNL     1       1.756 -10.707  14.191  1.00  0.00    -0.237 OA
ATOM     72  O   UNL     1       0.200  -9.065  13.235  1.00  0.00    -0.744 OA
ENDBRANCH  66  69
ENDBRANCH  48  62
BRANCH  49  73
ATOM     73  C   UNL     1       1.702   3.535  13.101  1.00  0.00     0.023 A 
ATOM     74  C   UNL     1       2.295   4.420  14.022  1.00  0.00     0.012 A 
ATOM     75  C   UNL     1       0.854   4.052  12.102  1.00  0.00     0.148 A 
ATOM     76  C   UNL     1       2.028   5.789  13.969  1.00  0.00     0.002 A 
ATOM     77  C   UNL     1       0.635   5.423  12.021  1.00  0.00     0.091 A 
ATOM     78  F   UNL     1       0.287   3.193  11.242  1.00  0.00    -0.205 F 
ATOM     79  C   UNL     1       1.208   6.292  12.962  1.00  0.00     0.022 A 
BRANCH  77  80
ATOM     80  S   UNL     1      -0.294   6.167  10.675  1.00  0.00     0.127 S 
ATOM     81  O   UNL     1      -1.548   6.519  11.335  1.00  0.00    -0.237 OA
ATOM     82  O   UNL     1       0.551   7.305  10.311  1.00  0.00    -0.237 OA
ATOM     83  O   UNL     1      -0.382   5.138   9.647  1.00  0.00    -0.744 OA
ENDBRANCH  77  80
ENDBRANCH  49  73
BRANCH  61  84
ATOM     84  C   UNL     1       0.368  -1.456  17.807  1.00  0.00     0.023 A 
ATOM     85  C   UNL     1      -1.037  -1.369  17.840  1.00  0.00     0.012 A 
ATOM     86  C   UNL     1       1.081  -1.623  19.011  1.00  0.00     0.148 A 
ATOM     87  C   UNL     1      -1.722  -1.423  19.053  1.00  0.00     0.002 A 
ATOM     88  C   UNL     1       0.388  -1.720  20.212  1.00  0.00     0.091 A 
ATOM     89  F   UNL     1       2.419  -1.681  18.960  1.00  0.00    -0.205 F 
ATOM     90  C   UNL     1      -1.011  -1.611  20.236  1.00  0.00     0.022 A 
BRANCH  88  91
ATOM     91  S   UNL     1       1.218  -2.055  21.770  1.00  0.00     0.127 S 
ATOM     92  O   UNL     1       1.204  -0.739  22.405  1.00  0.00    -0.237 OA
ATOM     93  O   UNL     1       0.332  -3.042  22.391  1.00  0.00    -0.237 OA
ATOM     94  O   UNL     1       2.534  -2.569  21.417  1.00  0.00    -0.744 OA
ENDBRANCH  88  91
ENDBRANCH  61  84
ENDBRANCH  35  36
ENDBRANCH  27  30
ENDBRANCH  25  26
ENDBRANCH   1  25
TORSDOF 15
