REMARK SMILES CC(C)c1nc(COc2c(F)cc(C(=O)NCCCCNC(=O)c3ccc(-c4c5nc(c(-c6cccc(S(=O)(=O)[O-])c6F)c6ccc([nH]6)c(-c6cccc(S(=O)(=O)[O-])c6F)c6nc(c(-c7cccc(S(=O)(=O)[O-])c7F)c7ccc4[nH]7)C=C6)C=C5)cc3)cc2F)no1
REMARK SMILES IDX 18 1 17 2 16 3 14 4 15 5 13 7 9 8 10 9 88 10 11 11 12 12
REMARK SMILES IDX 87 13 89 14 8 15 7 16 6 17 4 18 5 19 91 20 90 21 2 22 1 23
REMARK SMILES IDX 3 24 19 25 20 26 21 27 22 28 23 30 24 31 25 32 86 33 26 34
REMARK SMILES IDX 85 35 27 36 28 37 29 38 79 39 30 40 84 41 78 42 80 43 31 44
REMARK SMILES IDX 83 45 77 46 76 47 32 49 64 50 44 51 63 52 45 53 48 54 62 55
REMARK SMILES IDX 81 56 46 57 47 58 61 60 82 61 49 62 33 63 34 64 42 65 35 66
REMARK SMILES IDX 37 67 43 68 36 69 38 70 39 71 40 72 41 73 65 74 66 75 74 76
REMARK SMILES IDX 67 77 69 78 75 79 68 80 70 81 71 82 72 83 73 84 50 85 51 86
REMARK SMILES IDX 59 87 52 88 54 89 60 90 53 91 55 92 56 93 57 94 58 95
REMARK H PARENT 16 6 21 29 80 48 48 59
REMARK Flexibility Score: inf
ROOT
ATOM      1  C   UNL     1      -0.527  -1.510  -5.218  1.00  0.00     0.023 C 
ENDROOT
BRANCH   1   2
ATOM      2  C   UNL     1      -0.713  -0.007  -4.996  1.00  0.00     0.116 C 
BRANCH   2   3
ATOM      3  N   UNL     1      -1.845   0.512  -5.742  1.00  0.00    -0.352 N 
ATOM      4  C   UNL     1      -3.121   0.830  -5.348  1.00  0.00     0.251 C 
ATOM      5  O   UNL     1      -3.861   1.403  -6.146  1.00  0.00    -0.269 OA
ATOM      6  H   UNL     1      -1.666   0.663  -6.698  1.00  0.00     0.163 HD
BRANCH   4   7
ATOM      7  C   UNL     1      -3.643   0.539  -3.986  1.00  0.00     0.045 A 
ATOM      8  C   UNL     1      -4.743   0.079  -1.440  1.00  0.00     0.191 A 
ATOM      9  C   UNL     1      -3.837  -0.816  -1.996  1.00  0.00     0.168 A 
ATOM     10  C   UNL     1      -5.150   1.173  -2.195  1.00  0.00     0.168 A 
ATOM     11  F   UNL     1      -3.470  -1.918  -1.326  1.00  0.00    -0.203 F 
ATOM     12  C   UNL     1      -3.290  -0.595  -3.254  1.00  0.00     0.057 A 
ATOM     13  C   UNL     1      -4.609   1.410  -3.458  1.00  0.00     0.057 A 
ATOM     14  F   UNL     1      -6.070   2.019  -1.709  1.00  0.00    -0.203 F 
BRANCH   8  15
ATOM     15  O   UNL     1      -5.286  -0.164  -0.207  1.00  0.00    -0.479 OA
BRANCH  15  16
ATOM     16  C   UNL     1      -4.503   0.452   0.839  1.00  0.00     0.310 C 
BRANCH  16  17
ATOM     17  C   UNL     1      -3.252  -0.285   1.182  1.00  0.00     0.209 A 
ATOM     18  C   UNL     1      -1.230  -0.829   1.188  1.00  0.00     0.229 A 
ATOM     19  N   UNL     1      -2.011   0.143   0.770  1.00  0.00    -0.192 NA
ATOM     20  O   UNL     1      -1.904  -1.812   1.857  1.00  0.00    -0.339 OA
ATOM     21  N   UNL     1      -3.249  -1.437   1.869  1.00  0.00    -0.059 NA
BRANCH  18  22
ATOM     22  C   UNL     1       0.241  -1.016   1.034  1.00  0.00     0.073 C 
ATOM     23  C   UNL     1       0.823  -0.032   0.019  1.00  0.00     0.018 C 
ATOM     24  C   UNL     1       0.946  -0.868   2.382  1.00  0.00     0.018 C 
ENDBRANCH  18  22
ENDBRANCH  16  17
ENDBRANCH  15  16
ENDBRANCH   8  15
ENDBRANCH   4   7
ENDBRANCH   2   3
ENDBRANCH   1   2
BRANCH   1  25
ATOM     25  C   UNL     1       0.184  -1.895  -6.515  1.00  0.00     0.023 C 
BRANCH  25  26
ATOM     26  C   UNL     1       1.626  -1.420  -6.635  1.00  0.00     0.116 C 
BRANCH  26  27
ATOM     27  N   UNL     1       2.483  -1.872  -5.548  1.00  0.00    -0.352 N 
ATOM     28  C   UNL     1       3.830  -2.154  -5.586  1.00  0.00     0.251 C 
ATOM     29  H   UNL     1       2.043  -1.992  -4.675  1.00  0.00     0.163 HD
ATOM     30  O   UNL     1       4.395  -2.606  -4.598  1.00  0.00    -0.269 OA
BRANCH  28  31
ATOM     31  C   UNL     1       4.572  -1.944  -6.847  1.00  0.00     0.039 A 
ATOM     32  C   UNL     1       5.348  -2.990  -7.355  1.00  0.00     0.014 A 
ATOM     33  C   UNL     1       4.456  -0.743  -7.550  1.00  0.00     0.014 A 
ATOM     34  C   UNL     1       5.947  -2.856  -8.610  1.00  0.00     0.010 A 
ATOM     35  C   UNL     1       4.997  -0.638  -8.827  1.00  0.00     0.010 A 
ATOM     36  C   UNL     1       5.744  -1.694  -9.371  1.00  0.00    -0.014 A 
BRANCH  36  37
ATOM     37  C   UNL     1       6.277  -1.567 -10.750  1.00  0.00     0.031 A 
ATOM     38  C   UNL     1       7.291  -0.506 -11.074  1.00  0.00     0.074 A 
ATOM     39  C   UNL     1       5.757  -2.327 -11.735  1.00  0.00     0.049 A 
ATOM     40  N   UNL     1       7.808  -0.186 -12.232  1.00  0.00    -0.248 NA
ATOM     41  C   UNL     1       7.762   0.328  -9.956  1.00  0.00     0.031 C 
ATOM     42  C   UNL     1       4.696  -3.322 -11.565  1.00  0.00     0.029 A 
ATOM     43  N   UNL     1       6.023  -2.353 -13.081  1.00  0.00    -0.354 N 
ATOM     44  C   UNL     1       8.626   0.910 -11.992  1.00  0.00     0.074 A 
ATOM     45  C   UNL     1       8.518   1.219 -10.582  1.00  0.00     0.031 C 
ATOM     46  C   UNL     1       4.396  -3.854 -12.760  1.00  0.00     0.029 A 
ATOM     47  C   UNL     1       5.226  -3.226 -13.784  1.00  0.00     0.049 A 
ATOM     48  H   UNL     1       6.718  -1.799 -13.504  1.00  0.00     0.167 HD
ATOM     49  C   UNL     1       9.420   1.581 -12.860  1.00  0.00     0.034 A 
ATOM     50  C   UNL     1       5.166  -3.489 -15.105  1.00  0.00     0.034 A 
ATOM     51  C   UNL     1       9.574   1.231 -14.245  1.00  0.00     0.049 A 
ATOM     52  C   UNL     1       6.116  -2.785 -16.034  1.00  0.00     0.074 A 
ATOM     53  C   UNL     1      10.445   1.768 -15.176  1.00  0.00     0.029 A 
ATOM     54  N   UNL     1       8.840   0.255 -14.900  1.00  0.00    -0.354 N 
ATOM     55  N   UNL     1       7.022  -1.880 -15.755  1.00  0.00    -0.248 NA
ATOM     56  C   UNL     1       6.066  -3.165 -17.454  1.00  0.00     0.031 C 
ATOM     57  C   UNL     1      10.228   1.124 -16.399  1.00  0.00     0.029 A 
ATOM     58  C   UNL     1       9.230   0.178 -16.225  1.00  0.00     0.049 A 
ATOM     59  H   UNL     1       8.143  -0.302 -14.483  1.00  0.00     0.167 HD
ATOM     60  C   UNL     1       7.670  -1.605 -16.953  1.00  0.00     0.074 A 
ATOM     61  C   UNL     1       7.066  -2.455 -17.959  1.00  0.00     0.031 C 
ATOM     62  C   UNL     1       8.662  -0.715 -17.202  1.00  0.00     0.034 A 
BRANCH  49  63
ATOM     63  C   UNL     1      10.237   2.724 -12.317  1.00  0.00     0.023 A 
ATOM     64  C   UNL     1      11.349   2.449 -11.496  1.00  0.00     0.012 A 
ATOM     65  C   UNL     1       9.941   4.057 -12.658  1.00  0.00     0.148 A 
ATOM     66  C   UNL     1      12.134   3.485 -10.993  1.00  0.00     0.002 A 
ATOM     67  C   UNL     1      10.753   5.083 -12.186  1.00  0.00     0.091 A 
ATOM     68  F   UNL     1       8.864   4.302 -13.419  1.00  0.00    -0.205 F 
ATOM     69  C   UNL     1      11.843   4.800 -11.346  1.00  0.00     0.022 A 
BRANCH  67  70
ATOM     70  S   UNL     1      10.499   6.801 -12.646  1.00  0.00     0.127 S 
ATOM     71  O   UNL     1       9.895   7.346 -11.432  1.00  0.00    -0.237 OA
ATOM     72  O   UNL     1      11.865   7.259 -12.905  1.00  0.00    -0.237 OA
ATOM     73  O   UNL     1       9.640   6.774 -13.822  1.00  0.00    -0.744 OA
ENDBRANCH  67  70
ENDBRANCH  49  63
BRANCH  50  74
ATOM     74  C   UNL     1       4.221  -4.524 -15.609  1.00  0.00     0.023 A 
ATOM     75  C   UNL     1       4.728  -5.762 -16.049  1.00  0.00     0.012 A 
ATOM     76  C   UNL     1       2.828  -4.312 -15.609  1.00  0.00     0.148 A 
ATOM     77  C   UNL     1       3.867  -6.762 -16.505  1.00  0.00     0.002 A 
ATOM     78  C   UNL     1       1.974  -5.332 -16.014  1.00  0.00     0.091 A 
ATOM     79  F   UNL     1       2.366  -3.123 -15.199  1.00  0.00    -0.205 F 
ATOM     80  C   UNL     1       2.491  -6.551 -16.476  1.00  0.00     0.022 A 
BRANCH  78  81
ATOM     81  S   UNL     1       0.187  -5.195 -15.881  1.00  0.00     0.127 S 
ATOM     82  O   UNL     1      -0.204  -5.013 -17.276  1.00  0.00    -0.237 OA
ATOM     83  O   UNL     1      -0.175  -6.489 -15.302  1.00  0.00    -0.237 OA
ATOM     84  O   UNL     1      -0.051  -4.060 -14.999  1.00  0.00    -0.744 OA
ENDBRANCH  78  81
ENDBRANCH  50  74
BRANCH  62  85
ATOM     85  C   UNL     1       9.183  -0.622 -18.611  1.00  0.00     0.023 A 
ATOM     86  C   UNL     1       8.411   0.023 -19.597  1.00  0.00     0.012 A 
ATOM     87  C   UNL     1      10.471  -1.091 -18.937  1.00  0.00     0.148 A 
ATOM     88  C   UNL     1       8.903   0.180 -20.892  1.00  0.00     0.002 A 
ATOM     89  C   UNL     1      10.973  -0.892 -20.218  1.00  0.00     0.091 A 
ATOM     90  F   UNL     1      11.182  -1.721 -17.990  1.00  0.00    -0.205 F 
ATOM     91  C   UNL     1      10.187  -0.265 -21.198  1.00  0.00     0.022 A 
BRANCH  89  92
ATOM     92  S   UNL     1      12.650  -1.350 -20.672  1.00  0.00     0.127 S 
ATOM     93  O   UNL     1      12.426  -2.560 -21.460  1.00  0.00    -0.237 OA
ATOM     94  O   UNL     1      13.092  -0.190 -21.447  1.00  0.00    -0.237 OA
ATOM     95  O   UNL     1      13.364  -1.541 -19.416  1.00  0.00    -0.744 OA
ENDBRANCH  89  92
ENDBRANCH  62  85
ENDBRANCH  36  37
ENDBRANCH  28  31
ENDBRANCH  26  27
ENDBRANCH  25  26
ENDBRANCH   1  25
TORSDOF 18
