REMARK SMILES C[C@H](CNS(=O)(=O)c1ccc(C(=O)NCCCCNC(=O)c2ccc(-c3c4nc(c(-c5cccc(S(=O)(=O)[O-])c5F)c5ccc([nH]5)c(-c5cccc(S(=O)(=O)[O-])c5F)c5nc(c(-c6cccc(S(=O)(=O)[O-])c6F)c6ccc3[nH]6)C=C5)C=C4)cc2)o1)c1ccccc1
REMARK SMILES IDX 15 1 14 2 12 3 13 4 11 6 8 7 9 8 85 9 10 10 5 11 6 12 7 13
REMARK SMILES IDX 4 14 3 16 2 17 1 18 86 19 87 20 91 21 88 22 90 23 89 24
REMARK SMILES IDX 16 25 17 26 18 27 19 28 20 29 21 31 22 32 23 33 84 34 24 35
REMARK SMILES IDX 83 36 25 37 26 38 27 39 77 40 28 41 82 42 76 43 78 44 29 45
REMARK SMILES IDX 81 46 75 47 74 48 30 50 62 51 42 52 61 53 43 54 46 55 60 56
REMARK SMILES IDX 79 57 44 58 45 59 59 61 80 62 47 63 31 64 32 65 40 66 33 67
REMARK SMILES IDX 35 68 41 69 34 70 36 71 37 72 38 73 39 74 63 75 64 76 72 77
REMARK SMILES IDX 65 78 67 79 73 80 66 81 68 82 69 83 70 84 71 85 48 86 49 87
REMARK SMILES IDX 57 88 50 89 52 90 58 91 51 92 53 93 54 94 55 95 56 96
REMARK H PARENT 14 5 4 15 19 30 78 49 46 60
REMARK Flexibility Score: inf
ROOT
ATOM      1  C   UNL     1       7.359  -2.730   2.947  1.00  0.00     0.116 C 
ENDROOT
BRANCH   1   2
ATOM      2  N   UNL     1       6.803  -3.759   2.094  1.00  0.00    -0.349 N 
ATOM      3  C   UNL     1       5.867  -3.718   1.087  1.00  0.00     0.287 C 
ATOM      4  O   UNL     1       5.624  -4.803   0.552  1.00  0.00    -0.266 OA
ATOM      5  H   UNL     1       7.163  -4.658   2.268  1.00  0.00     0.163 HD
BRANCH   3   6
ATOM      6  C   UNL     1       5.211  -2.485   0.675  1.00  0.00     0.193 A 
ATOM      7  C   UNL     1       3.796  -1.365  -0.668  1.00  0.00     0.234 A 
ATOM      8  C   UNL     1       4.359  -0.451   0.209  1.00  0.00     0.065 A 
ATOM      9  O   UNL     1       4.343  -2.595  -0.388  1.00  0.00    -0.438 OA
ATOM     10  C   UNL     1       5.207  -1.166   1.088  1.00  0.00     0.058 A 
BRANCH   7  11
ATOM     11  S   UNL     1       2.537  -1.146  -1.925  1.00  0.00     0.274 S 
ATOM     12  O   UNL     1       1.696  -2.328  -1.878  1.00  0.00    -0.204 OA
ATOM     13  O   UNL     1       3.221  -0.727  -3.119  1.00  0.00    -0.204 OA
BRANCH  11  14
ATOM     14  N   UNL     1       1.557   0.161  -1.439  1.00  0.00    -0.208 NA
ATOM     15  H   UNL     1       2.146   0.991  -1.379  1.00  0.00     0.141 HD
BRANCH  14  16
ATOM     16  C   UNL     1       0.872  -0.010  -0.133  1.00  0.00     0.107 C 
BRANCH  16  17
ATOM     17  C   UNL     1       0.266   1.317   0.416  1.00  0.00     0.031 C 
ATOM     18  C   UNL     1       0.962   2.550  -0.193  1.00  0.00     0.014 C 
BRANCH  17  19
ATOM     19  C   UNL     1      -1.266   1.390   0.425  1.00  0.00    -0.044 A 
ATOM     20  C   UNL     1      -1.944   2.622   0.360  1.00  0.00     0.004 A 
ATOM     21  C   UNL     1      -2.051   0.244   0.652  1.00  0.00     0.004 A 
ATOM     22  C   UNL     1      -3.336   2.698   0.480  1.00  0.00     0.000 A 
ATOM     23  C   UNL     1      -3.444   0.316   0.752  1.00  0.00     0.000 A 
ATOM     24  C   UNL     1      -4.087   1.544   0.668  1.00  0.00     0.000 A 
ENDBRANCH  17  19
ENDBRANCH  16  17
ENDBRANCH  14  16
ENDBRANCH  11  14
ENDBRANCH   7  11
ENDBRANCH   3   6
ENDBRANCH   1   2
BRANCH   1  25
ATOM     25  C   UNL     1       6.574  -2.597   4.252  1.00  0.00     0.023 C 
BRANCH  25  26
ATOM     26  C   UNL     1       6.982  -3.606   5.336  1.00  0.00     0.023 C 
BRANCH  26  27
ATOM     27  C   UNL     1       8.432  -3.503   5.813  1.00  0.00     0.116 C 
BRANCH  27  28
ATOM     28  N   UNL     1       8.783  -2.181   6.309  1.00  0.00    -0.352 N 
ATOM     29  C   UNL     1       9.793  -1.835   7.176  1.00  0.00     0.251 C 
ATOM     30  H   UNL     1       8.225  -1.438   5.983  1.00  0.00     0.163 HD
ATOM     31  O   UNL     1       9.889  -0.679   7.576  1.00  0.00    -0.269 OA
BRANCH  29  32
ATOM     32  C   UNL     1      10.729  -2.872   7.658  1.00  0.00     0.039 A 
ATOM     33  C   UNL     1      10.950  -2.989   9.033  1.00  0.00     0.014 A 
ATOM     34  C   UNL     1      11.372  -3.732   6.764  1.00  0.00     0.014 A 
ATOM     35  C   UNL     1      11.764  -4.015   9.519  1.00  0.00     0.010 A 
ATOM     36  C   UNL     1      12.142  -4.785   7.253  1.00  0.00     0.010 A 
ATOM     37  C   UNL     1      12.341  -4.939   8.633  1.00  0.00    -0.014 A 
BRANCH  37  38
ATOM     38  C   UNL     1      13.136  -6.090   9.127  1.00  0.00     0.031 A 
ATOM     39  C   UNL     1      14.606  -6.178   8.826  1.00  0.00     0.074 A 
ATOM     40  C   UNL     1      12.511  -7.105   9.753  1.00  0.00     0.049 A 
ATOM     41  N   UNL     1      15.445  -7.141   9.102  1.00  0.00    -0.248 NA
ATOM     42  C   UNL     1      15.205  -5.048   8.097  1.00  0.00     0.031 C 
ATOM     43  C   UNL     1      11.074  -7.172  10.028  1.00  0.00     0.029 A 
ATOM     44  N   UNL     1      12.998  -8.291  10.243  1.00  0.00    -0.354 N 
ATOM     45  C   UNL     1      16.659  -6.756   8.548  1.00  0.00     0.074 A 
ATOM     46  C   UNL     1      16.443  -5.479   7.902  1.00  0.00     0.031 C 
ATOM     47  C   UNL     1      10.796  -8.339  10.633  1.00  0.00     0.029 A 
ATOM     48  C   UNL     1      12.027  -9.109  10.773  1.00  0.00     0.049 A 
ATOM     49  H   UNL     1      13.951  -8.533  10.217  1.00  0.00     0.167 HD
ATOM     50  C   UNL     1      17.853  -7.392   8.598  1.00  0.00     0.034 A 
ATOM     51  C   UNL     1      12.121 -10.341  11.312  1.00  0.00     0.034 A 
ATOM     52  C   UNL     1      18.080  -8.628   9.296  1.00  0.00     0.049 A 
ATOM     53  C   UNL     1      13.473 -10.990  11.422  1.00  0.00     0.074 A 
ATOM     54  C   UNL     1      19.273  -9.304   9.486  1.00  0.00     0.029 A 
ATOM     55  N   UNL     1      17.094  -9.372   9.925  1.00  0.00    -0.354 N 
ATOM     56  N   UNL     1      14.640 -10.533  11.037  1.00  0.00    -0.248 NA
ATOM     57  C   UNL     1      13.529 -12.307  12.073  1.00  0.00     0.031 C 
ATOM     58  C   UNL     1      19.008 -10.455  10.235  1.00  0.00     0.029 A 
ATOM     59  C   UNL     1      17.650 -10.497  10.508  1.00  0.00     0.049 A 
ATOM     60  H   UNL     1      16.139  -9.134   9.953  1.00  0.00     0.167 HD
ATOM     61  C   UNL     1      15.571 -11.488  11.427  1.00  0.00     0.074 A 
ATOM     62  C   UNL     1      14.835 -12.541  12.096  1.00  0.00     0.031 C 
ATOM     63  C   UNL     1      16.912 -11.501  11.230  1.00  0.00     0.034 A 
BRANCH  50  64
ATOM     64  C   UNL     1      19.028  -6.717   7.944  1.00  0.00     0.023 A 
ATOM     65  C   UNL     1      19.627  -5.614   8.584  1.00  0.00     0.012 A 
ATOM     66  C   UNL     1      19.568  -7.194   6.735  1.00  0.00     0.148 A 
ATOM     67  C   UNL     1      20.730  -4.977   8.018  1.00  0.00     0.002 A 
ATOM     68  C   UNL     1      20.690  -6.575   6.193  1.00  0.00     0.091 A 
ATOM     69  F   UNL     1      18.967  -8.226   6.125  1.00  0.00    -0.205 F 
ATOM     70  C   UNL     1      21.267  -5.463   6.829  1.00  0.00     0.022 A 
BRANCH  68  71
ATOM     71  S   UNL     1      21.485  -7.174   4.697  1.00  0.00     0.127 S 
ATOM     72  O   UNL     1      20.968  -6.244   3.695  1.00  0.00    -0.237 OA
ATOM     73  O   UNL     1      22.906  -7.006   5.007  1.00  0.00    -0.237 OA
ATOM     74  O   UNL     1      21.061  -8.560   4.555  1.00  0.00    -0.744 OA
ENDBRANCH  68  71
ENDBRANCH  50  64
BRANCH  51  75
ATOM     75  C   UNL     1      10.908 -10.993  11.877  1.00  0.00     0.023 A 
ATOM     76  C   UNL     1      10.768 -11.082  13.276  1.00  0.00     0.012 A 
ATOM     77  C   UNL     1       9.877 -11.481  11.052  1.00  0.00     0.148 A 
ATOM     78  C   UNL     1       9.635 -11.665  13.843  1.00  0.00     0.002 A 
ATOM     79  C   UNL     1       8.728 -12.017  11.625  1.00  0.00     0.091 A 
ATOM     80  F   UNL     1      10.033 -11.407   9.723  1.00  0.00    -0.205 F 
ATOM     81  C   UNL     1       8.610 -12.122  13.020  1.00  0.00     0.022 A 
BRANCH  79  82
ATOM     82  S   UNL     1       7.312 -12.503  10.630  1.00  0.00     0.127 S 
ATOM     83  O   UNL     1       7.497 -13.947  10.528  1.00  0.00    -0.237 OA
ATOM     84  O   UNL     1       6.185 -12.083  11.465  1.00  0.00    -0.237 OA
ATOM     85  O   UNL     1       7.444 -11.748   9.391  1.00  0.00    -0.744 OA
ENDBRANCH  79  82
ENDBRANCH  51  75
BRANCH  63  86
ATOM     86  C   UNL     1      17.683 -12.678  11.762  1.00  0.00     0.023 A 
ATOM     87  C   UNL     1      17.645 -13.900  11.064  1.00  0.00     0.012 A 
ATOM     88  C   UNL     1      18.510 -12.551  12.895  1.00  0.00     0.148 A 
ATOM     89  C   UNL     1      18.405 -14.986  11.496  1.00  0.00     0.002 A 
ATOM     90  C   UNL     1      19.293 -13.626  13.299  1.00  0.00     0.091 A 
ATOM     91  F   UNL     1      18.513 -11.386  13.560  1.00  0.00    -0.205 F 
ATOM     92  C   UNL     1      19.238 -14.846  12.605  1.00  0.00     0.022 A 
BRANCH  90  93
ATOM     93  S   UNL     1      20.453 -13.493  14.665  1.00  0.00     0.127 S 
ATOM     94  O   UNL     1      19.691 -14.082  15.764  1.00  0.00    -0.237 OA
ATOM     95  O   UNL     1      21.582 -14.302  14.204  1.00  0.00    -0.237 OA
ATOM     96  O   UNL     1      20.749 -12.072  14.788  1.00  0.00    -0.744 OA
ENDBRANCH  90  93
ENDBRANCH  63  86
ENDBRANCH  37  38
ENDBRANCH  29  32
ENDBRANCH  27  28
ENDBRANCH  26  27
ENDBRANCH  25  26
ENDBRANCH   1  25
TORSDOF 19
