REMARK SMILES Cc1c(NC(=S)NC(=O)CSc2ccc(Cl)cc2)cccc1C(=O)NCCCCNC(=O)c1ccc(-c2c3nc(c(-c4cccc(S(=O)(=O)[O-])c4F)c4ccc([nH]4)c(-c4cccc(S(=O)(=O)[O-])c4F)c4nc(c(-c5cccc(S(=O)(=O)[O-])c5F)c5ccc2[nH]5)C=C4)C=C3)cc1
REMARK SMILES IDX 26 1 25 2 23 3 24 4 22 6 1 7 2 8 3 9 19 10 21 11 20 12 4 13
REMARK SMILES IDX 5 15 6 16 7 17 8 18 9 20 10 21 11 22 12 23 13 24 18 25 14 26
REMARK SMILES IDX 17 27 15 28 16 29 27 30 28 31 29 32 30 33 31 34 32 36 33 37
REMARK SMILES IDX 34 38 95 39 35 40 94 41 36 42 37 43 38 44 88 45 39 46 93 47
REMARK SMILES IDX 87 48 89 49 40 50 92 51 86 52 85 53 41 55 73 56 53 57 72 58
REMARK SMILES IDX 54 59 57 60 71 61 90 62 55 63 56 64 70 66 91 67 58 68 42 69
REMARK SMILES IDX 43 70 51 71 44 72 46 73 52 74 45 75 47 76 48 77 49 78 50 79
REMARK SMILES IDX 74 80 75 81 83 82 76 83 78 84 84 85 77 86 79 87 80 88 81 89
REMARK SMILES IDX 82 90 59 91 60 92 68 93 61 94 63 95 69 96 62 97 64 98 65 99
REMARK SMILES IDX 66 100 67 101
REMARK H PARENT 25 5 4 14 7 19 30 35 89 54 57 65
REMARK Flexibility Score: inf
ROOT
ATOM      1  C   UNL     1       3.826   2.072  -0.115  1.00  0.00     0.116 C 
ENDROOT
BRANCH   1   2
ATOM      2  N   UNL     1       2.502   2.642  -0.017  1.00  0.00    -0.352 N 
ATOM      3  C   UNL     1       1.205   2.280  -0.217  1.00  0.00     0.251 C 
ATOM      4  O   UNL     1       0.410   3.184   0.086  1.00  0.00    -0.269 OA
ATOM      5  H   UNL     1       2.553   3.577   0.288  1.00  0.00     0.163 HD
BRANCH   3   6
ATOM      6  C   UNL     1       0.600   1.004  -0.762  1.00  0.00     0.044 A 
ATOM      7  C   UNL     1       2.460  -0.730  -0.423  1.00  0.00     0.047 C 
ATOM      8  C   UNL     1       1.047  -0.343  -0.736  1.00  0.00    -0.015 A 
ATOM      9  C   UNL     1       0.104  -1.387  -1.016  1.00  0.00     0.044 A 
ATOM     10  C   UNL     1      -1.124  -1.094  -1.604  1.00  0.00     0.026 A 
ATOM     11  C   UNL     1      -0.708   1.238  -1.262  1.00  0.00     0.014 A 
ATOM     12  C   UNL     1      -1.535   0.221  -1.727  1.00  0.00     0.003 A 
BRANCH   9  13
ATOM     13  N   UNL     1       0.419  -2.717  -0.664  1.00  0.00    -0.332 N 
ATOM     14  H   UNL     1       1.381  -2.849  -0.498  1.00  0.00     0.169 HD
BRANCH  13  15
ATOM     15  C   UNL     1      -0.291  -3.841  -0.505  1.00  0.00     0.177 C 
ATOM     16  S   UNL     1       0.541  -5.293  -0.650  1.00  0.00    -0.040 S 
BRANCH  15  17
ATOM     17  N   UNL     1      -1.613  -3.926  -0.186  1.00  0.00    -0.302 N 
ATOM     18  C   UNL     1      -2.665  -3.224   0.379  1.00  0.00     0.236 C 
ATOM     19  H   UNL     1      -1.942  -4.814  -0.456  1.00  0.00     0.172 HD
ATOM     20  O   UNL     1      -3.784  -3.746   0.248  1.00  0.00    -0.274 OA
BRANCH  18  21
ATOM     21  C   UNL     1      -2.552  -1.899   1.100  1.00  0.00     0.175 C 
BRANCH  21  22
ATOM     22  S   UNL     1      -1.066  -1.694   2.114  1.00  0.00    -0.116 SA
BRANCH  22  23
ATOM     23  C   UNL     1      -1.835  -1.513   3.697  1.00  0.00     0.008 A 
ATOM     24  C   UNL     1      -2.147  -0.251   4.212  1.00  0.00     0.016 A 
ATOM     25  C   UNL     1      -2.154  -2.664   4.420  1.00  0.00     0.016 A 
ATOM     26  C   UNL     1      -2.799  -0.146   5.442  1.00  0.00     0.021 A 
ATOM     27  C   UNL     1      -2.807  -2.559   5.645  1.00  0.00     0.021 A 
ATOM     28  C   UNL     1      -3.132  -1.301   6.149  1.00  0.00     0.041 A 
ATOM     29  Cl  UNL     1      -3.962  -1.181   7.650  1.00  0.00    -0.084 Cl
ENDBRANCH  22  23
ENDBRANCH  21  22
ENDBRANCH  18  21
ENDBRANCH  15  17
ENDBRANCH  13  15
ENDBRANCH   9  13
ENDBRANCH   3   6
ENDBRANCH   1   2
BRANCH   1  30
ATOM     30  C   UNL     1       4.296   1.806  -1.545  1.00  0.00     0.023 C 
BRANCH  30  31
ATOM     31  C   UNL     1       4.949   2.967  -2.299  1.00  0.00     0.023 C 
BRANCH  31  32
ATOM     32  C   UNL     1       6.420   3.269  -1.992  1.00  0.00     0.116 C 
BRANCH  32  33
ATOM     33  N   UNL     1       7.297   2.100  -2.110  1.00  0.00    -0.352 N 
ATOM     34  C   UNL     1       8.401   1.726  -1.365  1.00  0.00     0.251 C 
ATOM     35  H   UNL     1       7.061   1.480  -2.838  1.00  0.00     0.163 HD
ATOM     36  O   UNL     1       9.220   0.960  -1.883  1.00  0.00    -0.269 OA
BRANCH  34  37
ATOM     37  C   UNL     1       8.555   2.173   0.036  1.00  0.00     0.039 A 
ATOM     38  C   UNL     1       9.767   2.154   0.740  1.00  0.00     0.014 A 
ATOM     39  C   UNL     1       7.394   2.492   0.716  1.00  0.00     0.014 A 
ATOM     40  C   UNL     1       9.776   2.403   2.122  1.00  0.00     0.010 A 
ATOM     41  C   UNL     1       7.421   2.958   1.995  1.00  0.00     0.010 A 
ATOM     42  C   UNL     1       8.582   2.762   2.742  1.00  0.00    -0.014 A 
BRANCH  42  43
ATOM     43  C   UNL     1       8.284   2.728   4.169  1.00  0.00     0.031 A 
ATOM     44  C   UNL     1       8.545   3.862   5.056  1.00  0.00     0.074 A 
ATOM     45  C   UNL     1       7.321   1.824   4.467  1.00  0.00     0.049 A 
ATOM     46  N   UNL     1       8.299   3.852   6.322  1.00  0.00    -0.248 NA
ATOM     47  C   UNL     1       9.126   5.108   4.582  1.00  0.00     0.031 C 
ATOM     48  C   UNL     1       6.251   1.924   5.443  1.00  0.00     0.029 A 
ATOM     49  N   UNL     1       7.112   0.579   3.862  1.00  0.00    -0.354 N 
ATOM     50  C   UNL     1       8.335   5.165   6.742  1.00  0.00     0.074 A 
ATOM     51  C   UNL     1       9.040   5.854   5.688  1.00  0.00     0.031 C 
ATOM     52  C   UNL     1       5.662   0.721   5.552  1.00  0.00     0.029 A 
ATOM     53  C   UNL     1       6.483  -0.227   4.812  1.00  0.00     0.049 A 
ATOM     54  H   UNL     1       7.360   0.322   2.945  1.00  0.00     0.167 HD
ATOM     55  C   UNL     1       7.586   5.525   7.826  1.00  0.00     0.034 A 
ATOM     56  C   UNL     1       7.096  -1.330   5.334  1.00  0.00     0.034 A 
ATOM     57  C   UNL     1       6.973   4.333   8.456  1.00  0.00     0.049 A 
ATOM     58  C   UNL     1       7.383  -1.167   6.817  1.00  0.00     0.074 A 
ATOM     59  C   UNL     1       5.681   3.832   8.483  1.00  0.00     0.029 A 
ATOM     60  N   UNL     1       7.787   3.317   8.956  1.00  0.00    -0.354 N 
ATOM     61  N   UNL     1       7.098  -0.096   7.507  1.00  0.00    -0.248 NA
ATOM     62  C   UNL     1       8.030  -2.183   7.640  1.00  0.00     0.031 C 
ATOM     63  C   UNL     1       5.746   2.463   8.877  1.00  0.00     0.029 A 
ATOM     64  C   UNL     1       7.068   2.140   9.136  1.00  0.00     0.049 A 
ATOM     65  H   UNL     1       8.745   3.419   9.155  1.00  0.00     0.167 HD
ATOM     66  C   UNL     1       7.658  -0.172   8.751  1.00  0.00     0.074 A 
ATOM     67  C   UNL     1       8.133  -1.545   8.821  1.00  0.00     0.031 C 
ATOM     68  C   UNL     1       7.753   0.920   9.575  1.00  0.00     0.034 A 
BRANCH  55  69
ATOM     69  C   UNL     1       7.145   6.950   8.187  1.00  0.00     0.023 A 
ATOM     70  C   UNL     1       6.199   7.087   9.231  1.00  0.00     0.012 A 
ATOM     71  C   UNL     1       7.509   8.162   7.547  1.00  0.00     0.148 A 
ATOM     72  C   UNL     1       5.606   8.314   9.567  1.00  0.00     0.002 A 
ATOM     73  C   UNL     1       6.923   9.389   7.880  1.00  0.00     0.091 A 
ATOM     74  F   UNL     1       8.440   8.171   6.600  1.00  0.00    -0.205 F 
ATOM     75  C   UNL     1       5.959   9.467   8.883  1.00  0.00     0.022 A 
BRANCH  73  76
ATOM     76  S   UNL     1       7.340  10.928   7.029  1.00  0.00     0.127 S 
ATOM     77  O   UNL     1       6.038  11.357   6.515  1.00  0.00    -0.237 OA
ATOM     78  O   UNL     1       7.866  11.752   8.116  1.00  0.00    -0.237 OA
ATOM     79  O   UNL     1       8.311  10.586   5.996  1.00  0.00    -0.744 OA
ENDBRANCH  73  76
ENDBRANCH  55  69
BRANCH  56  80
ATOM     80  C   UNL     1       7.952  -2.047   4.334  1.00  0.00     0.023 A 
ATOM     81  C   UNL     1       7.269  -2.707   3.283  1.00  0.00     0.012 A 
ATOM     82  C   UNL     1       9.306  -1.703   4.146  1.00  0.00     0.148 A 
ATOM     83  C   UNL     1       7.873  -2.900   2.038  1.00  0.00     0.002 A 
ATOM     84  C   UNL     1       9.893  -1.871   2.889  1.00  0.00     0.091 A 
ATOM     85  F   UNL     1       9.955  -1.105   5.153  1.00  0.00    -0.205 F 
ATOM     86  C   UNL     1       9.170  -2.443   1.830  1.00  0.00     0.022 A 
BRANCH  84  87
ATOM     87  S   UNL     1      11.522  -1.206   2.504  1.00  0.00     0.127 S 
ATOM     88  O   UNL     1      12.355  -2.403   2.594  1.00  0.00    -0.237 OA
ATOM     89  O   UNL     1      11.341  -0.686   1.150  1.00  0.00    -0.237 OA
ATOM     90  O   UNL     1      11.760  -0.180   3.507  1.00  0.00    -0.744 OA
ENDBRANCH  84  87
ENDBRANCH  56  80
BRANCH  68  91
ATOM     91  C   UNL     1       8.546   0.957  10.866  1.00  0.00     0.023 A 
ATOM     92  C   UNL     1       9.641   0.105  11.106  1.00  0.00     0.012 A 
ATOM     93  C   UNL     1       8.308   1.974  11.826  1.00  0.00     0.148 A 
ATOM     94  C   UNL     1      10.422   0.212  12.262  1.00  0.00     0.002 A 
ATOM     95  C   UNL     1       9.163   2.154  12.909  1.00  0.00     0.091 A 
ATOM     96  F   UNL     1       7.236   2.771  11.703  1.00  0.00    -0.205 F 
ATOM     97  C   UNL     1      10.201   1.254  13.152  1.00  0.00     0.022 A 
BRANCH  95  98
ATOM     98  S   UNL     1       9.061   3.643  13.912  1.00  0.00     0.127 S 
ATOM     99  O   UNL     1       8.124   3.246  14.959  1.00  0.00    -0.237 OA
ATOM    100  O   UNL     1      10.443   3.817  14.365  1.00  0.00    -0.237 OA
ATOM    101  O   UNL     1       8.605   4.677  12.992  1.00  0.00    -0.744 OA
ENDBRANCH  95  98
ENDBRANCH  68  91
ENDBRANCH  42  43
ENDBRANCH  34  37
ENDBRANCH  32  33
ENDBRANCH  31  32
ENDBRANCH  30  31
ENDBRANCH   1  30
TORSDOF 20
