REMARK SMILES CC(C)N(c1cc2c(cc1Cl)C=C(C(=O)NCCCCNC(=O)c1ccc(-c3c4nc(c(-c5cccc(S(=O)(=O)[O-])c5F)c5ccc([nH]5)c(-c5cccc(S(=O)(=O)[O-])c5F)c5nc(c(-c6cccc(S(=O)(=O)[O-])c6F)c6ccc3[nH]6)C=C5)C=C4)cc1)[C@@H](C(F)(F)F)O2)C(C)C
REMARK SMILES IDX 19 1 18 2 17 3 16 4 14 5 15 6 13 8 5 9 6 10 10 11 7 12 9 13
REMARK SMILES IDX 11 14 8 15 92 16 12 17 87 18 4 19 2 20 1 21 3 22 93 23 94 24
REMARK SMILES IDX 95 25 88 26 89 27 90 28 91 29 20 30 21 31 22 32 23 34 24 35
REMARK SMILES IDX 25 36 86 37 26 38 85 39 27 40 28 41 29 42 79 43 30 44 84 45
REMARK SMILES IDX 78 46 80 47 31 48 83 49 77 50 76 51 32 53 64 54 44 55 63 56
REMARK SMILES IDX 45 57 48 58 62 59 81 60 46 61 47 62 61 64 82 65 49 66 33 67
REMARK SMILES IDX 34 68 42 69 35 70 37 71 43 72 36 73 38 74 39 75 40 76 41 77
REMARK SMILES IDX 65 78 66 79 74 80 67 81 69 82 75 83 68 84 70 85 71 86 72 87
REMARK SMILES IDX 73 88 50 89 51 90 59 91 52 92 54 93 60 94 53 95 55 96 56 97
REMARK SMILES IDX 57 98 58 99
REMARK H PARENT 16 7 21 33 80 52 48 63
REMARK Flexibility Score: inf
ROOT
ATOM      1  C   UNL     1      -6.698   3.151   8.915  1.00  0.00     0.023 C 
ENDROOT
BRANCH   1   2
ATOM      2  C   UNL     1      -6.161   2.664   7.567  1.00  0.00     0.023 C 
BRANCH   2   3
ATOM      3  C   UNL     1      -6.638   3.482   6.369  1.00  0.00     0.116 C 
BRANCH   3   4
ATOM      4  N   UNL     1      -5.825   4.667   6.160  1.00  0.00    -0.352 N 
ATOM      5  C   UNL     1      -4.839   5.055   5.318  1.00  0.00     0.251 C 
ATOM      6  O   UNL     1      -4.411   6.200   5.497  1.00  0.00    -0.270 OA
ATOM      7  H   UNL     1      -6.051   5.378   6.802  1.00  0.00     0.163 HD
BRANCH   5   8
ATOM      8  C   UNL     1      -4.254   4.217   4.229  1.00  0.00     0.067 C 
ATOM      9  C   UNL     1      -1.332   2.438   0.477  1.00  0.00     0.060 A 
ATOM     10  C   UNL     1      -2.264   1.881   1.371  1.00  0.00     0.074 A 
ATOM     11  C   UNL     1      -1.066   3.822   0.613  1.00  0.00     0.065 A 
ATOM     12  C   UNL     1      -2.900   2.657   2.341  1.00  0.00     0.130 A 
ATOM     13  C   UNL     1      -1.673   4.588   1.621  1.00  0.00     0.034 A 
ATOM     14  Cl  UNL     1      -0.042   4.686  -0.488  1.00  0.00    -0.082 Cl
ATOM     15  C   UNL     1      -2.591   4.004   2.491  1.00  0.00     0.019 A 
ATOM     16  O   UNL     1      -3.796   2.017   3.150  1.00  0.00    -0.475 OA
ATOM     17  C   UNL     1      -3.209   4.759   3.574  1.00  0.00     0.025 C 
ATOM     18  C   UNL     1      -4.774   2.870   3.813  1.00  0.00     0.314 C 
BRANCH   9  19
ATOM     19  N   UNL     1      -0.720   1.609  -0.485  1.00  0.00    -0.365 N 
BRANCH  19  20
ATOM     20  C   UNL     1       0.751   1.481  -0.397  1.00  0.00     0.076 C 
ATOM     21  C   UNL     1       1.199   0.172   0.252  1.00  0.00     0.030 C 
ATOM     22  C   UNL     1       1.455   1.698  -1.733  1.00  0.00     0.030 C 
ENDBRANCH  19  20
BRANCH  19  23
ATOM     23  C   UNL     1      -1.625   0.802  -1.332  1.00  0.00     0.076 C 
ATOM     24  C   UNL     1      -1.482   1.131  -2.816  1.00  0.00     0.030 C 
ATOM     25  C   UNL     1      -1.523  -0.700  -1.087  1.00  0.00     0.030 C 
ENDBRANCH  19  23
ENDBRANCH   9  19
BRANCH  18  26
ATOM     26  C   UNL     1      -6.043   2.977   2.943  1.00  0.00     0.429 C 
ATOM     27  F   UNL     1      -6.654   1.770   2.844  1.00  0.00    -0.167 F 
ATOM     28  F   UNL     1      -6.957   3.830   3.462  1.00  0.00    -0.167 F 
ATOM     29  F   UNL     1      -5.779   3.401   1.686  1.00  0.00    -0.167 F 
ENDBRANCH  18  26
ENDBRANCH   5   8
ENDBRANCH   3   4
ENDBRANCH   2   3
ENDBRANCH   1   2
BRANCH   1  30
ATOM     30  C   UNL     1      -8.218   3.256   9.018  1.00  0.00     0.116 C 
BRANCH  30  31
ATOM     31  N   UNL     1      -8.930   2.050   8.617  1.00  0.00    -0.352 N 
ATOM     32  C   UNL     1     -10.147   1.590   9.068  1.00  0.00     0.251 C 
ATOM     33  H   UNL     1      -8.484   1.493   7.938  1.00  0.00     0.163 HD
ATOM     34  O   UNL     1     -10.581   0.509   8.682  1.00  0.00    -0.269 OA
BRANCH  32  35
ATOM     35  C   UNL     1     -10.891   2.392  10.062  1.00  0.00     0.039 A 
ATOM     36  C   UNL     1     -11.073   3.761   9.864  1.00  0.00     0.014 A 
ATOM     37  C   UNL     1     -11.335   1.783  11.238  1.00  0.00     0.014 A 
ATOM     38  C   UNL     1     -11.527   4.548  10.914  1.00  0.00     0.010 A 
ATOM     39  C   UNL     1     -11.874   2.568  12.262  1.00  0.00     0.010 A 
ATOM     40  C   UNL     1     -11.918   3.964  12.132  1.00  0.00    -0.014 A 
BRANCH  40  41
ATOM     41  C   UNL     1     -12.362   4.850  13.239  1.00  0.00     0.031 A 
ATOM     42  C   UNL     1     -11.577   4.952  14.520  1.00  0.00     0.074 A 
ATOM     43  C   UNL     1     -13.445   5.630  13.050  1.00  0.00     0.049 A 
ATOM     44  N   UNL     1     -11.762   5.767  15.527  1.00  0.00    -0.248 NA
ATOM     45  C   UNL     1     -10.446   4.028  14.705  1.00  0.00     0.031 C 
ATOM     46  C   UNL     1     -14.308   5.592  11.866  1.00  0.00     0.029 A 
ATOM     47  N   UNL     1     -13.986   6.623  13.824  1.00  0.00    -0.354 N 
ATOM     48  C   UNL     1     -10.806   5.428  16.476  1.00  0.00     0.074 A 
ATOM     49  C   UNL     1     -10.038   4.332  15.931  1.00  0.00     0.031 C 
ATOM     50  C   UNL     1     -15.228   6.562  11.963  1.00  0.00     0.029 A 
ATOM     51  C   UNL     1     -15.050   7.263  13.231  1.00  0.00     0.049 A 
ATOM     52  H   UNL     1     -13.646   6.856  14.719  1.00  0.00     0.167 HD
ATOM     53  C   UNL     1     -10.573   5.997  17.682  1.00  0.00     0.034 A 
ATOM     54  C   UNL     1     -15.794   8.304  13.650  1.00  0.00     0.034 A 
ATOM     55  C   UNL     1     -11.286   7.135  18.192  1.00  0.00     0.049 A 
ATOM     56  C   UNL     1     -15.482   8.946  14.969  1.00  0.00     0.074 A 
ATOM     57  C   UNL     1     -11.064   7.824  19.372  1.00  0.00     0.029 A 
ATOM     58  N   UNL     1     -12.350   7.753  17.558  1.00  0.00    -0.354 N 
ATOM     59  N   UNL     1     -14.504   8.679  15.799  1.00  0.00    -0.248 NA
ATOM     60  C   UNL     1     -16.365  10.037  15.409  1.00  0.00     0.031 C 
ATOM     61  C   UNL     1     -11.996   8.862  19.451  1.00  0.00     0.029 A 
ATOM     62  C   UNL     1     -12.799   8.814  18.323  1.00  0.00     0.049 A 
ATOM     63  H   UNL     1     -12.730   7.479  16.692  1.00  0.00     0.167 HD
ATOM     64  C   UNL     1     -14.649   9.567  16.856  1.00  0.00     0.074 A 
ATOM     65  C   UNL     1     -15.795  10.399  16.552  1.00  0.00     0.031 C 
ATOM     66  C   UNL     1     -13.912   9.663  17.988  1.00  0.00     0.034 A 
BRANCH  53  67
ATOM     67  C   UNL     1      -9.454   5.452  18.526  1.00  0.00     0.023 A 
ATOM     68  C   UNL     1      -8.135   5.869  18.263  1.00  0.00     0.012 A 
ATOM     69  C   UNL     1      -9.720   4.642  19.647  1.00  0.00     0.148 A 
ATOM     70  C   UNL     1      -7.092   5.485  19.105  1.00  0.00     0.002 A 
ATOM     71  C   UNL     1      -8.678   4.284  20.495  1.00  0.00     0.091 A 
ATOM     72  F   UNL     1     -10.983   4.253  19.868  1.00  0.00    -0.205 F 
ATOM     73  C   UNL     1      -7.365   4.703  20.224  1.00  0.00     0.022 A 
BRANCH  71  74
ATOM     74  S   UNL     1      -8.926   3.325  21.994  1.00  0.00     0.127 S 
ATOM     75  O   UNL     1      -8.198   2.095  21.679  1.00  0.00    -0.237 OA
ATOM     76  O   UNL     1      -8.290   4.168  23.006  1.00  0.00    -0.237 OA
ATOM     77  O   UNL     1     -10.366   3.169  22.141  1.00  0.00    -0.744 OA
ENDBRANCH  71  74
ENDBRANCH  53  67
BRANCH  54  78
ATOM     78  C   UNL     1     -16.862   8.833  12.760  1.00  0.00     0.023 A 
ATOM     79  C   UNL     1     -16.648  10.042  12.073  1.00  0.00     0.012 A 
ATOM     80  C   UNL     1     -18.037   8.096  12.515  1.00  0.00     0.148 A 
ATOM     81  C   UNL     1     -17.587  10.510  11.154  1.00  0.00     0.002 A 
ATOM     82  C   UNL     1     -18.946   8.543  11.565  1.00  0.00     0.091 A 
ATOM     83  F   UNL     1     -18.221   6.955  13.193  1.00  0.00    -0.205 F 
ATOM     84  C   UNL     1     -18.727   9.754  10.889  1.00  0.00     0.022 A 
BRANCH  82  85
ATOM     85  S   UNL     1     -20.372   7.572  11.066  1.00  0.00     0.127 S 
ATOM     86  O   UNL     1     -21.473   8.349  11.627  1.00  0.00    -0.237 OA
ATOM     87  O   UNL     1     -20.268   7.611   9.607  1.00  0.00    -0.237 OA
ATOM     88  O   UNL     1     -20.169   6.251  11.646  1.00  0.00    -0.744 OA
ENDBRANCH  82  85
ENDBRANCH  54  78
BRANCH  66  89
ATOM     89  C   UNL     1     -14.309  10.689  19.009  1.00  0.00     0.023 A 
ATOM     90  C   UNL     1     -15.340  10.380  19.916  1.00  0.00     0.012 A 
ATOM     91  C   UNL     1     -13.566  11.874  19.170  1.00  0.00     0.148 A 
ATOM     92  C   UNL     1     -15.627  11.237  20.976  1.00  0.00     0.002 A 
ATOM     93  C   UNL     1     -13.838  12.710  20.247  1.00  0.00     0.091 A 
ATOM     94  F   UNL     1     -12.589  12.138  18.291  1.00  0.00    -0.205 F 
ATOM     95  C   UNL     1     -14.869  12.394  21.148  1.00  0.00     0.022 A 
BRANCH  93  96
ATOM     96  S   UNL     1     -12.877  14.185  20.599  1.00  0.00     0.127 S 
ATOM     97  O   UNL     1     -13.893  15.233  20.509  1.00  0.00    -0.237 OA
ATOM     98  O   UNL     1     -12.392  13.918  21.953  1.00  0.00    -0.237 OA
ATOM     99  O   UNL     1     -11.840  14.248  19.578  1.00  0.00    -0.744 OA
ENDBRANCH  93  96
ENDBRANCH  66  89
ENDBRANCH  40  41
ENDBRANCH  32  35
ENDBRANCH  30  31
ENDBRANCH   1  30
TORSDOF 18
