REMARK SMILES O=C(NCCCCNC(=O)[C@]1(C2CCCC2)CCOc2ccccc21)c1ccc(-c2c3nc(c(-c4cccc(S(=O)(=O)[O-])c4F)c4ccc([nH]4)c(-c4cccc(S(=O)(=O)[O-])c4F)c4nc(c(-c5cccc(S(=O)(=O)[O-])c5F)c5ccc2[nH]5)C=C4)C=C3)cc1
REMARK SMILES IDX 4 1 3 2 1 3 2 4 26 6 27 7 88 8 28 9 87 10 29 11 30 12 31 13
REMARK SMILES IDX 81 14 32 15 86 16 80 17 82 18 33 19 85 20 79 21 78 22 34 24
REMARK SMILES IDX 66 25 46 26 65 27 47 28 50 29 64 30 83 31 48 32 49 33 63 35
REMARK SMILES IDX 84 36 51 37 35 38 36 39 44 40 37 41 39 42 45 43 38 44 40 45
REMARK SMILES IDX 41 46 42 47 43 48 67 49 68 50 76 51 69 52 71 53 77 54 70 55
REMARK SMILES IDX 72 56 73 57 74 58 75 59 52 60 53 61 61 62 54 63 56 64 62 65
REMARK SMILES IDX 55 66 57 67 58 68 59 69 60 70 5 71 6 72 7 73 8 74 9 75 10 77
REMARK SMILES IDX 11 78 17 79 25 80 18 81 20 82 24 83 19 84 21 85 23 86 22 87
REMARK SMILES IDX 12 88 13 89 16 90 14 91 15 92
REMARK H PARENT 3 5 82 23 50 34 8 76
REMARK Flexibility Score: inf
ROOT
ATOM      1  C   UNL     1       4.537  -0.824  -0.588  1.00  0.00     0.116 C 
ENDROOT
BRANCH   1   2
ATOM      2  N   UNL     1       3.101  -0.622  -0.738  1.00  0.00    -0.352 N 
ATOM      3  O   UNL     1       1.056   0.146  -0.137  1.00  0.00    -0.269 OA
ATOM      4  C   UNL     1       2.265   0.123   0.066  1.00  0.00     0.251 C 
ATOM      5  H   UNL     1       2.677  -1.072  -1.505  1.00  0.00     0.163 HD
BRANCH   4   6
ATOM      6  C   UNL     1       2.864   0.846   1.207  1.00  0.00     0.039 A 
ATOM      7  C   UNL     1       4.000   1.628   1.002  1.00  0.00     0.014 A 
ATOM      8  C   UNL     1       2.375   0.621   2.495  1.00  0.00     0.014 A 
ATOM      9  C   UNL     1       4.766   2.006   2.094  1.00  0.00     0.010 A 
ATOM     10  C   UNL     1       3.090   1.107   3.593  1.00  0.00     0.010 A 
ATOM     11  C   UNL     1       4.322   1.752   3.404  1.00  0.00    -0.014 A 
BRANCH  11  12
ATOM     12  C   UNL     1       5.160   2.208   4.544  1.00  0.00     0.031 A 
ATOM     13  C   UNL     1       5.733   1.238   5.543  1.00  0.00     0.074 A 
ATOM     14  C   UNL     1       5.439   3.523   4.641  1.00  0.00     0.049 A 
ATOM     15  N   UNL     1       6.526   1.479   6.555  1.00  0.00    -0.248 NA
ATOM     16  C   UNL     1       5.365  -0.181   5.402  1.00  0.00     0.031 C 
ATOM     17  C   UNL     1       4.906   4.559   3.753  1.00  0.00     0.029 A 
ATOM     18  N   UNL     1       6.252   4.212   5.503  1.00  0.00    -0.354 N 
ATOM     19  C   UNL     1       6.700   0.265   7.208  1.00  0.00     0.074 A 
ATOM     20  C   UNL     1       5.938  -0.720   6.471  1.00  0.00     0.031 C 
ATOM     21  C   UNL     1       5.459   5.737   4.068  1.00  0.00     0.029 A 
ATOM     22  C   UNL     1       6.330   5.556   5.223  1.00  0.00     0.049 A 
ATOM     23  H   UNL     1       6.733   3.786   6.249  1.00  0.00     0.167 HD
ATOM     24  C   UNL     1       7.438  -0.006   8.312  1.00  0.00     0.034 A 
ATOM     25  C   UNL     1       7.024   6.538   5.827  1.00  0.00     0.034 A 
ATOM     26  C   UNL     1       8.252   0.965   8.997  1.00  0.00     0.049 A 
ATOM     27  C   UNL     1       7.887   6.194   7.003  1.00  0.00     0.074 A 
ATOM     28  C   UNL     1       9.092   0.773  10.080  1.00  0.00     0.029 A 
ATOM     29  N   UNL     1       8.335   2.308   8.661  1.00  0.00    -0.354 N 
ATOM     30  N   UNL     1       8.120   5.019   7.536  1.00  0.00    -0.248 NA
ATOM     31  C   UNL     1       8.595   7.304   7.652  1.00  0.00     0.031 C 
ATOM     32  C   UNL     1       9.677   2.002  10.404  1.00  0.00     0.029 A 
ATOM     33  C   UNL     1       9.208   2.958   9.518  1.00  0.00     0.049 A 
ATOM     34  H   UNL     1       7.845   2.736   7.923  1.00  0.00     0.167 HD
ATOM     35  C   UNL     1       9.011   5.245   8.576  1.00  0.00     0.074 A 
ATOM     36  C   UNL     1       9.302   6.665   8.575  1.00  0.00     0.031 C 
ATOM     37  C   UNL     1       9.521   4.363   9.470  1.00  0.00     0.034 A 
BRANCH  24  38
ATOM     38  C   UNL     1       7.436  -1.419   8.836  1.00  0.00     0.023 A 
ATOM     39  C   UNL     1       8.188  -2.410   8.173  1.00  0.00     0.012 A 
ATOM     40  C   UNL     1       6.754  -1.750  10.024  1.00  0.00     0.148 A 
ATOM     41  C   UNL     1       8.243  -3.712   8.671  1.00  0.00     0.002 A 
ATOM     42  C   UNL     1       6.842  -3.042  10.533  1.00  0.00     0.091 A 
ATOM     43  F   UNL     1       6.022  -0.803  10.628  1.00  0.00    -0.205 F 
ATOM     44  C   UNL     1       7.580  -4.025   9.855  1.00  0.00     0.022 A 
BRANCH  42  45
ATOM     45  S   UNL     1       6.078  -3.512  12.091  1.00  0.00     0.127 S 
ATOM     46  O   UNL     1       4.874  -4.203  11.634  1.00  0.00    -0.237 OA
ATOM     47  O   UNL     1       7.091  -4.384  12.688  1.00  0.00    -0.237 OA
ATOM     48  O   UNL     1       5.858  -2.266  12.813  1.00  0.00    -0.744 OA
ENDBRANCH  42  45
ENDBRANCH  24  38
BRANCH  25  49
ATOM     49  C   UNL     1       6.971   7.920   5.272  1.00  0.00     0.023 A 
ATOM     50  C   UNL     1       8.111   8.451   4.640  1.00  0.00     0.012 A 
ATOM     51  C   UNL     1       5.782   8.672   5.291  1.00  0.00     0.148 A 
ATOM     52  C   UNL     1       8.068   9.713   4.044  1.00  0.00     0.002 A 
ATOM     53  C   UNL     1       5.728   9.899   4.640  1.00  0.00     0.091 A 
ATOM     54  F   UNL     1       4.713   8.161   5.918  1.00  0.00    -0.205 F 
ATOM     55  C   UNL     1       6.874  10.428   4.029  1.00  0.00     0.022 A 
BRANCH  53  56
ATOM     56  S   UNL     1       4.181  10.790   4.435  1.00  0.00     0.127 S 
ATOM     57  O   UNL     1       4.269  11.793   5.492  1.00  0.00    -0.237 OA
ATOM     58  O   UNL     1       4.302  11.314   3.074  1.00  0.00    -0.237 OA
ATOM     59  O   UNL     1       3.139   9.782   4.590  1.00  0.00    -0.744 OA
ENDBRANCH  53  56
ENDBRANCH  25  49
BRANCH  37  60
ATOM     60  C   UNL     1      10.452   4.910  10.516  1.00  0.00     0.023 A 
ATOM     61  C   UNL     1       9.923   5.647  11.594  1.00  0.00     0.012 A 
ATOM     62  C   UNL     1      11.835   4.655  10.462  1.00  0.00     0.148 A 
ATOM     63  C   UNL     1      10.762   6.149  12.587  1.00  0.00     0.002 A 
ATOM     64  C   UNL     1      12.660   5.125  11.477  1.00  0.00     0.091 A 
ATOM     65  F   UNL     1      12.323   3.975   9.414  1.00  0.00    -0.205 F 
ATOM     66  C   UNL     1      12.127   5.879  12.535  1.00  0.00     0.022 A 
BRANCH  64  67
ATOM     67  S   UNL     1      14.415   4.746  11.520  1.00  0.00     0.127 S 
ATOM     68  O   UNL     1      14.998   5.957  10.945  1.00  0.00    -0.237 OA
ATOM     69  O   UNL     1      14.668   4.567  12.950  1.00  0.00    -0.237 OA
ATOM     70  O   UNL     1      14.570   3.531  10.730  1.00  0.00    -0.744 OA
ENDBRANCH  64  67
ENDBRANCH  37  60
ENDBRANCH  11  12
ENDBRANCH   4   6
ENDBRANCH   1   2
BRANCH   1  71
ATOM     71  C   UNL     1       5.000  -2.238  -0.892  1.00  0.00     0.023 C 
BRANCH  71  72
ATOM     72  C   UNL     1       4.619  -2.760  -2.271  1.00  0.00     0.023 C 
BRANCH  72  73
ATOM     73  C   UNL     1       5.192  -1.956  -3.438  1.00  0.00     0.116 C 
BRANCH  73  74
ATOM     74  N   UNL     1       6.504  -2.443  -3.823  1.00  0.00    -0.355 N 
ATOM     75  C   UNL     1       7.038  -3.267  -4.756  1.00  0.00     0.231 C 
ATOM     76  H   UNL     1       7.204  -2.067  -3.242  1.00  0.00     0.163 HD
ATOM     77  O   UNL     1       8.265  -3.397  -4.609  1.00  0.00    -0.274 OA
BRANCH  75  78
ATOM     78  C   UNL     1       6.315  -3.951  -5.996  1.00  0.00     0.084 C 
ATOM     79  C   UNL     1       7.043  -5.320  -6.143  1.00  0.00     0.064 C 
ATOM     80  C   UNL     1       6.646  -3.119  -7.246  1.00  0.00     0.010 A 
ATOM     81  C   UNL     1       6.956  -5.907  -7.534  1.00  0.00     0.231 C 
ATOM     82  C   UNL     1       7.192  -3.711  -8.394  1.00  0.00     0.123 A 
ATOM     83  C   UNL     1       6.430  -1.726  -7.259  1.00  0.00     0.009 A 
ATOM     84  O   UNL     1       7.467  -5.041  -8.539  1.00  0.00    -0.493 OA
ATOM     85  C   UNL     1       7.540  -2.929  -9.500  1.00  0.00     0.047 A 
ATOM     86  C   UNL     1       6.779  -0.950  -8.367  1.00  0.00     0.001 A 
ATOM     87  C   UNL     1       7.339  -1.552  -9.488  1.00  0.00     0.004 A 
BRANCH  78  88
ATOM     88  C   UNL     1       4.770  -4.094  -5.872  1.00  0.00     0.009 C 
ATOM     89  C   UNL     1       3.889  -4.466  -7.076  1.00  0.00     0.005 C 
ATOM     90  C   UNL     1       4.261  -5.121  -4.859  1.00  0.00     0.005 C 
ATOM     91  C   UNL     1       2.498  -4.658  -6.448  1.00  0.00     0.000 C 
ATOM     92  C   UNL     1       2.747  -4.992  -4.975  1.00  0.00     0.000 C 
ENDBRANCH  78  88
ENDBRANCH  75  78
ENDBRANCH  73  74
ENDBRANCH  72  73
ENDBRANCH  71  72
ENDBRANCH   1  71
TORSDOF 15
