REMARK SMILES CCc1cc(OC(F)(F)F)cc2c1O[C@@H](C(F)(F)F)C(C(=O)NCCCCNC(=O)c1ccc(-c3c4nc(c(-c5cccc(S(=O)(=O)[O-])c5F)c5ccc([nH]5)c(-c5cccc(S(=O)(=O)[O-])c5F)c5nc(c(-c6cccc(S(=O)(=O)[O-])c6F)c6ccc3[nH]6)C=C5)C=C4)cc1)=C2
REMARK SMILES IDX 26 1 25 2 24 3 23 4 21 5 22 6 20 8 3 9 4 10 13 11 5 12 12 13
REMARK SMILES IDX 14 14 11 15 94 16 15 17 2 18 1 19 6 20 7 21 8 22 9 23 10 24
REMARK SMILES IDX 16 25 17 26 18 27 19 28 27 29 28 30 29 31 30 33 31 34 32 35
REMARK SMILES IDX 93 36 33 37 92 38 34 39 35 40 36 41 86 42 37 43 91 44 85 45
REMARK SMILES IDX 87 46 38 47 90 48 84 49 83 50 39 52 71 53 51 54 70 55 52 56
REMARK SMILES IDX 55 57 69 58 88 59 53 60 54 61 68 63 89 64 56 65 40 66 41 67
REMARK SMILES IDX 49 68 42 69 44 70 50 71 43 72 45 73 46 74 47 75 48 76 72 77
REMARK SMILES IDX 73 78 81 79 74 80 76 81 82 82 75 83 77 84 78 85 79 86 80 87
REMARK SMILES IDX 57 88 58 89 66 90 59 91 61 92 67 93 60 94 62 95 63 96 64 97
REMARK SMILES IDX 65 98
REMARK H PARENT 23 7 28 32 87 51 55 62
REMARK Flexibility Score: inf
ROOT
ATOM      1  C   UNL     1       0.544  10.041  -4.535  1.00  0.00     0.023 C 
ENDROOT
BRANCH   1   2
ATOM      2  C   UNL     1       0.920   8.634  -4.061  1.00  0.00     0.023 C 
BRANCH   2   3
ATOM      3  C   UNL     1       1.518   8.581  -2.650  1.00  0.00     0.116 C 
BRANCH   3   4
ATOM      4  N   UNL     1       0.464   8.660  -1.654  1.00  0.00    -0.352 N 
ATOM      5  C   UNL     1      -0.294   7.714  -1.041  1.00  0.00     0.251 C 
ATOM      6  O   UNL     1      -1.226   8.087  -0.332  1.00  0.00    -0.270 OA
ATOM      7  H   UNL     1       0.258   9.579  -1.367  1.00  0.00     0.163 HD
BRANCH   5   8
ATOM      8  C   UNL     1      -0.010   6.255  -1.129  1.00  0.00     0.067 C 
ATOM      9  C   UNL     1       0.831   2.121  -1.035  1.00  0.00    -0.002 A 
ATOM     10  C   UNL     1       1.390   1.525  -2.182  1.00  0.00     0.054 A 
ATOM     11  C   UNL     1       0.515   3.493  -1.071  1.00  0.00     0.131 A 
ATOM     12  C   UNL     1       1.632   2.274  -3.337  1.00  0.00     0.130 A 
ATOM     13  C   UNL     1       0.749   4.241  -2.220  1.00  0.00     0.021 A 
ATOM     14  O   UNL     1       0.024   4.049   0.074  1.00  0.00    -0.475 OA
ATOM     15  C   UNL     1       1.303   3.629  -3.348  1.00  0.00     0.058 A 
ATOM     16  C   UNL     1       0.478   5.667  -2.228  1.00  0.00     0.025 C 
ATOM     17  C   UNL     1      -0.466   5.423   0.065  1.00  0.00     0.314 C 
BRANCH   9  18
ATOM     18  C   UNL     1       0.549   1.343   0.237  1.00  0.00     0.036 C 
ATOM     19  C   UNL     1       0.972  -0.120   0.268  1.00  0.00     0.009 C 
ENDBRANCH   9  18
BRANCH  12  20
ATOM     20  O   UNL     1       2.184   1.824  -4.502  1.00  0.00    -0.406 OA
BRANCH  20  21
ATOM     21  C   UNL     1       2.558   0.461  -4.580  1.00  0.00     0.573 C 
ATOM     22  F   UNL     1       3.491   0.154  -3.653  1.00  0.00    -0.132 F 
ATOM     23  F   UNL     1       1.487  -0.347  -4.426  1.00  0.00    -0.132 F 
ATOM     24  F   UNL     1       3.088   0.226  -5.801  1.00  0.00    -0.132 F 
ENDBRANCH  20  21
ENDBRANCH  12  20
BRANCH  17  25
ATOM     25  C   UNL     1      -0.165   6.019   1.461  1.00  0.00     0.429 C 
ATOM     26  F   UNL     1      -1.118   6.875   1.888  1.00  0.00    -0.167 F 
ATOM     27  F   UNL     1      -0.115   5.037   2.405  1.00  0.00    -0.167 F 
ATOM     28  F   UNL     1       1.028   6.655   1.504  1.00  0.00    -0.167 F 
ENDBRANCH  17  25
ENDBRANCH   5   8
ENDBRANCH   3   4
ENDBRANCH   2   3
ENDBRANCH   1   2
BRANCH   1  29
ATOM     29  C   UNL     1       1.723  10.988  -4.728  1.00  0.00     0.116 C 
BRANCH  29  30
ATOM     30  N   UNL     1       2.707  10.491  -5.678  1.00  0.00    -0.352 N 
ATOM     31  C   UNL     1       3.542  11.214  -6.499  1.00  0.00     0.251 C 
ATOM     32  H   UNL     1       2.784   9.512  -5.742  1.00  0.00     0.163 HD
ATOM     33  O   UNL     1       4.245  10.643  -7.319  1.00  0.00    -0.269 OA
BRANCH  31  34
ATOM     34  C   UNL     1       3.541  12.689  -6.404  1.00  0.00     0.039 A 
ATOM     35  C   UNL     1       3.388  13.436  -7.574  1.00  0.00     0.014 A 
ATOM     36  C   UNL     1       3.645  13.326  -5.165  1.00  0.00     0.014 A 
ATOM     37  C   UNL     1       3.271  14.825  -7.493  1.00  0.00     0.010 A 
ATOM     38  C   UNL     1       3.461  14.702  -5.080  1.00  0.00     0.010 A 
ATOM     39  C   UNL     1       3.270  15.464  -6.243  1.00  0.00    -0.014 A 
BRANCH  39  40
ATOM     40  C   UNL     1       3.042  16.926  -6.128  1.00  0.00     0.031 A 
ATOM     41  C   UNL     1       4.119  17.823  -5.586  1.00  0.00     0.074 A 
ATOM     42  C   UNL     1       1.827  17.429  -6.425  1.00  0.00     0.049 A 
ATOM     43  N   UNL     1       4.087  19.113  -5.378  1.00  0.00    -0.248 NA
ATOM     44  C   UNL     1       5.388  17.185  -5.200  1.00  0.00     0.031 C 
ATOM     45  C   UNL     1       0.672  16.645  -6.868  1.00  0.00     0.029 A 
ATOM     46  N   UNL     1       1.353  18.716  -6.371  1.00  0.00    -0.354 N 
ATOM     47  C   UNL     1       5.312  19.436  -4.807  1.00  0.00     0.074 A 
ATOM     48  C   UNL     1       6.053  18.202  -4.669  1.00  0.00     0.031 C 
ATOM     49  C   UNL     1      -0.374  17.467  -7.050  1.00  0.00     0.029 A 
ATOM     50  C   UNL     1       0.027  18.830  -6.718  1.00  0.00     0.049 A 
ATOM     51  H   UNL     1       1.909  19.484  -6.108  1.00  0.00     0.167 HD
ATOM     52  C   UNL     1       5.790  20.655  -4.461  1.00  0.00     0.034 A 
ATOM     53  C   UNL     1      -0.775  19.913  -6.767  1.00  0.00     0.034 A 
ATOM     54  C   UNL     1       5.070  21.885  -4.651  1.00  0.00     0.049 A 
ATOM     55  C   UNL     1      -0.198  21.262  -6.438  1.00  0.00     0.074 A 
ATOM     56  C   UNL     1       5.506  23.179  -4.429  1.00  0.00     0.029 A 
ATOM     57  N   UNL     1       3.764  21.974  -5.104  1.00  0.00    -0.354 N 
ATOM     58  N   UNL     1       1.023  21.570  -6.072  1.00  0.00    -0.248 NA
ATOM     59  C   UNL     1      -1.095  22.420  -6.567  1.00  0.00     0.031 C 
ATOM     60  C   UNL     1       4.457  24.051  -4.738  1.00  0.00     0.029 A 
ATOM     61  C   UNL     1       3.373  23.300  -5.165  1.00  0.00     0.049 A 
ATOM     62  H   UNL     1       3.197  21.207  -5.348  1.00  0.00     0.167 HD
ATOM     63  C   UNL     1       1.051  22.955  -5.961  1.00  0.00     0.074 A 
ATOM     64  C   UNL     1      -0.271  23.429  -6.318  1.00  0.00     0.031 C 
ATOM     65  C   UNL     1       2.073  23.760  -5.580  1.00  0.00     0.034 A 
BRANCH  52  66
ATOM     66  C   UNL     1       7.188  20.724  -3.906  1.00  0.00     0.023 A 
ATOM     67  C   UNL     1       8.284  20.518  -4.769  1.00  0.00     0.012 A 
ATOM     68  C   UNL     1       7.423  21.048  -2.556  1.00  0.00     0.148 A 
ATOM     69  C   UNL     1       9.591  20.600  -4.292  1.00  0.00     0.002 A 
ATOM     70  C   UNL     1       8.730  21.169  -2.096  1.00  0.00     0.091 A 
ATOM     71  F   UNL     1       6.370  21.218  -1.745  1.00  0.00    -0.205 F 
ATOM     72  C   UNL     1       9.814  20.935  -2.959  1.00  0.00     0.022 A 
BRANCH  70  73
ATOM     73  S   UNL     1       9.121  21.670  -0.416  1.00  0.00     0.127 S 
ATOM     74  O   UNL     1       9.573  20.409   0.170  1.00  0.00    -0.237 OA
ATOM     75  O   UNL     1      10.180  22.658  -0.626  1.00  0.00    -0.237 OA
ATOM     76  O   UNL     1       7.888  22.212   0.136  1.00  0.00    -0.744 OA
ENDBRANCH  70  73
ENDBRANCH  52  66
BRANCH  53  77
ATOM     77  C   UNL     1      -2.184  19.771  -7.229  1.00  0.00     0.023 A 
ATOM     78  C   UNL     1      -2.546  20.274  -8.494  1.00  0.00     0.012 A 
ATOM     79  C   UNL     1      -3.153  19.111  -6.450  1.00  0.00     0.148 A 
ATOM     80  C   UNL     1      -3.854  20.148  -8.963  1.00  0.00     0.002 A 
ATOM     81  C   UNL     1      -4.442  18.942  -6.946  1.00  0.00     0.091 A 
ATOM     82  F   UNL     1      -2.794  18.650  -5.244  1.00  0.00    -0.205 F 
ATOM     83  C   UNL     1      -4.798  19.473  -8.195  1.00  0.00     0.022 A 
BRANCH  81  84
ATOM     84  S   UNL     1      -5.681  17.969  -6.082  1.00  0.00     0.127 S 
ATOM     85  O   UNL     1      -6.565  19.007  -5.560  1.00  0.00    -0.237 OA
ATOM     86  O   UNL     1      -6.247  17.165  -7.166  1.00  0.00    -0.237 OA
ATOM     87  O   UNL     1      -4.946  17.198  -5.089  1.00  0.00    -0.744 OA
ENDBRANCH  81  84
ENDBRANCH  53  77
BRANCH  65  88
ATOM     88  C   UNL     1       1.822  25.244  -5.555  1.00  0.00     0.023 A 
ATOM     89  C   UNL     1       1.040  25.801  -4.524  1.00  0.00     0.012 A 
ATOM     90  C   UNL     1       2.431  26.094  -6.499  1.00  0.00     0.148 A 
ATOM     91  C   UNL     1       0.848  27.179  -4.448  1.00  0.00     0.002 A 
ATOM     92  C   UNL     1       2.272  27.470  -6.390  1.00  0.00     0.091 A 
ATOM     93  F   UNL     1       3.155  25.543  -7.484  1.00  0.00    -0.205 F 
ATOM     94  C   UNL     1       1.473  28.014  -5.371  1.00  0.00     0.022 A 
BRANCH  92  95
ATOM     95  S   UNL     1       3.116  28.624  -7.479  1.00  0.00     0.127 S 
ATOM     96  O   UNL     1       2.025  29.069  -8.345  1.00  0.00    -0.237 OA
ATOM     97  O   UNL     1       3.603  29.638  -6.543  1.00  0.00    -0.237 OA
ATOM     98  O   UNL     1       4.166  27.857  -8.136  1.00  0.00    -0.744 OA
ENDBRANCH  92  95
ENDBRANCH  65  88
ENDBRANCH  39  40
ENDBRANCH  31  34
ENDBRANCH  29  30
ENDBRANCH   1  29
TORSDOF 18
