REMARK SMILES Cc1ccccc1-c1c(Cl)ccc2c1C=C(C(=O)NCCCCNC(=O)c1ccc(-c3c4nc(c(-c5cccc(S(=O)(=O)[O-])c5F)c5ccc([nH]5)c(-c5cccc(S(=O)(=O)[O-])c5F)c5nc(c(-c6cccc(S(=O)(=O)[O-])c6F)c6ccc3[nH]6)C=C5)C=C4)cc1)[C@@H](C(F)(F)F)O2
REMARK SMILES IDX 22 1 21 2 20 3 19 4 17 5 18 6 16 8 8 9 9 10 14 11 10 12
REMARK SMILES IDX 11 13 13 14 15 15 12 16 95 17 90 18 7 19 1 20 2 21 3 22 4 23
REMARK SMILES IDX 6 24 5 25 91 26 92 27 93 28 94 29 23 30 24 31 25 32 26 34
REMARK SMILES IDX 27 35 28 36 89 37 29 38 88 39 30 40 31 41 32 42 82 43 33 44
REMARK SMILES IDX 87 45 81 46 83 47 34 48 86 49 80 50 79 51 35 53 67 54 47 55
REMARK SMILES IDX 66 56 48 57 51 58 65 59 84 60 49 61 50 62 64 64 85 65 52 66
REMARK SMILES IDX 36 67 37 68 45 69 38 70 40 71 46 72 39 73 41 74 42 75 43 76
REMARK SMILES IDX 44 77 68 78 69 79 77 80 70 81 72 82 78 83 71 84 73 85 74 86
REMARK SMILES IDX 75 87 76 88 53 89 54 90 62 91 55 92 57 93 63 94 56 95 58 96
REMARK SMILES IDX 59 97 60 98 61 99
REMARK H PARENT 19 7 24 33 83 52 51 63
REMARK Flexibility Score: inf
ROOT
ATOM      1  C   UNL     1       7.592  -1.395  -2.820  1.00  0.00     0.023 C 
ENDROOT
BRANCH   1   2
ATOM      2  C   UNL     1       6.099  -1.206  -3.152  1.00  0.00     0.023 C 
BRANCH   2   3
ATOM      3  C   UNL     1       5.232  -0.479  -2.116  1.00  0.00     0.116 C 
BRANCH   3   4
ATOM      4  N   UNL     1       5.703   0.863  -1.848  1.00  0.00    -0.352 N 
ATOM      5  C   UNL     1       5.155   2.080  -2.097  1.00  0.00     0.251 C 
ATOM      6  O   UNL     1       5.859   3.072  -1.911  1.00  0.00    -0.270 OA
ATOM      7  H   UNL     1       6.581   0.900  -1.403  1.00  0.00     0.163 HD
BRANCH   5   8
ATOM      8  C   UNL     1       3.755   2.217  -2.644  1.00  0.00     0.067 C 
ATOM      9  C   UNL     1       1.227   2.406   0.099  1.00  0.00     0.012 A 
ATOM     10  C   UNL     1       0.926   3.390   1.075  1.00  0.00     0.049 A 
ATOM     11  C   UNL     1       2.152   2.764  -0.918  1.00  0.00     0.027 A 
ATOM     12  Cl  UNL     1      -0.100   3.062   2.437  1.00  0.00    -0.084 Cl
ATOM     13  C   UNL     1       1.444   4.688   0.996  1.00  0.00     0.025 A 
ATOM     14  C   UNL     1       2.567   4.107  -1.045  1.00  0.00     0.128 A 
ATOM     15  C   UNL     1       2.784   1.769  -1.822  1.00  0.00     0.026 C 
ATOM     16  C   UNL     1       2.234   5.056  -0.085  1.00  0.00     0.049 A 
ATOM     17  O   UNL     1       3.311   4.579  -2.099  1.00  0.00    -0.475 OA
ATOM     18  C   UNL     1       3.556   3.635  -3.169  1.00  0.00     0.314 C 
BRANCH   9  19
ATOM     19  C   UNL     1       0.488   1.112   0.079  1.00  0.00    -0.013 A 
ATOM     20  C   UNL     1       2.530  -0.374   0.550  1.00  0.00     0.045 C 
ATOM     21  C   UNL     1       1.067  -0.157   0.285  1.00  0.00    -0.043 A 
ATOM     22  C   UNL     1       0.257  -1.311   0.216  1.00  0.00     0.004 A 
ATOM     23  C   UNL     1      -1.115  -1.224  -0.011  1.00  0.00     0.000 A 
ATOM     24  C   UNL     1      -0.907   1.165  -0.165  1.00  0.00     0.009 A 
ATOM     25  C   UNL     1      -1.701   0.019  -0.194  1.00  0.00     0.001 A 
ENDBRANCH   9  19
BRANCH  18  26
ATOM     26  C   UNL     1       2.466   3.702  -4.250  1.00  0.00     0.429 C 
ATOM     27  F   UNL     1       2.406   4.930  -4.821  1.00  0.00    -0.167 F 
ATOM     28  F   UNL     1       2.722   2.823  -5.254  1.00  0.00    -0.167 F 
ATOM     29  F   UNL     1       1.228   3.417  -3.785  1.00  0.00    -0.167 F 
ENDBRANCH  18  26
ENDBRANCH   5   8
ENDBRANCH   3   4
ENDBRANCH   2   3
ENDBRANCH   1   2
BRANCH   1  30
ATOM     30  C   UNL     1       7.876  -2.160  -1.537  1.00  0.00     0.116 C 
BRANCH  30  31
ATOM     31  N   UNL     1       7.325  -3.512  -1.576  1.00  0.00    -0.352 N 
ATOM     32  C   UNL     1       7.326  -4.503  -0.622  1.00  0.00     0.251 C 
ATOM     33  H   UNL     1       6.883  -3.753  -2.422  1.00  0.00     0.163 HD
ATOM     34  O   UNL     1       7.245  -5.677  -1.014  1.00  0.00    -0.269 OA
BRANCH  32  35
ATOM     35  C   UNL     1       7.317  -4.192   0.819  1.00  0.00     0.039 A 
ATOM     36  C   UNL     1       7.492  -5.192   1.790  1.00  0.00     0.014 A 
ATOM     37  C   UNL     1       6.902  -2.927   1.213  1.00  0.00     0.014 A 
ATOM     38  C   UNL     1       7.093  -4.947   3.105  1.00  0.00     0.010 A 
ATOM     39  C   UNL     1       6.749  -2.613   2.523  1.00  0.00     0.010 A 
ATOM     40  C   UNL     1       6.643  -3.672   3.416  1.00  0.00    -0.014 A 
BRANCH  40  41
ATOM     41  C   UNL     1       5.818  -3.288   4.543  1.00  0.00     0.031 A 
ATOM     42  C   UNL     1       6.459  -2.772   5.746  1.00  0.00     0.074 A 
ATOM     43  C   UNL     1       4.562  -2.938   4.174  1.00  0.00     0.049 A 
ATOM     44  N   UNL     1       5.816  -2.340   6.769  1.00  0.00    -0.248 NA
ATOM     45  C   UNL     1       7.907  -2.700   5.887  1.00  0.00     0.031 C 
ATOM     46  C   UNL     1       3.725  -1.849   4.660  1.00  0.00     0.029 A 
ATOM     47  N   UNL     1       3.784  -3.482   3.167  1.00  0.00    -0.354 N 
ATOM     48  C   UNL     1       6.715  -1.614   7.515  1.00  0.00     0.074 A 
ATOM     49  C   UNL     1       8.009  -2.033   7.039  1.00  0.00     0.031 C 
ATOM     50  C   UNL     1       2.487  -1.982   4.143  1.00  0.00     0.029 A 
ATOM     51  C   UNL     1       2.443  -3.267   3.462  1.00  0.00     0.049 A 
ATOM     52  H   UNL     1       4.126  -3.947   2.370  1.00  0.00     0.167 HD
ATOM     53  C   UNL     1       6.227  -0.609   8.295  1.00  0.00     0.034 A 
ATOM     54  C   UNL     1       1.696  -4.343   3.874  1.00  0.00     0.034 A 
ATOM     55  C   UNL     1       4.747  -0.631   8.281  1.00  0.00     0.049 A 
ATOM     56  C   UNL     1       1.339  -4.263   5.353  1.00  0.00     0.074 A 
ATOM     57  C   UNL     1       3.792   0.153   7.654  1.00  0.00     0.029 A 
ATOM     58  N   UNL     1       4.078  -1.774   8.721  1.00  0.00    -0.354 N 
ATOM     59  N   UNL     1       1.867  -3.411   6.191  1.00  0.00    -0.248 NA
ATOM     60  C   UNL     1       0.330  -5.097   5.997  1.00  0.00     0.031 C 
ATOM     61  C   UNL     1       2.573  -0.588   7.614  1.00  0.00     0.029 A 
ATOM     62  C   UNL     1       2.772  -1.803   8.252  1.00  0.00     0.049 A 
ATOM     63  H   UNL     1       4.480  -2.470   9.289  1.00  0.00     0.167 HD
ATOM     64  C   UNL     1       1.392  -3.615   7.454  1.00  0.00     0.074 A 
ATOM     65  C   UNL     1       0.378  -4.642   7.263  1.00  0.00     0.031 C 
ATOM     66  C   UNL     1       1.905  -2.950   8.540  1.00  0.00     0.034 A 
BRANCH  53  67
ATOM     67  C   UNL     1       7.024   0.556   8.876  1.00  0.00     0.023 A 
ATOM     68  C   UNL     1       6.282   1.572   9.521  1.00  0.00     0.012 A 
ATOM     69  C   UNL     1       8.422   0.784   8.794  1.00  0.00     0.148 A 
ATOM     70  C   UNL     1       6.870   2.743  10.017  1.00  0.00     0.002 A 
ATOM     71  C   UNL     1       9.017   1.940   9.312  1.00  0.00     0.091 A 
ATOM     72  F   UNL     1       9.217  -0.092   8.189  1.00  0.00    -0.205 F 
ATOM     73  C   UNL     1       8.240   2.928   9.915  1.00  0.00     0.022 A 
BRANCH  71  74
ATOM     74  S   UNL     1      10.796   2.240   9.232  1.00  0.00     0.127 S 
ATOM     75  O   UNL     1      10.864   3.465   8.433  1.00  0.00    -0.237 OA
ATOM     76  O   UNL     1      11.146   2.415  10.642  1.00  0.00    -0.237 OA
ATOM     77  O   UNL     1      11.391   1.070   8.599  1.00  0.00    -0.744 OA
ENDBRANCH  71  74
ENDBRANCH  53  67
BRANCH  54  78
ATOM     78  C   UNL     1       2.079  -5.587   3.109  1.00  0.00     0.023 A 
ATOM     79  C   UNL     1       1.904  -5.521   1.701  1.00  0.00     0.012 A 
ATOM     80  C   UNL     1       3.009  -6.510   3.624  1.00  0.00     0.148 A 
ATOM     81  C   UNL     1       2.779  -6.184   0.836  1.00  0.00     0.002 A 
ATOM     82  C   UNL     1       3.861  -7.193   2.750  1.00  0.00     0.091 A 
ATOM     83  F   UNL     1       3.101  -6.659   4.952  1.00  0.00    -0.205 F 
ATOM     84  C   UNL     1       3.789  -6.982   1.363  1.00  0.00     0.022 A 
BRANCH  82  85
ATOM     85  S   UNL     1       5.147  -8.292   3.366  1.00  0.00     0.127 S 
ATOM     86  O   UNL     1       4.436  -9.567   3.431  1.00  0.00    -0.237 OA
ATOM     87  O   UNL     1       6.173  -8.224   2.323  1.00  0.00    -0.237 OA
ATOM     88  O   UNL     1       5.558  -7.716   4.636  1.00  0.00    -0.744 OA
ENDBRANCH  82  85
ENDBRANCH  54  78
BRANCH  66  89
ATOM     89  C   UNL     1       1.640  -3.320   9.992  1.00  0.00     0.023 A 
ATOM     90  C   UNL     1       1.127  -4.576  10.368  1.00  0.00     0.012 A 
ATOM     91  C   UNL     1       2.043  -2.462  11.051  1.00  0.00     0.148 A 
ATOM     92  C   UNL     1       0.948  -4.936  11.708  1.00  0.00     0.002 A 
ATOM     93  C   UNL     1       1.988  -2.879  12.378  1.00  0.00     0.091 A 
ATOM     94  F   UNL     1       2.463  -1.217  10.787  1.00  0.00    -0.205 F 
ATOM     95  C   UNL     1       1.403  -4.099  12.714  1.00  0.00     0.022 A 
BRANCH  93  96
ATOM     96  S   UNL     1       2.812  -1.950  13.679  1.00  0.00     0.127 S 
ATOM     97  O   UNL     1       1.710  -1.170  14.238  1.00  0.00    -0.237 OA
ATOM     98  O   UNL     1       3.311  -3.014  14.554  1.00  0.00    -0.237 OA
ATOM     99  O   UNL     1       3.860  -1.194  13.007  1.00  0.00    -0.744 OA
ENDBRANCH  93  96
ENDBRANCH  66  89
ENDBRANCH  40  41
ENDBRANCH  32  35
ENDBRANCH  30  31
ENDBRANCH   1  30
TORSDOF 16
