REMARK SMILES O=C(NCCCCNC(=O)[C@H]1C=C[C@@H](NC(=O)[C@@H]2CSC[NH2+]2)C1)c1ccc(-c2c3nc(c(-c4cccc(S(=O)(=O)[O-])c4F)c4ccc([nH]4)c(-c4cccc(S(=O)(=O)[O-])c4F)c4nc(c(-c5cccc(S(=O)(=O)[O-])c5F)c5ccc2[nH]5)C=C4)C=C3)cc1
REMARK SMILES IDX 5 1 4 2 3 3 1 4 2 5 24 7 25 8 86 9 26 10 85 11 27 12 28 13
REMARK SMILES IDX 29 14 79 15 30 16 84 17 78 18 80 19 31 20 83 21 77 22 76 23
REMARK SMILES IDX 32 25 64 26 44 27 63 28 45 29 48 30 62 31 81 32 46 33 47 34
REMARK SMILES IDX 61 36 82 37 49 38 33 39 34 40 42 41 35 42 37 43 43 44 36 45
REMARK SMILES IDX 38 46 39 47 40 48 41 49 65 50 66 51 74 52 67 53 69 54 75 55
REMARK SMILES IDX 68 56 70 57 71 58 72 59 73 60 50 61 51 62 59 63 52 64 54 65
REMARK SMILES IDX 60 66 53 67 55 68 56 69 57 70 58 71 6 72 7 73 8 74 9 75
REMARK SMILES IDX 10 77 11 78 12 79 23 80 13 81 14 82 15 83 16 84 17 86 18 87
REMARK SMILES IDX 19 88 22 89 20 90 21 91
REMARK H PARENT 3 6 80 24 48 35 8 76 15 85 22 92 22 93
REMARK Flexibility Score: inf
ROOT
ATOM      1  C   UNL     1       4.628  -0.823  -6.087  1.00  0.00     0.023 C 
ENDROOT
BRANCH   1   2
ATOM      2  C   UNL     1       5.258   0.056  -5.018  1.00  0.00     0.116 C 
BRANCH   2   3
ATOM      3  N   UNL     1       5.843  -0.689  -3.913  1.00  0.00    -0.352 N 
ATOM      4  O   UNL     1       7.355  -1.106  -2.287  1.00  0.00    -0.269 OA
ATOM      5  C   UNL     1       6.927  -0.338  -3.137  1.00  0.00     0.251 C 
ATOM      6  H   UNL     1       5.413  -1.547  -3.694  1.00  0.00     0.163 HD
BRANCH   5   7
ATOM      7  C   UNL     1       7.587   0.960  -3.396  1.00  0.00     0.039 A 
ATOM      8  C   UNL     1       6.825   2.124  -3.509  1.00  0.00     0.014 A 
ATOM      9  C   UNL     1       8.965   0.990  -3.618  1.00  0.00     0.014 A 
ATOM     10  C   UNL     1       7.410   3.276  -4.017  1.00  0.00     0.010 A 
ATOM     11  C   UNL     1       9.568   2.177  -4.042  1.00  0.00     0.010 A 
ATOM     12  C   UNL     1       8.786   3.315  -4.297  1.00  0.00    -0.014 A 
BRANCH  12  13
ATOM     13  C   UNL     1       9.377   4.568  -4.832  1.00  0.00     0.031 A 
ATOM     14  C   UNL     1       9.987   4.621  -6.207  1.00  0.00     0.074 A 
ATOM     15  C   UNL     1       9.326   5.678  -4.071  1.00  0.00     0.049 A 
ATOM     16  N   UNL     1      10.478   5.652  -6.846  1.00  0.00    -0.248 NA
ATOM     17  C   UNL     1      10.066   3.359  -6.962  1.00  0.00     0.031 C 
ATOM     18  C   UNL     1       8.799   5.736  -2.706  1.00  0.00     0.029 A 
ATOM     19  N   UNL     1       9.704   6.969  -4.337  1.00  0.00    -0.354 N 
ATOM     20  C   UNL     1      10.970   5.160  -8.050  1.00  0.00     0.074 A 
ATOM     21  C   UNL     1      10.717   3.736  -8.056  1.00  0.00     0.031 C 
ATOM     22  C   UNL     1       8.842   7.003  -2.271  1.00  0.00     0.029 A 
ATOM     23  C   UNL     1       9.441   7.840  -3.306  1.00  0.00     0.049 A 
ATOM     24  H   UNL     1      10.122   7.246  -5.184  1.00  0.00     0.167 HD
ATOM     25  C   UNL     1      11.561   5.837  -9.063  1.00  0.00     0.034 A 
ATOM     26  C   UNL     1       9.652   9.165  -3.203  1.00  0.00     0.034 A 
ATOM     27  C   UNL     1      11.752   7.263  -9.080  1.00  0.00     0.049 A 
ATOM     28  C   UNL     1      10.245   9.898  -4.371  1.00  0.00     0.074 A 
ATOM     29  C   UNL     1      12.277   8.050 -10.091  1.00  0.00     0.029 A 
ATOM     30  N   UNL     1      11.422   8.119  -8.040  1.00  0.00    -0.354 N 
ATOM     31  N   UNL     1      10.584   9.433  -5.549  1.00  0.00    -0.248 NA
ATOM     32  C   UNL     1      10.460  11.342  -4.208  1.00  0.00     0.031 C 
ATOM     33  C   UNL     1      12.269   9.381  -9.659  1.00  0.00     0.029 A 
ATOM     34  C   UNL     1      11.733   9.424  -8.382  1.00  0.00     0.049 A 
ATOM     35  H   UNL     1      11.026   7.839  -7.183  1.00  0.00     0.167 HD
ATOM     36  C   UNL     1      11.031  10.528  -6.275  1.00  0.00     0.074 A 
ATOM     37  C   UNL     1      10.892  11.686  -5.414  1.00  0.00     0.031 C 
ATOM     38  C   UNL     1      11.535  10.570  -7.533  1.00  0.00     0.034 A 
BRANCH  25  39
ATOM     39  C   UNL     1      12.005   5.053 -10.271  1.00  0.00     0.023 A 
ATOM     40  C   UNL     1      11.045   4.613 -11.204  1.00  0.00     0.012 A 
ATOM     41  C   UNL     1      13.371   4.816 -10.521  1.00  0.00     0.148 A 
ATOM     42  C   UNL     1      11.435   3.930 -12.356  1.00  0.00     0.002 A 
ATOM     43  C   UNL     1      13.755   4.165 -11.689  1.00  0.00     0.091 A 
ATOM     44  F   UNL     1      14.269   5.218  -9.610  1.00  0.00    -0.205 F 
ATOM     45  C   UNL     1      12.789   3.716 -12.604  1.00  0.00     0.022 A 
BRANCH  43  46
ATOM     46  S   UNL     1      15.480   3.912 -12.123  1.00  0.00     0.127 S 
ATOM     47  O   UNL     1      15.670   2.506 -11.773  1.00  0.00    -0.237 OA
ATOM     48  O   UNL     1      15.486   4.187 -13.561  1.00  0.00    -0.237 OA
ATOM     49  O   UNL     1      16.232   4.871 -11.325  1.00  0.00    -0.744 OA
ENDBRANCH  43  46
ENDBRANCH  25  39
BRANCH  26  50
ATOM     50  C   UNL     1       9.218   9.884  -1.973  1.00  0.00     0.023 A 
ATOM     51  C   UNL     1       8.114  10.755  -2.038  1.00  0.00     0.012 A 
ATOM     52  C   UNL     1       9.843   9.657  -0.732  1.00  0.00     0.148 A 
ATOM     53  C   UNL     1       7.650  11.400  -0.891  1.00  0.00     0.002 A 
ATOM     54  C   UNL     1       9.338  10.256   0.416  1.00  0.00     0.091 A 
ATOM     55  F   UNL     1      10.906   8.841  -0.693  1.00  0.00    -0.205 F 
ATOM     56  C   UNL     1       8.251  11.139   0.337  1.00  0.00     0.022 A 
BRANCH  54  57
ATOM     57  S   UNL     1       9.964   9.842   2.049  1.00  0.00     0.127 S 
ATOM     58  O   UNL     1      10.851  10.968   2.325  1.00  0.00    -0.237 OA
ATOM     59  O   UNL     1       8.740   9.811   2.851  1.00  0.00    -0.237 OA
ATOM     60  O   UNL     1      10.603   8.542   1.894  1.00  0.00    -0.744 OA
ENDBRANCH  54  57
ENDBRANCH  26  50
BRANCH  38  61
ATOM     61  C   UNL     1      11.960  11.913  -8.061  1.00  0.00     0.023 A 
ATOM     62  C   UNL     1      13.159  12.491  -7.598  1.00  0.00     0.012 A 
ATOM     63  C   UNL     1      11.209  12.574  -9.051  1.00  0.00     0.148 A 
ATOM     64  C   UNL     1      13.589  13.721  -8.093  1.00  0.00     0.002 A 
ATOM     65  C   UNL     1      11.664  13.782  -9.568  1.00  0.00     0.091 A 
ATOM     66  F   UNL     1      10.057  12.022  -9.460  1.00  0.00    -0.205 F 
ATOM     67  C   UNL     1      12.848  14.361  -9.084  1.00  0.00     0.022 A 
BRANCH  65  68
ATOM     68  S   UNL     1      10.806  14.618 -10.906  1.00  0.00     0.127 S 
ATOM     69  O   UNL     1       9.998  15.596 -10.180  1.00  0.00    -0.237 OA
ATOM     70  O   UNL     1      11.906  15.193 -11.681  1.00  0.00    -0.237 OA
ATOM     71  O   UNL     1      10.065  13.576 -11.604  1.00  0.00    -0.744 OA
ENDBRANCH  65  68
ENDBRANCH  38  61
ENDBRANCH  12  13
ENDBRANCH   5   7
ENDBRANCH   2   3
ENDBRANCH   1   2
BRANCH   1  72
ATOM     72  C   UNL     1       3.560  -1.791  -5.585  1.00  0.00     0.023 C 
BRANCH  72  73
ATOM     73  C   UNL     1       2.347  -1.136  -4.918  1.00  0.00     0.116 C 
BRANCH  73  74
ATOM     74  N   UNL     1       1.474  -0.524  -5.894  1.00  0.00    -0.356 N 
ATOM     75  C   UNL     1       0.421  -1.000  -6.603  1.00  0.00     0.227 C 
ATOM     76  H   UNL     1       1.684   0.419  -6.079  1.00  0.00     0.163 HD
ATOM     77  O   UNL     1      -0.097  -0.191  -7.385  1.00  0.00    -0.274 OA
BRANCH  75  78
ATOM     78  C   UNL     1      -0.200  -2.401  -6.428  1.00  0.00     0.103 C 
ATOM     79  C   UNL     1      -0.542  -2.935  -7.798  1.00  0.00    -0.016 C 
ATOM     80  C   UNL     1       0.577  -3.576  -5.824  1.00  0.00     0.047 C 
ATOM     81  C   UNL     1      -0.268  -4.235  -7.928  1.00  0.00    -0.006 C 
ATOM     82  C   UNL     1       0.271  -4.817  -6.668  1.00  0.00     0.106 C 
BRANCH  82  83
ATOM     83  N   UNL     1       1.468  -5.558  -7.004  1.00  0.00    -0.345 N 
ATOM     84  C   UNL     1       2.077  -6.627  -6.429  1.00  0.00     0.279 C 
ATOM     85  H   UNL     1       1.931  -5.221  -7.805  1.00  0.00     0.164 HD
ATOM     86  O   UNL     1       3.162  -6.959  -6.924  1.00  0.00    -0.268 OA
BRANCH  84  87
ATOM     87  C   UNL     1       1.551  -7.346  -5.168  1.00  0.00     0.283 C 
ATOM     88  C   UNL     1       1.942  -8.833  -5.181  1.00  0.00     0.150 C 
ATOM     89  N   UNL     1       0.084  -7.274  -4.953  1.00  0.00    -0.327 N 
ATOM     90  S   UNL     1       0.488  -9.707  -5.839  1.00  0.00    -0.096 SA
ATOM     91  C   UNL     1      -0.520  -8.222  -5.887  1.00  0.00     0.333 C 
ATOM     92  H   UNL     1      -0.254  -6.330  -5.142  1.00  0.00     0.347 HD
ATOM     93  H   UNL     1      -0.160  -7.501  -3.989  1.00  0.00     0.347 HD
ENDBRANCH  84  87
ENDBRANCH  82  83
ENDBRANCH  75  78
ENDBRANCH  73  74
ENDBRANCH  72  73
ENDBRANCH   1  72
TORSDOF 16
