REMARK SMILES O=C(NCCCCNC(=O)[C@@H]1[C@H](C(=O)NCc2ccccc2Cl)[C@@H]2C=C[C@H]1C2)c1ccc(-c2c3nc(c(-c4cccc(S(=O)(=O)[O-])c4F)c4ccc([nH]4)c(-c4cccc(S(=O)(=O)[O-])c4F)c4nc(c(-c5cccc(S(=O)(=O)[O-])c5F)c5ccc2[nH]5)C=C4)C=C3)cc1
REMARK SMILES IDX 5 1 4 2 3 3 1 4 2 5 29 7 30 8 91 9 31 10 90 11 32 12 33 13
REMARK SMILES IDX 34 14 84 15 35 16 89 17 83 18 85 19 36 20 88 21 82 22 81 23
REMARK SMILES IDX 37 25 69 26 49 27 68 28 50 29 53 30 67 31 86 32 51 33 52 34
REMARK SMILES IDX 66 36 87 37 54 38 38 39 39 40 47 41 40 42 42 43 48 44 41 45
REMARK SMILES IDX 43 46 44 47 45 48 46 49 70 50 71 51 79 52 72 53 74 54 80 55
REMARK SMILES IDX 73 56 75 57 76 58 77 59 78 60 55 61 56 62 64 63 57 64 59 65
REMARK SMILES IDX 65 66 58 67 60 68 61 69 62 70 63 71 6 72 7 73 8 74 9 75
REMARK SMILES IDX 10 77 11 78 12 79 27 80 24 81 26 82 28 83 25 84 13 85 14 86
REMARK SMILES IDX 15 87 16 89 17 90 18 91 22 92 19 93 21 94 23 95 20 96
REMARK H PARENT 3 6 85 24 53 35 8 76 15 88
REMARK Flexibility Score: inf
ROOT
ATOM      1  C   UNL     1       4.919   2.548   0.736  1.00  0.00     0.023 C 
ENDROOT
BRANCH   1   2
ATOM      2  C   UNL     1       4.507   1.096   0.913  1.00  0.00     0.116 C 
BRANCH   2   3
ATOM      3  N   UNL     1       3.068   0.905   0.832  1.00  0.00    -0.352 N 
ATOM      4  O   UNL     1       1.125   0.162  -0.022  1.00  0.00    -0.269 OA
ATOM      5  C   UNL     1       2.344   0.065   0.017  1.00  0.00     0.251 C 
ATOM      6  H   UNL     1       2.535   1.457   1.449  1.00  0.00     0.163 HD
BRANCH   5   7
ATOM      7  C   UNL     1       3.051  -0.933  -0.817  1.00  0.00     0.039 A 
ATOM      8  C   UNL     1       4.109  -1.677  -0.289  1.00  0.00     0.014 A 
ATOM      9  C   UNL     1       2.637  -1.140  -2.135  1.00  0.00     0.014 A 
ATOM     10  C   UNL     1       4.837  -2.527  -1.111  1.00  0.00     0.010 A 
ATOM     11  C   UNL     1       3.311  -2.068  -2.935  1.00  0.00     0.010 A 
ATOM     12  C   UNL     1       4.424  -2.759  -2.433  1.00  0.00    -0.014 A 
BRANCH  12  13
ATOM     13  C   UNL     1       5.080  -3.837  -3.212  1.00  0.00     0.031 A 
ATOM     14  C   UNL     1       5.842  -3.553  -4.474  1.00  0.00     0.074 A 
ATOM     15  C   UNL     1       4.946  -5.103  -2.765  1.00  0.00     0.049 A 
ATOM     16  N   UNL     1       6.460  -4.396  -5.260  1.00  0.00    -0.248 NA
ATOM     17  C   UNL     1       5.920  -2.152  -4.919  1.00  0.00     0.031 C 
ATOM     18  C   UNL     1       4.179  -5.498  -1.578  1.00  0.00     0.029 A 
ATOM     19  N   UNL     1       5.427  -6.289  -3.255  1.00  0.00    -0.354 N 
ATOM     20  C   UNL     1       6.961  -3.642  -6.314  1.00  0.00     0.074 A 
ATOM     21  C   UNL     1       6.585  -2.267  -6.063  1.00  0.00     0.031 C 
ATOM     22  C   UNL     1       4.245  -6.827  -1.431  1.00  0.00     0.029 A 
ATOM     23  C   UNL     1       5.001  -7.386  -2.542  1.00  0.00     0.049 A 
ATOM     24  H   UNL     1       6.019  -6.350  -4.039  1.00  0.00     0.167 HD
ATOM     25  C   UNL     1       7.671  -4.065  -7.387  1.00  0.00     0.034 A 
ATOM     26  C   UNL     1       5.162  -8.702  -2.777  1.00  0.00     0.034 A 
ATOM     27  C   UNL     1       8.068  -5.432  -7.606  1.00  0.00     0.049 A 
ATOM     28  C   UNL     1       5.961  -9.129  -3.973  1.00  0.00     0.074 A 
ATOM     29  C   UNL     1       8.884  -5.938  -8.604  1.00  0.00     0.029 A 
ATOM     30  N   UNL     1       7.658  -6.511  -6.840  1.00  0.00    -0.354 N 
ATOM     31  N   UNL     1       6.581  -8.385  -4.856  1.00  0.00    -0.248 NA
ATOM     32  C   UNL     1       6.102 -10.574  -4.194  1.00  0.00     0.031 C 
ATOM     33  C   UNL     1       8.933  -7.328  -8.466  1.00  0.00     0.029 A 
ATOM     34  C   UNL     1       8.173  -7.686  -7.364  1.00  0.00     0.049 A 
ATOM     35  H   UNL     1       7.086  -6.453  -6.041  1.00  0.00     0.167 HD
ATOM     36  C   UNL     1       7.196  -9.271  -5.731  1.00  0.00     0.074 A 
ATOM     37  C   UNL     1       6.908 -10.605  -5.246  1.00  0.00     0.031 C 
ATOM     38  C   UNL     1       7.911  -9.004  -6.851  1.00  0.00     0.034 A 
BRANCH  25  39
ATOM     39  C   UNL     1       8.101  -3.050  -8.414  1.00  0.00     0.023 A 
ATOM     40  C   UNL     1       9.181  -2.189  -8.137  1.00  0.00     0.012 A 
ATOM     41  C   UNL     1       7.524  -3.047  -9.700  1.00  0.00     0.148 A 
ATOM     42  C   UNL     1       9.674  -1.333  -9.122  1.00  0.00     0.002 A 
ATOM     43  C   UNL     1       8.045  -2.220 -10.687  1.00  0.00     0.091 A 
ATOM     44  F   UNL     1       6.488  -3.865  -9.935  1.00  0.00    -0.205 F 
ATOM     45  C   UNL     1       9.116  -1.359 -10.398  1.00  0.00     0.022 A 
BRANCH  43  46
ATOM     46  S   UNL     1       7.452  -2.234 -12.383  1.00  0.00     0.127 S 
ATOM     47  O   UNL     1       6.867  -0.899 -12.501  1.00  0.00    -0.237 OA
ATOM     48  O   UNL     1       8.691  -2.425 -13.138  1.00  0.00    -0.237 OA
ATOM     49  O   UNL     1       6.505  -3.336 -12.472  1.00  0.00    -0.744 OA
ENDBRANCH  43  46
ENDBRANCH  25  39
BRANCH  26  50
ATOM     50  C   UNL     1       4.544  -9.702  -1.864  1.00  0.00     0.023 A 
ATOM     51  C   UNL     1       5.364 -10.527  -1.071  1.00  0.00     0.012 A 
ATOM     52  C   UNL     1       3.144  -9.825  -1.763  1.00  0.00     0.148 A 
ATOM     53  C   UNL     1       4.801 -11.480  -0.222  1.00  0.00     0.002 A 
ATOM     54  C   UNL     1       2.590 -10.731  -0.868  1.00  0.00     0.091 A 
ATOM     55  F   UNL     1       2.378  -9.044  -2.539  1.00  0.00    -0.205 F 
ATOM     56  C   UNL     1       3.416 -11.574  -0.112  1.00  0.00     0.022 A 
BRANCH  54  57
ATOM     57  S   UNL     1       0.821 -10.802  -0.563  1.00  0.00     0.127 S 
ATOM     58  O   UNL     1       0.434 -11.987  -1.321  1.00  0.00    -0.237 OA
ATOM     59  O   UNL     1       0.767 -10.955   0.892  1.00  0.00    -0.237 OA
ATOM     60  O   UNL     1       0.296  -9.531  -1.046  1.00  0.00    -0.744 OA
ENDBRANCH  54  57
ENDBRANCH  26  50
BRANCH  38  61
ATOM     61  C   UNL     1       8.439 -10.180  -7.628  1.00  0.00     0.023 A 
ATOM     62  C   UNL     1       7.547 -10.974  -8.376  1.00  0.00     0.012 A 
ATOM     63  C   UNL     1       9.818 -10.458  -7.669  1.00  0.00     0.148 A 
ATOM     64  C   UNL     1       8.017 -12.049  -9.128  1.00  0.00     0.002 A 
ATOM     65  C   UNL     1      10.285 -11.500  -8.461  1.00  0.00     0.091 A 
ATOM     66  F   UNL     1      10.646  -9.700  -6.936  1.00  0.00    -0.205 F 
ATOM     67  C   UNL     1       9.385 -12.304  -9.181  1.00  0.00     0.022 A 
BRANCH  65  68
ATOM     68  S   UNL     1      12.035 -11.850  -8.665  1.00  0.00     0.127 S 
ATOM     69  O   UNL     1      12.165 -13.131  -7.973  1.00  0.00    -0.237 OA
ATOM     70  O   UNL     1      12.167 -11.925 -10.120  1.00  0.00    -0.237 OA
ATOM     71  O   UNL     1      12.743 -10.736  -8.048  1.00  0.00    -0.744 OA
ENDBRANCH  65  68
ENDBRANCH  38  61
ENDBRANCH  12  13
ENDBRANCH   5   7
ENDBRANCH   2   3
ENDBRANCH   1   2
BRANCH   1  72
ATOM     72  C   UNL     1       4.331   3.508   1.763  1.00  0.00     0.023 C 
BRANCH  72  73
ATOM     73  C   UNL     1       4.615   3.172   3.225  1.00  0.00     0.116 C 
BRANCH  73  74
ATOM     74  N   UNL     1       6.030   3.106   3.566  1.00  0.00    -0.356 N 
ATOM     75  C   UNL     1       6.749   3.881   4.441  1.00  0.00     0.224 C 
ATOM     76  H   UNL     1       6.544   2.406   3.103  1.00  0.00     0.163 HD
ATOM     77  O   UNL     1       7.853   3.496   4.817  1.00  0.00    -0.275 OA
BRANCH  75  78
ATOM     78  C   UNL     1       6.119   5.152   4.952  1.00  0.00     0.098 C 
ATOM     79  C   UNL     1       5.903   6.321   3.953  1.00  0.00     0.098 C 
ATOM     80  C   UNL     1       6.762   5.864   6.175  1.00  0.00     0.025 C 
ATOM     81  C   UNL     1       6.287   7.570   4.792  1.00  0.00     0.025 C 
ATOM     82  C   UNL     1       8.054   6.576   5.855  1.00  0.00    -0.027 C 
ATOM     83  C   UNL     1       5.867   7.117   6.206  1.00  0.00     0.017 C 
ATOM     84  C   UNL     1       7.767   7.608   5.045  1.00  0.00    -0.027 C 
BRANCH  79  85
ATOM     85  C   UNL     1       6.381   6.280   2.495  1.00  0.00     0.224 C 
ATOM     86  O   UNL     1       5.622   6.736   1.627  1.00  0.00    -0.275 OA
ATOM     87  N   UNL     1       7.557   5.774   2.041  1.00  0.00    -0.352 N 
ATOM     88  H   UNL     1       7.521   5.333   1.161  1.00  0.00     0.163 HD
BRANCH  87  89
ATOM     89  C   UNL     1       8.854   5.799   2.679  1.00  0.00     0.153 C 
BRANCH  89  90
ATOM     90  C   UNL     1       9.829   4.703   2.330  1.00  0.00    -0.010 A 
ATOM     91  C   UNL     1       9.377   3.402   2.058  1.00  0.00     0.007 A 
ATOM     92  C   UNL     1      11.210   4.891   2.531  1.00  0.00     0.046 A 
ATOM     93  C   UNL     1      10.260   2.318   2.054  1.00  0.00     0.000 A 
ATOM     94  C   UNL     1      12.095   3.809   2.506  1.00  0.00     0.021 A 
ATOM     95  Cl  UNL     1      11.884   6.448   2.880  1.00  0.00    -0.084 Cl
ATOM     96  C   UNL     1      11.616   2.520   2.292  1.00  0.00     0.002 A 
ENDBRANCH  89  90
ENDBRANCH  87  89
ENDBRANCH  79  85
ENDBRANCH  75  78
ENDBRANCH  73  74
ENDBRANCH  72  73
ENDBRANCH   1  72
TORSDOF 17
