REMARK SMILES C[C@@H]1CCC[C@H]1NC(=O)c1csc(/C=C/C(=O)NCCCCNC(=O)c2ccc(-c3c4nc(c(-c5cccc(S(=O)(=O)[O-])c5F)c5ccc([nH]5)c(-c5cccc(S(=O)(=O)[O-])c5F)c5nc(c(-c6cccc(S(=O)(=O)[O-])c6F)c6ccc3[nH]6)C=C5)C=C4)cc2)c1
REMARK SMILES IDX 20 1 19 2 18 3 16 4 17 5 15 7 14 8 13 9 10 10 11 11 89 12
REMARK SMILES IDX 12 13 8 14 7 15 9 17 6 18 1 19 2 20 3 21 4 22 5 23 21 24
REMARK SMILES IDX 22 25 23 26 24 27 25 29 26 30 27 31 88 32 28 33 87 34 29 35
REMARK SMILES IDX 30 36 31 37 81 38 32 39 86 40 80 41 82 42 33 43 85 44 79 45
REMARK SMILES IDX 78 46 34 48 66 49 46 50 65 51 47 52 50 53 64 54 83 55 48 56
REMARK SMILES IDX 49 57 63 59 84 60 51 61 35 62 36 63 44 64 37 65 39 66 45 67
REMARK SMILES IDX 38 68 40 69 41 70 42 71 43 72 67 73 68 74 76 75 69 76 71 77
REMARK SMILES IDX 77 78 70 79 72 80 73 81 74 82 75 83 52 84 53 85 61 86 54 87
REMARK SMILES IDX 56 88 62 89 55 90 57 91 58 92 59 93 60 94
REMARK H PARENT 18 6 7 16 23 28 82 47 50 58
REMARK Flexibility Score: inf
ROOT
ATOM      1  C   UNL     1       5.110   6.950   4.642  1.00  0.00     0.023 C 
ENDROOT
BRANCH   1   2
ATOM      2  C   UNL     1       4.035   7.967   4.255  1.00  0.00     0.116 C 
BRANCH   2   3
ATOM      3  N   UNL     1       4.423   8.693   3.058  1.00  0.00    -0.353 N 
ATOM      4  C   UNL     1       3.966   8.613   1.779  1.00  0.00     0.244 C 
ATOM      5  O   UNL     1       4.405   9.376   0.922  1.00  0.00    -0.270 OA
ATOM      6  H   UNL     1       5.138   9.355   3.195  1.00  0.00     0.163 HD
BRANCH   4   7
ATOM      7  C   UNL     1       2.869   7.687   1.420  1.00  0.00     0.072 C 
ATOM      8  C   UNL     1       2.811   6.406   1.807  1.00  0.00     0.024 C 
BRANCH   8   9
ATOM      9  C   UNL     1       1.707   5.552   1.530  1.00  0.00     0.028 A 
ATOM     10  C   UNL     1       0.163   3.784   1.774  1.00  0.00     0.051 A 
ATOM     11  C   UNL     1      -0.209   4.321   0.558  1.00  0.00     0.079 A 
ATOM     12  C   UNL     1       1.229   4.545   2.350  1.00  0.00     0.033 A 
ATOM     13  S   UNL     1       0.791   5.620   0.079  1.00  0.00    -0.144 S 
BRANCH  10  14
ATOM     14  C   UNL     1      -0.465   2.642   2.423  1.00  0.00     0.252 C 
ATOM     15  N   UNL     1      -0.582   1.463   1.732  1.00  0.00    -0.349 N 
ATOM     16  H   UNL     1      -1.069   0.749   2.203  1.00  0.00     0.164 HD
ATOM     17  O   UNL     1      -0.840   2.687   3.591  1.00  0.00    -0.269 OA
BRANCH  15  18
ATOM     18  C   UNL     1      -0.092   1.109   0.404  1.00  0.00     0.085 C 
ATOM     19  C   UNL     1       1.780  -0.145  -0.752  1.00  0.00     0.010 C 
ATOM     20  C   UNL     1       0.841  -0.108   0.456  1.00  0.00     0.008 C 
ATOM     21  C   UNL     1      -0.126  -1.291   0.459  1.00  0.00     0.005 C 
ATOM     22  C   UNL     1      -1.298  -0.859  -0.416  1.00  0.00     0.002 C 
ATOM     23  C   UNL     1      -1.260   0.669  -0.481  1.00  0.00     0.025 C 
ENDBRANCH  15  18
ENDBRANCH  10  14
ENDBRANCH   8   9
ENDBRANCH   4   7
ENDBRANCH   2   3
ENDBRANCH   1   2
BRANCH   1  24
ATOM     24  C   UNL     1       6.320   7.564   5.350  1.00  0.00     0.023 C 
BRANCH  24  25
ATOM     25  C   UNL     1       6.005   8.247   6.675  1.00  0.00     0.116 C 
BRANCH  25  26
ATOM     26  N   UNL     1       5.373   7.361   7.643  1.00  0.00    -0.352 N 
ATOM     27  C   UNL     1       5.526   7.349   9.008  1.00  0.00     0.251 C 
ATOM     28  H   UNL     1       4.760   6.686   7.272  1.00  0.00     0.163 HD
ATOM     29  O   UNL     1       5.018   6.459   9.682  1.00  0.00    -0.269 OA
BRANCH  27  30
ATOM     30  C   UNL     1       6.340   8.403   9.647  1.00  0.00     0.039 A 
ATOM     31  C   UNL     1       7.332   8.036  10.558  1.00  0.00     0.014 A 
ATOM     32  C   UNL     1       6.149   9.745   9.308  1.00  0.00     0.014 A 
ATOM     33  C   UNL     1       8.172   9.016  11.090  1.00  0.00     0.010 A 
ATOM     34  C   UNL     1       7.040  10.705   9.773  1.00  0.00     0.010 A 
ATOM     35  C   UNL     1       8.051  10.354  10.680  1.00  0.00    -0.014 A 
BRANCH  35  36
ATOM     36  C   UNL     1       8.956  11.408  11.203  1.00  0.00     0.031 A 
ATOM     37  C   UNL     1       8.390  12.557  11.995  1.00  0.00     0.074 A 
ATOM     38  C   UNL     1      10.269  11.376  10.901  1.00  0.00     0.049 A 
ATOM     39  N   UNL     1       9.005  13.600  12.489  1.00  0.00    -0.248 NA
ATOM     40  C   UNL     1       6.937  12.549  12.237  1.00  0.00     0.031 C 
ATOM     41  C   UNL     1      10.925  10.357  10.079  1.00  0.00     0.029 A 
ATOM     42  N   UNL     1      11.284  12.238  11.233  1.00  0.00    -0.354 N 
ATOM     43  C   UNL     1       8.013  14.386  13.065  1.00  0.00     0.074 A 
ATOM     44  C   UNL     1       6.752  13.724  12.818  1.00  0.00     0.031 C 
ATOM     45  C   UNL     1      12.233  10.645   9.982  1.00  0.00     0.029 A 
ATOM     46  C   UNL     1      12.504  11.883  10.705  1.00  0.00     0.049 A 
ATOM     47  H   UNL     1      11.152  13.034  11.796  1.00  0.00     0.167 HD
ATOM     48  C   UNL     1       8.141  15.537  13.766  1.00  0.00     0.034 A 
ATOM     49  C   UNL     1      13.704  12.490  10.792  1.00  0.00     0.034 A 
ATOM     50  C   UNL     1       9.401  16.172  14.041  1.00  0.00     0.049 A 
ATOM     51  C   UNL     1      13.826  13.751  11.604  1.00  0.00     0.074 A 
ATOM     52  C   UNL     1       9.649  17.299  14.804  1.00  0.00     0.029 A 
ATOM     53  N   UNL     1      10.626  15.738  13.558  1.00  0.00    -0.354 N 
ATOM     54  N   UNL     1      12.898  14.403  12.262  1.00  0.00    -0.248 NA
ATOM     55  C   UNL     1      15.168  14.338  11.720  1.00  0.00     0.031 C 
ATOM     56  C   UNL     1      11.021  17.564  14.758  1.00  0.00     0.029 A 
ATOM     57  C   UNL     1      11.633  16.577  14.002  1.00  0.00     0.049 A 
ATOM     58  H   UNL     1      10.759  14.950  12.983  1.00  0.00     0.167 HD
ATOM     59  C   UNL     1      13.551  15.446  12.910  1.00  0.00     0.074 A 
ATOM     60  C   UNL     1      14.955  15.331  12.574  1.00  0.00     0.031 C 
ATOM     61  C   UNL     1      13.034  16.415  13.706  1.00  0.00     0.034 A 
BRANCH  48  62
ATOM     62  C   UNL     1       6.884  16.157  14.322  1.00  0.00     0.023 A 
ATOM     63  C   UNL     1       6.189  15.511  15.366  1.00  0.00     0.012 A 
ATOM     64  C   UNL     1       6.411  17.394  13.842  1.00  0.00     0.148 A 
ATOM     65  C   UNL     1       5.019  16.059  15.889  1.00  0.00     0.002 A 
ATOM     66  C   UNL     1       5.273  17.960  14.405  1.00  0.00     0.091 A 
ATOM     67  F   UNL     1       7.071  17.985  12.837  1.00  0.00    -0.205 F 
ATOM     68  C   UNL     1       4.567  17.288  15.416  1.00  0.00     0.022 A 
BRANCH  66  69
ATOM     69  S   UNL     1       4.657  19.578  13.925  1.00  0.00     0.127 S 
ATOM     70  O   UNL     1       3.428  19.227  13.215  1.00  0.00    -0.237 OA
ATOM     71  O   UNL     1       4.449  20.224  15.222  1.00  0.00    -0.237 OA
ATOM     72  O   UNL     1       5.702  20.179  13.108  1.00  0.00    -0.744 OA
ENDBRANCH  66  69
ENDBRANCH  48  62
BRANCH  49  73
ATOM     73  C   UNL     1      14.902  11.873  10.155  1.00  0.00     0.023 A 
ATOM     74  C   UNL     1      15.911  11.321  10.969  1.00  0.00     0.012 A 
ATOM     75  C   UNL     1      15.040  11.812   8.755  1.00  0.00     0.148 A 
ATOM     76  C   UNL     1      17.053  10.754  10.403  1.00  0.00     0.002 A 
ATOM     77  C   UNL     1      16.155  11.196   8.196  1.00  0.00     0.091 A 
ATOM     78  F   UNL     1      14.073  12.347   7.998  1.00  0.00    -0.205 F 
ATOM     79  C   UNL     1      17.171  10.684   9.018  1.00  0.00     0.022 A 
BRANCH  77  80
ATOM     80  S   UNL     1      16.335  10.946   6.427  1.00  0.00     0.127 S 
ATOM     81  O   UNL     1      17.454  11.830   6.112  1.00  0.00    -0.237 OA
ATOM     82  O   UNL     1      16.639   9.517   6.356  1.00  0.00    -0.237 OA
ATOM     83  O   UNL     1      15.054  11.319   5.843  1.00  0.00    -0.744 OA
ENDBRANCH  77  80
ENDBRANCH  49  73
BRANCH  61  84
ATOM     84  C   UNL     1      13.994  17.395  14.329  1.00  0.00     0.023 A 
ATOM     85  C   UNL     1      14.627  18.372  13.536  1.00  0.00     0.012 A 
ATOM     86  C   UNL     1      14.210  17.388  15.722  1.00  0.00     0.148 A 
ATOM     87  C   UNL     1      15.491  19.302  14.115  1.00  0.00     0.002 A 
ATOM     88  C   UNL     1      15.028  18.351  16.298  1.00  0.00     0.091 A 
ATOM     89  F   UNL     1      13.613  16.438  16.457  1.00  0.00    -0.205 F 
ATOM     90  C   UNL     1      15.681  19.300  15.495  1.00  0.00     0.022 A 
BRANCH  88  91
ATOM     91  S   UNL     1      15.248  18.487  18.075  1.00  0.00     0.127 S 
ATOM     92  O   UNL     1      16.617  18.003  18.244  1.00  0.00    -0.237 OA
ATOM     93  O   UNL     1      15.076  19.923  18.300  1.00  0.00    -0.237 OA
ATOM     94  O   UNL     1      14.212  17.655  18.673  1.00  0.00    -0.744 OA
ENDBRANCH  88  91
ENDBRANCH  61  84
ENDBRANCH  35  36
ENDBRANCH  27  30
ENDBRANCH  25  26
ENDBRANCH  24  25
ENDBRANCH   1  24
TORSDOF 17
