REMARK SMILES [NH3+]CCOCC(=O)N[C@H](C(=O)NCCCCNC(=O)c1ccc(-c2c3nc(c(-c4cccc(S(=O)(=O)[O-])c4F)c4ccc([nH]4)c(-c4cccc(S(=O)(=O)[O-])c4F)c4nc(c(-c5cccc(S(=O)(=O)[O-])c5F)c5ccc2[nH]5)C=C4)C=C3)cc1)c1ccccc1
REMARK SMILES IDX 13 1 12 2 10 3 11 4 9 6 8 7 6 8 7 9 5 11 4 12 3 13 2 14 1 15
REMARK SMILES IDX 83 19 84 20 88 21 85 22 87 23 86 24 14 25 15 26 16 27 17 28
REMARK SMILES IDX 18 29 19 31 20 32 21 33 82 34 22 35 81 36 23 37 24 38 25 39
REMARK SMILES IDX 75 40 26 41 80 42 74 43 76 44 27 45 79 46 73 47 72 48 28 50
REMARK SMILES IDX 60 51 40 52 59 53 41 54 44 55 58 56 77 57 42 58 43 59 57 61
REMARK SMILES IDX 78 62 45 63 29 64 30 65 38 66 31 67 33 68 39 69 32 70 34 71
REMARK SMILES IDX 35 72 36 73 37 74 61 75 62 76 70 77 63 78 65 79 71 80 64 81
REMARK SMILES IDX 66 82 67 83 68 84 69 85 46 86 47 87 55 88 48 89 50 90 56 91
REMARK SMILES IDX 49 92 51 93 52 94 53 95 54 96
REMARK H PARENT 12 5 8 10 1 16 1 17 1 18 17 30 76 49 44 60
REMARK Flexibility Score: inf
ROOT
ATOM      1  C   UNL     1       5.081   5.785   0.205  1.00  0.00     0.116 C 
ENDROOT
BRANCH   1   2
ATOM      2  N   UNL     1       4.833   4.435  -0.262  1.00  0.00    -0.354 N 
ATOM      3  C   UNL     1       3.632   3.891  -0.643  1.00  0.00     0.247 C 
ATOM      4  O   UNL     1       3.640   2.822  -1.258  1.00  0.00    -0.272 OA
ATOM      5  H   UNL     1       5.616   3.840  -0.312  1.00  0.00     0.163 HD
BRANCH   3   6
ATOM      6  C   UNL     1       2.308   4.678  -0.395  1.00  0.00     0.202 C 
BRANCH   6   7
ATOM      7  N   UNL     1       2.292   5.104   1.019  1.00  0.00    -0.339 N 
ATOM      8  C   UNL     1       2.346   4.357   2.155  1.00  0.00     0.246 C 
ATOM      9  O   UNL     1       2.256   4.945   3.238  1.00  0.00    -0.272 OA
ATOM     10  H   UNL     1       2.233   6.076   1.161  1.00  0.00     0.164 HD
BRANCH   8  11
ATOM     11  C   UNL     1       2.508   2.836   2.103  1.00  0.00     0.260 C 
BRANCH  11  12
ATOM     12  O   UNL     1       1.311   2.118   1.871  1.00  0.00    -0.366 OA
BRANCH  12  13
ATOM     13  C   UNL     1       0.269   2.373   2.813  1.00  0.00     0.222 C 
BRANCH  13  14
ATOM     14  C   UNL     1       0.469   1.708   4.186  1.00  0.00     0.287 C 
BRANCH  14  15
ATOM     15  N   UNL     1       1.419   2.370   5.083  1.00  0.00    -0.356 N 
ATOM     16  H   UNL     1       1.476   1.852   5.960  1.00  0.00     0.344 HD
ATOM     17  H   UNL     1       1.103   3.321   5.271  1.00  0.00     0.344 HD
ATOM     18  H   UNL     1       2.339   2.398   4.643  1.00  0.00     0.344 HD
ENDBRANCH  14  15
ENDBRANCH  13  14
ENDBRANCH  12  13
ENDBRANCH  11  12
ENDBRANCH   8  11
ENDBRANCH   6   7
BRANCH   6  19
ATOM     19  C   UNL     1       2.239   5.875  -1.369  1.00  0.00    -0.016 A 
ATOM     20  C   UNL     1       2.874   5.792  -2.627  1.00  0.00     0.006 A 
ATOM     21  C   UNL     1       1.672   7.111  -1.011  1.00  0.00     0.006 A 
ATOM     22  C   UNL     1       3.088   6.929  -3.408  1.00  0.00     0.000 A 
ATOM     23  C   UNL     1       1.888   8.250  -1.795  1.00  0.00     0.000 A 
ATOM     24  C   UNL     1       2.623   8.165  -2.975  1.00  0.00     0.000 A 
ENDBRANCH   6  19
ENDBRANCH   3   6
ENDBRANCH   1   2
BRANCH   1  25
ATOM     25  C   UNL     1       5.651   5.815   1.616  1.00  0.00     0.023 C 
BRANCH  25  26
ATOM     26  C   UNL     1       7.118   5.412   1.702  1.00  0.00     0.023 C 
BRANCH  26  27
ATOM     27  C   UNL     1       8.022   6.097   0.688  1.00  0.00     0.116 C 
BRANCH  27  28
ATOM     28  N   UNL     1       7.846   7.543   0.629  1.00  0.00    -0.352 N 
ATOM     29  C   UNL     1       8.788   8.496   0.312  1.00  0.00     0.251 C 
ATOM     30  H   UNL     1       6.945   7.879   0.842  1.00  0.00     0.163 HD
ATOM     31  O   UNL     1       8.524   9.683   0.358  1.00  0.00    -0.269 OA
BRANCH  29  32
ATOM     32  C   UNL     1      10.141   8.026  -0.040  1.00  0.00     0.039 A 
ATOM     33  C   UNL     1      11.224   8.489   0.706  1.00  0.00     0.014 A 
ATOM     34  C   UNL     1      10.305   7.050  -1.025  1.00  0.00     0.014 A 
ATOM     35  C   UNL     1      12.481   7.924   0.496  1.00  0.00     0.010 A 
ATOM     36  C   UNL     1      11.537   6.428  -1.167  1.00  0.00     0.010 A 
ATOM     37  C   UNL     1      12.639   6.870  -0.420  1.00  0.00    -0.014 A 
BRANCH  37  38
ATOM     38  C   UNL     1      13.960   6.231  -0.626  1.00  0.00     0.031 A 
ATOM     39  C   UNL     1      14.627   6.316  -1.971  1.00  0.00     0.074 A 
ATOM     40  C   UNL     1      14.519   5.517   0.370  1.00  0.00     0.049 A 
ATOM     41  N   UNL     1      15.772   5.818  -2.354  1.00  0.00    -0.248 NA
ATOM     42  C   UNL     1      13.896   7.023  -3.037  1.00  0.00     0.031 C 
ATOM     43  C   UNL     1      13.917   5.276   1.684  1.00  0.00     0.029 A 
ATOM     44  N   UNL     1      15.715   4.848   0.426  1.00  0.00    -0.354 N 
ATOM     45  C   UNL     1      15.880   6.116  -3.707  1.00  0.00     0.074 A 
ATOM     46  C   UNL     1      14.663   6.794  -4.091  1.00  0.00     0.031 C 
ATOM     47  C   UNL     1      14.753   4.527   2.421  1.00  0.00     0.029 A 
ATOM     48  C   UNL     1      15.942   4.223   1.630  1.00  0.00     0.049 A 
ATOM     49  H   UNL     1      16.350   4.817  -0.325  1.00  0.00     0.167 HD
ATOM     50  C   UNL     1      16.916   5.886  -4.545  1.00  0.00     0.034 A 
ATOM     51  C   UNL     1      16.998   3.500   2.050  1.00  0.00     0.034 A 
ATOM     52  C   UNL     1      18.149   5.271  -4.139  1.00  0.00     0.049 A 
ATOM     53  C   UNL     1      18.176   3.337   1.127  1.00  0.00     0.074 A 
ATOM     54  C   UNL     1      19.302   5.080  -4.878  1.00  0.00     0.029 A 
ATOM     55  N   UNL     1      18.390   4.751  -2.877  1.00  0.00    -0.354 N 
ATOM     56  N   UNL     1      18.334   3.782  -0.096  1.00  0.00    -0.248 NA
ATOM     57  C   UNL     1      19.341   2.614   1.657  1.00  0.00     0.031 C 
ATOM     58  C   UNL     1      20.238   4.435  -4.064  1.00  0.00     0.029 A 
ATOM     59  C   UNL     1      19.673   4.239  -2.813  1.00  0.00     0.049 A 
ATOM     60  H   UNL     1      17.743   4.747  -2.135  1.00  0.00     0.167 HD
ATOM     61  C   UNL     1      19.624   3.425  -0.470  1.00  0.00     0.074 A 
ATOM     62  C   UNL     1      20.214   2.748   0.668  1.00  0.00     0.031 C 
ATOM     63  C   UNL     1      20.259   3.622  -1.651  1.00  0.00     0.034 A 
BRANCH  50  64
ATOM     64  C   UNL     1      16.784   6.372  -5.964  1.00  0.00     0.023 A 
ATOM     65  C   UNL     1      16.816   7.758  -6.228  1.00  0.00     0.012 A 
ATOM     66  C   UNL     1      16.663   5.468  -7.037  1.00  0.00     0.148 A 
ATOM     67  C   UNL     1      16.692   8.238  -7.530  1.00  0.00     0.002 A 
ATOM     68  C   UNL     1      16.585   5.953  -8.338  1.00  0.00     0.091 A 
ATOM     69  F   UNL     1      16.607   4.156  -6.766  1.00  0.00    -0.205 F 
ATOM     70  C   UNL     1      16.587   7.336  -8.585  1.00  0.00     0.022 A 
BRANCH  68  71
ATOM     71  S   UNL     1      16.524   4.872  -9.771  1.00  0.00     0.127 S 
ATOM     72  O   UNL     1      15.136   5.033 -10.202  1.00  0.00    -0.237 OA
ATOM     73  O   UNL     1      17.513   5.484 -10.660  1.00  0.00    -0.237 OA
ATOM     74  O   UNL     1      16.882   3.546  -9.288  1.00  0.00    -0.744 OA
ENDBRANCH  68  71
ENDBRANCH  50  64
BRANCH  51  75
ATOM     75  C   UNL     1      17.032   2.967   3.442  1.00  0.00     0.023 A 
ATOM     76  C   UNL     1      17.909   3.546   4.380  1.00  0.00     0.012 A 
ATOM     77  C   UNL     1      16.184   1.919   3.850  1.00  0.00     0.148 A 
ATOM     78  C   UNL     1      17.966   3.069   5.690  1.00  0.00     0.002 A 
ATOM     79  C   UNL     1      16.209   1.484   5.171  1.00  0.00     0.091 A 
ATOM     80  F   UNL     1      15.364   1.374   2.941  1.00  0.00    -0.205 F 
ATOM     81  C   UNL     1      17.110   2.046   6.088  1.00  0.00     0.022 A 
BRANCH  79  82
ATOM     82  S   UNL     1      15.051   0.264   5.801  1.00  0.00     0.127 S 
ATOM     83  O   UNL     1      15.904  -0.913   5.942  1.00  0.00    -0.237 OA
ATOM     84  O   UNL     1      14.625   0.871   7.062  1.00  0.00    -0.237 OA
ATOM     85  O   UNL     1      13.999   0.171   4.798  1.00  0.00    -0.744 OA
ENDBRANCH  79  82
ENDBRANCH  51  75
BRANCH  63  86
ATOM     86  C   UNL     1      21.676   3.127  -1.770  1.00  0.00     0.023 A 
ATOM     87  C   UNL     1      21.926   1.745  -1.873  1.00  0.00     0.012 A 
ATOM     88  C   UNL     1      22.750   4.034  -1.853  1.00  0.00     0.148 A 
ATOM     89  C   UNL     1      23.228   1.270  -2.022  1.00  0.00     0.002 A 
ATOM     90  C   UNL     1      24.040   3.556  -2.050  1.00  0.00     0.091 A 
ATOM     91  F   UNL     1      22.495   5.345  -1.731  1.00  0.00    -0.205 F 
ATOM     92  C   UNL     1      24.282   2.175  -2.123  1.00  0.00     0.022 A 
BRANCH  90  93
ATOM     93  S   UNL     1      25.439   4.657  -2.288  1.00  0.00     0.127 S 
ATOM     94  O   UNL     1      26.083   4.610  -0.977  1.00  0.00    -0.237 OA
ATOM     95  O   UNL     1      26.184   3.993  -3.358  1.00  0.00    -0.237 OA
ATOM     96  O   UNL     1      24.869   5.944  -2.665  1.00  0.00    -0.744 OA
ENDBRANCH  90  93
ENDBRANCH  63  86
ENDBRANCH  37  38
ENDBRANCH  29  32
ENDBRANCH  27  28
ENDBRANCH  26  27
ENDBRANCH  25  26
ENDBRANCH   1  25
TORSDOF 21
