REMARK SMILES O=C(NCCCCNC(=O)c1ccc(-c2c3nc(c(-c4cccc(S(=O)(=O)[O-])c4F)c4ccc([nH]4)c(-c4cccc(S(=O)(=O)[O-])c4F)c4nc(c(-c5cccc(S(=O)(=O)[O-])c5F)c5ccc2[nH]5)C=C4)C=C3)cc1)C1=C(C(=O)NCCC2=CCCCC2)CCCC1
REMARK SMILES IDX 5 1 4 2 3 3 1 4 2 5 74 7 75 8 90 9 87 10 89 11 88 12 76 13
REMARK SMILES IDX 77 14 78 15 79 17 80 18 81 19 82 20 86 21 83 22 85 23 84 24
REMARK SMILES IDX 6 25 7 26 8 27 9 28 10 30 11 31 12 32 73 33 13 34 72 35
REMARK SMILES IDX 14 36 15 37 16 38 66 39 17 40 71 41 65 42 67 43 18 44 70 45
REMARK SMILES IDX 64 46 63 47 19 49 51 50 31 51 50 52 32 53 35 54 49 55 68 56
REMARK SMILES IDX 33 57 34 58 48 60 69 61 36 62 20 63 21 64 29 65 22 66 24 67
REMARK SMILES IDX 30 68 23 69 25 70 26 71 27 72 28 73 52 74 53 75 61 76 54 77
REMARK SMILES IDX 56 78 62 79 55 80 57 81 58 82 59 83 60 84 37 85 38 86 46 87
REMARK SMILES IDX 39 88 41 89 47 90 40 91 42 92 43 93 44 94 45 95
REMARK H PARENT 3 6 78 16 8 29 67 48 35 59
REMARK Flexibility Score: inf
ROOT
ATOM      1  C   UNL     1       5.430   1.620  -2.347  1.00  0.00     0.023 C 
ENDROOT
BRANCH   1   2
ATOM      2  C   UNL     1       4.829   0.710  -1.279  1.00  0.00     0.116 C 
BRANCH   2   3
ATOM      3  N   UNL     1       3.429   0.420  -1.526  1.00  0.00    -0.352 N 
ATOM      4  O   UNL     1       1.472  -0.660  -1.393  1.00  0.00    -0.270 OA
ATOM      5  C   UNL     1       2.641  -0.566  -1.025  1.00  0.00     0.247 C 
ATOM      6  H   UNL     1       2.981   1.033  -2.153  1.00  0.00     0.163 HD
BRANCH   5   7
ATOM      7  C   UNL     1       3.204  -1.578  -0.094  1.00  0.00     0.026 C 
ATOM      8  C   UNL     1       3.845  -1.323   1.067  1.00  0.00     0.026 C 
ATOM      9  C   UNL     1       2.923  -2.986  -0.583  1.00  0.00     0.042 C 
ATOM     10  C   UNL     1       4.609  -2.434   1.775  1.00  0.00     0.042 C 
ATOM     11  C   UNL     1       3.404  -4.090   0.356  1.00  0.00     0.005 C 
ATOM     12  C   UNL     1       4.749  -3.715   0.948  1.00  0.00     0.005 C 
BRANCH   8  13
ATOM     13  C   UNL     1       4.010  -0.000   1.759  1.00  0.00     0.247 C 
ATOM     14  O   UNL     1       5.096   0.274   2.274  1.00  0.00    -0.270 OA
ATOM     15  N   UNL     1       2.983   0.875   1.928  1.00  0.00    -0.352 N 
ATOM     16  H   UNL     1       3.177   1.617   2.546  1.00  0.00     0.163 HD
BRANCH  15  17
ATOM     17  C   UNL     1       1.650   0.902   1.354  1.00  0.00     0.120 C 
BRANCH  17  18
ATOM     18  C   UNL     1       0.640   1.771   2.105  1.00  0.00     0.052 C 
BRANCH  18  19
ATOM     19  C   UNL     1       0.999   3.235   2.271  1.00  0.00    -0.072 C 
ATOM     20  C   UNL     1       0.971   3.809   3.488  1.00  0.00    -0.028 C 
ATOM     21  C   UNL     1       1.281   4.048   1.022  1.00  0.00     0.031 C 
ATOM     22  C   UNL     1       1.147   5.281   3.726  1.00  0.00     0.027 C 
ATOM     23  C   UNL     1       1.789   5.466   1.307  1.00  0.00     0.005 C 
ATOM     24  C   UNL     1       1.016   6.111   2.450  1.00  0.00     0.004 C 
ENDBRANCH  18  19
ENDBRANCH  17  18
ENDBRANCH  15  17
ENDBRANCH   8  13
ENDBRANCH   5   7
ENDBRANCH   2   3
ENDBRANCH   1   2
BRANCH   1  25
ATOM     25  C   UNL     1       4.837   3.035  -2.390  1.00  0.00     0.023 C 
BRANCH  25  26
ATOM     26  C   UNL     1       5.022   3.858  -1.115  1.00  0.00     0.116 C 
BRANCH  26  27
ATOM     27  N   UNL     1       6.425   4.109  -0.820  1.00  0.00    -0.352 N 
ATOM     28  C   UNL     1       7.173   5.250  -0.975  1.00  0.00     0.251 C 
ATOM     29  H   UNL     1       6.915   3.338  -0.451  1.00  0.00     0.163 HD
ATOM     30  O   UNL     1       8.399   5.189  -0.895  1.00  0.00    -0.269 OA
BRANCH  28  31
ATOM     31  C   UNL     1       6.522   6.550  -1.249  1.00  0.00     0.039 A 
ATOM     32  C   UNL     1       7.077   7.398  -2.213  1.00  0.00     0.014 A 
ATOM     33  C   UNL     1       5.391   6.956  -0.535  1.00  0.00     0.014 A 
ATOM     34  C   UNL     1       6.458   8.616  -2.509  1.00  0.00     0.010 A 
ATOM     35  C   UNL     1       4.733   8.134  -0.884  1.00  0.00     0.010 A 
ATOM     36  C   UNL     1       5.258   8.978  -1.874  1.00  0.00    -0.014 A 
BRANCH  36  37
ATOM     37  C   UNL     1       4.524  10.212  -2.262  1.00  0.00     0.031 A 
ATOM     38  C   UNL     1       4.295  11.319  -1.269  1.00  0.00     0.074 A 
ATOM     39  C   UNL     1       3.976  10.294  -3.490  1.00  0.00     0.049 A 
ATOM     40  N   UNL     1       3.637  12.440  -1.422  1.00  0.00    -0.248 NA
ATOM     41  C   UNL     1       4.856  11.132   0.078  1.00  0.00     0.031 C 
ATOM     42  C   UNL     1       4.046   9.252  -4.516  1.00  0.00     0.029 A 
ATOM     43  N   UNL     1       3.224  11.284  -4.074  1.00  0.00    -0.354 N 
ATOM     44  C   UNL     1       3.674  13.075  -0.186  1.00  0.00     0.074 A 
ATOM     45  C   UNL     1       4.390  12.197   0.714  1.00  0.00     0.031 C 
ATOM     46  C   UNL     1       3.365   9.655  -5.600  1.00  0.00     0.029 A 
ATOM     47  C   UNL     1       2.784  10.969  -5.338  1.00  0.00     0.049 A 
ATOM     48  H   UNL     1       3.019  12.139  -3.629  1.00  0.00     0.167 HD
ATOM     49  C   UNL     1       3.182  14.289   0.162  1.00  0.00     0.034 A 
ATOM     50  C   UNL     1       1.992  11.649  -6.189  1.00  0.00     0.034 A 
ATOM     51  C   UNL     1       2.497  15.174  -0.743  1.00  0.00     0.049 A 
ATOM     52  C   UNL     1       1.488  13.010  -5.796  1.00  0.00     0.074 A 
ATOM     53  C   UNL     1       2.051  16.464  -0.514  1.00  0.00     0.029 A 
ATOM     54  N   UNL     1       2.141  14.856  -2.045  1.00  0.00    -0.354 N 
ATOM     55  N   UNL     1       1.684  13.670  -4.681  1.00  0.00    -0.248 NA
ATOM     56  C   UNL     1       0.685  13.735  -6.791  1.00  0.00     0.031 C 
ATOM     57  C   UNL     1       1.398  16.913  -1.667  1.00  0.00     0.029 A 
ATOM     58  C   UNL     1       1.464  15.916  -2.626  1.00  0.00     0.049 A 
ATOM     59  H   UNL     1       2.341  14.001  -2.492  1.00  0.00     0.167 HD
ATOM     60  C   UNL     1       1.050  14.896  -4.847  1.00  0.00     0.074 A 
ATOM     61  C   UNL     1       0.487  14.896  -6.182  1.00  0.00     0.031 C 
ATOM     62  C   UNL     1       0.934  15.922  -3.967  1.00  0.00     0.034 A 
BRANCH  49  63
ATOM     63  C   UNL     1       3.409  14.749   1.581  1.00  0.00     0.023 A 
ATOM     64  C   UNL     1       4.713  15.086   2.003  1.00  0.00     0.012 A 
ATOM     65  C   UNL     1       2.337  14.883   2.484  1.00  0.00     0.148 A 
ATOM     66  C   UNL     1       4.953  15.500   3.312  1.00  0.00     0.002 A 
ATOM     67  C   UNL     1       2.578  15.342   3.775  1.00  0.00     0.091 A 
ATOM     68  F   UNL     1       1.107  14.540   2.076  1.00  0.00    -0.205 F 
ATOM     69  C   UNL     1       3.886  15.637   4.195  1.00  0.00     0.022 A 
BRANCH  67  70
ATOM     70  S   UNL     1       1.257  15.628   4.959  1.00  0.00     0.127 S 
ATOM     71  O   UNL     1       1.414  14.485   5.857  1.00  0.00    -0.237 OA
ATOM     72  O   UNL     1       1.636  16.916   5.542  1.00  0.00    -0.237 OA
ATOM     73  O   UNL     1       0.026  15.655   4.183  1.00  0.00    -0.744 OA
ENDBRANCH  67  70
ENDBRANCH  49  63
BRANCH  50  74
ATOM     74  C   UNL     1       1.680  11.065  -7.524  1.00  0.00     0.023 A 
ATOM     75  C   UNL     1       2.271  11.615  -8.677  1.00  0.00     0.012 A 
ATOM     76  C   UNL     1       0.858   9.927  -7.646  1.00  0.00     0.148 A 
ATOM     77  C   UNL     1       2.033  11.055  -9.932  1.00  0.00     0.002 A 
ATOM     78  C   UNL     1       0.671   9.341  -8.892  1.00  0.00     0.091 A 
ATOM     79  F   UNL     1       0.300   9.426  -6.535  1.00  0.00    -0.205 F 
ATOM     80  C   UNL     1       1.245   9.912 -10.039  1.00  0.00     0.022 A 
BRANCH  78  81
ATOM     81  S   UNL     1      -0.209   7.789  -9.104  1.00  0.00     0.127 S 
ATOM     82  O   UNL     1      -1.384   8.215  -9.865  1.00  0.00    -0.237 OA
ATOM     83  O   UNL     1       0.761   6.998  -9.865  1.00  0.00    -0.237 OA
ATOM     84  O   UNL     1      -0.471   7.295  -7.765  1.00  0.00    -0.744 OA
ENDBRANCH  78  81
ENDBRANCH  50  74
BRANCH  62  85
ATOM     85  C   UNL     1       0.177  17.146  -4.418  1.00  0.00     0.023 A 
ATOM     86  C   UNL     1      -1.224  17.090  -4.555  1.00  0.00     0.012 A 
ATOM     87  C   UNL     1       0.845  18.367  -4.640  1.00  0.00     0.148 A 
ATOM     88  C   UNL     1      -1.945  18.221  -4.938  1.00  0.00     0.002 A 
ATOM     89  C   UNL     1       0.114  19.502  -4.973  1.00  0.00     0.091 A 
ATOM     90  F   UNL     1       2.180  18.396  -4.523  1.00  0.00    -0.205 F 
ATOM     91  C   UNL     1      -1.279  19.428  -5.134  1.00  0.00     0.022 A 
BRANCH  89  92
ATOM     92  S   UNL     1       0.875  21.120  -5.154  1.00  0.00     0.127 S 
ATOM     93  O   UNL     1       0.797  21.325  -6.600  1.00  0.00    -0.237 OA
ATOM     94  O   UNL     1      -0.019  21.972  -4.369  1.00  0.00    -0.237 OA
ATOM     95  O   UNL     1       2.221  20.994  -4.612  1.00  0.00    -0.744 OA
ENDBRANCH  89  92
ENDBRANCH  62  85
ENDBRANCH  36  37
ENDBRANCH  28  31
ENDBRANCH  26  27
ENDBRANCH  25  26
ENDBRANCH   1  25
TORSDOF 18
