REMARK SMILES Cc1ccc(N2C(=O)/C(=C\c3ccccc3O[C@H](C)C(=O)NCCCCNC(=O)c3ccc(-c4c5nc(c(-c6cccc(S(=O)(=O)[O-])c6F)c6ccc([nH]6)c(-c6cccc(S(=O)(=O)[O-])c6F)c6nc(c(-c7cccc(S(=O)(=O)[O-])c7F)c7ccc4[nH]7)C=C6)C=C5)cc3)SC2=S)c(C)c1
REMARK SMILES IDX 24 1 23 2 22 3 20 4 21 5 18 7 19 8 17 9 16 10 11 11 12 12
REMARK SMILES IDX 13 13 15 14 14 15 10 16 6 17 7 18 94 19 8 20 9 21 93 22
REMARK SMILES IDX 95 23 5 24 1 25 2 26 3 27 98 28 4 29 96 30 97 31 25 32 26 33
REMARK SMILES IDX 27 34 28 35 29 37 30 38 31 39 92 40 32 41 91 42 33 43 34 44
REMARK SMILES IDX 35 45 85 46 36 47 90 48 84 49 86 50 37 51 89 52 83 53 82 54
REMARK SMILES IDX 38 56 70 57 50 58 69 59 51 60 54 61 68 62 87 63 52 64 53 65
REMARK SMILES IDX 67 67 88 68 55 69 39 70 40 71 48 72 41 73 43 74 49 75 42 76
REMARK SMILES IDX 44 77 45 78 46 79 47 80 71 81 72 82 80 83 73 84 75 85 81 86
REMARK SMILES IDX 74 87 76 88 77 89 78 90 79 91 56 92 57 93 65 94 58 95 60 96
REMARK SMILES IDX 66 97 59 98 61 99 62 100 63 101 64 102
REMARK H PARENT 22 6 27 36 86 55 54 66
REMARK Flexibility Score: inf
ROOT
ATOM      1  C   UNL     1      -6.959  -1.941  -3.641  1.00  0.00     0.023 C 
ENDROOT
BRANCH   1   2
ATOM      2  C   UNL     1      -6.252  -2.145  -2.305  1.00  0.00     0.116 C 
BRANCH   2   3
ATOM      3  N   UNL     1      -5.856  -3.526  -2.078  1.00  0.00    -0.353 N 
ATOM      4  C   UNL     1      -4.598  -4.080  -2.084  1.00  0.00     0.260 C 
ATOM      5  O   UNL     1      -4.479  -5.267  -1.769  1.00  0.00    -0.271 OA
ATOM      6  H   UNL     1      -6.593  -4.152  -1.894  1.00  0.00     0.163 HD
BRANCH   4   7
ATOM      7  C   UNL     1      -3.381  -3.238  -2.505  1.00  0.00     0.258 C 
ATOM      8  C   UNL     1      -3.522  -2.900  -3.986  1.00  0.00     0.064 C 
BRANCH   7   9
ATOM      9  O   UNL     1      -3.396  -2.168  -1.568  1.00  0.00    -0.480 OA
BRANCH   9  10
ATOM     10  C   UNL     1      -2.609  -1.061  -1.594  1.00  0.00     0.127 A 
ATOM     11  C   UNL     1      -2.754  -0.218  -0.468  1.00  0.00     0.018 A 
ATOM     12  C   UNL     1      -2.107   1.022  -0.434  1.00  0.00     0.012 A 
ATOM     13  C   UNL     1      -1.280   1.404  -1.488  1.00  0.00     0.001 A 
ATOM     14  C   UNL     1      -1.736  -0.696  -2.611  1.00  0.00     0.047 A 
ATOM     15  C   UNL     1      -1.080   0.538  -2.562  1.00  0.00     0.004 A 
BRANCH  11  16
ATOM     16  C   UNL     1      -3.562  -0.622   0.698  1.00  0.00     0.033 C 
ATOM     17  N   UNL     1      -2.325  -3.708   2.243  1.00  0.00    -0.261 N 
ATOM     18  C   UNL     1      -2.184  -2.669   1.327  1.00  0.00     0.270 C 
ATOM     19  C   UNL     1      -3.400  -3.625   3.114  1.00  0.00     0.152 C 
ATOM     20  O   UNL     1      -1.267  -2.532   0.525  1.00  0.00    -0.268 OA
ATOM     21  C   UNL     1      -3.318  -1.703   1.458  1.00  0.00     0.081 C 
ATOM     22  S   UNL     1      -4.348  -2.181   2.753  1.00  0.00    -0.054 SA
ATOM     23  S   UNL     1      -3.784  -4.594   4.424  1.00  0.00    -0.051 S 
BRANCH  17  24
ATOM     24  C   UNL     1      -1.404  -4.800   2.206  1.00  0.00     0.054 A 
ATOM     25  C   UNL     1       1.278  -8.151   1.664  1.00  0.00     0.044 C 
ATOM     26  C   UNL     1       0.337  -7.003   1.876  1.00  0.00    -0.051 A 
ATOM     27  C   UNL     1      -1.045  -7.186   1.838  1.00  0.00     0.005 A 
ATOM     28  C   UNL     1       0.844  -5.718   2.099  1.00  0.00     0.009 A 
ATOM     29  C   UNL     1      -1.905  -6.096   1.997  1.00  0.00     0.027 A 
ATOM     30  C   UNL     1      -0.008  -4.612   2.283  1.00  0.00    -0.027 A 
ATOM     31  C   UNL     1       0.646  -3.283   2.554  1.00  0.00     0.046 C 
ENDBRANCH  17  24
ENDBRANCH  11  16
ENDBRANCH   9  10
ENDBRANCH   7   9
ENDBRANCH   4   7
ENDBRANCH   2   3
ENDBRANCH   1   2
BRANCH   1  32
ATOM     32  C   UNL     1      -8.365  -2.528  -3.716  1.00  0.00     0.023 C 
BRANCH  32  33
ATOM     33  C   UNL     1      -9.324  -2.065  -2.625  1.00  0.00     0.116 C 
BRANCH  33  34
ATOM     34  N   UNL     1      -9.469  -0.616  -2.558  1.00  0.00    -0.352 N 
ATOM     35  C   UNL     1     -10.618   0.130  -2.435  1.00  0.00     0.251 C 
ATOM     36  H   UNL     1      -8.631  -0.101  -2.607  1.00  0.00     0.163 HD
ATOM     37  O   UNL     1     -10.572   1.354  -2.501  1.00  0.00    -0.269 OA
BRANCH  35  38
ATOM     38  C   UNL     1     -11.913  -0.561  -2.260  1.00  0.00     0.039 A 
ATOM     39  C   UNL     1     -12.980  -0.221  -3.094  1.00  0.00     0.014 A 
ATOM     40  C   UNL     1     -12.051  -1.579  -1.313  1.00  0.00     0.014 A 
ATOM     41  C   UNL     1     -14.163  -0.963  -3.037  1.00  0.00     0.010 A 
ATOM     42  C   UNL     1     -13.201  -2.362  -1.309  1.00  0.00     0.010 A 
ATOM     43  C   UNL     1     -14.265  -2.068  -2.176  1.00  0.00    -0.014 A 
BRANCH  43  44
ATOM     44  C   UNL     1     -15.455  -2.956  -2.187  1.00  0.00     0.031 A 
ATOM     45  C   UNL     1     -16.304  -3.096  -0.953  1.00  0.00     0.074 A 
ATOM     46  C   UNL     1     -15.704  -3.721  -3.268  1.00  0.00     0.049 A 
ATOM     47  N   UNL     1     -17.314  -3.897  -0.735  1.00  0.00    -0.248 NA
ATOM     48  C   UNL     1     -15.954  -2.244   0.195  1.00  0.00     0.031 C 
ATOM     49  C   UNL     1     -14.909  -3.732  -4.499  1.00  0.00     0.029 A 
ATOM     50  N   UNL     1     -16.674  -4.667  -3.494  1.00  0.00    -0.354 N 
ATOM     51  C   UNL     1     -17.696  -3.675   0.582  1.00  0.00     0.074 A 
ATOM     52  C   UNL     1     -16.791  -2.685   1.124  1.00  0.00     0.031 C 
ATOM     53  C   UNL     1     -15.420  -4.641  -5.346  1.00  0.00     0.029 A 
ATOM     54  C   UNL     1     -16.555  -5.301  -4.708  1.00  0.00     0.049 A 
ATOM     55  H   UNL     1     -17.388  -4.870  -2.847  1.00  0.00     0.167 HD
ATOM     56  C   UNL     1     -18.725  -4.224   1.271  1.00  0.00     0.034 A 
ATOM     57  C   UNL     1     -17.267  -6.313  -5.243  1.00  0.00     0.034 A 
ATOM     58  C   UNL     1     -19.649  -5.176   0.716  1.00  0.00     0.049 A 
ATOM     59  C   UNL     1     -18.418  -6.890  -4.463  1.00  0.00     0.074 A 
ATOM     60  C   UNL     1     -20.780  -5.717   1.302  1.00  0.00     0.029 A 
ATOM     61  N   UNL     1     -19.546  -5.737  -0.547  1.00  0.00    -0.354 N 
ATOM     62  N   UNL     1     -18.866  -6.548  -3.280  1.00  0.00    -0.248 NA
ATOM     63  C   UNL     1     -19.180  -7.972  -5.105  1.00  0.00     0.031 C 
ATOM     64  C   UNL     1     -21.347  -6.624   0.401  1.00  0.00     0.029 A 
ATOM     65  C   UNL     1     -20.582  -6.630  -0.755  1.00  0.00     0.049 A 
ATOM     66  H   UNL     1     -18.839  -5.530  -1.201  1.00  0.00     0.167 HD
ATOM     67  C   UNL     1     -19.977  -7.351  -3.047  1.00  0.00     0.074 A 
ATOM     68  C   UNL     1     -20.150  -8.177  -4.224  1.00  0.00     0.031 C 
ATOM     69  C   UNL     1     -20.772  -7.412  -1.950  1.00  0.00     0.034 A 
BRANCH  56  70
ATOM     70  C   UNL     1     -18.941  -3.765   2.689  1.00  0.00     0.023 A 
ATOM     71  C   UNL     1     -19.440  -2.469   2.929  1.00  0.00     0.012 A 
ATOM     72  C   UNL     1     -18.712  -4.631   3.776  1.00  0.00     0.148 A 
ATOM     73  C   UNL     1     -19.676  -2.028   4.231  1.00  0.00     0.002 A 
ATOM     74  C   UNL     1     -18.991  -4.199   5.068  1.00  0.00     0.091 A 
ATOM     75  F   UNL     1     -18.218  -5.852   3.530  1.00  0.00    -0.205 F 
ATOM     76  C   UNL     1     -19.462  -2.896   5.298  1.00  0.00     0.022 A 
BRANCH  74  77
ATOM     77  S   UNL     1     -18.824  -5.265   6.505  1.00  0.00     0.127 S 
ATOM     78  O   UNL     1     -17.661  -4.681   7.171  1.00  0.00    -0.237 OA
ATOM     79  O   UNL     1     -20.095  -5.050   7.197  1.00  0.00    -0.237 OA
ATOM     80  O   UNL     1     -18.637  -6.612   5.985  1.00  0.00    -0.744 OA
ENDBRANCH  74  77
ENDBRANCH  56  70
BRANCH  57  81
ATOM     81  C   UNL     1     -16.945  -6.812  -6.611  1.00  0.00     0.023 A 
ATOM     82  C   UNL     1     -17.844  -6.559  -7.665  1.00  0.00     0.012 A 
ATOM     83  C   UNL     1     -15.751  -7.510  -6.879  1.00  0.00     0.148 A 
ATOM     84  C   UNL     1     -17.576  -7.018  -8.955  1.00  0.00     0.002 A 
ATOM     85  C   UNL     1     -15.464  -7.916  -8.177  1.00  0.00     0.091 A 
ATOM     86  F   UNL     1     -14.915  -7.753  -5.860  1.00  0.00    -0.205 F 
ATOM     87  C   UNL     1     -16.382  -7.687  -9.213  1.00  0.00     0.022 A 
BRANCH  85  88
ATOM     88  S   UNL     1     -13.894  -8.665  -8.625  1.00  0.00     0.127 S 
ATOM     89  O   UNL     1     -14.284 -10.050  -8.876  1.00  0.00    -0.237 OA
ATOM     90  O   UNL     1     -13.524  -7.903  -9.818  1.00  0.00    -0.237 OA
ATOM     91  O   UNL     1     -13.017  -8.450  -7.482  1.00  0.00    -0.744 OA
ENDBRANCH  85  88
ENDBRANCH  57  81
BRANCH  69  92
ATOM     92  C   UNL     1     -21.917  -8.389  -1.970  1.00  0.00     0.023 A 
ATOM     93  C   UNL     1     -21.658  -9.769  -1.847  1.00  0.00     0.012 A 
ATOM     94  C   UNL     1     -23.251  -7.938  -2.028  1.00  0.00     0.148 A 
ATOM     95  C   UNL     1     -22.707 -10.687  -1.811  1.00  0.00     0.002 A 
ATOM     96  C   UNL     1     -24.292  -8.855  -1.944  1.00  0.00     0.091 A 
ATOM     97  F   UNL     1     -23.476  -6.623  -2.162  1.00  0.00    -0.205 F 
ATOM     98  C   UNL     1     -24.022 -10.229  -1.847  1.00  0.00     0.022 A 
BRANCH  96  99
ATOM     99  S   UNL     1     -26.017  -8.354  -1.888  1.00  0.00     0.127 S 
ATOM    100  O   UNL     1     -26.497  -8.793  -3.198  1.00  0.00    -0.237 OA
ATOM    101  O   UNL     1     -26.529  -9.131  -0.759  1.00  0.00    -0.237 OA
ATOM    102  O   UNL     1     -26.011  -6.913  -1.677  1.00  0.00    -0.744 OA
ENDBRANCH  96  99
ENDBRANCH  69  92
ENDBRANCH  43  44
ENDBRANCH  35  38
ENDBRANCH  33  34
ENDBRANCH  32  33
ENDBRANCH   1  32
TORSDOF 18
