REMARK SMILES Cc1cc(Br)cc(C(=O)NCCCCNC(=O)c2ccc(-c3c4nc(c(-c5cccc(S(=O)(=O)[O-])c5F)c5ccc([nH]5)c(-c5cccc(S(=O)(=O)[O-])c5F)c5nc(c(-c6cccc(S(=O)(=O)[O-])c6F)c6ccc3[nH]6)C=C5)C=C4)cc2)n1
REMARK SMILES IDX 14 1 13 2 12 3 11 4 10 5 8 6 9 7 7 9 1 10 2 11 3 12 81 13
REMARK SMILES IDX 4 14 5 15 6 16 15 17 16 18 17 20 18 21 19 22 80 23 20 24
REMARK SMILES IDX 79 25 21 26 22 27 23 28 73 29 24 30 78 31 72 32 74 33 25 34
REMARK SMILES IDX 77 35 71 36 70 37 26 39 58 40 38 41 57 42 39 43 42 44 56 45
REMARK SMILES IDX 75 46 40 47 41 48 55 50 76 51 43 52 27 53 28 54 36 55 29 56
REMARK SMILES IDX 31 57 37 58 30 59 32 60 33 61 34 62 35 63 59 64 60 65 68 66
REMARK SMILES IDX 61 67 63 68 69 69 62 70 64 71 65 72 66 73 67 74 44 75 45 76
REMARK SMILES IDX 53 77 46 78 48 79 54 80 47 81 49 82 50 83 51 84 52 85
REMARK H PARENT 10 8 15 19 74 38 42 49
REMARK Flexibility Score: inf
ROOT
ATOM      1  C   UNL     1      -1.890   3.432  -5.488  1.00  0.00     0.116 C 
ENDROOT
BRANCH   1   2
ATOM      2  C   UNL     1      -0.595   2.629  -5.395  1.00  0.00     0.023 C 
BRANCH   2   3
ATOM      3  C   UNL     1      -0.330   1.946  -4.047  1.00  0.00     0.023 C 
BRANCH   3   4
ATOM      4  C   UNL     1      -1.444   1.010  -3.583  1.00  0.00     0.116 C 
BRANCH   4   5
ATOM      5  N   UNL     1      -1.520  -0.185  -4.404  1.00  0.00    -0.351 N 
ATOM      6  C   UNL     1      -1.040  -1.459  -4.199  1.00  0.00     0.269 C 
ATOM      7  O   UNL     1      -1.269  -2.300  -5.072  1.00  0.00    -0.268 OA
ATOM      8  H   UNL     1      -1.998  -0.063  -5.256  1.00  0.00     0.163 HD
BRANCH   6   9
ATOM      9  C   UNL     1      -0.284  -1.873  -2.970  1.00  0.00     0.129 A 
ATOM     10  C   UNL     1       1.109  -0.266   0.039  1.00  0.00     0.067 C 
ATOM     11  C   UNL     1       0.736  -1.328  -0.951  1.00  0.00     0.039 A 
ATOM     12  C   UNL     1       1.035  -2.658  -0.697  1.00  0.00     0.039 A 
ATOM     13  N   UNL     1       0.097  -0.928  -2.075  1.00  0.00    -0.248 NA
ATOM     14  C   UNL     1       0.653  -3.606  -1.637  1.00  0.00     0.022 A 
ATOM     15  Br  UNL     1       1.034  -5.432  -1.332  1.00  0.00    -0.051 Br
ATOM     16  C   UNL     1      -0.015  -3.224  -2.791  1.00  0.00     0.050 A 
ENDBRANCH   6   9
ENDBRANCH   4   5
ENDBRANCH   3   4
ENDBRANCH   2   3
ENDBRANCH   1   2
BRANCH   1  17
ATOM     17  N   UNL     1      -2.003   4.482  -4.486  1.00  0.00    -0.352 N 
ATOM     18  C   UNL     1      -2.608   5.714  -4.606  1.00  0.00     0.251 C 
ATOM     19  H   UNL     1      -1.595   4.287  -3.612  1.00  0.00     0.163 HD
ATOM     20  O   UNL     1      -2.547   6.525  -3.686  1.00  0.00    -0.269 OA
BRANCH  18  21
ATOM     21  C   UNL     1      -3.284   6.062  -5.874  1.00  0.00     0.039 A 
ATOM     22  C   UNL     1      -4.208   5.185  -6.446  1.00  0.00     0.014 A 
ATOM     23  C   UNL     1      -2.929   7.243  -6.531  1.00  0.00     0.014 A 
ATOM     24  C   UNL     1      -4.647   5.406  -7.747  1.00  0.00     0.010 A 
ATOM     25  C   UNL     1      -3.424   7.495  -7.813  1.00  0.00     0.010 A 
ATOM     26  C   UNL     1      -4.239   6.549  -8.455  1.00  0.00    -0.014 A 
BRANCH  26  27
ATOM     27  C   UNL     1      -4.646   6.714  -9.874  1.00  0.00     0.031 A 
ATOM     28  C   UNL     1      -3.623   6.660 -10.979  1.00  0.00     0.074 A 
ATOM     29  C   UNL     1      -5.951   6.858 -10.175  1.00  0.00     0.049 A 
ATOM     30  N   UNL     1      -3.808   6.741 -12.272  1.00  0.00    -0.248 NA
ATOM     31  C   UNL     1      -2.213   6.493 -10.587  1.00  0.00     0.031 C 
ATOM     32  C   UNL     1      -7.036   6.939  -9.195  1.00  0.00     0.029 A 
ATOM     33  N   UNL     1      -6.588   6.944 -11.387  1.00  0.00    -0.354 N 
ATOM     34  C   UNL     1      -2.543   6.678 -12.844  1.00  0.00     0.074 A 
ATOM     35  C   UNL     1      -1.594   6.551 -11.759  1.00  0.00     0.031 C 
ATOM     36  C   UNL     1      -8.207   7.018  -9.844  1.00  0.00     0.029 A 
ATOM     37  C   UNL     1      -7.956   7.033 -11.283  1.00  0.00     0.049 A 
ATOM     38  H   UNL     1      -6.111   6.941 -12.248  1.00  0.00     0.167 HD
ATOM     39  C   UNL     1      -2.203   6.698 -14.154  1.00  0.00     0.034 A 
ATOM     40  C   UNL     1      -8.905   7.114 -12.235  1.00  0.00     0.034 A 
ATOM     41  C   UNL     1      -3.146   6.755 -15.237  1.00  0.00     0.049 A 
ATOM     42  C   UNL     1      -8.502   7.106 -13.681  1.00  0.00     0.074 A 
ATOM     43  C   UNL     1      -2.890   6.734 -16.598  1.00  0.00     0.029 A 
ATOM     44  N   UNL     1      -4.520   6.832 -15.088  1.00  0.00    -0.354 N 
ATOM     45  N   UNL     1      -7.306   6.971 -14.199  1.00  0.00    -0.248 NA
ATOM     46  C   UNL     1      -9.577   7.247 -14.674  1.00  0.00     0.031 C 
ATOM     47  C   UNL     1      -4.113   6.792 -17.272  1.00  0.00     0.029 A 
ATOM     48  C   UNL     1      -5.128   6.855 -16.331  1.00  0.00     0.049 A 
ATOM     49  H   UNL     1      -4.994   6.865 -14.226  1.00  0.00     0.167 HD
ATOM     50  C   UNL     1      -7.483   7.007 -15.576  1.00  0.00     0.074 A 
ATOM     51  C   UNL     1      -8.905   7.150 -15.815  1.00  0.00     0.031 C 
ATOM     52  C   UNL     1      -6.546   6.952 -16.553  1.00  0.00     0.034 A 
BRANCH  39  53
ATOM     53  C   UNL     1      -0.746   6.593 -14.506  1.00  0.00     0.023 A 
ATOM     54  C   UNL     1      -0.140   5.322 -14.539  1.00  0.00     0.012 A 
ATOM     55  C   UNL     1      -0.009   7.727 -14.900  1.00  0.00     0.148 A 
ATOM     56  C   UNL     1       1.183   5.179 -14.952  1.00  0.00     0.002 A 
ATOM     57  C   UNL     1       1.303   7.574 -15.334  1.00  0.00     0.091 A 
ATOM     58  F   UNL     1      -0.604   8.926 -14.844  1.00  0.00    -0.205 F 
ATOM     59  C   UNL     1       1.901   6.302 -15.359  1.00  0.00     0.022 A 
BRANCH  57  60
ATOM     60  S   UNL     1       2.300   8.947 -15.926  1.00  0.00     0.127 S 
ATOM     61  O   UNL     1       3.311   9.050 -14.874  1.00  0.00    -0.237 OA
ATOM     62  O   UNL     1       2.798   8.438 -17.203  1.00  0.00    -0.237 OA
ATOM     63  O   UNL     1       1.396  10.083 -16.032  1.00  0.00    -0.744 OA
ENDBRANCH  57  60
ENDBRANCH  39  53
BRANCH  40  64
ATOM     64  C   UNL     1     -10.335   7.142 -11.830  1.00  0.00     0.023 A 
ATOM     65  C   UNL     1     -11.115   5.981 -11.992  1.00  0.00     0.012 A 
ATOM     66  C   UNL     1     -10.896   8.272 -11.207  1.00  0.00     0.148 A 
ATOM     67  C   UNL     1     -12.433   5.946 -11.537  1.00  0.00     0.002 A 
ATOM     68  C   UNL     1     -12.195   8.215 -10.717  1.00  0.00     0.091 A 
ATOM     69  F   UNL     1     -10.134   9.368 -11.078  1.00  0.00    -0.205 F 
ATOM     70  C   UNL     1     -12.968   7.056 -10.889  1.00  0.00     0.022 A 
BRANCH  68  71
ATOM     71  S   UNL     1     -12.925   9.549  -9.761  1.00  0.00     0.127 S 
ATOM     72  O   UNL     1     -13.959  10.036 -10.670  1.00  0.00    -0.237 OA
ATOM     73  O   UNL     1     -13.424   8.837  -8.584  1.00  0.00    -0.237 OA
ATOM     74  O   UNL     1     -11.838  10.479  -9.487  1.00  0.00    -0.744 OA
ENDBRANCH  68  71
ENDBRANCH  40  64
BRANCH  52  75
ATOM     75  C   UNL     1      -7.010   7.056 -17.978  1.00  0.00     0.023 A 
ATOM     76  C   UNL     1      -7.279   8.330 -18.515  1.00  0.00     0.012 A 
ATOM     77  C   UNL     1      -7.066   5.922 -18.810  1.00  0.00     0.148 A 
ATOM     78  C   UNL     1      -7.604   8.474 -19.862  1.00  0.00     0.002 A 
ATOM     79  C   UNL     1      -7.364   6.076 -20.159  1.00  0.00     0.091 A 
ATOM     80  F   UNL     1      -6.818   4.720 -18.269  1.00  0.00    -0.205 F 
ATOM     81  C   UNL     1      -7.635   7.350 -20.686  1.00  0.00     0.022 A 
BRANCH  79  82
ATOM     82  S   UNL     1      -7.361   4.699 -21.313  1.00  0.00     0.127 S 
ATOM     83  O   UNL     1      -8.786   4.559 -21.611  1.00  0.00    -0.237 OA
ATOM     84  O   UNL     1      -6.555   5.221 -22.417  1.00  0.00    -0.237 OA
ATOM     85  O   UNL     1      -6.761   3.579 -20.602  1.00  0.00    -0.744 OA
ENDBRANCH  79  82
ENDBRANCH  52  75
ENDBRANCH  26  27
ENDBRANCH  18  21
ENDBRANCH   1  17
TORSDOF 14
