REMARK SMILES O=C(NCCCCNC(=O)c1c(-c2ccc(Cl)cc2)noc1CO[C@@H]1CCCCO1)c1ccc(-c2c3nc(c(-c4cccc(S(=O)(=O)[O-])c4F)c4ccc([nH]4)c(-c4cccc(S(=O)(=O)[O-])c4F)c4nc(c(-c5cccc(S(=O)(=O)[O-])c5F)c5ccc2[nH]5)C=C4)C=C3)cc1
REMARK SMILES IDX 5 1 4 2 3 3 1 4 2 5 31 7 32 8 93 9 33 10 92 11 34 12 35 13
REMARK SMILES IDX 36 14 86 15 37 16 91 17 85 18 87 19 38 20 90 21 84 22 83 23
REMARK SMILES IDX 39 25 71 26 51 27 70 28 52 29 55 30 69 31 88 32 53 33 54 34
REMARK SMILES IDX 68 36 89 37 56 38 40 39 41 40 49 41 42 42 44 43 50 44 43 45
REMARK SMILES IDX 45 46 46 47 47 48 48 49 72 50 73 51 81 52 74 53 76 54 82 55
REMARK SMILES IDX 75 56 77 57 78 58 79 59 80 60 57 61 58 62 66 63 59 64 61 65
REMARK SMILES IDX 67 66 60 67 62 68 63 69 64 70 65 71 6 72 7 73 8 74 9 75
REMARK SMILES IDX 10 77 11 78 12 79 22 80 20 81 21 82 13 83 14 84 19 85 15 86
REMARK SMILES IDX 18 87 16 88 17 89 23 90 24 91 25 92 26 93 30 94 27 95 29 96
REMARK SMILES IDX 28 97
REMARK H PARENT 3 6 87 24 55 35 8 76
REMARK Flexibility Score: inf
ROOT
ATOM      1  C   UNL     1       5.143   2.872   0.902  1.00  0.00     0.023 C 
ENDROOT
BRANCH   1   2
ATOM      2  C   UNL     1       4.835   1.406   0.597  1.00  0.00     0.116 C 
BRANCH   2   3
ATOM      3  N   UNL     1       3.421   1.094   0.652  1.00  0.00    -0.352 N 
ATOM      4  O   UNL     1       1.459   0.197   0.063  1.00  0.00    -0.269 OA
ATOM      5  C   UNL     1       2.673   0.242  -0.123  1.00  0.00     0.251 C 
ATOM      6  H   UNL     1       2.919   1.566   1.355  1.00  0.00     0.163 HD
BRANCH   5   7
ATOM      7  C   UNL     1       3.291  -0.587  -1.186  1.00  0.00     0.039 A 
ATOM      8  C   UNL     1       4.480  -1.296  -0.988  1.00  0.00     0.014 A 
ATOM      9  C   UNL     1       2.609  -0.707  -2.404  1.00  0.00     0.014 A 
ATOM     10  C   UNL     1       5.022  -2.058  -2.027  1.00  0.00     0.010 A 
ATOM     11  C   UNL     1       3.136  -1.493  -3.433  1.00  0.00     0.010 A 
ATOM     12  C   UNL     1       4.357  -2.158  -3.259  1.00  0.00    -0.014 A 
BRANCH  12  13
ATOM     13  C   UNL     1       4.914  -3.005  -4.340  1.00  0.00     0.031 A 
ATOM     14  C   UNL     1       5.634  -2.392  -5.506  1.00  0.00     0.074 A 
ATOM     15  C   UNL     1       4.763  -4.341  -4.274  1.00  0.00     0.049 A 
ATOM     16  N   UNL     1       6.300  -2.987  -6.462  1.00  0.00    -0.248 NA
ATOM     17  C   UNL     1       5.615  -0.925  -5.609  1.00  0.00     0.031 C 
ATOM     18  C   UNL     1       4.054  -5.058  -3.214  1.00  0.00     0.029 A 
ATOM     19  N   UNL     1       5.192  -5.332  -5.120  1.00  0.00    -0.354 N 
ATOM     20  C   UNL     1       6.787  -1.973  -7.276  1.00  0.00     0.074 A 
ATOM     21  C   UNL     1       6.319  -0.723  -6.716  1.00  0.00     0.031 C 
ATOM     22  C   UNL     1       4.106  -6.376  -3.466  1.00  0.00     0.029 A 
ATOM     23  C   UNL     1       4.840  -6.596  -4.709  1.00  0.00     0.049 A 
ATOM     24  H   UNL     1       5.704  -5.156  -5.942  1.00  0.00     0.167 HD
ATOM     25  C   UNL     1       7.592  -2.077  -8.361  1.00  0.00     0.034 A 
ATOM     26  C   UNL     1       5.085  -7.796  -5.269  1.00  0.00     0.034 A 
ATOM     27  C   UNL     1       8.104  -3.321  -8.871  1.00  0.00     0.049 A 
ATOM     28  C   UNL     1       5.866  -7.869  -6.549  1.00  0.00     0.074 A 
ATOM     29  C   UNL     1       9.101  -3.537  -9.807  1.00  0.00     0.029 A 
ATOM     30  N   UNL     1       7.620  -4.568  -8.511  1.00  0.00    -0.354 N 
ATOM     31  N   UNL     1       6.519  -6.915  -7.164  1.00  0.00    -0.248 NA
ATOM     32  C   UNL     1       5.944  -9.179  -7.210  1.00  0.00     0.031 C 
ATOM     33  C   UNL     1       9.209  -4.918 -10.024  1.00  0.00     0.029 A 
ATOM     34  C   UNL     1       8.256  -5.553  -9.246  1.00  0.00     0.049 A 
ATOM     35  H   UNL     1       6.925  -4.730  -7.833  1.00  0.00     0.167 HD
ATOM     36  C   UNL     1       7.112  -7.513  -8.268  1.00  0.00     0.074 A 
ATOM     37  C   UNL     1       6.733  -8.911  -8.244  1.00  0.00     0.031 C 
ATOM     38  C   UNL     1       7.898  -6.945  -9.213  1.00  0.00     0.034 A 
BRANCH  25  39
ATOM     39  C   UNL     1       8.058  -0.800  -8.995  1.00  0.00     0.023 A 
ATOM     40  C   UNL     1       9.325  -0.298  -8.640  1.00  0.00     0.012 A 
ATOM     41  C   UNL     1       7.278  -0.104  -9.934  1.00  0.00     0.148 A 
ATOM     42  C   UNL     1       9.812   0.874  -9.218  1.00  0.00     0.002 A 
ATOM     43  C   UNL     1       7.767   1.071 -10.499  1.00  0.00     0.091 A 
ATOM     44  F   UNL     1       6.060  -0.572 -10.243  1.00  0.00    -0.205 F 
ATOM     45  C   UNL     1       9.034   1.560 -10.150  1.00  0.00     0.022 A 
BRANCH  43  46
ATOM     46  S   UNL     1       6.751   1.984 -11.665  1.00  0.00     0.127 S 
ATOM     47  O   UNL     1       5.656   2.455 -10.822  1.00  0.00    -0.237 OA
ATOM     48  O   UNL     1       7.644   3.044 -12.136  1.00  0.00    -0.237 OA
ATOM     49  O   UNL     1       6.415   0.990 -12.677  1.00  0.00    -0.744 OA
ENDBRANCH  43  46
ENDBRANCH  25  39
BRANCH  26  50
ATOM     50  C   UNL     1       4.640  -9.033  -4.581  1.00  0.00     0.023 A 
ATOM     51  C   UNL     1       5.593  -9.821  -3.910  1.00  0.00     0.012 A 
ATOM     52  C   UNL     1       3.286  -9.407  -4.536  1.00  0.00     0.148 A 
ATOM     53  C   UNL     1       5.203 -10.961  -3.207  1.00  0.00     0.002 A 
ATOM     54  C   UNL     1       2.901 -10.528  -3.809  1.00  0.00     0.091 A 
ATOM     55  F   UNL     1       2.384  -8.651  -5.181  1.00  0.00    -0.205 F 
ATOM     56  C   UNL     1       3.855 -11.313  -3.148  1.00  0.00     0.022 A 
BRANCH  54  57
ATOM     57  S   UNL     1       1.157 -10.925  -3.667  1.00  0.00     0.127 S 
ATOM     58  O   UNL     1       0.776 -11.207  -5.046  1.00  0.00    -0.237 OA
ATOM     59  O   UNL     1       1.148 -12.093  -2.785  1.00  0.00    -0.237 OA
ATOM     60  O   UNL     1       0.600  -9.718  -3.066  1.00  0.00    -0.744 OA
ENDBRANCH  54  57
ENDBRANCH  26  50
BRANCH  38  61
ATOM     61  C   UNL     1       8.392  -7.823 -10.324  1.00  0.00     0.023 A 
ATOM     62  C   UNL     1       7.587  -7.987 -11.466  1.00  0.00     0.012 A 
ATOM     63  C   UNL     1       9.655  -8.436 -10.274  1.00  0.00     0.148 A 
ATOM     64  C   UNL     1       8.032  -8.759 -12.540  1.00  0.00     0.002 A 
ATOM     65  C   UNL     1      10.098  -9.193 -11.355  1.00  0.00     0.091 A 
ATOM     66  F   UNL     1      10.416  -8.273  -9.181  1.00  0.00    -0.205 F 
ATOM     67  C   UNL     1       9.290  -9.359 -12.489  1.00  0.00     0.022 A 
BRANCH  65  68
ATOM     68  S   UNL     1      11.731  -9.938 -11.301  1.00  0.00     0.127 S 
ATOM     69  O   UNL     1      11.622 -10.877 -10.189  1.00  0.00    -0.237 OA
ATOM     70  O   UNL     1      11.858 -10.574 -12.614  1.00  0.00    -0.237 OA
ATOM     71  O   UNL     1      12.615  -8.794 -11.104  1.00  0.00    -0.744 OA
ENDBRANCH  65  68
ENDBRANCH  38  61
ENDBRANCH  12  13
ENDBRANCH   5   7
ENDBRANCH   2   3
ENDBRANCH   1   2
BRANCH   1  72
ATOM     72  C   UNL     1       4.601   3.430   2.224  1.00  0.00     0.023 C 
BRANCH  72  73
ATOM     73  C   UNL     1       4.875   2.595   3.473  1.00  0.00     0.116 C 
BRANCH  73  74
ATOM     74  N   UNL     1       6.293   2.381   3.705  1.00  0.00    -0.352 N 
ATOM     75  C   UNL     1       7.104   2.809   4.723  1.00  0.00     0.257 C 
ATOM     76  H   UNL     1       6.746   1.839   3.018  1.00  0.00     0.163 HD
ATOM     77  O   UNL     1       8.314   2.610   4.636  1.00  0.00    -0.269 OA
BRANCH  75  78
ATOM     78  C   UNL     1       6.527   3.479   5.860  1.00  0.00     0.113 A 
ATOM     79  C   UNL     1       6.917   4.716   6.453  1.00  0.00     0.127 A 
ATOM     80  C   UNL     1       5.580   2.976   6.728  1.00  0.00     0.175 A 
ATOM     81  N   UNL     1       6.168   4.976   7.538  1.00  0.00    -0.079 NA
ATOM     82  O   UNL     1       5.337   3.888   7.704  1.00  0.00    -0.357 OA
BRANCH  79  83
ATOM     83  C   UNL     1       7.969   5.638   6.037  1.00  0.00     0.005 A 
ATOM     84  C   UNL     1       8.105   6.028   4.698  1.00  0.00     0.012 A 
ATOM     85  C   UNL     1       8.873   6.137   6.989  1.00  0.00     0.012 A 
ATOM     86  C   UNL     1       9.134   6.894   4.316  1.00  0.00     0.021 A 
ATOM     87  C   UNL     1       9.904   6.999   6.606  1.00  0.00     0.021 A 
ATOM     88  C   UNL     1      10.030   7.373   5.270  1.00  0.00     0.041 A 
ATOM     89  Cl  UNL     1      11.300   8.434   4.797  1.00  0.00    -0.084 Cl
ENDBRANCH  79  83
BRANCH  80  90
ATOM     90  C   UNL     1       4.845   1.694   6.827  1.00  0.00     0.242 C 
BRANCH  90  91
ATOM     91  O   UNL     1       5.144   1.071   8.074  1.00  0.00    -0.345 OA
BRANCH  91  92
ATOM     92  C   UNL     1       6.396   0.388   8.113  1.00  0.00     0.250 C 
ATOM     93  C   UNL     1       6.304  -1.010   7.491  1.00  0.00     0.062 C 
ATOM     94  O   UNL     1       6.856   0.287   9.465  1.00  0.00    -0.353 OA
ATOM     95  C   UNL     1       5.415  -1.926   8.327  1.00  0.00     0.008 C 
ATOM     96  C   UNL     1       5.984  -0.480  10.293  1.00  0.00     0.163 C 
ATOM     97  C   UNL     1       5.860  -1.909   9.784  1.00  0.00     0.029 C 
ENDBRANCH  91  92
ENDBRANCH  90  91
ENDBRANCH  80  90
ENDBRANCH  75  78
ENDBRANCH  73  74
ENDBRANCH  72  73
ENDBRANCH   1  72
TORSDOF 18
