REMARK SMILES O=C(Cc1ccccc1C(=O)NCCCCNC(=O)c1ccc(-c2c3nc(c(-c4cccc(S(=O)(=O)[O-])c4F)c4ccc([nH]4)c(-c4cccc(S(=O)(=O)[O-])c4F)c4nc(c(-c5cccc(S(=O)(=O)[O-])c5F)c5ccc2[nH]5)C=C4)C=C3)cc1)Nc1cccc(OC[C@@H]2CCCO2)c1
REMARK SMILES IDX 13 1 12 2 10 3 11 4 9 6 4 7 5 8 6 9 8 10 7 11 3 12 2 13 1 14
REMARK SMILES IDX 83 15 84 17 85 18 96 19 86 20 88 21 87 22 89 23 90 24 91 25
REMARK SMILES IDX 92 26 95 27 93 28 94 29 14 30 15 31 16 32 17 33 18 34 19 36
REMARK SMILES IDX 20 37 21 38 82 39 22 40 81 41 23 42 24 43 25 44 75 45 26 46
REMARK SMILES IDX 80 47 74 48 76 49 27 50 79 51 73 52 72 53 28 55 60 56 40 57
REMARK SMILES IDX 59 58 41 59 44 60 58 61 77 62 42 63 43 64 57 66 78 67 45 68
REMARK SMILES IDX 29 69 30 70 38 71 31 72 33 73 39 74 32 75 34 76 35 77 36 78
REMARK SMILES IDX 37 79 61 80 62 81 70 82 63 83 65 84 71 85 64 86 66 87 67 88
REMARK SMILES IDX 68 89 69 90 46 91 47 92 55 93 48 94 50 95 56 96 49 97 51 98
REMARK SMILES IDX 52 99 53 100 54 101
REMARK H PARENT 12 5 83 16 17 35 76 54 44 65
REMARK Flexibility Score: inf
ROOT
ATOM      1  C   UNL     1       3.371   3.390  -0.570  1.00  0.00     0.116 C 
ENDROOT
BRANCH   1   2
ATOM      2  N   UNL     1       3.612   3.877   0.775  1.00  0.00    -0.352 N 
ATOM      3  C   UNL     1       4.059   3.390   1.971  1.00  0.00     0.251 C 
ATOM      4  O   UNL     1       4.128   4.253   2.859  1.00  0.00    -0.269 OA
ATOM      5  H   UNL     1       3.389   4.833   0.847  1.00  0.00     0.163 HD
BRANCH   3   6
ATOM      6  C   UNL     1       4.498   1.995   2.355  1.00  0.00     0.043 A 
ATOM      7  C   UNL     1       3.997   0.732   1.949  1.00  0.00    -0.026 A 
ATOM      8  C   UNL     1       4.408  -0.425   2.655  1.00  0.00     0.005 A 
ATOM      9  C   UNL     1       5.310  -0.365   3.714  1.00  0.00     0.000 A 
ATOM     10  C   UNL     1       5.432   2.011   3.422  1.00  0.00     0.014 A 
ATOM     11  C   UNL     1       5.836   0.855   4.091  1.00  0.00     0.001 A 
BRANCH   7  12
ATOM     12  C   UNL     1       3.051   0.578   0.797  1.00  0.00     0.136 C 
BRANCH  12  13
ATOM     13  C   UNL     1       2.271  -0.698   0.600  1.00  0.00     0.228 C 
ATOM     14  O   UNL     1       1.073  -0.752   0.875  1.00  0.00    -0.274 OA
ATOM     15  N   UNL     1       2.994  -1.743   0.034  1.00  0.00    -0.326 N 
ATOM     16  H   UNL     1       3.977  -1.718   0.069  1.00  0.00     0.169 HD
BRANCH  15  17
ATOM     17  C   UNL     1       2.360  -2.835  -0.586  1.00  0.00     0.044 A 
ATOM     18  C   UNL     1       2.864  -4.122  -0.434  1.00  0.00     0.026 A 
ATOM     19  C   UNL     1       1.220  -2.622  -1.366  1.00  0.00     0.072 A 
ATOM     20  C   UNL     1       2.155  -5.199  -0.972  1.00  0.00     0.006 A 
ATOM     21  C   UNL     1       0.520  -3.684  -1.929  1.00  0.00     0.121 A 
ATOM     22  C   UNL     1       0.979  -4.981  -1.701  1.00  0.00     0.046 A 
BRANCH  21  23
ATOM     23  O   UNL     1      -0.635  -3.564  -2.657  1.00  0.00    -0.491 OA
BRANCH  23  24
ATOM     24  C   UNL     1      -0.871  -2.290  -3.288  1.00  0.00     0.261 C 
BRANCH  24  25
ATOM     25  C   UNL     1      -1.478  -1.254  -2.329  1.00  0.00     0.156 C 
ATOM     26  C   UNL     1      -2.940  -0.926  -2.574  1.00  0.00     0.038 C 
ATOM     27  O   UNL     1      -0.779   0.007  -2.462  1.00  0.00    -0.375 OA
ATOM     28  C   UNL     1      -3.045   0.426  -1.909  1.00  0.00     0.031 C 
ATOM     29  C   UNL     1      -1.729   1.070  -2.292  1.00  0.00     0.161 C 
ENDBRANCH  24  25
ENDBRANCH  23  24
ENDBRANCH  21  23
ENDBRANCH  15  17
ENDBRANCH  12  13
ENDBRANCH   7  12
ENDBRANCH   3   6
ENDBRANCH   1   2
BRANCH   1  30
ATOM     30  C   UNL     1       1.881   3.078  -0.777  1.00  0.00     0.023 C 
BRANCH  30  31
ATOM     31  C   UNL     1       1.088   4.134  -1.540  1.00  0.00     0.023 C 
BRANCH  31  32
ATOM     32  C   UNL     1       1.404   4.210  -3.026  1.00  0.00     0.116 C 
BRANCH  32  33
ATOM     33  N   UNL     1       1.084   2.994  -3.766  1.00  0.00    -0.352 N 
ATOM     34  C   UNL     1       0.693   2.888  -5.083  1.00  0.00     0.251 C 
ATOM     35  H   UNL     1       1.156   2.149  -3.266  1.00  0.00     0.163 HD
ATOM     36  O   UNL     1       0.419   1.800  -5.579  1.00  0.00    -0.269 OA
BRANCH  34  37
ATOM     37  C   UNL     1       0.529   4.126  -5.873  1.00  0.00     0.039 A 
ATOM     38  C   UNL     1      -0.709   4.376  -6.470  1.00  0.00     0.014 A 
ATOM     39  C   UNL     1       1.546   5.083  -5.914  1.00  0.00     0.014 A 
ATOM     40  C   UNL     1      -0.965   5.633  -7.019  1.00  0.00     0.010 A 
ATOM     41  C   UNL     1       1.263   6.357  -6.395  1.00  0.00     0.010 A 
ATOM     42  C   UNL     1       0.000   6.650  -6.933  1.00  0.00    -0.014 A 
BRANCH  42  43
ATOM     43  C   UNL     1      -0.305   8.043  -7.346  1.00  0.00     0.031 A 
ATOM     44  C   UNL     1       0.465   8.685  -8.465  1.00  0.00     0.074 A 
ATOM     45  C   UNL     1      -1.192   8.765  -6.633  1.00  0.00     0.049 A 
ATOM     46  N   UNL     1       0.405   9.914  -8.905  1.00  0.00    -0.248 NA
ATOM     47  C   UNL     1       1.455   7.845  -9.159  1.00  0.00     0.031 C 
ATOM     48  C   UNL     1      -1.935   8.283  -5.466  1.00  0.00     0.029 A 
ATOM     49  N   UNL     1      -1.595  10.071  -6.763  1.00  0.00    -0.354 N 
ATOM     50  C   UNL     1       1.372  10.008  -9.897  1.00  0.00     0.074 A 
ATOM     51  C   UNL     1       2.026   8.719  -9.976  1.00  0.00     0.031 C 
ATOM     52  C   UNL     1      -2.702   9.276  -4.989  1.00  0.00     0.029 A 
ATOM     53  C   UNL     1      -2.489  10.473  -5.797  1.00  0.00     0.049 A 
ATOM     54  H   UNL     1      -1.275  10.665  -7.480  1.00  0.00     0.167 HD
ATOM     55  C   UNL     1       1.666  11.060 -10.696  1.00  0.00     0.034 A 
ATOM     56  C   UNL     1      -3.067  11.671  -5.582  1.00  0.00     0.034 A 
ATOM     57  C   UNL     1       0.973  12.318 -10.659  1.00  0.00     0.049 A 
ATOM     58  C   UNL     1      -2.760  12.808  -6.519  1.00  0.00     0.074 A 
ATOM     59  C   UNL     1       1.118  13.405 -11.502  1.00  0.00     0.029 A 
ATOM     60  N   UNL     1       0.004  12.659  -9.728  1.00  0.00    -0.354 N 
ATOM     61  N   UNL     1      -1.973  12.822  -7.566  1.00  0.00    -0.248 NA
ATOM     62  C   UNL     1      -3.444  14.084  -6.263  1.00  0.00     0.031 C 
ATOM     63  C   UNL     1       0.241  14.409 -11.075  1.00  0.00     0.029 A 
ATOM     64  C   UNL     1      -0.452  13.944  -9.969  1.00  0.00     0.049 A 
ATOM     65  H   UNL     1      -0.313  12.074  -9.003  1.00  0.00     0.167 HD
ATOM     66  C   UNL     1      -2.083  14.098  -8.108  1.00  0.00     0.074 A 
ATOM     67  C   UNL     1      -3.035  14.819  -7.289  1.00  0.00     0.031 C 
ATOM     68  C   UNL     1      -1.438  14.631  -9.175  1.00  0.00     0.034 A 
BRANCH  55  69
ATOM     69  C   UNL     1       2.738  10.866 -11.733  1.00  0.00     0.023 A 
ATOM     70  C   UNL     1       2.458  10.084 -12.873  1.00  0.00     0.012 A 
ATOM     71  C   UNL     1       3.996  11.486 -11.610  1.00  0.00     0.148 A 
ATOM     72  C   UNL     1       3.423   9.898 -13.861  1.00  0.00     0.002 A 
ATOM     73  C   UNL     1       4.941  11.325 -12.618  1.00  0.00     0.091 A 
ATOM     74  F   UNL     1       4.253  12.201 -10.506  1.00  0.00    -0.205 F 
ATOM     75  C   UNL     1       4.660  10.526 -13.738  1.00  0.00     0.022 A 
BRANCH  73  76
ATOM     76  S   UNL     1       6.538  12.147 -12.581  1.00  0.00     0.127 S 
ATOM     77  O   UNL     1       7.429  11.044 -12.223  1.00  0.00    -0.237 OA
ATOM     78  O   UNL     1       6.677  12.619 -13.960  1.00  0.00    -0.237 OA
ATOM     79  O   UNL     1       6.417  13.207 -11.590  1.00  0.00    -0.744 OA
ENDBRANCH  73  76
ENDBRANCH  55  69
BRANCH  56  80
ATOM     80  C   UNL     1      -4.052  11.834  -4.477  1.00  0.00     0.023 A 
ATOM     81  C   UNL     1      -5.418  11.975  -4.791  1.00  0.00     0.012 A 
ATOM     82  C   UNL     1      -3.658  11.812  -3.125  1.00  0.00     0.148 A 
ATOM     83  C   UNL     1      -6.370  12.116  -3.782  1.00  0.00     0.002 A 
ATOM     84  C   UNL     1      -4.618  11.903  -2.123  1.00  0.00     0.091 A 
ATOM     85  F   UNL     1      -2.352  11.697  -2.845  1.00  0.00    -0.205 F 
ATOM     86  C   UNL     1      -5.973  12.069  -2.449  1.00  0.00     0.022 A 
BRANCH  84  87
ATOM     87  S   UNL     1      -4.202  11.717  -0.385  1.00  0.00     0.127 S 
ATOM     88  O   UNL     1      -4.232  13.101   0.080  1.00  0.00    -0.237 OA
ATOM     89  O   UNL     1      -5.297  10.878   0.105  1.00  0.00    -0.237 OA
ATOM     90  O   UNL     1      -2.900  11.064  -0.369  1.00  0.00    -0.744 OA
ENDBRANCH  84  87
ENDBRANCH  56  80
BRANCH  68  91
ATOM     91  C   UNL     1      -1.738  16.063  -9.525  1.00  0.00     0.023 A 
ATOM     92  C   UNL     1      -1.197  17.095  -8.733  1.00  0.00     0.012 A 
ATOM     93  C   UNL     1      -2.483  16.389 -10.675  1.00  0.00     0.148 A 
ATOM     94  C   UNL     1      -1.411  18.431  -9.068  1.00  0.00     0.002 A 
ATOM     95  C   UNL     1      -2.658  17.723 -11.026  1.00  0.00     0.091 A 
ATOM     96  F   UNL     1      -3.008  15.392 -11.403  1.00  0.00    -0.205 F 
ATOM     97  C   UNL     1      -2.130  18.744 -10.219  1.00  0.00     0.022 A 
BRANCH  95  98
ATOM     98  S   UNL     1      -3.494  18.213 -12.539  1.00  0.00     0.127 S 
ATOM     99  O   UNL     1      -4.796  18.643 -12.034  1.00  0.00    -0.237 OA
ATOM    100  O   UNL     1      -2.642  19.296 -13.032  1.00  0.00    -0.237 OA
ATOM    101  O   UNL     1      -3.507  17.027 -13.386  1.00  0.00    -0.744 OA
ENDBRANCH  95  98
ENDBRANCH  68  91
ENDBRANCH  42  43
ENDBRANCH  34  37
ENDBRANCH  32  33
ENDBRANCH  31  32
ENDBRANCH  30  31
ENDBRANCH   1  30
TORSDOF 20
