REMARK SMILES CCOC(=O)c1cccc(Nc2c(-c3ccc(C(=O)NCCCCNC(=O)c4ccc(-c5c6nc(c(-c7cccc(S(=O)(=O)[O-])c7F)c7ccc([nH]7)c(-c7cccc(S(=O)(=O)[O-])c7F)c7nc(c(-c8cccc(S(=O)(=O)[O-])c8F)c8ccc5[nH]8)C=C7)C=C6)cc4)cc3)nc3cnccn23)c1
REMARK SMILES IDX 21 1 20 2 18 3 19 4 17 6 14 7 15 8 92 9 16 10 91 11 13 12
REMARK SMILES IDX 12 13 99 14 93 15 94 16 98 17 95 18 97 19 96 20 11 21 10 23
REMARK SMILES IDX 6 24 7 25 100 26 8 27 9 28 4 29 5 30 3 31 2 32 1 33 22 34
REMARK SMILES IDX 23 35 24 36 25 37 26 38 27 40 28 41 29 42 90 43 30 44 89 45
REMARK SMILES IDX 31 46 32 47 33 48 83 49 34 50 88 51 82 52 84 53 35 54 87 55
REMARK SMILES IDX 81 56 80 57 36 59 68 60 48 61 67 62 49 63 52 64 66 65 85 66
REMARK SMILES IDX 50 67 51 68 65 70 86 71 53 72 37 73 38 74 46 75 39 76 41 77
REMARK SMILES IDX 47 78 40 79 42 80 43 81 44 82 45 83 69 84 70 85 78 86 71 87
REMARK SMILES IDX 73 88 79 89 72 90 74 91 75 92 76 93 77 94 54 95 55 96 63 97
REMARK SMILES IDX 56 98 58 99 64 100 57 101 59 102 60 103 61 104 62 105
REMARK H PARENT 20 5 11 22 25 39 84 58 52 69
REMARK Flexibility Score: inf
ROOT
ATOM      1  C   UNL     1       2.758  10.793  -7.647  1.00  0.00     0.116 C 
ENDROOT
BRANCH   1   2
ATOM      2  N   UNL     1       3.210  10.359  -6.340  1.00  0.00    -0.352 N 
ATOM      3  C   UNL     1       3.546   9.123  -5.854  1.00  0.00     0.251 C 
ATOM      4  O   UNL     1       3.948   9.049  -4.692  1.00  0.00    -0.269 OA
ATOM      5  H   UNL     1       3.290  11.086  -5.681  1.00  0.00     0.163 HD
BRANCH   3   6
ATOM      6  C   UNL     1       3.482   7.874  -6.666  1.00  0.00     0.039 A 
ATOM      7  C   UNL     1       3.459   5.420  -8.046  1.00  0.00     0.004 A 
ATOM      8  C   UNL     1       4.345   5.616  -6.983  1.00  0.00     0.011 A 
ATOM      9  C   UNL     1       2.583   6.440  -8.413  1.00  0.00     0.011 A 
ATOM     10  C   UNL     1       4.358   6.837  -6.303  1.00  0.00     0.014 A 
ATOM     11  C   UNL     1       2.576   7.646  -7.706  1.00  0.00     0.014 A 
BRANCH   7  12
ATOM     12  C   UNL     1       3.387   4.149  -8.726  1.00  0.00     0.114 A 
ATOM     13  C   UNL     1       2.912   2.980  -8.146  1.00  0.00     0.143 A 
ATOM     14  N   UNL     1       2.960   2.056  -9.168  1.00  0.00    -0.283 N 
ATOM     15  N   UNL     1       3.768   3.962 -10.033  1.00  0.00    -0.225 NA
ATOM     16  C   UNL     1       3.515   2.692 -10.252  1.00  0.00     0.157 A 
ATOM     17  C   UNL     1       2.553   0.737  -9.281  1.00  0.00     0.115 A 
ATOM     18  C   UNL     1       3.712   1.941 -11.460  1.00  0.00     0.158 A 
ATOM     19  C   UNL     1       2.754   0.105 -10.451  1.00  0.00     0.129 A 
ATOM     20  N   UNL     1       3.350   0.688 -11.559  1.00  0.00    -0.259 NA
BRANCH  13  21
ATOM     21  N   UNL     1       2.402   2.738  -6.907  1.00  0.00    -0.339 N 
ATOM     22  H   UNL     1       1.536   3.150  -6.684  1.00  0.00     0.168 HD
BRANCH  21  23
ATOM     23  C   UNL     1       3.020   1.938  -5.913  1.00  0.00     0.040 A 
ATOM     24  C   UNL     1       3.087   1.199  -3.593  1.00  0.00     0.062 A 
ATOM     25  C   UNL     1       4.225   0.433  -3.856  1.00  0.00     0.016 A 
ATOM     26  C   UNL     1       2.472   1.929  -4.619  1.00  0.00     0.041 A 
ATOM     27  C   UNL     1       4.742   0.388  -5.146  1.00  0.00     0.003 A 
ATOM     28  C   UNL     1       4.145   1.137  -6.163  1.00  0.00     0.026 A 
BRANCH  24  29
ATOM     29  C   UNL     1       2.615   1.280  -2.196  1.00  0.00     0.338 C 
ATOM     30  O   UNL     1       3.372   1.322  -1.241  1.00  0.00    -0.246 OA
BRANCH  29  31
ATOM     31  O   UNL     1       1.261   1.234  -2.159  1.00  0.00    -0.462 OA
BRANCH  31  32
ATOM     32  C   UNL     1       0.683   1.309  -0.846  1.00  0.00     0.230 C 
ATOM     33  C   UNL     1       0.836   0.001  -0.086  1.00  0.00     0.049 C 
ENDBRANCH  31  32
ENDBRANCH  29  31
ENDBRANCH  24  29
ENDBRANCH  21  23
ENDBRANCH  13  21
ENDBRANCH   7  12
ENDBRANCH   3   6
ENDBRANCH   1   2
BRANCH   1  34
ATOM     34  C   UNL     1       1.233  10.922  -7.677  1.00  0.00     0.023 C 
BRANCH  34  35
ATOM     35  C   UNL     1       0.693  12.206  -7.042  1.00  0.00     0.023 C 
BRANCH  35  36
ATOM     36  C   UNL     1       1.122  13.496  -7.733  1.00  0.00     0.116 C 
BRANCH  36  37
ATOM     37  N   UNL     1       0.770  13.533  -9.145  1.00  0.00    -0.352 N 
ATOM     38  C   UNL     1       0.459  14.623  -9.920  1.00  0.00     0.251 C 
ATOM     39  H   UNL     1       0.752  12.662  -9.604  1.00  0.00     0.163 HD
ATOM     40  O   UNL     1       0.077  14.465 -11.076  1.00  0.00    -0.269 OA
BRANCH  38  41
ATOM     41  C   UNL     1       0.549  15.979  -9.341  1.00  0.00     0.039 A 
ATOM     42  C   UNL     1      -0.528  16.853  -9.510  1.00  0.00     0.014 A 
ATOM     43  C   UNL     1       1.676  16.378  -8.617  1.00  0.00     0.014 A 
ATOM     44  C   UNL     1      -0.497  18.109  -8.903  1.00  0.00     0.010 A 
ATOM     45  C   UNL     1       1.676  17.604  -7.960  1.00  0.00     0.010 A 
ATOM     46  C   UNL     1       0.593  18.483  -8.100  1.00  0.00    -0.014 A 
BRANCH  46  47
ATOM     47  C   UNL     1       0.607  19.785  -7.389  1.00  0.00     0.031 A 
ATOM     48  C   UNL     1       1.630  20.830  -7.738  1.00  0.00     0.074 A 
ATOM     49  C   UNL     1      -0.251  19.992  -6.370  1.00  0.00     0.049 A 
ATOM     50  N   UNL     1       1.809  22.014  -7.212  1.00  0.00    -0.248 NA
ATOM     51  C   UNL     1       2.597  20.493  -8.797  1.00  0.00     0.031 C 
ATOM     52  C   UNL     1      -1.225  19.017  -5.874  1.00  0.00     0.029 A 
ATOM     53  N   UNL     1      -0.424  21.079  -5.551  1.00  0.00    -0.354 N 
ATOM     54  C   UNL     1       2.924  22.547  -7.848  1.00  0.00     0.074 A 
ATOM     55  C   UNL     1       3.401  21.546  -8.776  1.00  0.00     0.031 C 
ATOM     56  C   UNL     1      -1.895  19.552  -4.840  1.00  0.00     0.029 A 
ATOM     57  C   UNL     1      -1.389  20.898  -4.588  1.00  0.00     0.049 A 
ATOM     58  H   UNL     1       0.094  21.911  -5.645  1.00  0.00     0.167 HD
ATOM     59  C   UNL     1       3.479  23.773  -7.698  1.00  0.00     0.034 A 
ATOM     60  C   UNL     1      -1.820  21.724  -3.615  1.00  0.00     0.034 A 
ATOM     61  C   UNL     1       2.966  24.786  -6.816  1.00  0.00     0.049 A 
ATOM     62  C   UNL     1      -1.232  23.106  -3.519  1.00  0.00     0.074 A 
ATOM     63  C   UNL     1       3.390  26.095  -6.670  1.00  0.00     0.029 A 
ATOM     64  N   UNL     1       1.917  24.604  -5.929  1.00  0.00    -0.354 N 
ATOM     65  N   UNL     1      -0.302  23.660  -4.259  1.00  0.00    -0.248 NA
ATOM     66  C   UNL     1      -1.782  23.993  -2.484  1.00  0.00     0.031 C 
ATOM     67  C   UNL     1       2.604  26.701  -5.685  1.00  0.00     0.029 A 
ATOM     68  C   UNL     1       1.682  25.773  -5.227  1.00  0.00     0.049 A 
ATOM     69  H   UNL     1       1.412  23.766  -5.815  1.00  0.00     0.167 HD
ATOM     70  C   UNL     1      -0.177  24.966  -3.801  1.00  0.00     0.074 A 
ATOM     71  C   UNL     1      -1.145  25.129  -2.736  1.00  0.00     0.031 C 
ATOM     72  C   UNL     1       0.675  25.938  -4.211  1.00  0.00     0.034 A 
BRANCH  59  73
ATOM     73  C   UNL     1       4.665  24.115  -8.560  1.00  0.00     0.023 A 
ATOM     74  C   UNL     1       4.469  24.362  -9.935  1.00  0.00     0.012 A 
ATOM     75  C   UNL     1       5.952  24.255  -8.009  1.00  0.00     0.148 A 
ATOM     76  C   UNL     1       5.541  24.714 -10.753  1.00  0.00     0.002 A 
ATOM     77  C   UNL     1       7.010  24.646  -8.823  1.00  0.00     0.091 A 
ATOM     78  F   UNL     1       6.122  23.994  -6.705  1.00  0.00    -0.205 F 
ATOM     79  C   UNL     1       6.808  24.866 -10.196  1.00  0.00     0.022 A 
BRANCH  77  80
ATOM     80  S   UNL     1       8.664  24.941  -8.188  1.00  0.00     0.127 S 
ATOM     81  O   UNL     1       9.391  23.785  -8.712  1.00  0.00    -0.237 OA
ATOM     82  O   UNL     1       9.013  26.216  -8.816  1.00  0.00    -0.237 OA
ATOM     83  O   UNL     1       8.533  24.994  -6.739  1.00  0.00    -0.744 OA
ENDBRANCH  77  80
ENDBRANCH  59  73
BRANCH  60  84
ATOM     84  C   UNL     1      -2.925  21.296  -2.712  1.00  0.00     0.023 A 
ATOM     85  C   UNL     1      -4.195  21.890  -2.850  1.00  0.00     0.012 A 
ATOM     86  C   UNL     1      -2.739  20.289  -1.747  1.00  0.00     0.148 A 
ATOM     87  C   UNL     1      -5.252  21.511  -2.021  1.00  0.00     0.002 A 
ATOM     88  C   UNL     1      -3.810  19.878  -0.960  1.00  0.00     0.091 A 
ATOM     89  F   UNL     1      -1.520  19.745  -1.620  1.00  0.00    -0.205 F 
ATOM     90  C   UNL     1      -5.063  20.498  -1.085  1.00  0.00     0.022 A 
BRANCH  88  91
ATOM     91  S   UNL     1      -3.686  18.491   0.175  1.00  0.00     0.127 S 
ATOM     92  O   UNL     1      -3.606  19.167   1.466  1.00  0.00    -0.237 OA
ATOM     93  O   UNL     1      -4.940  17.779  -0.072  1.00  0.00    -0.237 OA
ATOM     94  O   UNL     1      -2.495  17.760  -0.238  1.00  0.00    -0.744 OA
ENDBRANCH  88  91
ENDBRANCH  60  84
BRANCH  72  95
ATOM     95  C   UNL     1       0.589  27.276  -3.528  1.00  0.00     0.023 A 
ATOM     96  C   UNL     1       1.091  27.422  -2.219  1.00  0.00     0.012 A 
ATOM     97  C   UNL     1       0.090  28.404  -4.208  1.00  0.00     0.148 A 
ATOM     98  C   UNL     1       1.071  28.664  -1.587  1.00  0.00     0.002 A 
ATOM     99  C   UNL     1       0.115  29.648  -3.588  1.00  0.00     0.091 A 
ATOM    100  F   UNL     1      -0.402  28.241  -5.445  1.00  0.00    -0.205 F 
ATOM    101  C   UNL     1       0.595  29.778  -2.275  1.00  0.00     0.022 A 
BRANCH  99 102
ATOM    102  S   UNL     1      -0.391  31.150  -4.435  1.00  0.00     0.127 S 
ATOM    103  O   UNL     1      -1.702  31.401  -3.840  1.00  0.00    -0.237 OA
ATOM    104  O   UNL     1       0.650  32.099  -4.038  1.00  0.00    -0.237 OA
ATOM    105  O   UNL     1      -0.396  30.824  -5.855  1.00  0.00    -0.744 OA
ENDBRANCH  99 102
ENDBRANCH  72  95
ENDBRANCH  46  47
ENDBRANCH  38  41
ENDBRANCH  36  37
ENDBRANCH  35  36
ENDBRANCH  34  35
ENDBRANCH   1  34
TORSDOF 20
