REMARK SMILES CSc1ccc(CNc2ccc(N3CCOCC3)c(C(=O)NCCCCNC(=O)c3ccc(-c4c5nc(c(-c6cccc(S(=O)(=O)[O-])c6F)c6ccc([nH]6)c(-c6cccc(S(=O)(=O)[O-])c6F)c6nc(c(-c7cccc(S(=O)(=O)[O-])c7F)c7ccc4[nH]7)C=C6)C=C5)cc3)c2)cc1
REMARK SMILES IDX 24 1 23 2 22 3 20 4 21 5 19 7 9 8 10 9 93 10 11 11 12 12
REMARK SMILES IDX 8 13 7 15 6 16 3 17 4 18 95 19 5 20 94 21 2 22 1 23 13 24
REMARK SMILES IDX 14 25 18 26 15 27 17 28 16 29 25 30 26 31 27 32 28 33 29 35
REMARK SMILES IDX 30 36 31 37 92 38 32 39 91 40 33 41 34 42 35 43 85 44 36 45
REMARK SMILES IDX 90 46 84 47 86 48 37 49 89 50 83 51 82 52 38 54 70 55 50 56
REMARK SMILES IDX 69 57 51 58 54 59 68 60 87 61 52 62 53 63 67 65 88 66 55 67
REMARK SMILES IDX 39 68 40 69 48 70 41 71 43 72 49 73 42 74 44 75 45 76 46 77
REMARK SMILES IDX 47 78 71 79 72 80 80 81 73 82 75 83 81 84 74 85 76 86 77 87
REMARK SMILES IDX 78 88 79 89 56 90 57 91 65 92 58 93 60 94 66 95 59 96 61 97
REMARK SMILES IDX 62 98 63 99 64 100
REMARK H PARENT 22 6 8 14 27 34 86 53 54 64
REMARK Flexibility Score: inf
ROOT
ATOM      1  C   UNL     1       3.808  -5.429  10.082  1.00  0.00     0.023 C 
ENDROOT
BRANCH   1   2
ATOM      2  C   UNL     1       3.551  -5.690   8.605  1.00  0.00     0.116 C 
BRANCH   2   3
ATOM      3  N   UNL     1       3.700  -7.068   8.151  1.00  0.00    -0.352 N 
ATOM      4  C   UNL     1       2.985  -7.809   7.214  1.00  0.00     0.253 C 
ATOM      5  O   UNL     1       3.444  -8.902   6.893  1.00  0.00    -0.269 OA
ATOM      6  H   UNL     1       4.434  -7.561   8.584  1.00  0.00     0.163 HD
BRANCH   4   7
ATOM      7  C   UNL     1       1.690  -7.306   6.647  1.00  0.00     0.065 A 
ATOM      8  C   UNL     1       0.416  -5.281   6.088  1.00  0.00     0.035 A 
ATOM      9  C   UNL     1      -0.722  -6.072   5.983  1.00  0.00     0.028 A 
ATOM     10  C   UNL     1       1.617  -5.938   6.337  1.00  0.00     0.041 A 
ATOM     11  C   UNL     1      -0.635  -7.463   6.074  1.00  0.00     0.029 A 
ATOM     12  C   UNL     1       0.574  -8.122   6.369  1.00  0.00     0.050 A 
BRANCH   8  13
ATOM     13  N   UNL     1       0.317  -3.920   5.928  1.00  0.00    -0.381 N 
ATOM     14  H   UNL     1      -0.586  -3.554   5.784  1.00  0.00     0.160 HD
BRANCH  13  15
ATOM     15  C   UNL     1       1.414  -2.969   5.953  1.00  0.00     0.148 C 
BRANCH  15  16
ATOM     16  C   UNL     1       1.225  -1.983   4.828  1.00  0.00    -0.029 A 
ATOM     17  C   UNL     1       0.841  -0.177   2.698  1.00  0.00     0.007 A 
ATOM     18  C   UNL     1       0.750  -1.553   2.482  1.00  0.00     0.015 A 
ATOM     19  C   UNL     1       1.141   0.286   3.986  1.00  0.00     0.015 A 
ATOM     20  C   UNL     1       0.957  -2.447   3.531  1.00  0.00     0.007 A 
ATOM     21  C   UNL     1       1.337  -0.607   5.043  1.00  0.00     0.007 A 
BRANCH  17  22
ATOM     22  S   UNL     1       0.533   1.034   1.421  1.00  0.00    -0.130 SA
ATOM     23  C   UNL     1       1.131   0.173  -0.058  1.00  0.00     0.091 C 
ENDBRANCH  17  22
ENDBRANCH  15  16
ENDBRANCH  13  15
ENDBRANCH   8  13
BRANCH  12  24
ATOM     24  N   UNL     1       0.609  -9.496   6.249  1.00  0.00    -0.366 N 
ATOM     25  C   UNL     1       0.881 -10.408   7.363  1.00  0.00     0.145 C 
ATOM     26  C   UNL     1       0.104 -10.125   5.022  1.00  0.00     0.145 C 
ATOM     27  C   UNL     1       1.691 -11.625   6.870  1.00  0.00     0.181 C 
ATOM     28  C   UNL     1       1.002 -11.309   4.644  1.00  0.00     0.181 C 
ATOM     29  O   UNL     1       1.081 -12.254   5.723  1.00  0.00    -0.378 OA
ENDBRANCH  12  24
ENDBRANCH   4   7
ENDBRANCH   2   3
ENDBRANCH   1   2
BRANCH   1  30
ATOM     30  C   UNL     1       5.183  -5.785  10.630  1.00  0.00     0.023 C 
BRANCH  30  31
ATOM     31  C   UNL     1       6.388  -5.279   9.846  1.00  0.00     0.116 C 
BRANCH  31  32
ATOM     32  N   UNL     1       6.423  -3.836   9.660  1.00  0.00    -0.352 N 
ATOM     33  C   UNL     1       7.431  -2.929   9.922  1.00  0.00     0.251 C 
ATOM     34  H   UNL     1       5.598  -3.445   9.290  1.00  0.00     0.163 HD
ATOM     35  O   UNL     1       7.236  -1.739   9.735  1.00  0.00    -0.269 OA
BRANCH  33  36
ATOM     36  C   UNL     1       8.729  -3.393  10.474  1.00  0.00     0.039 A 
ATOM     37  C   UNL     1       9.281  -2.700  11.556  1.00  0.00     0.014 A 
ATOM     38  C   UNL     1       9.387  -4.509   9.954  1.00  0.00     0.014 A 
ATOM     39  C   UNL     1      10.436  -3.186  12.177  1.00  0.00     0.010 A 
ATOM     40  C   UNL     1      10.489  -5.037  10.623  1.00  0.00     0.010 A 
ATOM     41  C   UNL     1      11.022  -4.388  11.747  1.00  0.00    -0.014 A 
BRANCH  41  42
ATOM     42  C   UNL     1      12.160  -5.001  12.483  1.00  0.00     0.031 A 
ATOM     43  C   UNL     1      13.488  -5.209  11.806  1.00  0.00     0.074 A 
ATOM     44  C   UNL     1      11.968  -5.464  13.736  1.00  0.00     0.049 A 
ATOM     45  N   UNL     1      14.573  -5.770  12.276  1.00  0.00    -0.248 NA
ATOM     46  C   UNL     1      13.606  -4.755  10.411  1.00  0.00     0.031 C 
ATOM     47  C   UNL     1      10.702  -5.414  14.472  1.00  0.00     0.029 A 
ATOM     48  N   UNL     1      12.828  -6.093  14.603  1.00  0.00    -0.354 N 
ATOM     49  C   UNL     1      15.486  -5.771  11.228  1.00  0.00     0.074 A 
ATOM     50  C   UNL     1      14.817  -5.185  10.086  1.00  0.00     0.031 C 
ATOM     51  C   UNL     1      10.870  -5.981  15.677  1.00  0.00     0.029 A 
ATOM     52  C   UNL     1      12.245  -6.456  15.795  1.00  0.00     0.049 A 
ATOM     53  H   UNL     1      13.773  -6.268  14.391  1.00  0.00     0.167 HD
ATOM     54  C   UNL     1      16.774  -6.189  11.222  1.00  0.00     0.034 A 
ATOM     55  C   UNL     1      12.757  -7.098  16.864  1.00  0.00     0.034 A 
ATOM     56  C   UNL     1      17.456  -6.721  12.372  1.00  0.00     0.049 A 
ATOM     57  C   UNL     1      14.209  -7.491  16.855  1.00  0.00     0.074 A 
ATOM     58  C   UNL     1      18.788  -7.076  12.494  1.00  0.00     0.029 A 
ATOM     59  N   UNL     1      16.861  -6.976  13.597  1.00  0.00    -0.354 N 
ATOM     60  N   UNL     1      15.105  -7.318  15.913  1.00  0.00    -0.248 NA
ATOM     61  C   UNL     1      14.733  -8.132  18.070  1.00  0.00     0.031 C 
ATOM     62  C   UNL     1      18.995  -7.558  13.791  1.00  0.00     0.029 A 
ATOM     63  C   UNL     1      17.795  -7.489  14.480  1.00  0.00     0.049 A 
ATOM     64  H   UNL     1      15.912  -6.816  13.808  1.00  0.00     0.167 HD
ATOM     65  C   UNL     1      16.302  -7.798  16.432  1.00  0.00     0.074 A 
ATOM     66  C   UNL     1      16.023  -8.245  17.782  1.00  0.00     0.031 C 
ATOM     67  C   UNL     1      17.518  -7.878  15.839  1.00  0.00     0.034 A 
BRANCH  54  68
ATOM     68  C   UNL     1      17.558  -6.022   9.946  1.00  0.00     0.023 A 
ATOM     69  C   UNL     1      17.953  -4.730   9.544  1.00  0.00     0.012 A 
ATOM     70  C   UNL     1      17.954  -7.136   9.180  1.00  0.00     0.148 A 
ATOM     71  C   UNL     1      18.701  -4.544   8.383  1.00  0.00     0.002 A 
ATOM     72  C   UNL     1      18.736  -6.946   8.046  1.00  0.00     0.091 A 
ATOM     73  F   UNL     1      17.551  -8.355   9.565  1.00  0.00    -0.205 F 
ATOM     74  C   UNL     1      19.101  -5.651   7.640  1.00  0.00     0.022 A 
BRANCH  72  75
ATOM     75  S   UNL     1      19.366  -8.312   7.064  1.00  0.00     0.127 S 
ATOM     76  O   UNL     1      18.541  -8.215   5.860  1.00  0.00    -0.237 OA
ATOM     77  O   UNL     1      20.767  -7.935   6.873  1.00  0.00    -0.237 OA
ATOM     78  O   UNL     1      19.165  -9.509   7.867  1.00  0.00    -0.744 OA
ENDBRANCH  72  75
ENDBRANCH  54  68
BRANCH  55  79
ATOM     79  C   UNL     1      11.910  -7.332  18.068  1.00  0.00     0.023 A 
ATOM     80  C   UNL     1      12.163  -6.594  19.241  1.00  0.00     0.012 A 
ATOM     81  C   UNL     1      10.843  -8.251  18.053  1.00  0.00     0.148 A 
ATOM     82  C   UNL     1      11.391  -6.788  20.386  1.00  0.00     0.002 A 
ATOM     83  C   UNL     1      10.043  -8.401  19.181  1.00  0.00     0.091 A 
ATOM     84  F   UNL     1      10.626  -8.955  16.933  1.00  0.00    -0.205 F 
ATOM     85  C   UNL     1      10.325  -7.683  20.353  1.00  0.00     0.022 A 
BRANCH  83  86
ATOM     86  S   UNL     1       8.570  -9.430  19.182  1.00  0.00     0.127 S 
ATOM     87  O   UNL     1       9.010 -10.582  19.965  1.00  0.00    -0.237 OA
ATOM     88  O   UNL     1       7.595  -8.567  19.849  1.00  0.00    -0.237 OA
ATOM     89  O   UNL     1       8.276  -9.688  17.779  1.00  0.00    -0.744 OA
ENDBRANCH  83  86
ENDBRANCH  55  79
BRANCH  67  90
ATOM     90  C   UNL     1      18.653  -8.449  16.648  1.00  0.00     0.023 A 
ATOM     91  C   UNL     1      18.698  -9.833  16.906  1.00  0.00     0.012 A 
ATOM     92  C   UNL     1      19.708  -7.628  17.093  1.00  0.00     0.148 A 
ATOM     93  C   UNL     1      19.759 -10.388  17.620  1.00  0.00     0.002 A 
ATOM     94  C   UNL     1      20.786  -8.195  17.765  1.00  0.00     0.091 A 
ATOM     95  F   UNL     1      19.638  -6.310  16.858  1.00  0.00    -0.205 F 
ATOM     96  C   UNL     1      20.807  -9.572  18.038  1.00  0.00     0.022 A 
BRANCH  94  97
ATOM     97  S   UNL     1      22.221  -7.232  18.257  1.00  0.00     0.127 S 
ATOM     98  O   UNL     1      21.995  -7.073  19.692  1.00  0.00    -0.237 OA
ATOM     99  O   UNL     1      23.330  -8.122  17.909  1.00  0.00    -0.237 OA
ATOM    100  O   UNL     1      22.165  -6.007  17.471  1.00  0.00    -0.744 OA
ENDBRANCH  94  97
ENDBRANCH  67  90
ENDBRANCH  41  42
ENDBRANCH  33  36
ENDBRANCH  31  32
ENDBRANCH  30  31
ENDBRANCH   1  30
TORSDOF 19
