REMARK SMILES CC(C)(C)OC(=O)N1CC[N@H+](Cc2ccc(Cl)nc2)[C@H](C(=O)NCCCCNC(=O)c2ccc(-c3c4nc(c(-c5cccc(S(=O)(=O)[O-])c5F)c5ccc([nH]5)c(-c5cccc(S(=O)(=O)[O-])c5F)c5nc(c(-c6cccc(S(=O)(=O)[O-])c6F)c6ccc3[nH]6)C=C5)C=C4)cc2)C1
REMARK SMILES IDX 25 1 24 2 23 3 21 4 22 5 20 7 8 8 9 9 94 10 10 11 11 12 6 14
REMARK SMILES IDX 7 15 5 16 2 17 1 18 3 19 4 20 12 21 13 22 14 23 19 24 15 25
REMARK SMILES IDX 18 26 16 27 17 28 26 29 27 30 28 31 29 32 30 34 31 35 32 36
REMARK SMILES IDX 93 37 33 38 92 39 34 40 35 41 36 42 86 43 37 44 91 45 85 46
REMARK SMILES IDX 87 47 38 48 90 49 84 50 83 51 39 53 71 54 51 55 70 56 52 57
REMARK SMILES IDX 55 58 69 59 88 60 53 61 54 62 68 64 89 65 56 66 40 67 41 68
REMARK SMILES IDX 49 69 42 70 44 71 50 72 43 73 45 74 46 75 47 76 48 77 72 78
REMARK SMILES IDX 73 79 81 80 74 81 76 82 82 83 75 84 77 85 78 86 79 87 80 88
REMARK SMILES IDX 57 89 58 90 66 91 59 92 61 93 67 94 60 95 62 96 63 97 64 98
REMARK SMILES IDX 65 99
REMARK H PARENT 23 6 11 13 28 33 87 52 55 63
REMARK Flexibility Score: inf
ROOT
ATOM      1  C   UNL     1       4.452   1.878  -3.874  1.00  0.00     0.023 C 
ENDROOT
BRANCH   1   2
ATOM      2  C   UNL     1       3.723   1.435  -5.140  1.00  0.00     0.116 C 
BRANCH   2   3
ATOM      3  N   UNL     1       4.351   0.276  -5.747  1.00  0.00    -0.351 N 
ATOM      4  C   UNL     1       3.835  -0.953  -6.050  1.00  0.00     0.280 C 
ATOM      5  O   UNL     1       4.620  -1.781  -6.513  1.00  0.00    -0.268 OA
ATOM      6  H   UNL     1       5.301   0.394  -5.978  1.00  0.00     0.163 HD
BRANCH   4   7
ATOM      7  C   UNL     1       2.351  -1.250  -5.765  1.00  0.00     0.294 C 
ATOM      8  N   UNL     1       0.762  -2.047  -3.998  1.00  0.00    -0.296 N 
ATOM      9  C   UNL     1      -0.079  -2.630  -5.033  1.00  0.00     0.184 C 
ATOM     10  C   UNL     1       2.166  -1.769  -4.327  1.00  0.00     0.198 C 
ATOM     11  C   UNL     1       0.227  -2.151  -6.464  1.00  0.00     0.285 C 
ATOM     12  N   UNL     1       1.649  -2.031  -6.823  1.00  0.00    -0.318 N 
ATOM     13  H   UNL     1       1.767  -1.468  -7.665  1.00  0.00     0.349 HD
BRANCH   8  14
ATOM     14  C   UNL     1       0.318  -2.173  -2.693  1.00  0.00     0.410 C 
ATOM     15  O   UNL     1      -0.643  -2.867  -2.386  1.00  0.00    -0.224 OA
BRANCH  14  16
ATOM     16  O   UNL     1       1.008  -1.385  -1.831  1.00  0.00    -0.444 OA
BRANCH  16  17
ATOM     17  C   UNL     1       0.572  -1.247  -0.450  1.00  0.00     0.106 C 
ATOM     18  C   UNL     1       1.278   0.017   0.063  1.00  0.00     0.056 C 
ATOM     19  C   UNL     1       1.040  -2.456   0.363  1.00  0.00     0.056 C 
ATOM     20  C   UNL     1      -0.944  -1.025  -0.306  1.00  0.00     0.056 C 
ENDBRANCH  16  17
ENDBRANCH  14  16
ENDBRANCH   8  14
BRANCH  12  21
ATOM     21  C   UNL     1       2.257  -3.250  -7.374  1.00  0.00     0.301 C 
BRANCH  21  22
ATOM     22  C   UNL     1       2.401  -4.451  -6.475  1.00  0.00     0.025 A 
ATOM     23  C   UNL     1       1.345  -5.348  -6.275  1.00  0.00     0.014 A 
ATOM     24  C   UNL     1       3.592  -4.723  -5.807  1.00  0.00     0.122 A 
ATOM     25  C   UNL     1       1.474  -6.380  -5.350  1.00  0.00     0.041 A 
ATOM     26  N   UNL     1       3.754  -5.728  -4.916  1.00  0.00    -0.244 NA
ATOM     27  C   UNL     1       2.683  -6.512  -4.696  1.00  0.00     0.129 A 
ATOM     28  Cl  UNL     1       2.909  -7.722  -3.502  1.00  0.00    -0.062 Cl
ENDBRANCH  21  22
ENDBRANCH  12  21
ENDBRANCH   4   7
ENDBRANCH   2   3
ENDBRANCH   1   2
BRANCH   1  29
ATOM     29  C   UNL     1       5.879   2.390  -4.086  1.00  0.00     0.023 C 
BRANCH  29  30
ATOM     30  C   UNL     1       6.038   3.516  -5.105  1.00  0.00     0.116 C 
BRANCH  30  31
ATOM     31  N   UNL     1       5.207   4.673  -4.812  1.00  0.00    -0.352 N 
ATOM     32  C   UNL     1       5.526   6.010  -4.837  1.00  0.00     0.251 C 
ATOM     33  H   UNL     1       4.278   4.469  -4.558  1.00  0.00     0.163 HD
ATOM     34  O   UNL     1       4.703   6.833  -4.443  1.00  0.00    -0.269 OA
BRANCH  32  35
ATOM     35  C   UNL     1       6.858   6.459  -5.301  1.00  0.00     0.039 A 
ATOM     36  C   UNL     1       7.529   7.435  -4.559  1.00  0.00     0.014 A 
ATOM     37  C   UNL     1       7.447   5.933  -6.455  1.00  0.00     0.014 A 
ATOM     38  C   UNL     1       8.815   7.832  -4.934  1.00  0.00     0.010 A 
ATOM     39  C   UNL     1       8.755   6.282  -6.790  1.00  0.00     0.010 A 
ATOM     40  C   UNL     1       9.455   7.232  -6.032  1.00  0.00    -0.014 A 
BRANCH  40  41
ATOM     41  C   UNL     1      10.867   7.559  -6.361  1.00  0.00     0.031 A 
ATOM     42  C   UNL     1      11.224   8.227  -7.661  1.00  0.00     0.074 A 
ATOM     43  C   UNL     1      11.844   7.184  -5.511  1.00  0.00     0.049 A 
ATOM     44  N   UNL     1      12.402   8.586  -8.104  1.00  0.00    -0.248 NA
ATOM     45  C   UNL     1      10.123   8.508  -8.595  1.00  0.00     0.031 C 
ATOM     46  C   UNL     1      11.639   6.443  -4.263  1.00  0.00     0.029 A 
ATOM     47  N   UNL     1      13.204   7.355  -5.574  1.00  0.00    -0.354 N 
ATOM     48  C   UNL     1      12.190   9.110  -9.374  1.00  0.00     0.074 A 
ATOM     49  C   UNL     1      10.774   8.991  -9.646  1.00  0.00     0.031 C 
ATOM     50  C   UNL     1      12.828   6.233  -3.676  1.00  0.00     0.029 A 
ATOM     51  C   UNL     1      13.880   6.805  -4.510  1.00  0.00     0.049 A 
ATOM     52  H   UNL     1      13.654   7.826  -6.312  1.00  0.00     0.167 HD
ATOM     53  C   UNL     1      13.085   9.669 -10.223  1.00  0.00     0.034 A 
ATOM     54  C   UNL     1      15.198   6.770  -4.231  1.00  0.00     0.034 A 
ATOM     55  C   UNL     1      14.486   9.828  -9.934  1.00  0.00     0.049 A 
ATOM     56  C   UNL     1      16.161   7.453  -5.163  1.00  0.00     0.074 A 
ATOM     57  C   UNL     1      15.454  10.465 -10.691  1.00  0.00     0.029 A 
ATOM     58  N   UNL     1      15.122   9.341  -8.803  1.00  0.00    -0.354 N 
ATOM     59  N   UNL     1      15.914   8.105  -6.273  1.00  0.00    -0.248 NA
ATOM     60  C   UNL     1      17.581   7.433  -4.782  1.00  0.00     0.031 C 
ATOM     61  C   UNL     1      16.678  10.353 -10.022  1.00  0.00     0.029 A 
ATOM     62  C   UNL     1      16.470   9.658  -8.842  1.00  0.00     0.049 A 
ATOM     63  H   UNL     1      14.680   8.844  -8.077  1.00  0.00     0.167 HD
ATOM     64  C   UNL     1      17.140   8.595  -6.708  1.00  0.00     0.074 A 
ATOM     65  C   UNL     1      18.123   8.192  -5.723  1.00  0.00     0.031 C 
ATOM     66  C   UNL     1      17.430   9.294  -7.833  1.00  0.00     0.034 A 
BRANCH  53  67
ATOM     67  C   UNL     1      12.564  10.222 -11.524  1.00  0.00     0.023 A 
ATOM     68  C   UNL     1      11.813  11.416 -11.513  1.00  0.00     0.012 A 
ATOM     69  C   UNL     1      12.870   9.611 -12.756  1.00  0.00     0.148 A 
ATOM     70  C   UNL     1      11.350  11.977 -12.702  1.00  0.00     0.002 A 
ATOM     71  C   UNL     1      12.439  10.198 -13.941  1.00  0.00     0.091 A 
ATOM     72  F   UNL     1      13.567   8.466 -12.746  1.00  0.00    -0.205 F 
ATOM     73  C   UNL     1      11.672  11.375 -13.915  1.00  0.00     0.022 A 
BRANCH  71  74
ATOM     74  S   UNL     1      12.862   9.542 -15.559  1.00  0.00     0.127 S 
ATOM     75  O   UNL     1      11.578   9.001 -16.002  1.00  0.00    -0.237 OA
ATOM     76  O   UNL     1      13.297  10.742 -16.275  1.00  0.00    -0.237 OA
ATOM     77  O   UNL     1      13.911   8.558 -15.331  1.00  0.00    -0.744 OA
ENDBRANCH  71  74
ENDBRANCH  53  67
BRANCH  54  78
ATOM     78  C   UNL     1      15.675   6.135  -2.970  1.00  0.00     0.023 A 
ATOM     79  C   UNL     1      16.178   6.950  -1.937  1.00  0.00     0.012 A 
ATOM     80  C   UNL     1      15.611   4.742  -2.777  1.00  0.00     0.148 A 
ATOM     81  C   UNL     1      16.638   6.386  -0.746  1.00  0.00     0.002 A 
ATOM     82  C   UNL     1      16.020   4.192  -1.567  1.00  0.00     0.091 A 
ATOM     83  F   UNL     1      15.146   3.982  -3.778  1.00  0.00    -0.205 F 
ATOM     84  C   UNL     1      16.549   5.010  -0.557  1.00  0.00     0.022 A 
BRANCH  82  85
ATOM     85  S   UNL     1      15.810   2.448  -1.194  1.00  0.00     0.127 S 
ATOM     86  O   UNL     1      17.170   1.941  -1.352  1.00  0.00    -0.237 OA
ATOM     87  O   UNL     1      15.322   2.486   0.186  1.00  0.00    -0.237 OA
ATOM     88  O   UNL     1      14.830   1.963  -2.157  1.00  0.00    -0.744 OA
ENDBRANCH  82  85
ENDBRANCH  54  78
BRANCH  66  89
ATOM     89  C   UNL     1      18.869   9.683  -8.054  1.00  0.00     0.023 A 
ATOM     90  C   UNL     1      19.808   8.695  -8.411  1.00  0.00     0.012 A 
ATOM     91  C   UNL     1      19.283  11.026  -7.957  1.00  0.00     0.148 A 
ATOM     92  C   UNL     1      21.144   9.030  -8.630  1.00  0.00     0.002 A 
ATOM     93  C   UNL     1      20.607  11.360  -8.222  1.00  0.00     0.091 A 
ATOM     94  F   UNL     1      18.382  11.951  -7.595  1.00  0.00    -0.205 F 
ATOM     95  C   UNL     1      21.541  10.363  -8.546  1.00  0.00     0.022 A 
BRANCH  93  96
ATOM     96  S   UNL     1      21.178  13.063  -8.223  1.00  0.00     0.127 S 
ATOM     97  O   UNL     1      21.834  13.160  -6.920  1.00  0.00    -0.237 OA
ATOM     98  O   UNL     1      22.090  13.090  -9.367  1.00  0.00    -0.237 OA
ATOM     99  O   UNL     1      19.983  13.879  -8.391  1.00  0.00    -0.744 OA
ENDBRANCH  93  96
ENDBRANCH  66  89
ENDBRANCH  40  41
ENDBRANCH  32  35
ENDBRANCH  30  31
ENDBRANCH  29  30
ENDBRANCH   1  29
TORSDOF 19
