REMARK SMILES O=C(COCCNc1nncs1)NCCCCNC(=O)c1ccc(-c2c3nc(c(-c4cccc(S(=O)(=O)[O-])c4F)c4ccc([nH]4)c(-c4cccc(S(=O)(=O)[O-])c4F)c4nc(c(-c5cccc(S(=O)(=O)[O-])c5F)c5ccc2[nH]5)C=C4)C=C3)cc1
REMARK SMILES IDX 14 1 13 2 1 3 2 4 3 6 4 7 5 8 6 9 7 10 8 12 9 13 12 14 10 15
REMARK SMILES IDX 11 16 15 17 16 18 17 19 18 20 19 21 20 23 21 24 22 25 83 26
REMARK SMILES IDX 23 27 82 28 24 29 25 30 26 31 76 32 27 33 81 34 75 35 77 36
REMARK SMILES IDX 28 37 80 38 74 39 73 40 29 42 61 43 41 44 60 45 42 46 45 47
REMARK SMILES IDX 59 48 78 49 43 50 44 51 58 53 79 54 46 55 30 56 31 57 39 58
REMARK SMILES IDX 32 59 34 60 40 61 33 62 35 63 36 64 37 65 38 66 62 67 63 68
REMARK SMILES IDX 71 69 64 70 66 71 72 72 65 73 67 74 68 75 69 76 70 77 47 78
REMARK SMILES IDX 48 79 56 80 49 81 51 82 57 83 50 84 52 85 53 86 54 87 55 88
REMARK H PARENT 13 5 7 11 18 22 77 41 45 52
REMARK Flexibility Score: inf
ROOT
ATOM      1  C   UNL     1       2.116   2.152  -0.987  1.00  0.00     0.116 C 
ENDROOT
BRANCH   1   2
ATOM      2  N   UNL     1       2.890   1.004  -0.567  1.00  0.00    -0.354 N 
ATOM      3  O   UNL     1       1.364   0.206   0.962  1.00  0.00    -0.272 OA
ATOM      4  C   UNL     1       2.435   0.107   0.374  1.00  0.00     0.245 C 
ATOM      5  H   UNL     1       3.777   0.859  -0.969  1.00  0.00     0.163 HD
BRANCH   4   6
ATOM      6  C   UNL     1       3.395  -1.063   0.622  1.00  0.00     0.260 C 
BRANCH   6   7
ATOM      7  O   UNL     1       3.796  -1.818  -0.510  1.00  0.00    -0.370 OA
BRANCH   7   8
ATOM      8  C   UNL     1       2.749  -2.282  -1.370  1.00  0.00     0.182 C 
BRANCH   8   9
ATOM      9  C   UNL     1       1.868  -3.406  -0.794  1.00  0.00     0.143 C 
BRANCH   9  10
ATOM     10  N   UNL     1       0.822  -2.881   0.063  1.00  0.00    -0.358 N 
ATOM     11  H   UNL     1       1.111  -2.478   0.914  1.00  0.00     0.163 HD
BRANCH  10  12
ATOM     12  C   UNL     1      -0.507  -2.886  -0.183  1.00  0.00     0.205 A 
ATOM     13  N   UNL     1      -1.338  -2.126   0.504  1.00  0.00    -0.121 NA
ATOM     14  S   UNL     1      -1.319  -3.870  -1.345  1.00  0.00    -0.083 S 
ATOM     15  N   UNL     1      -2.655  -2.264   0.126  1.00  0.00    -0.145 NA
ATOM     16  C   UNL     1      -2.785  -3.156  -0.827  1.00  0.00     0.204 A 
ENDBRANCH  10  12
ENDBRANCH   9  10
ENDBRANCH   8   9
ENDBRANCH   7   8
ENDBRANCH   6   7
ENDBRANCH   4   6
ENDBRANCH   1   2
BRANCH   1  17
ATOM     17  C   UNL     1       2.450   3.412  -0.192  1.00  0.00     0.023 C 
BRANCH  17  18
ATOM     18  C   UNL     1       3.924   3.825  -0.229  1.00  0.00     0.023 C 
BRANCH  18  19
ATOM     19  C   UNL     1       4.521   4.010  -1.620  1.00  0.00     0.116 C 
BRANCH  19  20
ATOM     20  N   UNL     1       3.892   5.085  -2.371  1.00  0.00    -0.352 N 
ATOM     21  C   UNL     1       4.476   6.133  -3.046  1.00  0.00     0.251 C 
ATOM     22  H   UNL     1       2.908   5.059  -2.402  1.00  0.00     0.163 HD
ATOM     23  O   UNL     1       3.776   7.025  -3.510  1.00  0.00    -0.269 OA
BRANCH  21  24
ATOM     24  C   UNL     1       5.950   6.197  -3.187  1.00  0.00     0.039 A 
ATOM     25  C   UNL     1       6.597   7.411  -2.942  1.00  0.00     0.014 A 
ATOM     26  C   UNL     1       6.692   5.071  -3.551  1.00  0.00     0.014 A 
ATOM     27  C   UNL     1       7.992   7.478  -2.996  1.00  0.00     0.010 A 
ATOM     28  C   UNL     1       8.085   5.120  -3.528  1.00  0.00     0.010 A 
ATOM     29  C   UNL     1       8.752   6.324  -3.252  1.00  0.00    -0.014 A 
BRANCH  29  30
ATOM     30  C   UNL     1      10.239   6.354  -3.213  1.00  0.00     0.031 A 
ATOM     31  C   UNL     1      11.043   6.020  -4.442  1.00  0.00     0.074 A 
ATOM     32  C   UNL     1      10.871   6.604  -2.048  1.00  0.00     0.049 A 
ATOM     33  N   UNL     1      12.341   5.938  -4.581  1.00  0.00    -0.248 NA
ATOM     34  C   UNL     1      10.290   5.713  -5.669  1.00  0.00     0.031 C 
ATOM     35  C   UNL     1      10.211   6.867  -0.767  1.00  0.00     0.029 A 
ATOM     36  N   UNL     1      12.210   6.649  -1.744  1.00  0.00    -0.354 N 
ATOM     37  C   UNL     1      12.561   5.541  -5.895  1.00  0.00     0.074 A 
ATOM     38  C   UNL     1      11.260   5.363  -6.502  1.00  0.00     0.031 C 
ATOM     39  C   UNL     1      11.144   7.048   0.181  1.00  0.00     0.029 A 
ATOM     40  C   UNL     1      12.466   6.878  -0.412  1.00  0.00     0.049 A 
ATOM     41  H   UNL     1      12.919   6.528  -2.416  1.00  0.00     0.167 HD
ATOM     42  C   UNL     1      13.735   5.367  -6.547  1.00  0.00     0.034 A 
ATOM     43  C   UNL     1      13.633   6.930   0.262  1.00  0.00     0.034 A 
ATOM     44  C   UNL     1      15.028   5.575  -5.951  1.00  0.00     0.049 A 
ATOM     45  C   UNL     1      14.924   6.757  -0.490  1.00  0.00     0.074 A 
ATOM     46  C   UNL     1      16.273   5.502  -6.551  1.00  0.00     0.029 A 
ATOM     47  N   UNL     1      15.247   5.885  -4.618  1.00  0.00    -0.354 N 
ATOM     48  N   UNL     1      15.111   6.531  -1.768  1.00  0.00    -0.248 NA
ATOM     49  C   UNL     1      16.168   6.881   0.284  1.00  0.00     0.031 C 
ATOM     50  C   UNL     1      17.245   5.734  -5.574  1.00  0.00     0.029 A 
ATOM     51  C   UNL     1      16.605   5.993  -4.373  1.00  0.00     0.049 A 
ATOM     52  H   UNL     1      14.540   6.009  -3.944  1.00  0.00     0.167 HD
ATOM     53  C   UNL     1      16.488   6.524  -1.957  1.00  0.00     0.074 A 
ATOM     54  C   UNL     1      17.088   6.790  -0.666  1.00  0.00     0.031 C 
ATOM     55  C   UNL     1      17.192   6.306  -3.095  1.00  0.00     0.034 A 
BRANCH  42  56
ATOM     56  C   UNL     1      13.679   4.973  -8.001  1.00  0.00     0.023 A 
ATOM     57  C   UNL     1      13.229   5.905  -8.959  1.00  0.00     0.012 A 
ATOM     58  C   UNL     1      14.129   3.708  -8.428  1.00  0.00     0.148 A 
ATOM     59  C   UNL     1      13.193   5.573 -10.313  1.00  0.00     0.002 A 
ATOM     60  C   UNL     1      14.136   3.402  -9.784  1.00  0.00     0.091 A 
ATOM     61  F   UNL     1      14.537   2.829  -7.502  1.00  0.00    -0.205 F 
ATOM     62  C   UNL     1      13.656   4.327 -10.725  1.00  0.00     0.022 A 
BRANCH  60  63
ATOM     63  S   UNL     1      14.787   1.856 -10.427  1.00  0.00     0.127 S 
ATOM     64  O   UNL     1      13.570   1.201 -10.905  1.00  0.00    -0.237 OA
ATOM     65  O   UNL     1      15.685   2.319 -11.485  1.00  0.00    -0.237 OA
ATOM     66  O   UNL     1      15.448   1.200  -9.308  1.00  0.00    -0.744 OA
ENDBRANCH  60  63
ENDBRANCH  42  56
BRANCH  43  67
ATOM     67  C   UNL     1      13.636   7.202   1.728  1.00  0.00     0.023 A 
ATOM     68  C   UNL     1      14.139   8.428   2.208  1.00  0.00     0.012 A 
ATOM     69  C   UNL     1      13.130   6.261   2.646  1.00  0.00     0.148 A 
ATOM     70  C   UNL     1      14.173   8.695   3.578  1.00  0.00     0.002 A 
ATOM     71  C   UNL     1      13.113   6.558   4.003  1.00  0.00     0.091 A 
ATOM     72  F   UNL     1      12.665   5.098   2.170  1.00  0.00    -0.205 F 
ATOM     73  C   UNL     1      13.652   7.765   4.474  1.00  0.00     0.022 A 
BRANCH  71  74
ATOM     74  S   UNL     1      12.343   5.478   5.215  1.00  0.00     0.127 S 
ATOM     75  O   UNL     1      13.501   4.986   5.956  1.00  0.00    -0.237 OA
ATOM     76  O   UNL     1      11.490   6.412   5.950  1.00  0.00    -0.237 OA
ATOM     77  O   UNL     1      11.614   4.479   4.445  1.00  0.00    -0.744 OA
ENDBRANCH  71  74
ENDBRANCH  43  67
BRANCH  55  78
ATOM     78  C   UNL     1      18.695   6.390  -3.017  1.00  0.00     0.023 A 
ATOM     79  C   UNL     1      19.425   5.382  -2.356  1.00  0.00     0.012 A 
ATOM     80  C   UNL     1      19.387   7.434  -3.662  1.00  0.00     0.148 A 
ATOM     81  C   UNL     1      20.819   5.432  -2.308  1.00  0.00     0.002 A 
ATOM     82  C   UNL     1      20.776   7.449  -3.656  1.00  0.00     0.091 A 
ATOM     83  F   UNL     1      18.674   8.393  -4.271  1.00  0.00    -0.205 F 
ATOM     84  C   UNL     1      21.493   6.457  -2.968  1.00  0.00     0.022 A 
BRANCH  82  85
ATOM     85  S   UNL     1      21.732   8.671  -4.561  1.00  0.00     0.127 S 
ATOM     86  O   UNL     1      22.302   9.467  -3.474  1.00  0.00    -0.237 OA
ATOM     87  O   UNL     1      22.698   7.839  -5.278  1.00  0.00    -0.237 OA
ATOM     88  O   UNL     1      20.784   9.373  -5.416  1.00  0.00    -0.744 OA
ENDBRANCH  82  85
ENDBRANCH  55  78
ENDBRANCH  29  30
ENDBRANCH  21  24
ENDBRANCH  19  20
ENDBRANCH  18  19
ENDBRANCH  17  18
ENDBRANCH   1  17
TORSDOF 19
