REMARK SMILES C[N@H+](CC(C)(C)C(=O)NCCCCNC(=O)c1ccc(-c2c3nc(c(-c4cccc(S(=O)(=O)[O-])c4F)c4ccc([nH]4)c(-c4cccc(S(=O)(=O)[O-])c4F)c4nc(c(-c5cccc(S(=O)(=O)[O-])c5F)c5ccc2[nH]5)C=C4)C=C3)cc1)[C@@H]1CCCC[C@@H]1C[NH3+]
REMARK SMILES IDX 10 1 9 2 7 3 8 4 4 6 5 7 6 8 3 9 2 10 1 11 80 13 81 14 85 15
REMARK SMILES IDX 82 16 84 17 83 18 86 19 87 20 11 24 12 25 13 26 14 27 15 28
REMARK SMILES IDX 16 30 17 31 18 32 79 33 19 34 78 35 20 36 21 37 22 38 72 39
REMARK SMILES IDX 23 40 77 41 71 42 73 43 24 44 76 45 70 46 69 47 25 49 57 50
REMARK SMILES IDX 37 51 56 52 38 53 41 54 55 55 74 56 39 57 40 58 54 60 75 61
REMARK SMILES IDX 42 62 26 63 27 64 35 65 28 66 30 67 36 68 29 69 31 70 32 71
REMARK SMILES IDX 33 72 34 73 58 74 59 75 67 76 60 77 62 78 68 79 61 80 63 81
REMARK SMILES IDX 64 82 65 83 66 84 43 85 44 86 52 87 45 88 47 89 53 90 46 91
REMARK SMILES IDX 48 92 49 93 50 94 51 95
REMARK H PARENT 9 5 2 12 87 21 87 22 87 23 14 29 73 48 41 59
REMARK Flexibility Score: inf
ROOT
ATOM      1  C   UNL     1      -2.930   2.850   2.058  1.00  0.00     0.116 C 
ENDROOT
BRANCH   1   2
ATOM      2  N   UNL     1      -2.227   1.592   1.947  1.00  0.00    -0.355 N 
ATOM      3  C   UNL     1      -1.955   0.744   0.933  1.00  0.00     0.231 C 
ATOM      4  O   UNL     1      -1.461  -0.333   1.301  1.00  0.00    -0.274 OA
ATOM      5  H   UNL     1      -1.863   1.284   2.808  1.00  0.00     0.163 HD
BRANCH   3   6
ATOM      6  C   UNL     1      -2.289   0.965  -0.558  1.00  0.00     0.092 C 
ATOM      7  C   UNL     1      -2.785   2.324  -1.067  1.00  0.00     0.027 C 
ATOM      8  C   UNL     1      -3.485   0.010  -0.809  1.00  0.00     0.027 C 
BRANCH   6   9
ATOM      9  C   UNL     1      -1.029   0.514  -1.407  1.00  0.00     0.278 C 
BRANCH   9  10
ATOM     10  N   UNL     1       0.306   0.803  -0.819  1.00  0.00    -0.334 N 
ATOM     11  C   UNL     1       1.044  -0.438  -0.550  1.00  0.00     0.333 C 
ATOM     12  H   UNL     1       0.081   1.252   0.069  1.00  0.00     0.348 HD
BRANCH  10  13
ATOM     13  C   UNL     1       1.131   1.887  -1.430  1.00  0.00     0.192 C 
ATOM     14  C   UNL     1       2.652   1.833  -1.061  1.00  0.00     0.065 C 
ATOM     15  C   UNL     1       0.560   3.301  -1.110  1.00  0.00     0.102 C 
ATOM     16  C   UNL     1       3.484   3.037  -1.515  1.00  0.00     0.006 C 
ATOM     17  C   UNL     1       1.425   4.407  -1.735  1.00  0.00     0.015 C 
ATOM     18  C   UNL     1       2.841   4.374  -1.191  1.00  0.00     0.001 C 
BRANCH  15  19
ATOM     19  C   UNL     1       0.295   3.631   0.389  1.00  0.00     0.268 C 
BRANCH  19  20
ATOM     20  N   UNL     1       0.881   2.737   1.376  1.00  0.00    -0.357 N 
ATOM     21  H   UNL     1       0.473   1.808   1.278  1.00  0.00     0.344 HD
ATOM     22  H   UNL     1       0.693   3.095   2.312  1.00  0.00     0.344 HD
ATOM     23  H   UNL     1       1.889   2.683   1.229  1.00  0.00     0.344 HD
ENDBRANCH  19  20
ENDBRANCH  15  19
ENDBRANCH  10  13
ENDBRANCH   9  10
ENDBRANCH   6   9
ENDBRANCH   3   6
ENDBRANCH   1   2
BRANCH   1  24
ATOM     24  C   UNL     1      -4.056   2.756   3.079  1.00  0.00     0.023 C 
BRANCH  24  25
ATOM     25  C   UNL     1      -3.584   2.597   4.525  1.00  0.00     0.023 C 
BRANCH  25  26
ATOM     26  C   UNL     1      -2.633   3.685   5.016  1.00  0.00     0.116 C 
BRANCH  26  27
ATOM     27  N   UNL     1      -3.188   5.022   4.853  1.00  0.00    -0.352 N 
ATOM     28  C   UNL     1      -3.448   5.977   5.802  1.00  0.00     0.251 C 
ATOM     29  H   UNL     1      -3.409   5.277   3.928  1.00  0.00     0.163 HD
ATOM     30  O   UNL     1      -4.110   6.972   5.505  1.00  0.00    -0.269 OA
BRANCH  28  31
ATOM     31  C   UNL     1      -2.945   5.802   7.179  1.00  0.00     0.039 A 
ATOM     32  C   UNL     1      -3.799   6.060   8.253  1.00  0.00     0.014 A 
ATOM     33  C   UNL     1      -1.633   5.376   7.407  1.00  0.00     0.014 A 
ATOM     34  C   UNL     1      -3.353   5.834   9.556  1.00  0.00     0.010 A 
ATOM     35  C   UNL     1      -1.222   5.067   8.700  1.00  0.00     0.010 A 
ATOM     36  C   UNL     1      -2.072   5.305   9.789  1.00  0.00    -0.014 A 
BRANCH  36  37
ATOM     37  C   UNL     1      -1.613   4.991  11.167  1.00  0.00     0.031 A 
ATOM     38  C   UNL     1      -0.415   5.692  11.749  1.00  0.00     0.074 A 
ATOM     39  C   UNL     1      -2.236   4.024  11.870  1.00  0.00     0.049 A 
ATOM     40  N   UNL     1       0.137   5.540  12.925  1.00  0.00    -0.248 NA
ATOM     41  C   UNL     1       0.270   6.674  10.892  1.00  0.00     0.031 C 
ATOM     42  C   UNL     1      -3.355   3.212  11.384  1.00  0.00     0.029 A 
ATOM     43  N   UNL     1      -2.006   3.546  13.136  1.00  0.00    -0.354 N 
ATOM     44  C   UNL     1       1.246   6.377  12.937  1.00  0.00     0.074 A 
ATOM     45  C   UNL     1       1.314   7.005  11.636  1.00  0.00     0.031 C 
ATOM     46  C   UNL     1      -3.722   2.349  12.345  1.00  0.00     0.029 A 
ATOM     47  C   UNL     1      -2.848   2.521  13.500  1.00  0.00     0.049 A 
ATOM     48  H   UNL     1      -1.305   3.904  13.727  1.00  0.00     0.167 HD
ATOM     49  C   UNL     1       2.112   6.625  13.948  1.00  0.00     0.034 A 
ATOM     50  C   UNL     1      -2.905   1.796  14.635  1.00  0.00     0.034 A 
ATOM     51  C   UNL     1       2.022   6.023  15.250  1.00  0.00     0.049 A 
ATOM     52  C   UNL     1      -1.952   2.117  15.754  1.00  0.00     0.074 A 
ATOM     53  C   UNL     1       2.798   6.272  16.368  1.00  0.00     0.029 A 
ATOM     54  N   UNL     1       1.111   5.042  15.607  1.00  0.00    -0.354 N 
ATOM     55  N   UNL     1      -1.012   3.029  15.803  1.00  0.00    -0.248 NA
ATOM     56  C   UNL     1      -2.095   1.335  16.991  1.00  0.00     0.031 C 
ATOM     57  C   UNL     1       2.379   5.415  17.391  1.00  0.00     0.029 A 
ATOM     58  C   UNL     1       1.313   4.663  16.924  1.00  0.00     0.049 A 
ATOM     59  H   UNL     1       0.421   4.668  15.012  1.00  0.00     0.167 HD
ATOM     60  C   UNL     1      -0.476   2.956  17.083  1.00  0.00     0.074 A 
ATOM     61  C   UNL     1      -1.214   1.927  17.786  1.00  0.00     0.031 C 
ATOM     62  C   UNL     1       0.542   3.669  17.626  1.00  0.00     0.034 A 
BRANCH  49  63
ATOM     63  C   UNL     1       3.212   7.626  13.698  1.00  0.00     0.023 A 
ATOM     64  C   UNL     1       2.894   8.993  13.556  1.00  0.00     0.012 A 
ATOM     65  C   UNL     1       4.562   7.225  13.660  1.00  0.00     0.148 A 
ATOM     66  C   UNL     1       3.896   9.939  13.341  1.00  0.00     0.002 A 
ATOM     67  C   UNL     1       5.559   8.180  13.496  1.00  0.00     0.091 A 
ATOM     68  F   UNL     1       4.845   5.920  13.777  1.00  0.00    -0.205 F 
ATOM     69  C   UNL     1       5.228   9.534  13.322  1.00  0.00     0.022 A 
BRANCH  67  70
ATOM     70  S   UNL     1       7.308   7.774  13.542  1.00  0.00     0.127 S 
ATOM     71  O   UNL     1       7.702   8.007  12.153  1.00  0.00    -0.237 OA
ATOM     72  O   UNL     1       7.825   8.757  14.495  1.00  0.00    -0.237 OA
ATOM     73  O   UNL     1       7.390   6.391  13.989  1.00  0.00    -0.744 OA
ENDBRANCH  67  70
ENDBRANCH  49  63
BRANCH  50  74
ATOM     74  C   UNL     1      -3.941   0.736  14.792  1.00  0.00     0.023 A 
ATOM     75  C   UNL     1      -4.993   0.922  15.711  1.00  0.00     0.012 A 
ATOM     76  C   UNL     1      -3.901  -0.444  14.025  1.00  0.00     0.148 A 
ATOM     77  C   UNL     1      -5.963  -0.064  15.891  1.00  0.00     0.002 A 
ATOM     78  C   UNL     1      -4.903  -1.397  14.168  1.00  0.00     0.091 A 
ATOM     79  F   UNL     1      -2.888  -0.606  13.162  1.00  0.00    -0.205 F 
ATOM     80  C   UNL     1      -5.924  -1.218  15.114  1.00  0.00     0.022 A 
BRANCH  78  81
ATOM     81  S   UNL     1      -5.007  -2.850  13.118  1.00  0.00     0.127 S 
ATOM     82  O   UNL     1      -4.709  -3.923  14.063  1.00  0.00    -0.237 OA
ATOM     83  O   UNL     1      -6.397  -2.795  12.666  1.00  0.00    -0.237 OA
ATOM     84  O   UNL     1      -4.024  -2.646  12.063  1.00  0.00    -0.744 OA
ENDBRANCH  78  81
ENDBRANCH  50  74
BRANCH  62  85
ATOM     85  C   UNL     1       0.895   3.397  19.066  1.00  0.00     0.023 A 
ATOM     86  C   UNL     1       1.515   2.184  19.425  1.00  0.00     0.012 A 
ATOM     87  C   UNL     1       0.664   4.375  20.054  1.00  0.00     0.148 A 
ATOM     88  C   UNL     1       1.861   1.931  20.752  1.00  0.00     0.002 A 
ATOM     89  C   UNL     1       1.061   4.138  21.364  1.00  0.00     0.091 A 
ATOM     90  F   UNL     1       0.057   5.516  19.696  1.00  0.00    -0.205 F 
ATOM     91  C   UNL     1       1.645   2.911  21.718  1.00  0.00     0.022 A 
BRANCH  89  92
ATOM     92  S   UNL     1       0.915   5.380  22.654  1.00  0.00     0.127 S 
ATOM     93  O   UNL     1      -0.165   4.833  23.473  1.00  0.00    -0.237 OA
ATOM     94  O   UNL     1       2.237   5.334  23.278  1.00  0.00    -0.237 OA
ATOM     95  O   UNL     1       0.611   6.632  21.974  1.00  0.00    -0.744 OA
ENDBRANCH  89  92
ENDBRANCH  62  85
ENDBRANCH  36  37
ENDBRANCH  28  31
ENDBRANCH  26  27
ENDBRANCH  25  26
ENDBRANCH  24  25
ENDBRANCH   1  24
TORSDOF 19
