REMARK SMILES CC[C@H](C)N(CC(=O)NCCCCNC(=O)c1ccc(-c2c3nc(c(-c4cccc(S(=O)(=O)[O-])c4F)c4ccc([nH]4)c(-c4cccc(S(=O)(=O)[O-])c4F)c4nc(c(-c5cccc(S(=O)(=O)[O-])c5F)c5ccc2[nH]5)C=C4)C=C3)cc1)C(=O)N(C)[C@@H](C)Cc1cccs1
REMARK SMILES IDX 10 1 9 2 7 3 8 4 6 6 5 7 3 8 4 9 2 10 1 11 80 12 81 13 82 14
REMARK SMILES IDX 83 15 84 16 85 17 86 18 87 19 88 20 91 21 89 22 90 23 11 24
REMARK SMILES IDX 12 25 13 26 14 27 15 28 16 30 17 31 18 32 79 33 19 34 78 35
REMARK SMILES IDX 20 36 21 37 22 38 72 39 23 40 77 41 71 42 73 43 24 44 76 45
REMARK SMILES IDX 70 46 69 47 25 49 57 50 37 51 56 52 38 53 41 54 55 55 74 56
REMARK SMILES IDX 39 57 40 58 54 60 75 61 42 62 26 63 27 64 35 65 28 66 30 67
REMARK SMILES IDX 36 68 29 69 31 70 32 71 33 72 34 73 58 74 59 75 67 76 60 77
REMARK SMILES IDX 62 78 68 79 61 80 63 81 64 82 65 83 66 84 43 85 44 86 52 87
REMARK SMILES IDX 45 88 47 89 53 90 46 91 48 92 49 93 50 94 51 95
REMARK H PARENT 9 5 14 29 73 48 41 59
REMARK Flexibility Score: inf
ROOT
ATOM      1  C   UNL     1       1.806  -1.378  -5.191  1.00  0.00     0.116 C 
ENDROOT
BRANCH   1   2
ATOM      2  N   UNL     1       1.689  -0.272  -6.108  1.00  0.00    -0.355 N 
ATOM      3  C   UNL     1       1.644   1.057  -5.815  1.00  0.00     0.239 C 
ATOM      4  O   UNL     1       1.873   1.851  -6.733  1.00  0.00    -0.273 OA
ATOM      5  H   UNL     1       1.636  -0.507  -7.063  1.00  0.00     0.163 HD
BRANCH   3   6
ATOM      6  C   UNL     1       1.509   1.551  -4.364  1.00  0.00     0.221 C 
BRANCH   6   7
ATOM      7  N   UNL     1       0.373   1.115  -3.528  1.00  0.00    -0.313 N 
BRANCH   7   8
ATOM      8  C   UNL     1       0.755   0.562  -2.187  1.00  0.00     0.084 C 
ATOM      9  C   UNL     1       0.450   1.527  -1.032  1.00  0.00     0.031 C 
BRANCH   8  10
ATOM     10  C   UNL     1       0.356  -0.900  -1.848  1.00  0.00     0.021 C 
ATOM     11  C   UNL     1      -1.103  -1.321  -1.883  1.00  0.00     0.006 C 
ENDBRANCH   8  10
ENDBRANCH   7   8
BRANCH   7  12
ATOM     12  C   UNL     1      -0.961   1.465  -3.701  1.00  0.00     0.320 C 
ATOM     13  O   UNL     1      -1.772   1.130  -2.830  1.00  0.00    -0.248 OA
BRANCH  12  14
ATOM     14  N   UNL     1      -1.451   2.160  -4.789  1.00  0.00    -0.325 N 
ATOM     15  C   UNL     1      -0.745   2.936  -5.800  1.00  0.00     0.149 C 
BRANCH  14  16
ATOM     16  C   UNL     1      -2.935   2.235  -4.941  1.00  0.00     0.088 C 
ATOM     17  C   UNL     1      -3.557   0.849  -5.167  1.00  0.00     0.031 C 
BRANCH  16  18
ATOM     18  C   UNL     1      -3.671   3.013  -3.816  1.00  0.00     0.071 C 
BRANCH  18  19
ATOM     19  C   UNL     1      -3.156   4.419  -3.620  1.00  0.00     0.007 A 
ATOM     20  C   UNL     1      -3.608   5.585  -4.207  1.00  0.00     0.015 A 
ATOM     21  S   UNL     1      -1.873   4.732  -2.523  1.00  0.00    -0.149 S 
ATOM     22  C   UNL     1      -2.860   6.726  -3.795  1.00  0.00     0.012 A 
ATOM     23  C   UNL     1      -1.868   6.397  -2.899  1.00  0.00     0.065 A 
ENDBRANCH  18  19
ENDBRANCH  16  18
ENDBRANCH  14  16
ENDBRANCH  12  14
ENDBRANCH   7  12
ENDBRANCH   6   7
ENDBRANCH   3   6
ENDBRANCH   1   2
BRANCH   1  24
ATOM     24  C   UNL     1       0.524  -2.197  -5.101  1.00  0.00     0.023 C 
BRANCH  24  25
ATOM     25  C   UNL     1       0.206  -3.041  -6.332  1.00  0.00     0.023 C 
BRANCH  25  26
ATOM     26  C   UNL     1       1.330  -3.956  -6.801  1.00  0.00     0.116 C 
BRANCH  26  27
ATOM     27  N   UNL     1       1.866  -4.824  -5.759  1.00  0.00    -0.352 N 
ATOM     28  C   UNL     1       2.309  -6.125  -5.878  1.00  0.00     0.251 C 
ATOM     29  H   UNL     1       1.918  -4.432  -4.857  1.00  0.00     0.163 HD
ATOM     30  O   UNL     1       2.682  -6.754  -4.904  1.00  0.00    -0.269 OA
BRANCH  28  31
ATOM     31  C   UNL     1       2.275  -6.751  -7.217  1.00  0.00     0.039 A 
ATOM     32  C   UNL     1       1.551  -7.932  -7.391  1.00  0.00     0.014 A 
ATOM     33  C   UNL     1       2.858  -6.101  -8.306  1.00  0.00     0.014 A 
ATOM     34  C   UNL     1       1.330  -8.415  -8.683  1.00  0.00     0.010 A 
ATOM     35  C   UNL     1       2.572  -6.540  -9.591  1.00  0.00     0.010 A 
ATOM     36  C   UNL     1       1.796  -7.693  -9.793  1.00  0.00    -0.014 A 
BRANCH  36  37
ATOM     37  C   UNL     1       1.468  -8.092 -11.185  1.00  0.00     0.031 A 
ATOM     38  C   UNL     1       2.576  -8.437 -12.140  1.00  0.00     0.074 A 
ATOM     39  C   UNL     1       0.195  -8.009 -11.622  1.00  0.00     0.049 A 
ATOM     40  N   UNL     1       2.517  -8.654 -13.427  1.00  0.00    -0.248 NA
ATOM     41  C   UNL     1       3.936  -8.506 -11.579  1.00  0.00     0.031 C 
ATOM     42  C   UNL     1      -0.957  -7.605 -10.812  1.00  0.00     0.029 A 
ATOM     43  N   UNL     1      -0.338  -8.219 -12.870  1.00  0.00    -0.354 N 
ATOM     44  C   UNL     1       3.832  -8.832 -13.839  1.00  0.00     0.074 A 
ATOM     45  C   UNL     1       4.669  -8.671 -12.671  1.00  0.00     0.031 C 
ATOM     46  C   UNL     1      -2.057  -7.593 -11.583  1.00  0.00     0.029 A 
ATOM     47  C   UNL     1      -1.687  -7.957 -12.947  1.00  0.00     0.049 A 
ATOM     48  H   UNL     1       0.195  -8.529 -13.638  1.00  0.00     0.167 HD
ATOM     49  C   UNL     1       4.299  -9.132 -15.073  1.00  0.00     0.034 A 
ATOM     50  C   UNL     1      -2.527  -7.994 -14.000  1.00  0.00     0.034 A 
ATOM     51  C   UNL     1       3.458  -9.363 -16.215  1.00  0.00     0.049 A 
ATOM     52  C   UNL     1      -1.992  -8.400 -15.347  1.00  0.00     0.074 A 
ATOM     53  C   UNL     1       3.824  -9.775 -17.483  1.00  0.00     0.029 A 
ATOM     54  N   UNL     1       2.080  -9.208 -16.224  1.00  0.00    -0.354 N 
ATOM     55  N   UNL     1      -0.765  -8.718 -15.684  1.00  0.00    -0.248 NA
ATOM     56  C   UNL     1      -2.959  -8.484 -16.451  1.00  0.00     0.031 C 
ATOM     57  C   UNL     1       2.666  -9.866 -18.262  1.00  0.00     0.029 A 
ATOM     58  C   UNL     1       1.579  -9.517 -17.476  1.00  0.00     0.049 A 
ATOM     59  H   UNL     1       1.539  -8.920 -15.454  1.00  0.00     0.167 HD
ATOM     60  C   UNL     1      -0.819  -9.074 -17.026  1.00  0.00     0.074 A 
ATOM     61  C   UNL     1      -2.202  -8.949 -17.437  1.00  0.00     0.031 C 
ATOM     62  C   UNL     1       0.190  -9.453 -17.849  1.00  0.00     0.034 A 
BRANCH  49  63
ATOM     63  C   UNL     1       5.785  -9.299 -15.235  1.00  0.00     0.023 A 
ATOM     64  C   UNL     1       6.413 -10.445 -14.705  1.00  0.00     0.012 A 
ATOM     65  C   UNL     1       6.553  -8.357 -15.946  1.00  0.00     0.148 A 
ATOM     66  C   UNL     1       7.785 -10.635 -14.851  1.00  0.00     0.002 A 
ATOM     67  C   UNL     1       7.915  -8.574 -16.123  1.00  0.00     0.091 A 
ATOM     68  F   UNL     1       5.944  -7.261 -16.420  1.00  0.00    -0.205 F 
ATOM     69  C   UNL     1       8.534  -9.706 -15.568  1.00  0.00     0.022 A 
BRANCH  67  70
ATOM     70  S   UNL     1       8.949  -7.471 -17.094  1.00  0.00     0.127 S 
ATOM     71  O   UNL     1       9.691  -6.768 -16.049  1.00  0.00    -0.237 OA
ATOM     72  O   UNL     1       9.748  -8.410 -17.883  1.00  0.00    -0.237 OA
ATOM     73  O   UNL     1       8.033  -6.652 -17.875  1.00  0.00    -0.744 OA
ENDBRANCH  67  70
ENDBRANCH  49  63
BRANCH  50  74
ATOM     74  C   UNL     1      -3.978  -7.714 -13.804  1.00  0.00     0.023 A 
ATOM     75  C   UNL     1      -4.896  -8.780 -13.879  1.00  0.00     0.012 A 
ATOM     76  C   UNL     1      -4.451  -6.421 -13.512  1.00  0.00     0.148 A 
ATOM     77  C   UNL     1      -6.261  -8.560 -13.693  1.00  0.00     0.002 A 
ATOM     78  C   UNL     1      -5.807  -6.216 -13.278  1.00  0.00     0.091 A 
ATOM     79  F   UNL     1      -3.566  -5.416 -13.460  1.00  0.00    -0.205 F 
ATOM     80  C   UNL     1      -6.716  -7.281 -13.383  1.00  0.00     0.022 A 
BRANCH  78  81
ATOM     81  S   UNL     1      -6.460  -4.628 -12.747  1.00  0.00     0.127 S 
ATOM     82  O   UNL     1      -7.096  -4.142 -13.968  1.00  0.00    -0.237 OA
ATOM     83  O   UNL     1      -7.386  -5.018 -11.683  1.00  0.00    -0.237 OA
ATOM     84  O   UNL     1      -5.305  -3.870 -12.284  1.00  0.00    -0.744 OA
ENDBRANCH  78  81
ENDBRANCH  50  74
BRANCH  62  85
ATOM     85  C   UNL     1      -0.157  -9.799 -19.272  1.00  0.00     0.023 A 
ATOM     86  C   UNL     1      -0.434  -8.767 -20.189  1.00  0.00     0.012 A 
ATOM     87  C   UNL     1      -0.104 -11.133 -19.720  1.00  0.00     0.148 A 
ATOM     88  C   UNL     1      -0.672  -9.060 -21.531  1.00  0.00     0.002 A 
ATOM     89  C   UNL     1      -0.300 -11.413 -21.067  1.00  0.00     0.091 A 
ATOM     90  F   UNL     1       0.142 -12.100 -18.825  1.00  0.00    -0.205 F 
ATOM     91  C   UNL     1      -0.592 -10.380 -21.972  1.00  0.00     0.022 A 
BRANCH  89  92
ATOM     92  S   UNL     1      -0.123 -13.070 -21.740  1.00  0.00     0.127 S 
ATOM     93  O   UNL     1      -1.515 -13.438 -21.994  1.00  0.00    -0.237 OA
ATOM     94  O   UNL     1       0.676 -12.835 -22.943  1.00  0.00    -0.237 OA
ATOM     95  O   UNL     1       0.553 -13.849 -20.711  1.00  0.00    -0.744 OA
ENDBRANCH  89  92
ENDBRANCH  62  85
ENDBRANCH  36  37
ENDBRANCH  28  31
ENDBRANCH  26  27
ENDBRANCH  25  26
ENDBRANCH  24  25
ENDBRANCH   1  24
TORSDOF 22
