REMARK SMILES O=C(NCCCCNC(=O)c1ccccc1/N=C/c1coc2ccccc2c1=O)c1ccc(-c2c3nc(c(-c4cccc(S(=O)(=O)[O-])c4F)c4ccc([nH]4)c(-c4cccc(S(=O)(=O)[O-])c4F)c4nc(c(-c5cccc(S(=O)(=O)[O-])c5F)c5ccc2[nH]5)C=C4)C=C3)cc1
REMARK SMILES IDX 5 1 4 2 3 3 1 4 2 5 30 7 31 8 92 9 32 10 91 11 33 12 34 13
REMARK SMILES IDX 35 14 85 15 36 16 90 17 84 18 86 19 37 20 89 21 83 22 82 23
REMARK SMILES IDX 38 25 70 26 50 27 69 28 51 29 54 30 68 31 87 32 52 33 53 34
REMARK SMILES IDX 67 36 88 37 55 38 39 39 40 40 48 41 41 42 43 43 49 44 42 45
REMARK SMILES IDX 44 46 45 47 46 48 47 49 71 50 72 51 80 52 73 53 75 54 81 55
REMARK SMILES IDX 74 56 76 57 77 58 78 59 79 60 56 61 57 62 65 63 58 64 60 65
REMARK SMILES IDX 66 66 59 67 61 68 62 69 63 70 64 71 6 72 7 73 8 74 9 75
REMARK SMILES IDX 10 77 11 78 12 79 16 80 13 81 15 82 14 83 17 84 18 85 19 86
REMARK SMILES IDX 20 87 28 88 21 89 27 90 29 91 22 92 26 93 23 94 25 95 24 96
REMARK H PARENT 3 6 86 24 54 35 8 76
REMARK Flexibility Score: inf
ROOT
ATOM      1  C   UNL     1       5.114  -0.566   2.876  1.00  0.00     0.023 C 
ENDROOT
BRANCH   1   2
ATOM      2  C   UNL     1       4.913  -0.595   1.361  1.00  0.00     0.116 C 
BRANCH   2   3
ATOM      3  N   UNL     1       3.526  -0.773   0.973  1.00  0.00    -0.352 N 
ATOM      4  O   UNL     1       1.484  -0.200   0.203  1.00  0.00    -0.269 OA
ATOM      5  C   UNL     1       2.683   0.056   0.272  1.00  0.00     0.251 C 
ATOM      6  H   UNL     1       3.124  -1.625   1.258  1.00  0.00     0.163 HD
BRANCH   5   7
ATOM      7  C   UNL     1       3.211   1.261  -0.410  1.00  0.00     0.039 A 
ATOM      8  C   UNL     1       4.365   1.197  -1.199  1.00  0.00     0.014 A 
ATOM      9  C   UNL     1       2.504   2.463  -0.310  1.00  0.00     0.014 A 
ATOM     10  C   UNL     1       4.882   2.357  -1.778  1.00  0.00     0.010 A 
ATOM     11  C   UNL     1       2.998   3.616  -0.928  1.00  0.00     0.010 A 
ATOM     12  C   UNL     1       4.213   3.581  -1.630  1.00  0.00    -0.014 A 
BRANCH  12  13
ATOM     13  C   UNL     1       4.802   4.825  -2.184  1.00  0.00     0.031 A 
ATOM     14  C   UNL     1       5.383   5.861  -1.260  1.00  0.00     0.074 A 
ATOM     15  C   UNL     1       4.815   5.032  -3.514  1.00  0.00     0.049 A 
ATOM     16  N   UNL     1       5.955   7.000  -1.555  1.00  0.00    -0.248 NA
ATOM     17  C   UNL     1       5.310   5.583   0.184  1.00  0.00     0.031 C 
ATOM     18  C   UNL     1       4.254   4.122  -4.513  1.00  0.00     0.029 A 
ATOM     19  N   UNL     1       5.307   6.080  -4.252  1.00  0.00    -0.354 N 
ATOM     20  C   UNL     1       6.284   7.586  -0.340  1.00  0.00     0.074 A 
ATOM     21  C   UNL     1       5.841   6.683   0.700  1.00  0.00     0.031 C 
ATOM     22  C   UNL     1       4.433   4.651  -5.734  1.00  0.00     0.029 A 
ATOM     23  C   UNL     1       5.106   5.942  -5.605  1.00  0.00     0.049 A 
ATOM     24  H   UNL     1       5.760   6.856  -3.850  1.00  0.00     0.167 HD
ATOM     25  C   UNL     1       6.924   8.756  -0.108  1.00  0.00     0.034 A 
ATOM     26  C   UNL     1       5.428   6.761  -6.626  1.00  0.00     0.034 A 
ATOM     27  C   UNL     1       7.416   9.633  -1.135  1.00  0.00     0.049 A 
ATOM     28  C   UNL     1       6.160   8.044  -6.343  1.00  0.00     0.074 A 
ATOM     29  C   UNL     1       8.133  10.807  -0.993  1.00  0.00     0.029 A 
ATOM     30  N   UNL     1       7.242   9.431  -2.495  1.00  0.00    -0.354 N 
ATOM     31  N   UNL     1       6.584   8.513  -5.195  1.00  0.00    -0.248 NA
ATOM     32  C   UNL     1       6.482   8.898  -7.497  1.00  0.00     0.031 C 
ATOM     33  C   UNL     1       8.403  11.312  -2.271  1.00  0.00     0.029 A 
ATOM     34  C   UNL     1       7.839  10.458  -3.205  1.00  0.00     0.049 A 
ATOM     35  H   UNL     1       6.765   8.669  -2.897  1.00  0.00     0.167 HD
ATOM     36  C   UNL     1       7.239   9.704  -5.488  1.00  0.00     0.074 A 
ATOM     37  C   UNL     1       7.173   9.876  -6.925  1.00  0.00     0.031 C 
ATOM     38  C   UNL     1       7.821  10.585  -4.639  1.00  0.00     0.034 A 
BRANCH  25  39
ATOM     39  C   UNL     1       7.201   9.119   1.323  1.00  0.00     0.023 A 
ATOM     40  C   UNL     1       8.325   8.559   1.960  1.00  0.00     0.012 A 
ATOM     41  C   UNL     1       6.393  10.034   2.020  1.00  0.00     0.148 A 
ATOM     42  C   UNL     1       8.634   8.896   3.277  1.00  0.00     0.002 A 
ATOM     43  C   UNL     1       6.720  10.381   3.328  1.00  0.00     0.091 A 
ATOM     44  F   UNL     1       5.307  10.534   1.413  1.00  0.00    -0.205 F 
ATOM     45  C   UNL     1       7.838   9.813   3.958  1.00  0.00     0.022 A 
BRANCH  43  46
ATOM     46  S   UNL     1       5.744  11.591   4.228  1.00  0.00     0.127 S 
ATOM     47  O   UNL     1       4.652  10.773   4.749  1.00  0.00    -0.237 OA
ATOM     48  O   UNL     1       6.678  12.075   5.247  1.00  0.00    -0.237 OA
ATOM     49  O   UNL     1       5.385  12.590   3.229  1.00  0.00    -0.744 OA
ENDBRANCH  43  46
ENDBRANCH  25  39
BRANCH  26  50
ATOM     50  C   UNL     1       5.125   6.340  -8.020  1.00  0.00     0.023 A 
ATOM     51  C   UNL     1       6.176   5.900  -8.847  1.00  0.00     0.012 A 
ATOM     52  C   UNL     1       3.805   6.304  -8.508  1.00  0.00     0.148 A 
ATOM     53  C   UNL     1       5.918   5.437 -10.137  1.00  0.00     0.002 A 
ATOM     54  C   UNL     1       3.550   5.798  -9.778  1.00  0.00     0.091 A 
ATOM     55  F   UNL     1       2.819   6.754  -7.718  1.00  0.00    -0.205 F 
ATOM     56  C   UNL     1       4.605   5.372 -10.598  1.00  0.00     0.022 A 
BRANCH  54  57
ATOM     57  S   UNL     1       1.870   5.568 -10.374  1.00  0.00     0.127 S 
ATOM     58  O   UNL     1       1.644   6.800 -11.124  1.00  0.00    -0.237 OA
ATOM     59  O   UNL     1       1.989   4.362 -11.196  1.00  0.00    -0.237 OA
ATOM     60  O   UNL     1       1.069   5.387  -9.171  1.00  0.00    -0.744 OA
ENDBRANCH  54  57
ENDBRANCH  26  50
BRANCH  38  61
ATOM     61  C   UNL     1       8.436  11.822  -5.229  1.00  0.00     0.023 A 
ATOM     62  C   UNL     1       7.603  12.912  -5.550  1.00  0.00     0.012 A 
ATOM     63  C   UNL     1       9.830  11.948  -5.379  1.00  0.00     0.148 A 
ATOM     64  C   UNL     1       8.149  14.106  -6.019  1.00  0.00     0.002 A 
ATOM     65  C   UNL     1      10.369  13.152  -5.823  1.00  0.00     0.091 A 
ATOM     66  F   UNL     1      10.607  10.892  -5.094  1.00  0.00    -0.205 F 
ATOM     67  C   UNL     1       9.531  14.230  -6.145  1.00  0.00     0.022 A 
BRANCH  65  68
ATOM     68  S   UNL     1      12.147  13.390  -5.933  1.00  0.00     0.127 S 
ATOM     69  O   UNL     1      12.426  12.957  -7.300  1.00  0.00    -0.237 OA
ATOM     70  O   UNL     1      12.298  14.828  -5.708  1.00  0.00    -0.237 OA
ATOM     71  O   UNL     1      12.706  12.561  -4.872  1.00  0.00    -0.744 OA
ENDBRANCH  65  68
ENDBRANCH  38  61
ENDBRANCH  12  13
ENDBRANCH   5   7
ENDBRANCH   2   3
ENDBRANCH   1   2
BRANCH   1  72
ATOM     72  C   UNL     1       4.784  -1.853   3.643  1.00  0.00     0.023 C 
BRANCH  72  73
ATOM     73  C   UNL     1       5.406  -3.144   3.114  1.00  0.00     0.116 C 
BRANCH  73  74
ATOM     74  N   UNL     1       6.839  -3.061   2.898  1.00  0.00    -0.352 N 
ATOM     75  C   UNL     1       7.756  -4.078   2.855  1.00  0.00     0.253 C 
ATOM     76  H   UNL     1       7.199  -2.154   2.765  1.00  0.00     0.163 HD
ATOM     77  O   UNL     1       8.924  -3.847   2.556  1.00  0.00    -0.269 OA
BRANCH  75  78
ATOM     78  C   UNL     1       7.385  -5.455   3.216  1.00  0.00     0.065 A 
ATOM     79  C   UNL     1       7.954  -5.965   4.396  1.00  0.00     0.016 A 
ATOM     80  C   UNL     1       6.558  -6.262   2.430  1.00  0.00     0.076 A 
ATOM     81  C   UNL     1       7.676  -7.268   4.813  1.00  0.00     0.001 A 
ATOM     82  C   UNL     1       6.305  -7.576   2.863  1.00  0.00     0.029 A 
ATOM     83  C   UNL     1       6.854  -8.079   4.041  1.00  0.00     0.002 A 
BRANCH  80  84
ATOM     84  N   UNL     1       5.783  -5.869   1.348  1.00  0.00    -0.255 NA
ATOM     85  C   UNL     1       6.176  -5.198   0.316  1.00  0.00     0.127 C 
BRANCH  85  86
ATOM     86  C   UNL     1       5.116  -4.992  -0.702  1.00  0.00     0.076 A 
ATOM     87  C   UNL     1       5.127  -5.988  -1.607  1.00  0.00     0.209 A 
ATOM     88  C   UNL     1       3.763  -4.626  -0.199  1.00  0.00     0.201 A 
ATOM     89  O   UNL     1       3.999  -6.726  -1.952  1.00  0.00    -0.463 OA
ATOM     90  C   UNL     1       2.885  -5.790  -0.033  1.00  0.00     0.065 A 
ATOM     91  O   UNL     1       3.472  -3.511   0.206  1.00  0.00    -0.288 OA
ATOM     92  C   UNL     1       3.088  -6.849  -0.919  1.00  0.00     0.137 A 
ATOM     93  C   UNL     1       2.068  -5.920   1.088  1.00  0.00     0.016 A 
ATOM     94  C   UNL     1       2.458  -8.066  -0.693  1.00  0.00     0.048 A 
ATOM     95  C   UNL     1       1.468  -7.152   1.336  1.00  0.00     0.001 A 
ATOM     96  C   UNL     1       1.663  -8.220   0.450  1.00  0.00     0.004 A 
ENDBRANCH  85  86
ENDBRANCH  80  84
ENDBRANCH  75  78
ENDBRANCH  73  74
ENDBRANCH  72  73
ENDBRANCH   1  72
TORSDOF 16
