REMARK SMILES Cc1cc(-c2cc(C(=O)NCCCCNC(=O)c3ccc(-c4c5nc(c(-c6cccc(S(=O)(=O)[O-])c6F)c6ccc([nH]6)c(-c6cccc(S(=O)(=O)[O-])c6F)c6nc(c(-c7cccc(S(=O)(=O)[O-])c7F)c7ccc4[nH]7)C=C6)C=C5)cc3)c[nH]c2=O)ccc1Cl
REMARK SMILES IDX 13 1 12 2 11 3 10 4 8 5 9 6 7 8 5 9 6 10 83 11 82 12 84 13
REMARK SMILES IDX 81 14 4 16 1 17 2 18 3 19 87 20 86 21 88 22 85 23 14 24
REMARK SMILES IDX 15 25 16 26 17 28 18 29 19 30 80 31 20 32 79 33 21 34 22 35
REMARK SMILES IDX 23 36 73 37 24 38 78 39 72 40 74 41 25 42 77 43 71 44 70 45
REMARK SMILES IDX 26 47 58 48 38 49 57 50 39 51 42 52 56 53 75 54 40 55 41 56
REMARK SMILES IDX 55 58 76 59 43 60 27 61 28 62 36 63 29 64 31 65 37 66 30 67
REMARK SMILES IDX 32 68 33 69 34 70 35 71 59 72 60 73 68 74 61 75 63 76 69 77
REMARK SMILES IDX 62 78 64 79 65 80 66 81 67 82 44 83 45 84 53 85 46 86 48 87
REMARK SMILES IDX 54 88 47 89 49 90 50 91 51 92 52 93
REMARK H PARENT 10 7 82 15 15 27 74 46 42 57
REMARK Flexibility Score: inf
ROOT
ATOM      1  C   UNL     1      -4.777  -1.479   5.737  1.00  0.00     0.023 C 
ENDROOT
BRANCH   1   2
ATOM      2  C   UNL     1      -4.368  -1.199   4.287  1.00  0.00     0.023 C 
BRANCH   2   3
ATOM      3  C   UNL     1      -5.085  -2.080   3.259  1.00  0.00     0.116 C 
BRANCH   3   4
ATOM      4  N   UNL     1      -6.403  -1.552   2.966  1.00  0.00    -0.352 N 
ATOM      5  C   UNL     1      -6.879  -0.699   2.019  1.00  0.00     0.252 C 
ATOM      6  O   UNL     1      -8.082  -0.430   2.070  1.00  0.00    -0.269 OA
ATOM      7  H   UNL     1      -7.099  -1.878   3.581  1.00  0.00     0.163 HD
BRANCH   5   8
ATOM      8  C   UNL     1      -6.033  -0.143   0.909  1.00  0.00     0.056 A 
ATOM      9  C   UNL     1      -3.906   0.272  -0.232  1.00  0.00     0.048 A 
ATOM     10  C   UNL     1      -4.588  -0.070   0.878  1.00  0.00     0.029 A 
ATOM     11  C   UNL     1      -4.671   0.770  -1.419  1.00  0.00     0.255 A 
ATOM     12  N   UNL     1      -6.040   0.782  -1.274  1.00  0.00    -0.328 N 
ATOM     13  O   UNL     1      -4.127   1.160  -2.446  1.00  0.00    -0.269 OA
ATOM     14  C   UNL     1      -6.704   0.322  -0.161  1.00  0.00     0.099 A 
ATOM     15  H   UNL     1      -6.579   1.143  -2.015  1.00  0.00     0.169 HD
BRANCH   9  16
ATOM     16  C   UNL     1      -2.443   0.141  -0.227  1.00  0.00    -0.012 A 
ATOM     17  C   UNL     1       0.643   2.359  -0.036  1.00  0.00     0.046 C 
ATOM     18  C   UNL     1      -0.216   1.129  -0.098  1.00  0.00    -0.032 A 
ATOM     19  C   UNL     1      -1.613   1.267  -0.191  1.00  0.00     0.014 A 
ATOM     20  C   UNL     1       0.337  -0.162  -0.059  1.00  0.00     0.044 A 
ATOM     21  C   UNL     1      -0.484  -1.288  -0.108  1.00  0.00     0.021 A 
ATOM     22  Cl  UNL     1       2.043  -0.413   0.058  1.00  0.00    -0.084 Cl
ATOM     23  C   UNL     1      -1.868  -1.138  -0.191  1.00  0.00     0.010 A 
ENDBRANCH   9  16
ENDBRANCH   5   8
ENDBRANCH   3   4
ENDBRANCH   2   3
ENDBRANCH   1   2
BRANCH   1  24
ATOM     24  C   UNL     1      -4.465  -2.888   6.229  1.00  0.00     0.116 C 
BRANCH  24  25
ATOM     25  N   UNL     1      -3.058  -3.239   6.109  1.00  0.00    -0.352 N 
ATOM     26  C   UNL     1      -2.317  -4.079   6.909  1.00  0.00     0.251 C 
ATOM     27  H   UNL     1      -2.574  -2.822   5.360  1.00  0.00     0.163 HD
ATOM     28  O   UNL     1      -1.111  -4.179   6.744  1.00  0.00    -0.269 OA
BRANCH  26  29
ATOM     29  C   UNL     1      -2.996  -4.826   7.989  1.00  0.00     0.039 A 
ATOM     30  C   UNL     1      -2.436  -4.816   9.268  1.00  0.00     0.014 A 
ATOM     31  C   UNL     1      -4.189  -5.511   7.745  1.00  0.00     0.014 A 
ATOM     32  C   UNL     1      -3.100  -5.458  10.314  1.00  0.00     0.010 A 
ATOM     33  C   UNL     1      -4.890  -6.076   8.805  1.00  0.00     0.010 A 
ATOM     34  C   UNL     1      -4.345  -6.072  10.097  1.00  0.00    -0.014 A 
BRANCH  34  35
ATOM     35  C   UNL     1      -5.074  -6.737  11.207  1.00  0.00     0.031 A 
ATOM     36  C   UNL     1      -5.356  -8.215  11.146  1.00  0.00     0.074 A 
ATOM     37  C   UNL     1      -5.534  -6.003  12.239  1.00  0.00     0.049 A 
ATOM     38  N   UNL     1      -6.000  -8.968  11.999  1.00  0.00    -0.248 NA
ATOM     39  C   UNL     1      -4.875  -8.940   9.957  1.00  0.00     0.031 C 
ATOM     40  C   UNL     1      -5.405  -4.550  12.371  1.00  0.00     0.029 A 
ATOM     41  N   UNL     1      -6.224  -6.377  13.365  1.00  0.00    -0.354 N 
ATOM     42  C   UNL     1      -6.021 -10.241  11.443  1.00  0.00     0.074 A 
ATOM     43  C   UNL     1      -5.375 -10.150  10.153  1.00  0.00     0.031 C 
ATOM     44  C   UNL     1      -5.992  -4.157  13.513  1.00  0.00     0.029 A 
ATOM     45  C   UNL     1      -6.560  -5.323  14.183  1.00  0.00     0.049 A 
ATOM     46  H   UNL     1      -6.457  -7.312  13.569  1.00  0.00     0.167 HD
ATOM     47  C   UNL     1      -6.497 -11.394  11.973  1.00  0.00     0.034 A 
ATOM     48  C   UNL     1      -7.250  -5.300  15.340  1.00  0.00     0.034 A 
ATOM     49  C   UNL     1      -7.109 -11.489  13.270  1.00  0.00     0.049 A 
ATOM     50  C   UNL     1      -7.726  -6.600  15.930  1.00  0.00     0.074 A 
ATOM     51  C   UNL     1      -7.577 -12.616  13.921  1.00  0.00     0.029 A 
ATOM     52  N   UNL     1      -7.338 -10.414  14.115  1.00  0.00    -0.354 N 
ATOM     53  N   UNL     1      -7.613  -7.815  15.450  1.00  0.00    -0.248 NA
ATOM     54  C   UNL     1      -8.380  -6.532  17.244  1.00  0.00     0.031 C 
ATOM     55  C   UNL     1      -8.104 -12.220  15.155  1.00  0.00     0.029 A 
ATOM     56  C   UNL     1      -7.932 -10.851  15.286  1.00  0.00     0.049 A 
ATOM     57  H   UNL     1      -7.112  -9.478  13.912  1.00  0.00     0.167 HD
ATOM     58  C   UNL     1      -8.139  -8.659  16.422  1.00  0.00     0.074 A 
ATOM     59  C   UNL     1      -8.550  -7.816  17.526  1.00  0.00     0.031 C 
ATOM     60  C   UNL     1      -8.281 -10.007  16.400  1.00  0.00     0.034 A 
BRANCH  47  61
ATOM     61  C   UNL     1      -6.311 -12.657  11.171  1.00  0.00     0.023 A 
ATOM     62  C   UNL     1      -5.013 -13.188  11.007  1.00  0.00     0.012 A 
ATOM     63  C   UNL     1      -7.411 -13.347  10.627  1.00  0.00     0.148 A 
ATOM     64  C   UNL     1      -4.809 -14.360  10.282  1.00  0.00     0.002 A 
ATOM     65  C   UNL     1      -7.205 -14.542   9.947  1.00  0.00     0.091 A 
ATOM     66  F   UNL     1      -8.634 -12.819  10.776  1.00  0.00    -0.205 F 
ATOM     67  C   UNL     1      -5.905 -15.042   9.761  1.00  0.00     0.022 A 
BRANCH  65  68
ATOM     68  S   UNL     1      -8.553 -15.542   9.307  1.00  0.00     0.127 S 
ATOM     69  O   UNL     1      -8.357 -15.411   7.863  1.00  0.00    -0.237 OA
ATOM     70  O   UNL     1      -8.237 -16.864   9.847  1.00  0.00    -0.237 OA
ATOM     71  O   UNL     1      -9.777 -14.947   9.825  1.00  0.00    -0.744 OA
ENDBRANCH  65  68
ENDBRANCH  47  61
BRANCH  48  72
ATOM     72  C   UNL     1      -7.483  -4.008  16.047  1.00  0.00     0.023 A 
ATOM     73  C   UNL     1      -6.836  -3.756  17.273  1.00  0.00     0.012 A 
ATOM     74  C   UNL     1      -8.337  -3.028  15.509  1.00  0.00     0.148 A 
ATOM     75  C   UNL     1      -7.073  -2.571  17.972  1.00  0.00     0.002 A 
ATOM     76  C   UNL     1      -8.522  -1.825  16.180  1.00  0.00     0.091 A 
ATOM     77  F   UNL     1      -8.950  -3.290  14.346  1.00  0.00    -0.205 F 
ATOM     78  C   UNL     1      -7.908  -1.603  17.422  1.00  0.00     0.022 A 
BRANCH  76  79
ATOM     79  S   UNL     1      -9.473  -0.472  15.480  1.00  0.00     0.127 S 
ATOM     80  O   UNL     1     -10.670  -0.484  16.316  1.00  0.00    -0.237 OA
ATOM     81  O   UNL     1      -8.580   0.667  15.695  1.00  0.00    -0.237 OA
ATOM     82  O   UNL     1      -9.673  -0.818  14.079  1.00  0.00    -0.744 OA
ENDBRANCH  76  79
ENDBRANCH  48  72
BRANCH  60  83
ATOM     83  C   UNL     1      -8.846 -10.668  17.630  1.00  0.00     0.023 A 
ATOM     84  C   UNL     1     -10.205 -10.504  17.964  1.00  0.00     0.012 A 
ATOM     85  C   UNL     1      -8.033 -11.497  18.429  1.00  0.00     0.148 A 
ATOM     86  C   UNL     1     -10.734 -11.115  19.100  1.00  0.00     0.002 A 
ATOM     87  C   UNL     1      -8.580 -12.146  19.529  1.00  0.00     0.091 A 
ATOM     88  F   UNL     1      -6.738 -11.626  18.107  1.00  0.00    -0.205 F 
ATOM     89  C   UNL     1      -9.926 -11.944  19.875  1.00  0.00     0.022 A 
BRANCH  87  90
ATOM     90  S   UNL     1      -7.638 -13.309  20.521  1.00  0.00     0.127 S 
ATOM     91  O   UNL     1      -7.379 -12.528  21.729  1.00  0.00    -0.237 OA
ATOM     92  O   UNL     1      -8.587 -14.409  20.697  1.00  0.00    -0.237 OA
ATOM     93  O   UNL     1      -6.463 -13.649  19.729  1.00  0.00    -0.744 OA
ENDBRANCH  87  90
ENDBRANCH  60  83
ENDBRANCH  34  35
ENDBRANCH  26  29
ENDBRANCH  24  25
ENDBRANCH   1  24
TORSDOF 15
