REMARK SMILES O=C(NCCCCNC(=O)c1ccc(-c2c3nc(c(-c4cccc(S(=O)(=O)[O-])c4F)c4ccc([nH]4)c(-c4cccc(S(=O)(=O)[O-])c4F)c4nc(c(-c5cccc(S(=O)(=O)[O-])c5F)c5ccc2[nH]5)C=C4)C=C3)cc1)c1ccc(OCc2cc(Cl)ccc2[N+](=O)[O-])cc1
REMARK SMILES IDX 5 1 4 2 3 3 1 4 2 5 74 7 75 8 91 9 76 10 90 11 77 12 78 13
REMARK SMILES IDX 79 14 80 15 81 16 86 17 82 18 85 19 83 20 84 21 87 22 88 23
REMARK SMILES IDX 89 24 6 25 7 26 8 27 9 28 10 30 11 31 12 32 73 33 13 34
REMARK SMILES IDX 72 35 14 36 15 37 16 38 66 39 17 40 71 41 65 42 67 43 18 44
REMARK SMILES IDX 70 45 64 46 63 47 19 49 51 50 31 51 50 52 32 53 35 54 49 55
REMARK SMILES IDX 68 56 33 57 34 58 48 60 69 61 36 62 20 63 21 64 29 65 22 66
REMARK SMILES IDX 24 67 30 68 23 69 25 70 26 71 27 72 28 73 52 74 53 75 61 76
REMARK SMILES IDX 54 77 56 78 62 79 55 80 57 81 58 82 59 83 60 84 37 85 38 86
REMARK SMILES IDX 46 87 39 88 41 89 47 90 40 91 42 92 43 93 44 94 45 95
REMARK H PARENT 3 6 8 29 67 48 35 59
REMARK Flexibility Score: inf
ROOT
ATOM      1  C   UNL     1       5.002  -1.267   2.183  1.00  0.00     0.023 C 
ENDROOT
BRANCH   1   2
ATOM      2  C   UNL     1       4.687  -1.264   0.692  1.00  0.00     0.116 C 
BRANCH   2   3
ATOM      3  N   UNL     1       3.259  -1.153   0.444  1.00  0.00    -0.352 N 
ATOM      4  O   UNL     1       1.310  -0.033   0.177  1.00  0.00    -0.269 OA
ATOM      5  C   UNL     1       2.537  -0.033   0.121  1.00  0.00     0.251 C 
ATOM      6  H   UNL     1       2.745  -1.989   0.518  1.00  0.00     0.163 HD
BRANCH   5   7
ATOM      7  C   UNL     1       3.248   1.190  -0.295  1.00  0.00     0.040 A 
ATOM      8  C   UNL     1       4.202   1.129  -1.313  1.00  0.00     0.017 A 
ATOM      9  C   UNL     1       2.921   2.413   0.298  1.00  0.00     0.017 A 
ATOM     10  C   UNL     1       4.861   2.286  -1.704  1.00  0.00     0.047 A 
ATOM     11  C   UNL     1       3.555   3.584  -0.129  1.00  0.00     0.047 A 
ATOM     12  C   UNL     1       4.496   3.518  -1.157  1.00  0.00     0.119 A 
BRANCH  12  13
ATOM     13  O   UNL     1       5.053   4.576  -1.812  1.00  0.00    -0.489 OA
BRANCH  13  14
ATOM     14  C   UNL     1       4.389   5.834  -1.807  1.00  0.00     0.272 C 
BRANCH  14  15
ATOM     15  C   UNL     1       2.944   5.943  -2.275  1.00  0.00     0.068 A 
ATOM     16  C   UNL     1       2.272   7.131  -1.907  1.00  0.00     0.035 A 
ATOM     17  C   UNL     1       2.209   5.004  -3.024  1.00  0.00     0.276 A 
ATOM     18  C   UNL     1       0.919   7.325  -2.200  1.00  0.00     0.041 A 
ATOM     19  C   UNL     1       0.830   5.169  -3.258  1.00  0.00     0.087 A 
ATOM     20  Cl  UNL     1       0.163   8.810  -1.778  1.00  0.00    -0.084 Cl
ATOM     21  C   UNL     1       0.186   6.331  -2.838  1.00  0.00     0.027 A 
BRANCH  17  22
ATOM     22  N   UNL     1       2.834   3.875  -3.707  1.00  0.00     0.063 N 
ATOM     23  O   UNL     1       2.257   2.781  -3.641  1.00  0.00    -0.258 OA
ATOM     24  O   UNL     1       3.844   4.116  -4.383  1.00  0.00    -0.258 OA
ENDBRANCH  17  22
ENDBRANCH  14  15
ENDBRANCH  13  14
ENDBRANCH  12  13
ENDBRANCH   5   7
ENDBRANCH   2   3
ENDBRANCH   1   2
BRANCH   1  25
ATOM     25  C   UNL     1       4.514  -2.508   2.927  1.00  0.00     0.023 C 
BRANCH  25  26
ATOM     26  C   UNL     1       4.922  -3.836   2.301  1.00  0.00     0.116 C 
BRANCH  26  27
ATOM     27  N   UNL     1       6.359  -3.957   2.096  1.00  0.00    -0.352 N 
ATOM     28  C   UNL     1       7.166  -5.048   2.308  1.00  0.00     0.251 C 
ATOM     29  H   UNL     1       6.812  -3.150   1.761  1.00  0.00     0.163 HD
ATOM     30  O   UNL     1       8.383  -4.947   2.188  1.00  0.00    -0.269 OA
BRANCH  28  31
ATOM     31  C   UNL     1       6.557  -6.331   2.713  1.00  0.00     0.039 A 
ATOM     32  C   UNL     1       7.099  -7.023   3.799  1.00  0.00     0.014 A 
ATOM     33  C   UNL     1       5.436  -6.831   2.045  1.00  0.00     0.014 A 
ATOM     34  C   UNL     1       6.480  -8.191   4.251  1.00  0.00     0.010 A 
ATOM     35  C   UNL     1       4.777  -7.948   2.545  1.00  0.00     0.010 A 
ATOM     36  C   UNL     1       5.298  -8.647   3.645  1.00  0.00    -0.014 A 
BRANCH  36  37
ATOM     37  C   UNL     1       4.601  -9.867   4.127  1.00  0.00     0.031 A 
ATOM     38  C   UNL     1       4.459 -11.055   3.212  1.00  0.00     0.074 A 
ATOM     39  C   UNL     1       4.027  -9.877   5.346  1.00  0.00     0.049 A 
ATOM     40  N   UNL     1       3.814 -12.175   3.409  1.00  0.00    -0.248 NA
ATOM     41  C   UNL     1       5.101 -10.960   1.889  1.00  0.00     0.031 C 
ATOM     42  C   UNL     1       4.027  -8.760   6.295  1.00  0.00     0.029 A 
ATOM     43  N   UNL     1       3.304 -10.853   5.986  1.00  0.00    -0.354 N 
ATOM     44  C   UNL     1       3.942 -12.899   2.230  1.00  0.00     0.074 A 
ATOM     45  C   UNL     1       4.691 -12.077   1.306  1.00  0.00     0.031 C 
ATOM     46  C   UNL     1       3.337  -9.114   7.391  1.00  0.00     0.029 A 
ATOM     47  C   UNL     1       2.824 -10.469   7.217  1.00  0.00     0.049 A 
ATOM     48  H   UNL     1       3.143 -11.744   5.600  1.00  0.00     0.167 HD
ATOM     49  C   UNL     1       3.509 -14.151   1.951  1.00  0.00     0.034 A 
ATOM     50  C   UNL     1       2.054 -11.134   8.101  1.00  0.00     0.034 A 
ATOM     51  C   UNL     1       2.814 -14.988   2.889  1.00  0.00     0.049 A 
ATOM     52  C   UNL     1       1.638 -12.547   7.787  1.00  0.00     0.074 A 
ATOM     53  C   UNL     1       2.388 -16.294   2.726  1.00  0.00     0.029 A 
ATOM     54  N   UNL     1       2.453 -14.606   4.171  1.00  0.00    -0.354 N 
ATOM     55  N   UNL     1       1.892 -13.265   6.719  1.00  0.00    -0.248 NA
ATOM     56  C   UNL     1       0.867 -13.259   8.817  1.00  0.00     0.031 C 
ATOM     57  C   UNL     1       1.765 -16.701   3.910  1.00  0.00     0.029 A 
ATOM     58  C   UNL     1       1.821 -15.655   4.816  1.00  0.00     0.049 A 
ATOM     59  H   UNL     1       2.621 -13.720   4.566  1.00  0.00     0.167 HD
ATOM     60  C   UNL     1       1.355 -14.522   6.969  1.00  0.00     0.074 A 
ATOM     61  C   UNL     1       0.778 -14.475   8.296  1.00  0.00     0.031 C 
ATOM     62  C   UNL     1       1.325 -15.614   6.166  1.00  0.00     0.034 A 
BRANCH  49  63
ATOM     63  C   UNL     1       3.844 -14.725   0.599  1.00  0.00     0.023 A 
ATOM     64  C   UNL     1       5.175 -15.098   0.321  1.00  0.00     0.012 A 
ATOM     65  C   UNL     1       2.844 -14.962  -0.363  1.00  0.00     0.148 A 
ATOM     66  C   UNL     1       5.511 -15.672  -0.903  1.00  0.00     0.002 A 
ATOM     67  C   UNL     1       3.179 -15.576  -1.564  1.00  0.00     0.091 A 
ATOM     68  F   UNL     1       1.587 -14.584  -0.086  1.00  0.00    -0.205 F 
ATOM     69  C   UNL     1       4.513 -15.921  -1.840  1.00  0.00     0.022 A 
BRANCH  67  70
ATOM     70  S   UNL     1       1.959 -16.015  -2.808  1.00  0.00     0.127 S 
ATOM     71  O   UNL     1       2.314 -15.111  -3.901  1.00  0.00    -0.237 OA
ATOM     72  O   UNL     1       2.268 -17.423  -3.057  1.00  0.00    -0.237 OA
ATOM     73  O   UNL     1       0.658 -15.773  -2.200  1.00  0.00    -0.744 OA
ENDBRANCH  67  70
ENDBRANCH  49  63
BRANCH  50  74
ATOM     74  C   UNL     1       1.684 -10.505   9.401  1.00  0.00     0.023 A 
ATOM     75  C   UNL     1       2.238 -11.008  10.595  1.00  0.00     0.012 A 
ATOM     76  C   UNL     1       0.789  -9.420   9.467  1.00  0.00     0.148 A 
ATOM     77  C   UNL     1       1.873 -10.475  11.832  1.00  0.00     0.002 A 
ATOM     78  C   UNL     1       0.472  -8.856  10.698  1.00  0.00     0.091 A 
ATOM     79  F   UNL     1       0.259  -8.961   8.324  1.00  0.00    -0.205 F 
ATOM     80  C   UNL     1       0.997  -9.394  11.883  1.00  0.00     0.022 A 
BRANCH  78  81
ATOM     81  S   UNL     1      -0.545  -7.382  10.838  1.00  0.00     0.127 S 
ATOM     82  O   UNL     1      -1.827  -7.941  11.257  1.00  0.00    -0.237 OA
ATOM     83  O   UNL     1       0.161  -6.618  11.868  1.00  0.00    -0.237 OA
ATOM     84  O   UNL     1      -0.515  -6.768   9.518  1.00  0.00    -0.744 OA
ENDBRANCH  78  81
ENDBRANCH  50  74
BRANCH  62  85
ATOM     85  C   UNL     1       0.705 -16.871   6.715  1.00  0.00     0.023 A 
ATOM     86  C   UNL     1      -0.693 -16.961   6.857  1.00  0.00     0.012 A 
ATOM     87  C   UNL     1       1.506 -17.991   7.013  1.00  0.00     0.148 A 
ATOM     88  C   UNL     1      -1.283 -18.137   7.320  1.00  0.00     0.002 A 
ATOM     89  C   UNL     1       0.908 -19.175   7.428  1.00  0.00     0.091 A 
ATOM     90  F   UNL     1       2.837 -17.879   6.890  1.00  0.00    -0.205 F 
ATOM     91  C   UNL     1      -0.485 -19.246   7.593  1.00  0.00     0.022 A 
BRANCH  89  92
ATOM     92  S   UNL     1       1.850 -20.679   7.707  1.00  0.00     0.127 S 
ATOM     93  O   UNL     1       1.874 -20.749   9.167  1.00  0.00    -0.237 OA
ATOM     94  O   UNL     1       1.017 -21.694   7.061  1.00  0.00    -0.237 OA
ATOM     95  O   UNL     1       3.141 -20.465   7.067  1.00  0.00    -0.744 OA
ENDBRANCH  89  92
ENDBRANCH  62  85
ENDBRANCH  36  37
ENDBRANCH  28  31
ENDBRANCH  26  27
ENDBRANCH  25  26
ENDBRANCH   1  25
TORSDOF 18
