REMARK SMILES O=C(NCCCCNC(=O)C1CN(c2cnccn2)C1)c1ccc(-c2c3nc(c(-c4cccc(S(=O)(=O)[O-])c4F)c4ccc([nH]4)c(-c4cccc(S(=O)(=O)[O-])c4F)c4nc(c(-c5cccc(S(=O)(=O)[O-])c5F)c5ccc2[nH]5)C=C4)C=C3)cc1
REMARK SMILES IDX 4 1 3 2 1 3 2 4 21 6 22 7 83 8 23 9 82 10 24 11 25 12 26 13
REMARK SMILES IDX 76 14 27 15 81 16 75 17 77 18 28 19 80 20 74 21 73 22 29 24
REMARK SMILES IDX 61 25 41 26 60 27 42 28 45 29 59 30 78 31 43 32 44 33 58 35
REMARK SMILES IDX 79 36 46 37 30 38 31 39 39 40 32 41 34 42 40 43 33 44 35 45
REMARK SMILES IDX 36 46 37 47 38 48 62 49 63 50 71 51 64 52 66 53 72 54 65 55
REMARK SMILES IDX 67 56 68 57 69 58 70 59 47 60 48 61 56 62 49 63 51 64 57 65
REMARK SMILES IDX 50 66 52 67 53 68 54 69 55 70 5 71 6 72 7 73 8 74 9 75 10 77
REMARK SMILES IDX 11 78 12 79 20 80 13 81 14 82 15 83 19 84 16 85 18 86 17 87
REMARK H PARENT 3 5 77 23 45 34 8 76
REMARK Flexibility Score: inf
ROOT
ATOM      1  C   UNL     1       4.555  -0.580   1.100  1.00  0.00     0.116 C 
ENDROOT
BRANCH   1   2
ATOM      2  N   UNL     1       3.130  -0.761   0.878  1.00  0.00    -0.352 N 
ATOM      3  O   UNL     1       1.102  -0.319   0.010  1.00  0.00    -0.269 OA
ATOM      4  C   UNL     1       2.318  -0.162  -0.053  1.00  0.00     0.251 C 
ATOM      5  H   UNL     1       2.685  -1.402   1.479  1.00  0.00     0.163 HD
BRANCH   4   6
ATOM      6  C   UNL     1       2.913   0.690  -1.103  1.00  0.00     0.039 A 
ATOM      7  C   UNL     1       4.026   0.255  -1.832  1.00  0.00     0.014 A 
ATOM      8  C   UNL     1       2.348   1.940  -1.358  1.00  0.00     0.014 A 
ATOM      9  C   UNL     1       4.644   1.118  -2.732  1.00  0.00     0.010 A 
ATOM     10  C   UNL     1       2.932   2.779  -2.308  1.00  0.00     0.010 A 
ATOM     11  C   UNL     1       4.100   2.386  -2.981  1.00  0.00    -0.014 A 
BRANCH  11  12
ATOM     12  C   UNL     1       4.716   3.283  -3.989  1.00  0.00     0.031 A 
ATOM     13  C   UNL     1       5.319   4.596  -3.583  1.00  0.00     0.074 A 
ATOM     14  C   UNL     1       4.664   2.932  -5.287  1.00  0.00     0.049 A 
ATOM     15  N   UNL     1       5.817   5.541  -4.337  1.00  0.00    -0.248 NA
ATOM     16  C   UNL     1       5.359   4.894  -2.142  1.00  0.00     0.031 C 
ATOM     17  C   UNL     1       4.063   1.699  -5.800  1.00  0.00     0.029 A 
ATOM     18  N   UNL     1       5.086   3.592  -6.413  1.00  0.00    -0.354 N 
ATOM     19  C   UNL     1       6.185   6.564  -3.474  1.00  0.00     0.074 A 
ATOM     20  C   UNL     1       5.853   6.125  -2.135  1.00  0.00     0.031 C 
ATOM     21  C   UNL     1       4.134   1.701  -7.138  1.00  0.00     0.029 A 
ATOM     22  C   UNL     1       4.741   2.953  -7.579  1.00  0.00     0.049 A 
ATOM     23  H   UNL     1       5.586   4.440  -6.387  1.00  0.00     0.167 HD
ATOM     24  C   UNL     1       6.758   7.756  -3.769  1.00  0.00     0.034 A 
ATOM     25  C   UNL     1       4.861   3.343  -8.863  1.00  0.00     0.034 A 
ATOM     26  C   UNL     1       7.114   8.169  -5.101  1.00  0.00     0.049 A 
ATOM     27  C   UNL     1       5.517   4.659  -9.167  1.00  0.00     0.074 A 
ATOM     28  C   UNL     1       7.776   9.318  -5.496  1.00  0.00     0.029 A 
ATOM     29  N   UNL     1       6.826   7.456  -6.255  1.00  0.00    -0.354 N 
ATOM     30  N   UNL     1       5.990   5.552  -8.333  1.00  0.00    -0.248 NA
ATOM     31  C   UNL     1       5.686   5.009 -10.584  1.00  0.00     0.031 C 
ATOM     32  C   UNL     1       7.868   9.310  -6.893  1.00  0.00     0.029 A 
ATOM     33  C   UNL     1       7.284   8.145  -7.365  1.00  0.00     0.049 A 
ATOM     34  H   UNL     1       6.364   6.587  -6.281  1.00  0.00     0.167 HD
ATOM     35  C   UNL     1       6.540   6.556  -9.120  1.00  0.00     0.074 A 
ATOM     36  C   UNL     1       6.351   6.154 -10.499  1.00  0.00     0.031 C 
ATOM     37  C   UNL     1       7.138   7.709  -8.731  1.00  0.00     0.034 A 
BRANCH  24  38
ATOM     38  C   UNL     1       7.065   8.688  -2.627  1.00  0.00     0.023 A 
ATOM     39  C   UNL     1       8.132   8.393  -1.754  1.00  0.00     0.012 A 
ATOM     40  C   UNL     1       6.331   9.876  -2.442  1.00  0.00     0.148 A 
ATOM     41  C   UNL     1       8.441   9.247  -0.695  1.00  0.00     0.002 A 
ATOM     42  C   UNL     1       6.670  10.742  -1.408  1.00  0.00     0.091 A 
ATOM     43  F   UNL     1       5.303  10.130  -3.264  1.00  0.00    -0.205 F 
ATOM     44  C   UNL     1       7.716  10.424  -0.527  1.00  0.00     0.022 A 
BRANCH  42  45
ATOM     45  S   UNL     1       5.834  12.314  -1.169  1.00  0.00     0.127 S 
ATOM     46  O   UNL     1       4.890  11.989  -0.102  1.00  0.00    -0.237 OA
ATOM     47  O   UNL     1       6.930  13.195  -0.762  1.00  0.00    -0.237 OA
ATOM     48  O   UNL     1       5.247  12.645  -2.459  1.00  0.00    -0.744 OA
ENDBRANCH  42  45
ENDBRANCH  24  38
BRANCH  25  49
ATOM     49  C   UNL     1       4.373   2.438  -9.939  1.00  0.00     0.023 A 
ATOM     50  C   UNL     1       5.302   1.735 -10.727  1.00  0.00     0.012 A 
ATOM     51  C   UNL     1       2.996   2.193 -10.109  1.00  0.00     0.148 A 
ATOM     52  C   UNL     1       4.867   0.807 -11.674  1.00  0.00     0.002 A 
ATOM     53  C   UNL     1       2.573   1.227 -11.013  1.00  0.00     0.091 A 
ATOM     54  F   UNL     1       2.131   2.881  -9.350  1.00  0.00    -0.205 F 
ATOM     55  C   UNL     1       3.506   0.542 -11.806  1.00  0.00     0.022 A 
BRANCH  53  56
ATOM     56  S   UNL     1       0.856   0.714 -11.146  1.00  0.00     0.127 S 
ATOM     57  O   UNL     1       0.503   1.194 -12.479  1.00  0.00    -0.237 OA
ATOM     58  O   UNL     1       0.968  -0.740 -11.024  1.00  0.00    -0.237 OA
ATOM     59  O   UNL     1       0.163   1.359 -10.039  1.00  0.00    -0.744 OA
ENDBRANCH  53  56
ENDBRANCH  25  49
BRANCH  37  60
ATOM     60  C   UNL     1       7.671   8.620  -9.804  1.00  0.00     0.023 A 
ATOM     61  C   UNL     1       6.782   9.415 -10.551  1.00  0.00     0.012 A 
ATOM     62  C   UNL     1       9.060   8.768  -9.990  1.00  0.00     0.148 A 
ATOM     63  C   UNL     1       7.267  10.336 -11.479  1.00  0.00     0.002 A 
ATOM     64  C   UNL     1       9.537   9.718 -10.884  1.00  0.00     0.091 A 
ATOM     65  F   UNL     1       9.886   7.986  -9.280  1.00  0.00    -0.205 F 
ATOM     66  C   UNL     1       8.642  10.498 -11.635  1.00  0.00     0.022 A 
BRANCH  64  67
ATOM     67  S   UNL     1      11.289  10.063 -11.084  1.00  0.00     0.127 S 
ATOM     68  O   UNL     1      11.544   9.541 -12.425  1.00  0.00    -0.237 OA
ATOM     69  O   UNL     1      11.332  11.521 -10.977  1.00  0.00    -0.237 OA
ATOM     70  O   UNL     1      11.964   9.357 -10.003  1.00  0.00    -0.744 OA
ENDBRANCH  64  67
ENDBRANCH  37  60
ENDBRANCH  11  12
ENDBRANCH   4   6
ENDBRANCH   1   2
BRANCH   1  71
ATOM     71  C   UNL     1       4.893  -0.314   2.564  1.00  0.00     0.023 C 
BRANCH  71  72
ATOM     72  C   UNL     1       4.432  -1.395   3.544  1.00  0.00     0.023 C 
BRANCH  72  73
ATOM     73  C   UNL     1       4.917  -2.803   3.208  1.00  0.00     0.116 C 
BRANCH  73  74
ATOM     74  N   UNL     1       6.356  -2.925   3.354  1.00  0.00    -0.356 N 
ATOM     75  C   UNL     1       7.091  -3.671   4.245  1.00  0.00     0.226 C 
ATOM     76  H   UNL     1       6.887  -2.392   2.718  1.00  0.00     0.163 HD
ATOM     77  O   UNL     1       8.321  -3.562   4.183  1.00  0.00    -0.275 OA
BRANCH  75  78
ATOM     78  C   UNL     1       6.367  -4.594   5.240  1.00  0.00     0.117 C 
ATOM     79  C   UNL     1       6.928  -6.015   5.446  1.00  0.00     0.133 C 
ATOM     80  C   UNL     1       6.625  -4.404   6.742  1.00  0.00     0.133 C 
ATOM     81  N   UNL     1       6.652  -5.820   6.826  1.00  0.00    -0.354 N 
BRANCH  81  82
ATOM     82  C   UNL     1       6.535  -6.728   7.870  1.00  0.00     0.147 A 
ATOM     83  C   UNL     1       5.819  -6.410   9.028  1.00  0.00     0.157 A 
ATOM     84  N   UNL     1       7.090  -7.955   7.739  1.00  0.00    -0.236 NA
ATOM     85  N   UNL     1       5.635  -7.264  10.069  1.00  0.00    -0.259 NA
ATOM     86  C   UNL     1       6.941  -8.800   8.785  1.00  0.00     0.133 A 
ATOM     87  C   UNL     1       6.223  -8.467   9.919  1.00  0.00     0.131 A 
ENDBRANCH  81  82
ENDBRANCH  75  78
ENDBRANCH  73  74
ENDBRANCH  72  73
ENDBRANCH  71  72
ENDBRANCH   1  71
TORSDOF 15
