REMARK SMILES C[C@H]([N@H+](C)CCC(=O)NCCCCNC(=O)c1ccc(-c2c3nc(c(-c4cccc(S(=O)(=O)[O-])c4F)c4ccc([nH]4)c(-c4cccc(S(=O)(=O)[O-])c4F)c4nc(c(-c5cccc(S(=O)(=O)[O-])c5F)c5ccc2[nH]5)C=C4)C=C3)cc1)C1(C)CC1
REMARK SMILES IDX 11 1 10 2 9 3 7 4 8 5 6 7 5 8 3 9 4 10 2 12 1 13 80 14 81 15
REMARK SMILES IDX 82 16 83 17 12 18 13 19 14 20 15 21 16 23 17 24 18 25 79 26
REMARK SMILES IDX 19 27 78 28 20 29 21 30 22 31 72 32 23 33 77 34 71 35 73 36
REMARK SMILES IDX 24 37 76 38 70 39 69 40 25 42 57 43 37 44 56 45 38 46 41 47
REMARK SMILES IDX 55 48 74 49 39 50 40 51 54 53 75 54 42 55 26 56 27 57 35 58
REMARK SMILES IDX 28 59 30 60 36 61 29 62 31 63 32 64 33 65 34 66 58 67 59 68
REMARK SMILES IDX 67 69 60 70 62 71 68 72 61 73 63 74 64 75 65 76 66 77 43 78
REMARK SMILES IDX 44 79 52 80 45 81 47 82 53 83 46 84 48 85 49 86 50 87 51 88
REMARK H PARENT 9 6 3 11 14 22 73 41 41 52
REMARK Flexibility Score: inf
ROOT
ATOM      1  C   UNL     1       1.112  -1.522  -1.999  1.00  0.00     0.023 C 
ENDROOT
BRANCH   1   2
ATOM      2  C   UNL     1       1.420  -0.277  -2.829  1.00  0.00     0.116 C 
BRANCH   2   3
ATOM      3  N   UNL     1       0.299   0.645  -2.869  1.00  0.00    -0.356 N 
ATOM      4  C   UNL     1       0.017   1.711  -2.064  1.00  0.00     0.225 C 
ATOM      5  O   UNL     1      -1.045   2.315  -2.239  1.00  0.00    -0.275 OA
ATOM      6  H   UNL     1      -0.356   0.476  -3.584  1.00  0.00     0.163 HD
BRANCH   4   7
ATOM      7  C   UNL     1       0.992   2.174  -0.997  1.00  0.00     0.161 C 
BRANCH   7   8
ATOM      8  C   UNL     1       0.701   1.603   0.405  1.00  0.00     0.272 C 
BRANCH   8   9
ATOM      9  N   UNL     1       1.175   0.226   0.575  1.00  0.00    -0.334 N 
ATOM     10  C   UNL     1       2.640   0.153   0.626  1.00  0.00     0.332 C 
ATOM     11  H   UNL     1       0.851  -0.234  -0.275  1.00  0.00     0.348 HD
BRANCH   9  12
ATOM     12  C   UNL     1       0.535  -0.582   1.641  1.00  0.00     0.186 C 
ATOM     13  C   UNL     1       1.093  -0.287   3.046  1.00  0.00     0.076 C 
BRANCH  12  14
ATOM     14  C   UNL     1      -1.022  -0.649   1.596  1.00  0.00     0.019 C 
ATOM     15  C   UNL     1      -1.752  -0.258   2.864  1.00  0.00     0.018 C 
ATOM     16  C   UNL     1      -1.816  -0.474   0.303  1.00  0.00     0.013 C 
ATOM     17  C   UNL     1      -1.619  -1.845   0.855  1.00  0.00     0.013 C 
ENDBRANCH  12  14
ENDBRANCH   9  12
ENDBRANCH   8   9
ENDBRANCH   7   8
ENDBRANCH   4   7
ENDBRANCH   2   3
ENDBRANCH   1   2
BRANCH   1  18
ATOM     18  C   UNL     1       0.371  -2.634  -2.729  1.00  0.00     0.023 C 
BRANCH  18  19
ATOM     19  C   UNL     1       1.253  -3.429  -3.673  1.00  0.00     0.116 C 
BRANCH  19  20
ATOM     20  N   UNL     1       2.329  -4.147  -2.995  1.00  0.00    -0.352 N 
ATOM     21  C   UNL     1       2.916  -5.338  -3.371  1.00  0.00     0.251 C 
ATOM     22  H   UNL     1       2.677  -3.733  -2.173  1.00  0.00     0.163 HD
ATOM     23  O   UNL     1       3.762  -5.875  -2.678  1.00  0.00    -0.269 OA
BRANCH  21  24
ATOM     24  C   UNL     1       2.441  -5.970  -4.620  1.00  0.00     0.039 A 
ATOM     25  C   UNL     1       1.937  -7.272  -4.570  1.00  0.00     0.014 A 
ATOM     26  C   UNL     1       2.368  -5.217  -5.792  1.00  0.00     0.014 A 
ATOM     27  C   UNL     1       1.270  -7.789  -5.682  1.00  0.00     0.010 A 
ATOM     28  C   UNL     1       1.629  -5.699  -6.861  1.00  0.00     0.010 A 
ATOM     29  C   UNL     1       1.069  -6.986  -6.816  1.00  0.00    -0.014 A 
BRANCH  29  30
ATOM     30  C   UNL     1       0.266  -7.443  -7.977  1.00  0.00     0.031 A 
ATOM     31  C   UNL     1       0.909  -7.516  -9.333  1.00  0.00     0.074 A 
ATOM     32  C   UNL     1      -1.062  -7.629  -7.843  1.00  0.00     0.049 A 
ATOM     33  N   UNL     1       0.355  -7.707 -10.500  1.00  0.00    -0.248 NA
ATOM     34  C   UNL     1       2.364  -7.290  -9.387  1.00  0.00     0.031 C 
ATOM     35  C   UNL     1      -1.817  -7.483  -6.596  1.00  0.00     0.029 A 
ATOM     36  N   UNL     1      -2.020  -7.930  -8.778  1.00  0.00    -0.354 N 
ATOM     37  C   UNL     1       1.376  -7.557 -11.429  1.00  0.00     0.074 A 
ATOM     38  C   UNL     1       2.578  -7.234 -10.693  1.00  0.00     0.031 C 
ATOM     39  C   UNL     1      -3.122  -7.679  -6.847  1.00  0.00     0.029 A 
ATOM     40  C   UNL     1      -3.300  -7.936  -8.273  1.00  0.00     0.049 A 
ATOM     41  H   UNL     1      -1.812  -8.123  -9.721  1.00  0.00     0.167 HD
ATOM     42  C   UNL     1       1.325  -7.705 -12.773  1.00  0.00     0.034 A 
ATOM     43  C   UNL     1      -4.485  -8.112  -8.892  1.00  0.00     0.034 A 
ATOM     44  C   UNL     1       0.149  -8.114 -13.487  1.00  0.00     0.049 A 
ATOM     45  C   UNL     1      -4.501  -8.386 -10.371  1.00  0.00     0.074 A 
ATOM     46  C   UNL     1       0.022  -8.432 -14.826  1.00  0.00     0.029 A 
ATOM     47  N   UNL     1      -1.105  -8.267 -12.916  1.00  0.00    -0.354 N 
ATOM     48  N   UNL     1      -3.495  -8.424 -11.211  1.00  0.00    -0.248 NA
ATOM     49  C   UNL     1      -5.805  -8.680 -10.983  1.00  0.00     0.031 C 
ATOM     50  C   UNL     1      -1.312  -8.775 -15.067  1.00  0.00     0.029 A 
ATOM     51  C   UNL     1      -2.014  -8.676 -13.875  1.00  0.00     0.049 A 
ATOM     52  H   UNL     1      -1.317  -8.109 -11.967  1.00  0.00     0.167 HD
ATOM     53  C   UNL     1      -4.037  -8.774 -12.442  1.00  0.00     0.074 A 
ATOM     54  C   UNL     1      -5.460  -8.954 -12.236  1.00  0.00     0.031 C 
ATOM     55  C   UNL     1      -3.414  -8.916 -13.638  1.00  0.00     0.034 A 
BRANCH  42  56
ATOM     56  C   UNL     1       2.600  -7.491 -13.543  1.00  0.00     0.023 A 
ATOM     57  C   UNL     1       3.635  -8.444 -13.449  1.00  0.00     0.012 A 
ATOM     58  C   UNL     1       2.768  -6.369 -14.377  1.00  0.00     0.148 A 
ATOM     59  C   UNL     1       4.832  -8.263 -14.138  1.00  0.00     0.002 A 
ATOM     60  C   UNL     1       3.949  -6.217 -15.095  1.00  0.00     0.091 A 
ATOM     61  F   UNL     1       1.787  -5.456 -14.433  1.00  0.00    -0.205 F 
ATOM     62  C   UNL     1       4.986  -7.156 -14.967  1.00  0.00     0.022 A 
BRANCH  60  63
ATOM     63  S   UNL     1       4.197  -4.859 -16.243  1.00  0.00     0.127 S 
ATOM     64  O   UNL     1       4.985  -3.929 -15.437  1.00  0.00    -0.237 OA
ATOM     65  O   UNL     1       4.938  -5.499 -17.332  1.00  0.00    -0.237 OA
ATOM     66  O   UNL     1       2.862  -4.409 -16.611  1.00  0.00    -0.744 OA
ENDBRANCH  60  63
ENDBRANCH  42  56
BRANCH  43  67
ATOM     67  C   UNL     1      -5.740  -8.110  -8.089  1.00  0.00     0.023 A 
ATOM     68  C   UNL     1      -6.396  -9.330  -7.837  1.00  0.00     0.012 A 
ATOM     69  C   UNL     1      -6.246  -6.926  -7.518  1.00  0.00     0.148 A 
ATOM     70  C   UNL     1      -7.546  -9.370  -7.047  1.00  0.00     0.002 A 
ATOM     71  C   UNL     1      -7.363  -6.980  -6.691  1.00  0.00     0.091 A 
ATOM     72  F   UNL     1      -5.612  -5.774  -7.779  1.00  0.00    -0.205 F 
ATOM     73  C   UNL     1      -8.022  -8.198  -6.465  1.00  0.00     0.022 A 
BRANCH  71  74
ATOM     74  S   UNL     1      -7.966  -5.546  -5.791  1.00  0.00     0.127 S 
ATOM     75  O   UNL     1      -9.207  -5.247  -6.502  1.00  0.00    -0.237 OA
ATOM     76  O   UNL     1      -8.143  -6.087  -4.443  1.00  0.00    -0.237 OA
ATOM     77  O   UNL     1      -6.914  -4.544  -5.902  1.00  0.00    -0.744 OA
ENDBRANCH  71  74
ENDBRANCH  43  67
BRANCH  55  78
ATOM     78  C   UNL     1      -4.249  -9.314 -14.824  1.00  0.00     0.023 A 
ATOM     79  C   UNL     1      -5.061  -8.353 -15.455  1.00  0.00     0.012 A 
ATOM     80  C   UNL     1      -4.133 -10.602 -15.384  1.00  0.00     0.148 A 
ATOM     81  C   UNL     1      -5.758  -8.671 -16.620  1.00  0.00     0.002 A 
ATOM     82  C   UNL     1      -4.796 -10.899 -16.568  1.00  0.00     0.091 A 
ATOM     83  F   UNL     1      -3.367 -11.506 -14.755  1.00  0.00    -0.205 F 
ATOM     84  C   UNL     1      -5.614  -9.937 -17.183  1.00  0.00     0.022 A 
BRANCH  82  85
ATOM     85  S   UNL     1      -4.595 -12.471 -17.415  1.00  0.00     0.127 S 
ATOM     86  O   UNL     1      -5.880 -13.116 -17.155  1.00  0.00    -0.237 OA
ATOM     87  O   UNL     1      -4.391 -12.053 -18.803  1.00  0.00    -0.237 OA
ATOM     88  O   UNL     1      -3.438 -13.111 -16.803  1.00  0.00    -0.744 OA
ENDBRANCH  82  85
ENDBRANCH  55  78
ENDBRANCH  29  30
ENDBRANCH  21  24
ENDBRANCH  19  20
ENDBRANCH  18  19
ENDBRANCH   1  18
TORSDOF 18
