REMARK SMILES CS(=O)(=O)c1ccc(C2=NN(c3ccc(C(=O)NCCCCNC(=O)c4ccc(-c5c6nc(c(-c7cccc(S(=O)(=O)[O-])c7F)c7ccc([nH]7)c(-c7cccc(S(=O)(=O)[O-])c7F)c7nc(c(-c8cccc(S(=O)(=O)[O-])c8F)c8ccc5[nH]8)C=C7)C=C6)cc4)cc3)[C@H](c3cccs3)C2)cc1
REMARK SMILES IDX 20 1 19 2 18 3 16 4 17 5 15 7 12 8 13 9 90 10 14 11 89 12
REMARK SMILES IDX 11 13 9 14 10 15 97 16 91 17 8 18 5 19 6 20 99 21 7 22 98 23
REMARK SMILES IDX 2 24 1 25 3 26 4 27 92 28 93 29 96 30 94 31 95 32 21 33
REMARK SMILES IDX 22 34 23 35 24 36 25 38 26 39 27 40 88 41 28 42 87 43 29 44
REMARK SMILES IDX 30 45 31 46 81 47 32 48 86 49 80 50 82 51 33 52 85 53 79 54
REMARK SMILES IDX 78 55 34 57 66 58 46 59 65 60 47 61 50 62 64 63 83 64 48 65
REMARK SMILES IDX 49 66 63 68 84 69 51 70 35 71 36 72 44 73 37 74 39 75 45 76
REMARK SMILES IDX 38 77 40 78 41 79 42 80 43 81 67 82 68 83 76 84 69 85 71 86
REMARK SMILES IDX 77 87 70 88 72 89 73 90 74 91 75 92 52 93 53 94 61 95 54 96
REMARK SMILES IDX 56 97 62 98 55 99 57 100 58 101 59 102 60 103
REMARK H PARENT 18 6 23 37 82 56 50 67
REMARK Flexibility Score: inf
ROOT
ATOM      1  C   UNL     1       7.036   4.527  12.287  1.00  0.00     0.023 C 
ENDROOT
BRANCH   1   2
ATOM      2  C   UNL     1       6.953   5.958  11.750  1.00  0.00     0.116 C 
BRANCH   2   3
ATOM      3  N   UNL     1       7.955   6.187  10.727  1.00  0.00    -0.352 N 
ATOM      4  C   UNL     1       7.865   6.189   9.357  1.00  0.00     0.251 C 
ATOM      5  O   UNL     1       8.861   6.495   8.704  1.00  0.00    -0.269 OA
ATOM      6  H   UNL     1       8.857   6.373  11.076  1.00  0.00     0.163 HD
BRANCH   4   7
ATOM      7  C   UNL     1       6.594   5.896   8.640  1.00  0.00     0.039 A 
ATOM      8  C   UNL     1       4.195   5.488   7.215  1.00  0.00     0.060 A 
ATOM      9  C   UNL     1       5.186   6.334   6.709  1.00  0.00     0.029 A 
ATOM     10  C   UNL     1       4.444   4.804   8.403  1.00  0.00     0.029 A 
ATOM     11  C   UNL     1       6.373   6.543   7.418  1.00  0.00     0.016 A 
ATOM     12  C   UNL     1       5.641   4.984   9.094  1.00  0.00     0.016 A 
BRANCH   8  13
ATOM     13  N   UNL     1       2.999   5.287   6.553  1.00  0.00    -0.257 N 
ATOM     14  C   UNL     1       1.832   4.762   4.874  1.00  0.00     0.071 C 
ATOM     15  N   UNL     1       2.982   4.549   5.425  1.00  0.00    -0.176 NA
ATOM     16  C   UNL     1       0.946   5.771   5.551  1.00  0.00     0.091 C 
ATOM     17  C   UNL     1       1.788   6.070   6.805  1.00  0.00     0.154 C 
BRANCH  14  18
ATOM     18  C   UNL     1       1.419   4.042   3.668  1.00  0.00    -0.002 A 
ATOM     19  C   UNL     1       0.776   2.594   1.390  1.00  0.00     0.067 A 
ATOM     20  C   UNL     1       1.214   1.917   2.529  1.00  0.00     0.021 A 
ATOM     21  C   UNL     1       0.667   3.994   1.385  1.00  0.00     0.021 A 
ATOM     22  C   UNL     1       1.548   2.648   3.667  1.00  0.00     0.011 A 
ATOM     23  C   UNL     1       0.979   4.723   2.534  1.00  0.00     0.011 A 
BRANCH  19  24
ATOM     24  S   UNL     1       0.369   1.728  -0.107  1.00  0.00     0.175 S 
ATOM     25  C   UNL     1       1.126   0.129  -0.010  1.00  0.00     0.163 C 
ATOM     26  O   UNL     1       1.015   2.442  -1.190  1.00  0.00    -0.224 OA
ATOM     27  O   UNL     1      -1.071   1.541  -0.087  1.00  0.00    -0.224 OA
ENDBRANCH  19  24
ENDBRANCH  14  18
BRANCH  17  28
ATOM     28  C   UNL     1       1.129   5.806   8.151  1.00  0.00     0.030 A 
ATOM     29  C   UNL     1       1.509   6.360   9.365  1.00  0.00     0.017 A 
ATOM     30  S   UNL     1      -0.157   4.693   8.377  1.00  0.00    -0.147 S 
ATOM     31  C   UNL     1       0.744   5.876  10.464  1.00  0.00     0.012 A 
ATOM     32  C   UNL     1      -0.217   4.980  10.060  1.00  0.00     0.065 A 
ENDBRANCH  17  28
ENDBRANCH   8  13
ENDBRANCH   4   7
ENDBRANCH   2   3
ENDBRANCH   1   2
BRANCH   1  33
ATOM     33  C   UNL     1       8.174   4.292  13.280  1.00  0.00     0.023 C 
BRANCH  33  34
ATOM     34  C   UNL     1       8.079   5.105  14.563  1.00  0.00     0.116 C 
BRANCH  34  35
ATOM     35  N   UNL     1       6.840   4.878  15.296  1.00  0.00    -0.352 N 
ATOM     36  C   UNL     1       6.648   4.873  16.657  1.00  0.00     0.251 C 
ATOM     37  H   UNL     1       6.040   4.708  14.747  1.00  0.00     0.163 HD
ATOM     38  O   UNL     1       5.561   4.557  17.129  1.00  0.00    -0.269 OA
BRANCH  36  39
ATOM     39  C   UNL     1       7.781   5.217  17.539  1.00  0.00     0.039 A 
ATOM     40  C   UNL     1       8.102   4.359  18.593  1.00  0.00     0.014 A 
ATOM     41  C   UNL     1       8.554   6.354  17.289  1.00  0.00     0.014 A 
ATOM     42  C   UNL     1       9.241   4.610  19.360  1.00  0.00     0.010 A 
ATOM     43  C   UNL     1       9.729   6.557  18.002  1.00  0.00     0.010 A 
ATOM     44  C   UNL     1      10.082   5.692  19.048  1.00  0.00    -0.014 A 
BRANCH  44  45
ATOM     45  C   UNL     1      11.338   5.934  19.800  1.00  0.00     0.031 A 
ATOM     46  C   UNL     1      11.511   7.201  20.592  1.00  0.00     0.074 A 
ATOM     47  C   UNL     1      12.354   5.054  19.701  1.00  0.00     0.049 A 
ATOM     48  N   UNL     1      12.546   7.611  21.277  1.00  0.00    -0.248 NA
ATOM     49  C   UNL     1      10.382   8.146  20.590  1.00  0.00     0.031 C 
ATOM     50  C   UNL     1      12.336   3.826  18.902  1.00  0.00     0.029 A 
ATOM     51  N   UNL     1      13.607   5.067  20.260  1.00  0.00    -0.354 N 
ATOM     52  C   UNL     1      12.208   8.869  21.759  1.00  0.00     0.074 A 
ATOM     53  C   UNL     1      10.889   9.176  21.250  1.00  0.00     0.031 C 
ATOM     54  C   UNL     1      13.514   3.196  19.037  1.00  0.00     0.029 A 
ATOM     55  C   UNL     1      14.381   3.987  19.905  1.00  0.00     0.049 A 
ATOM     56  H   UNL     1      13.922   5.782  20.859  1.00  0.00     0.167 HD
ATOM     57  C   UNL     1      12.913   9.683  22.581  1.00  0.00     0.034 A 
ATOM     58  C   UNL     1      15.646   3.670  20.244  1.00  0.00     0.034 A 
ATOM     59  C   UNL     1      14.208   9.357  23.114  1.00  0.00     0.049 A 
ATOM     60  C   UNL     1      16.401   4.579  21.176  1.00  0.00     0.074 A 
ATOM     61  C   UNL     1      14.974  10.073  24.016  1.00  0.00     0.029 A 
ATOM     62  N   UNL     1      14.934   8.221  22.787  1.00  0.00    -0.354 N 
ATOM     63  N   UNL     1      16.004   5.690  21.748  1.00  0.00    -0.248 NA
ATOM     64  C   UNL     1      17.766   4.172  21.537  1.00  0.00     0.031 C 
ATOM     65  C   UNL     1      16.173   9.381  24.218  1.00  0.00     0.029 A 
ATOM     66  C   UNL     1      16.142   8.220  23.462  1.00  0.00     0.049 A 
ATOM     67  H   UNL     1      14.633   7.519  22.166  1.00  0.00     0.167 HD
ATOM     68  C   UNL     1      17.052   6.093  22.569  1.00  0.00     0.074 A 
ATOM     69  C   UNL     1      18.095   5.096  22.430  1.00  0.00     0.031 C 
ATOM     70  C   UNL     1      17.148   7.193  23.356  1.00  0.00     0.034 A 
BRANCH  57  71
ATOM     71  C   UNL     1      12.266  10.980  22.995  1.00  0.00     0.023 A 
ATOM     72  C   UNL     1      11.152  10.955  23.860  1.00  0.00     0.012 A 
ATOM     73  C   UNL     1      12.769  12.220  22.556  1.00  0.00     0.148 A 
ATOM     74  C   UNL     1      10.520  12.137  24.244  1.00  0.00     0.002 A 
ATOM     75  C   UNL     1      12.164  13.397  22.982  1.00  0.00     0.091 A 
ATOM     76  F   UNL     1      13.814  12.227  21.716  1.00  0.00    -0.205 F 
ATOM     77  C   UNL     1      11.031  13.357  23.812  1.00  0.00     0.022 A 
BRANCH  75  78
ATOM     78  S   UNL     1      12.796  15.021  22.545  1.00  0.00     0.127 S 
ATOM     79  O   UNL     1      11.809  15.467  21.563  1.00  0.00    -0.237 OA
ATOM     80  O   UNL     1      12.742  15.728  23.826  1.00  0.00    -0.237 OA
ATOM     81  O   UNL     1      14.140  14.801  22.032  1.00  0.00    -0.744 OA
ENDBRANCH  75  78
ENDBRANCH  57  71
BRANCH  58  82
ATOM     82  C   UNL     1      16.247   2.390  19.772  1.00  0.00     0.023 A 
ATOM     83  C   UNL     1      16.470   1.355  20.701  1.00  0.00     0.012 A 
ATOM     84  C   UNL     1      16.572   2.180  18.418  1.00  0.00     0.148 A 
ATOM     85  C   UNL     1      17.035   0.145  20.297  1.00  0.00     0.002 A 
ATOM     86  C   UNL     1      17.087   0.953  18.014  1.00  0.00     0.091 A 
ATOM     87  F   UNL     1      16.360   3.180  17.552  1.00  0.00    -0.205 F 
ATOM     88  C   UNL     1      17.335  -0.059  18.954  1.00  0.00     0.022 A 
BRANCH  86  89
ATOM     89  S   UNL     1      17.387   0.553  16.288  1.00  0.00     0.127 S 
ATOM     90  O   UNL     1      18.845   0.483  16.247  1.00  0.00    -0.237 OA
ATOM     91  O   UNL     1      16.703  -0.734  16.155  1.00  0.00    -0.237 OA
ATOM     92  O   UNL     1      16.785   1.635  15.523  1.00  0.00    -0.744 OA
ENDBRANCH  86  89
ENDBRANCH  58  82
BRANCH  70  93
ATOM     93  C   UNL     1      18.407   7.363  24.166  1.00  0.00     0.023 A 
ATOM     94  C   UNL     1      19.612   7.713  23.527  1.00  0.00     0.012 A 
ATOM     95  C   UNL     1      18.376   7.246  25.570  1.00  0.00     0.148 A 
ATOM     96  C   UNL     1      20.776   7.910  24.270  1.00  0.00     0.002 A 
ATOM     97  C   UNL     1      19.527   7.494  26.308  1.00  0.00     0.091 A 
ATOM     98  F   UNL     1      17.224   6.893  26.158  1.00  0.00    -0.205 F 
ATOM     99  C   UNL     1      20.731   7.813  25.659  1.00  0.00     0.022 A 
BRANCH  97 100
ATOM    100  S   UNL     1      19.539   7.489  28.104  1.00  0.00     0.127 S 
ATOM    101  O   UNL     1      20.267   6.255  28.394  1.00  0.00    -0.237 OA
ATOM    102  O   UNL     1      20.273   8.717  28.413  1.00  0.00    -0.237 OA
ATOM    103  O   UNL     1      18.142   7.503  28.515  1.00  0.00    -0.744 OA
ENDBRANCH  97 100
ENDBRANCH  70  93
ENDBRANCH  44  45
ENDBRANCH  36  39
ENDBRANCH  34  35
ENDBRANCH  33  34
ENDBRANCH   1  33
TORSDOF 18
