REMARK SMILES O=C(CCc1cc2n(n1)CC[N@@H+](Cc1ccc3[nH]ccc3c1)C2)NCCCCNC(=O)c1ccc(-c2c3nc(c(-c4cccc(S(=O)(=O)[O-])c4F)c4ccc([nH]4)c(-c4cccc(S(=O)(=O)[O-])c4F)c4nc(c(-c5cccc(S(=O)(=O)[O-])c5F)c5ccc2[nH]5)C=C4)C=C3)cc1
REMARK SMILES IDX 26 1 25 2 24 3 1 4 2 5 3 7 4 8 5 9 6 10 9 11 7 12 8 13 23 14
REMARK SMILES IDX 10 15 12 16 11 17 13 19 14 20 15 21 22 22 16 23 21 24 17 25
REMARK SMILES IDX 20 26 18 27 19 28 27 30 28 31 29 32 30 33 31 35 32 36 33 37
REMARK SMILES IDX 94 38 34 39 93 40 35 41 36 42 37 43 87 44 38 45 92 46 86 47
REMARK SMILES IDX 88 48 39 49 91 50 85 51 84 52 40 54 72 55 52 56 71 57 53 58
REMARK SMILES IDX 56 59 70 60 89 61 54 62 55 63 69 65 90 66 57 67 41 68 42 69
REMARK SMILES IDX 50 70 43 71 45 72 51 73 44 74 46 75 47 76 48 77 49 78 73 79
REMARK SMILES IDX 74 80 82 81 75 82 77 83 83 84 76 85 78 86 79 87 80 88 81 89
REMARK SMILES IDX 58 90 59 91 67 92 60 93 62 94 68 95 61 96 63 97 64 98 65 99
REMARK SMILES IDX 66 100
REMARK H PARENT 24 6 12 18 18 29 29 34 88 53 56 64
REMARK Flexibility Score: inf
ROOT
ATOM      1  C   UNL     1       1.217  -2.484  -2.330  1.00  0.00     0.023 C 
ENDROOT
BRANCH   1   2
ATOM      2  C   UNL     1       1.362  -2.001  -0.875  1.00  0.00     0.116 C 
BRANCH   2   3
ATOM      3  N   UNL     1       2.281  -0.910  -0.599  1.00  0.00    -0.356 N 
ATOM      4  O   UNL     1       0.613   0.575  -0.061  1.00  0.00    -0.275 OA
ATOM      5  C   UNL     1       1.813   0.303  -0.131  1.00  0.00     0.220 C 
ATOM      6  H   UNL     1       3.246  -1.036  -0.747  1.00  0.00     0.163 HD
BRANCH   5   7
ATOM      7  C   UNL     1       2.857   1.345   0.227  1.00  0.00     0.106 C 
BRANCH   7   8
ATOM      8  C   UNL     1       3.545   1.118   1.565  1.00  0.00     0.068 C 
BRANCH   8   9
ATOM      9  C   UNL     1       4.752   0.262   1.451  1.00  0.00     0.063 A 
ATOM     10  C   UNL     1       6.032   0.610   0.953  1.00  0.00     0.055 A 
ATOM     11  N   UNL     1       4.699  -1.021   1.826  1.00  0.00    -0.177 NA
ATOM     12  C   UNL     1       6.785  -0.529   1.106  1.00  0.00     0.093 A 
ATOM     13  N   UNL     1       5.999  -1.377   1.835  1.00  0.00    -0.258 N 
ATOM     14  C   UNL     1       8.167  -0.911   0.735  1.00  0.00     0.319 C 
ATOM     15  C   UNL     1       6.413  -2.674   2.322  1.00  0.00     0.206 C 
ATOM     16  N   UNL     1       8.236  -2.343   0.532  1.00  0.00    -0.325 N 
ATOM     17  C   UNL     1       7.713  -3.145   1.640  1.00  0.00     0.286 C 
ATOM     18  H   UNL     1       9.206  -2.640   0.637  1.00  0.00     0.348 HD
BRANCH  16  19
ATOM     19  C   UNL     1       8.408  -2.859  -0.822  1.00  0.00     0.299 C 
BRANCH  19  20
ATOM     20  C   UNL     1       7.207  -3.537  -1.475  1.00  0.00     0.007 A 
ATOM     21  C   UNL     1       7.360  -4.168  -2.755  1.00  0.00     0.012 A 
ATOM     22  C   UNL     1       6.029  -3.641  -0.731  1.00  0.00     0.020 A 
ATOM     23  C   UNL     1       6.440  -5.049  -3.382  1.00  0.00     0.027 A 
ATOM     24  C   UNL     1       5.011  -4.477  -1.120  1.00  0.00    -0.000 A 
ATOM     25  C   UNL     1       5.191  -5.128  -2.778  1.00  0.00     0.045 A 
ATOM     26  C   UNL     1       3.114  -4.574  -0.598  1.00  0.00     0.028 A 
ATOM     27  N   UNL     1       3.485  -5.622  -3.377  1.00  0.00    -0.361 N 
ATOM     28  C   UNL     1       2.221  -5.284  -2.009  1.00  0.00     0.083 A 
ATOM     29  H   UNL     1       3.280  -5.999  -4.263  1.00  0.00     0.166 HD
ENDBRANCH  19  20
ENDBRANCH  16  19
ENDBRANCH   8   9
ENDBRANCH   7   8
ENDBRANCH   5   7
ENDBRANCH   2   3
ENDBRANCH   1   2
BRANCH   1  30
ATOM     30  C   UNL     1       2.345  -3.174  -3.133  1.00  0.00     0.023 C 
BRANCH  30  31
ATOM     31  C   UNL     1       3.622  -3.970  -2.390  1.00  0.00     0.116 C 
BRANCH  31  32
ATOM     32  N   UNL     1       3.925  -5.981  -1.610  1.00  0.00    -0.352 N 
ATOM     33  C   UNL     1       4.762  -7.177  -1.614  1.00  0.00     0.251 C 
ATOM     34  H   UNL     1       3.181  -6.159  -0.990  1.00  0.00     0.163 HD
ATOM     35  O   UNL     1       4.994  -7.869  -2.601  1.00  0.00    -0.269 OA
BRANCH  33  36
ATOM     36  C   UNL     1       5.344  -7.514  -0.258  1.00  0.00     0.039 A 
ATOM     37  C   UNL     1       6.579  -8.158  -0.149  1.00  0.00     0.014 A 
ATOM     38  C   UNL     1       4.786  -6.932   0.880  1.00  0.00     0.014 A 
ATOM     39  C   UNL     1       7.276  -8.106   1.068  1.00  0.00     0.010 A 
ATOM     40  C   UNL     1       5.556  -6.710   1.998  1.00  0.00     0.010 A 
ATOM     41  C   UNL     1       6.803  -7.297   2.124  1.00  0.00    -0.014 A 
BRANCH  41  42
ATOM     42  C   UNL     1       7.702  -6.838   3.210  1.00  0.00     0.031 A 
ATOM     43  C   UNL     1       9.079  -6.458   2.706  1.00  0.00     0.074 A 
ATOM     44  C   UNL     1       7.278  -6.567   4.487  1.00  0.00     0.049 A 
ATOM     45  N   UNL     1      10.202  -6.693   3.284  1.00  0.00    -0.248 NA
ATOM     46  C   UNL     1       9.278  -5.801   1.392  1.00  0.00     0.031 C 
ATOM     47  C   UNL     1       5.892  -6.633   4.998  1.00  0.00     0.029 A 
ATOM     48  N   UNL     1       7.934  -6.068   5.594  1.00  0.00    -0.354 N 
ATOM     49  C   UNL     1      11.188  -6.011   2.562  1.00  0.00     0.074 A 
ATOM     50  C   UNL     1      10.566  -5.457   1.406  1.00  0.00     0.031 C 
ATOM     51  C   UNL     1       5.774  -5.955   6.162  1.00  0.00     0.029 A 
ATOM     52  C   UNL     1       7.094  -5.574   6.615  1.00  0.00     0.049 A 
ATOM     53  H   UNL     1       8.915  -6.057   5.666  1.00  0.00     0.167 HD
ATOM     54  C   UNL     1      12.411  -5.838   3.122  1.00  0.00     0.034 A 
ATOM     55  C   UNL     1       7.422  -4.931   7.773  1.00  0.00     0.034 A 
ATOM     56  C   UNL     1      12.620  -6.894   4.079  1.00  0.00     0.049 A 
ATOM     57  C   UNL     1       8.829  -5.252   8.039  1.00  0.00     0.074 A 
ATOM     58  C   UNL     1      12.813  -8.256   4.004  1.00  0.00     0.029 A 
ATOM     59  N   UNL     1      12.065  -6.615   5.298  1.00  0.00    -0.354 N 
ATOM     60  N   UNL     1       9.241  -6.447   8.348  1.00  0.00    -0.248 NA
ATOM     61  C   UNL     1       9.850  -4.299   7.638  1.00  0.00     0.031 C 
ATOM     62  C   UNL     1      12.166  -8.800   5.152  1.00  0.00     0.029 A 
ATOM     63  C   UNL     1      11.711  -7.756   5.954  1.00  0.00     0.049 A 
ATOM     64  H   UNL     1      11.937  -5.706   5.654  1.00  0.00     0.167 HD
ATOM     65  C   UNL     1      10.452  -6.529   7.697  1.00  0.00     0.074 A 
ATOM     66  C   UNL     1      10.863  -5.148   7.457  1.00  0.00     0.031 C 
ATOM     67  C   UNL     1      10.830  -7.691   7.096  1.00  0.00     0.034 A 
BRANCH  54  68
ATOM     68  C   UNL     1      13.060  -4.476   3.319  1.00  0.00     0.023 A 
ATOM     69  C   UNL     1      14.213  -4.463   4.145  1.00  0.00     0.012 A 
ATOM     70  C   UNL     1      12.458  -3.225   3.042  1.00  0.00     0.148 A 
ATOM     71  C   UNL     1      14.685  -3.294   4.747  1.00  0.00     0.002 A 
ATOM     72  C   UNL     1      12.967  -2.052   3.605  1.00  0.00     0.091 A 
ATOM     73  F   UNL     1      11.341  -3.173   2.310  1.00  0.00    -0.205 F 
ATOM     74  C   UNL     1      14.056  -2.089   4.483  1.00  0.00     0.022 A 
BRANCH  72  75
ATOM     75  S   UNL     1      12.255  -0.429   3.296  1.00  0.00     0.127 S 
ATOM     76  O   UNL     1      11.742  -0.075   4.616  1.00  0.00    -0.237 OA
ATOM     77  O   UNL     1      13.428   0.331   2.864  1.00  0.00    -0.237 OA
ATOM     78  O   UNL     1      11.255  -0.627   2.257  1.00  0.00    -0.744 OA
ENDBRANCH  72  75
ENDBRANCH  54  68
BRANCH  55  79
ATOM     79  C   UNL     1       6.726  -3.956   8.667  1.00  0.00     0.023 A 
ATOM     80  C   UNL     1       7.174  -3.760   9.999  1.00  0.00     0.012 A 
ATOM     81  C   UNL     1       5.873  -2.979   8.118  1.00  0.00     0.148 A 
ATOM     82  C   UNL     1       6.838  -2.607  10.728  1.00  0.00     0.002 A 
ATOM     83  C   UNL     1       5.546  -1.831   8.845  1.00  0.00     0.091 A 
ATOM     84  F   UNL     1       5.466  -3.134   6.852  1.00  0.00    -0.205 F 
ATOM     85  C   UNL     1       6.038  -1.633  10.143  1.00  0.00     0.022 A 
BRANCH  83  86
ATOM     86  S   UNL     1       4.556  -0.502   8.146  1.00  0.00     0.127 S 
ATOM     87  O   UNL     1       3.544  -0.302   9.184  1.00  0.00    -0.237 OA
ATOM     88  O   UNL     1       5.536   0.575   8.034  1.00  0.00    -0.237 OA
ATOM     89  O   UNL     1       4.037  -1.022   6.889  1.00  0.00    -0.744 OA
ENDBRANCH  83  86
ENDBRANCH  55  79
BRANCH  67  90
ATOM     90  C   UNL     1      10.237  -8.973   7.590  1.00  0.00     0.023 A 
ATOM     91  C   UNL     1       8.879  -9.331   7.484  1.00  0.00     0.012 A 
ATOM     92  C   UNL     1      11.155  -9.906   8.095  1.00  0.00     0.148 A 
ATOM     93  C   UNL     1       8.454 -10.602   7.888  1.00  0.00     0.002 A 
ATOM     94  C   UNL     1      10.742 -11.180   8.436  1.00  0.00     0.091 A 
ATOM     95  F   UNL     1      12.438  -9.528   8.213  1.00  0.00    -0.205 F 
ATOM     96  C   UNL     1       9.389 -11.533   8.346  1.00  0.00     0.022 A 
BRANCH  94  97
ATOM     97  S   UNL     1      11.938 -12.426   8.906  1.00  0.00     0.127 S 
ATOM     98  O   UNL     1      11.754 -12.492  10.353  1.00  0.00    -0.237 OA
ATOM     99  O   UNL     1      11.470 -13.601   8.170  1.00  0.00    -0.237 OA
ATOM    100  O   UNL     1      13.234 -11.927   8.459  1.00  0.00    -0.744 OA
ENDBRANCH  94  97
ENDBRANCH  67  90
ENDBRANCH  41  42
ENDBRANCH  33  36
ENDBRANCH  31  32
ENDBRANCH  30  31
ENDBRANCH   1  30
TORSDOF 18
