REMARK SMILES C[C@H]1[C@H](C(=O)NCCCCNC(=O)c2ccc(-c3c4nc(c(-c5cccc(S(=O)(=O)[O-])c5F)c5ccc([nH]5)c(-c5cccc(S(=O)(=O)[O-])c5F)c5nc(c(-c6cccc(S(=O)(=O)[O-])c6F)c6ccc3[nH]6)C=C5)C=C4)cc2)CCN1C(=O)[C@H]1CC[C@@H](C[NH3+])CC1
REMARK SMILES IDX 8 1 7 2 6 3 4 4 5 5 3 7 1 8 2 9 79 10 77 11 78 12 80 13
REMARK SMILES IDX 81 14 82 15 89 16 83 17 88 18 84 19 85 20 86 21 87 22 9 26
REMARK SMILES IDX 10 27 11 28 12 29 13 31 14 32 15 33 76 34 16 35 75 36 17 37
REMARK SMILES IDX 18 38 19 39 69 40 20 41 74 42 68 43 70 44 21 45 73 46 67 47
REMARK SMILES IDX 66 48 22 50 54 51 34 52 53 53 35 54 38 55 52 56 71 57 36 58
REMARK SMILES IDX 37 59 51 61 72 62 39 63 23 64 24 65 32 66 25 67 27 68 33 69
REMARK SMILES IDX 26 70 28 71 29 72 30 73 31 74 55 75 56 76 64 77 57 78 59 79
REMARK SMILES IDX 65 80 58 81 60 82 61 83 62 84 63 85 40 86 41 87 49 88 42 89
REMARK SMILES IDX 44 90 50 91 43 92 45 93 46 94 47 95 48 96
REMARK H PARENT 6 6 87 23 87 24 87 25 11 30 70 49 38 60
REMARK Flexibility Score: inf
ROOT
ATOM      1  C   UNL     1       0.093   0.178   4.110  1.00  0.00     0.023 C 
ENDROOT
BRANCH   1   2
ATOM      2  C   UNL     1      -0.841   0.576   2.972  1.00  0.00     0.116 C 
BRANCH   2   3
ATOM      3  N   UNL     1      -0.466   1.852   2.401  1.00  0.00    -0.356 N 
ATOM      4  C   UNL     1      -0.172   2.206   1.126  1.00  0.00     0.225 C 
ATOM      5  O   UNL     1       0.178   3.374   0.930  1.00  0.00    -0.275 OA
ATOM      6  H   UNL     1      -0.416   2.590   3.050  1.00  0.00     0.163 HD
BRANCH   4   7
ATOM      7  C   UNL     1      -0.237   1.241  -0.048  1.00  0.00     0.102 C 
ATOM      8  C   UNL     1       1.727   0.357  -1.286  1.00  0.00     0.032 C 
ATOM      9  C   UNL     1       0.859   0.151  -0.035  1.00  0.00     0.094 C 
ATOM     10  N   UNL     1       0.128  -1.127  -0.081  1.00  0.00    -0.339 N 
ATOM     11  C   UNL     1      -1.569   0.524  -0.251  1.00  0.00     0.037 C 
ATOM     12  C   UNL     1      -1.197  -0.899  -0.637  1.00  0.00     0.120 C 
BRANCH  10  13
ATOM     13  C   UNL     1       0.481  -2.420   0.265  1.00  0.00     0.225 C 
ATOM     14  O   UNL     1      -0.282  -3.355  -0.018  1.00  0.00    -0.275 OA
BRANCH  13  15
ATOM     15  C   UNL     1       1.760  -2.777   1.049  1.00  0.00     0.078 C 
ATOM     16  C   UNL     1       3.060  -2.571   0.277  1.00  0.00     0.014 C 
ATOM     17  C   UNL     1       1.772  -2.173   2.450  1.00  0.00     0.014 C 
ATOM     18  C   UNL     1       4.309  -2.842   1.116  1.00  0.00     0.010 C 
ATOM     19  C   UNL     1       3.061  -2.427   3.228  1.00  0.00     0.010 C 
ATOM     20  C   UNL     1       4.314  -2.039   2.429  1.00  0.00     0.044 C 
BRANCH  20  21
ATOM     21  C   UNL     1       4.446  -0.523   2.155  1.00  0.00     0.262 C 
BRANCH  21  22
ATOM     22  N   UNL     1       4.558   0.263   3.374  1.00  0.00    -0.357 N 
ATOM     23  H   UNL     1       3.715   0.143   3.935  1.00  0.00     0.344 HD
ATOM     24  H   UNL     1       4.670   1.248   3.134  1.00  0.00     0.344 HD
ATOM     25  H   UNL     1       5.369  -0.051   3.907  1.00  0.00     0.344 HD
ENDBRANCH  21  22
ENDBRANCH  20  21
ENDBRANCH  13  15
ENDBRANCH  10  13
ENDBRANCH   4   7
ENDBRANCH   2   3
ENDBRANCH   1   2
BRANCH   1  26
ATOM     26  C   UNL     1      -0.043   0.970   5.399  1.00  0.00     0.023 C 
BRANCH  26  27
ATOM     27  C   UNL     1      -1.439   0.995   5.997  1.00  0.00     0.116 C 
BRANCH  27  28
ATOM     28  N   UNL     1      -1.995  -0.331   6.236  1.00  0.00    -0.352 N 
ATOM     29  C   UNL     1      -2.575  -0.836   7.380  1.00  0.00     0.251 C 
ATOM     30  H   UNL     1      -1.950  -0.953   5.473  1.00  0.00     0.163 HD
ATOM     31  O   UNL     1      -2.904  -2.011   7.439  1.00  0.00    -0.269 OA
BRANCH  29  32
ATOM     32  C   UNL     1      -2.755   0.056   8.546  1.00  0.00     0.039 A 
ATOM     33  C   UNL     1      -2.329  -0.378   9.803  1.00  0.00     0.014 A 
ATOM     34  C   UNL     1      -3.274   1.341   8.379  1.00  0.00     0.014 A 
ATOM     35  C   UNL     1      -2.342   0.514  10.878  1.00  0.00     0.010 A 
ATOM     36  C   UNL     1      -3.191   2.254   9.423  1.00  0.00     0.010 A 
ATOM     37  C   UNL     1      -2.729   1.851  10.684  1.00  0.00    -0.014 A 
BRANCH  37  38
ATOM     38  C   UNL     1      -2.652   2.852  11.778  1.00  0.00     0.031 A 
ATOM     39  C   UNL     1      -3.898   3.560  12.237  1.00  0.00     0.074 A 
ATOM     40  C   UNL     1      -1.451   3.203  12.281  1.00  0.00     0.049 A 
ATOM     41  N   UNL     1      -4.024   4.522  13.112  1.00  0.00    -0.248 NA
ATOM     42  C   UNL     1      -5.165   3.162  11.599  1.00  0.00     0.031 C 
ATOM     43  C   UNL     1      -0.159   2.661  11.851  1.00  0.00     0.029 A 
ATOM     44  N   UNL     1      -1.118   4.123  13.244  1.00  0.00    -0.354 N 
ATOM     45  C   UNL     1      -5.368   4.874  13.098  1.00  0.00     0.074 A 
ATOM     46  C   UNL     1      -6.011   4.051  12.098  1.00  0.00     0.031 C 
ATOM     47  C   UNL     1       0.822   3.252  12.552  1.00  0.00     0.029 A 
ATOM     48  C   UNL     1       0.236   4.231  13.461  1.00  0.00     0.049 A 
ATOM     49  H   UNL     1      -1.786   4.656  13.733  1.00  0.00     0.167 HD
ATOM     50  C   UNL     1      -6.019   5.773  13.872  1.00  0.00     0.034 A 
ATOM     51  C   UNL     1       0.927   5.029  14.299  1.00  0.00     0.034 A 
ATOM     52  C   UNL     1      -5.390   6.539  14.913  1.00  0.00     0.049 A 
ATOM     53  C   UNL     1       0.172   5.967  15.201  1.00  0.00     0.074 A 
ATOM     54  C   UNL     1      -5.979   7.396  15.825  1.00  0.00     0.029 A 
ATOM     55  N   UNL     1      -4.030   6.538  15.182  1.00  0.00    -0.354 N 
ATOM     56  N   UNL     1      -1.122   6.160  15.293  1.00  0.00    -0.248 NA
ATOM     57  C   UNL     1       0.966   6.769  16.144  1.00  0.00     0.031 C 
ATOM     58  C   UNL     1      -4.971   7.922  16.641  1.00  0.00     0.029 A 
ATOM     59  C   UNL     1      -3.758   7.381  16.244  1.00  0.00     0.049 A 
ATOM     60  H   UNL     1      -3.357   6.015  14.689  1.00  0.00     0.167 HD
ATOM     61  C   UNL     1      -1.299   7.078  16.322  1.00  0.00     0.074 A 
ATOM     62  C   UNL     1       0.019   7.385  16.839  1.00  0.00     0.031 C 
ATOM     63  C   UNL     1      -2.447   7.630  16.786  1.00  0.00     0.034 A 
BRANCH  50  64
ATOM     64  C   UNL     1      -7.504   5.922  13.671  1.00  0.00     0.023 A 
ATOM     65  C   UNL     1      -8.365   4.888  14.092  1.00  0.00     0.012 A 
ATOM     66  C   UNL     1      -8.051   7.094  13.115  1.00  0.00     0.148 A 
ATOM     67  C   UNL     1      -9.745   5.001  13.930  1.00  0.00     0.002 A 
ATOM     68  C   UNL     1      -9.431   7.218  12.997  1.00  0.00     0.091 A 
ATOM     69  F   UNL     1      -7.215   8.056  12.698  1.00  0.00    -0.205 F 
ATOM     70  C   UNL     1     -10.277   6.170  13.393  1.00  0.00     0.022 A 
BRANCH  68  71
ATOM     71  S   UNL     1     -10.218   8.714  12.389  1.00  0.00     0.127 S 
ATOM     72  O   UNL     1     -10.668   8.292  11.064  1.00  0.00    -0.237 OA
ATOM     73  O   UNL     1     -11.292   8.915  13.362  1.00  0.00    -0.237 OA
ATOM     74  O   UNL     1      -9.187   9.742  12.404  1.00  0.00    -0.744 OA
ENDBRANCH  68  71
ENDBRANCH  50  64
BRANCH  51  75
ATOM     75  C   UNL     1       2.411   4.914  14.383  1.00  0.00     0.023 A 
ATOM     76  C   UNL     1       2.990   4.338  15.531  1.00  0.00     0.012 A 
ATOM     77  C   UNL     1       3.245   5.336  13.331  1.00  0.00     0.148 A 
ATOM     78  C   UNL     1       4.375   4.213  15.643  1.00  0.00     0.002 A 
ATOM     79  C   UNL     1       4.622   5.159  13.426  1.00  0.00     0.091 A 
ATOM     80  F   UNL     1       2.677   5.893  12.252  1.00  0.00    -0.205 F 
ATOM     81  C   UNL     1       5.190   4.613  14.587  1.00  0.00     0.022 A 
BRANCH  79  82
ATOM     82  S   UNL     1       5.733   5.525  12.062  1.00  0.00     0.127 S 
ATOM     83  O   UNL     1       6.379   6.751  12.524  1.00  0.00    -0.237 OA
ATOM     84  O   UNL     1       6.594   4.342  12.046  1.00  0.00    -0.237 OA
ATOM     85  O   UNL     1       4.878   5.658  10.890  1.00  0.00    -0.744 OA
ENDBRANCH  79  82
ENDBRANCH  51  75
BRANCH  63  86
ATOM     86  C   UNL     1      -2.342   8.603  17.929  1.00  0.00     0.023 A 
ATOM     87  C   UNL     1      -1.841   9.899  17.698  1.00  0.00     0.012 A 
ATOM     88  C   UNL     1      -2.818   8.263  19.211  1.00  0.00     0.148 A 
ATOM     89  C   UNL     1      -1.788  10.833  18.731  1.00  0.00     0.002 A 
ATOM     90  C   UNL     1      -2.805   9.213  20.224  1.00  0.00     0.091 A 
ATOM     91  F   UNL     1      -3.273   7.018  19.415  1.00  0.00    -0.205 F 
ATOM     92  C   UNL     1      -2.280  10.495  19.990  1.00  0.00     0.022 A 
BRANCH  90  93
ATOM     93  S   UNL     1      -3.507   8.894  21.847  1.00  0.00     0.127 S 
ATOM     94  O   UNL     1      -2.306   8.717  22.662  1.00  0.00    -0.237 OA
ATOM     95  O   UNL     1      -4.249  10.127  22.115  1.00  0.00    -0.237 OA
ATOM     96  O   UNL     1      -4.342   7.710  21.694  1.00  0.00    -0.744 OA
ENDBRANCH  90  93
ENDBRANCH  63  86
ENDBRANCH  37  38
ENDBRANCH  29  32
ENDBRANCH  27  28
ENDBRANCH  26  27
ENDBRANCH   1  26
TORSDOF 18
