REMARK SMILES C[C@H]1[C@H](C(=O)NCCCCNC(=O)c2ccc(-c3c4nc(c(-c5cccc(S(=O)(=O)[O-])c5F)c5ccc([nH]5)c(-c5cccc(S(=O)(=O)[O-])c5F)c5nc(c(-c6cccc(S(=O)(=O)[O-])c6F)c6ccc3[nH]6)C=C5)C=C4)cc2)CC[N@@H+]1Cc1ccc(C(F)(F)F)cc1
REMARK SMILES IDX 8 1 7 2 6 3 4 4 5 5 3 7 1 8 2 9 79 10 77 11 78 12 80 14
REMARK SMILES IDX 81 15 82 16 90 17 83 18 89 19 84 20 85 21 86 22 87 23 88 24
REMARK SMILES IDX 9 25 10 26 11 27 12 28 13 30 14 31 15 32 76 33 16 34 75 35
REMARK SMILES IDX 17 36 18 37 19 38 69 39 20 40 74 41 68 42 70 43 21 44 73 45
REMARK SMILES IDX 67 46 66 47 22 49 54 50 34 51 53 52 35 53 38 54 52 55 71 56
REMARK SMILES IDX 36 57 37 58 51 60 72 61 39 62 23 63 24 64 32 65 25 66 27 67
REMARK SMILES IDX 33 68 26 69 28 70 29 71 30 72 31 73 55 74 56 75 64 76 57 77
REMARK SMILES IDX 59 78 65 79 58 80 60 81 61 82 62 83 63 84 40 85 41 86 49 87
REMARK SMILES IDX 42 88 44 89 50 90 43 91 45 92 46 93 47 94 48 95
REMARK H PARENT 6 6 79 13 11 29 70 48 38 59
REMARK Flexibility Score: inf
ROOT
ATOM      1  C   UNL     1       0.722   0.696   4.134  1.00  0.00     0.023 C 
ENDROOT
BRANCH   1   2
ATOM      2  C   UNL     1      -0.319   1.406   3.260  1.00  0.00     0.116 C 
BRANCH   2   3
ATOM      3  N   UNL     1       0.273   2.432   2.432  1.00  0.00    -0.356 N 
ATOM      4  C   UNL     1       0.556   2.458   1.107  1.00  0.00     0.229 C 
ATOM      5  O   UNL     1       1.008   3.521   0.663  1.00  0.00    -0.275 OA
ATOM      6  H   UNL     1       0.512   3.256   2.915  1.00  0.00     0.163 HD
BRANCH   4   7
ATOM      7  C   UNL     1       0.293   1.313   0.132  1.00  0.00     0.142 C 
ATOM      8  C   UNL     1       2.075  -0.440  -0.100  1.00  0.00     0.076 C 
ATOM      9  C   UNL     1       0.696  -0.127   0.498  1.00  0.00     0.193 C 
ATOM     10  N   UNL     1      -0.301  -1.009  -0.153  1.00  0.00    -0.328 N 
ATOM     11  C   UNL     1      -1.146   1.194  -0.336  1.00  0.00     0.081 C 
ATOM     12  C   UNL     1      -1.131  -0.169  -1.012  1.00  0.00     0.263 C 
ATOM     13  H   UNL     1       0.199  -1.689  -0.726  1.00  0.00     0.348 HD
BRANCH  10  14
ATOM     14  C   UNL     1      -1.002  -1.996   0.692  1.00  0.00     0.299 C 
BRANCH  14  15
ATOM     15  C   UNL     1      -2.047  -1.514   1.687  1.00  0.00     0.006 A 
ATOM     16  C   UNL     1      -1.865  -1.708   3.063  1.00  0.00     0.010 A 
ATOM     17  C   UNL     1      -3.231  -0.885   1.278  1.00  0.00     0.010 A 
ATOM     18  C   UNL     1      -2.742  -1.125   3.986  1.00  0.00     0.013 A 
ATOM     19  C   UNL     1      -4.074  -0.252   2.195  1.00  0.00     0.013 A 
ATOM     20  C   UNL     1      -3.804  -0.319   3.562  1.00  0.00     0.056 A 
BRANCH  20  21
ATOM     21  C   UNL     1      -4.569   0.529   4.548  1.00  0.00     0.416 C 
ATOM     22  F   UNL     1      -4.887  -0.126   5.695  1.00  0.00    -0.166 F 
ATOM     23  F   UNL     1      -3.846   1.622   4.930  1.00  0.00    -0.166 F 
ATOM     24  F   UNL     1      -5.739   1.015   4.050  1.00  0.00    -0.166 F 
ENDBRANCH  20  21
ENDBRANCH  14  15
ENDBRANCH  10  14
ENDBRANCH   4   7
ENDBRANCH   2   3
ENDBRANCH   1   2
BRANCH   1  25
ATOM     25  C   UNL     1       0.869   1.258   5.556  1.00  0.00     0.023 C 
BRANCH  25  26
ATOM     26  C   UNL     1      -0.361   1.111   6.455  1.00  0.00     0.116 C 
BRANCH  26  27
ATOM     27  N   UNL     1      -0.785  -0.266   6.657  1.00  0.00    -0.352 N 
ATOM     28  C   UNL     1      -1.643  -0.786   7.607  1.00  0.00     0.251 C 
ATOM     29  H   UNL     1      -0.406  -0.921   6.027  1.00  0.00     0.163 HD
ATOM     30  O   UNL     1      -1.893  -1.981   7.604  1.00  0.00    -0.269 OA
BRANCH  28  31
ATOM     31  C   UNL     1      -2.187   0.092   8.671  1.00  0.00     0.039 A 
ATOM     32  C   UNL     1      -2.071  -0.346   9.994  1.00  0.00     0.014 A 
ATOM     33  C   UNL     1      -2.708   1.356   8.394  1.00  0.00     0.014 A 
ATOM     34  C   UNL     1      -2.336   0.539  11.040  1.00  0.00     0.010 A 
ATOM     35  C   UNL     1      -2.910   2.259   9.435  1.00  0.00     0.010 A 
ATOM     36  C   UNL     1      -2.679   1.871  10.762  1.00  0.00    -0.014 A 
BRANCH  36  37
ATOM     37  C   UNL     1      -2.651   2.899  11.831  1.00  0.00     0.031 A 
ATOM     38  C   UNL     1      -3.896   3.618  12.252  1.00  0.00     0.074 A 
ATOM     39  C   UNL     1      -1.452   3.261  12.335  1.00  0.00     0.049 A 
ATOM     40  N   UNL     1      -4.037   4.553  13.155  1.00  0.00    -0.248 NA
ATOM     41  C   UNL     1      -5.141   3.262  11.553  1.00  0.00     0.031 C 
ATOM     42  C   UNL     1      -0.160   2.709  11.915  1.00  0.00     0.029 A 
ATOM     43  N   UNL     1      -1.118   4.194  13.283  1.00  0.00    -0.354 N 
ATOM     44  C   UNL     1      -5.377   4.915  13.120  1.00  0.00     0.074 A 
ATOM     45  C   UNL     1      -6.002   4.119  12.085  1.00  0.00     0.031 C 
ATOM     46  C   UNL     1       0.822   3.309  12.605  1.00  0.00     0.029 A 
ATOM     47  C   UNL     1       0.237   4.298  13.502  1.00  0.00     0.049 A 
ATOM     48  H   UNL     1      -1.784   4.738  13.761  1.00  0.00     0.167 HD
ATOM     49  C   UNL     1      -6.030   5.808  13.902  1.00  0.00     0.034 A 
ATOM     50  C   UNL     1       0.930   5.096  14.336  1.00  0.00     0.034 A 
ATOM     51  C   UNL     1      -5.404   6.570  14.949  1.00  0.00     0.049 A 
ATOM     52  C   UNL     1       0.171   6.026  15.242  1.00  0.00     0.074 A 
ATOM     53  C   UNL     1      -5.991   7.431  15.858  1.00  0.00     0.029 A 
ATOM     54  N   UNL     1      -4.044   6.567  15.223  1.00  0.00    -0.354 N 
ATOM     55  N   UNL     1      -1.124   6.213  15.330  1.00  0.00    -0.248 NA
ATOM     56  C   UNL     1       0.960   6.821  16.193  1.00  0.00     0.031 C 
ATOM     57  C   UNL     1      -4.984   7.957  16.676  1.00  0.00     0.029 A 
ATOM     58  C   UNL     1      -3.771   7.414  16.283  1.00  0.00     0.049 A 
ATOM     59  H   UNL     1      -3.371   6.040  14.734  1.00  0.00     0.167 HD
ATOM     60  C   UNL     1      -1.308   7.121  16.364  1.00  0.00     0.074 A 
ATOM     61  C   UNL     1       0.008   7.430  16.888  1.00  0.00     0.031 C 
ATOM     62  C   UNL     1      -2.461   7.666  16.827  1.00  0.00     0.034 A 
BRANCH  49  63
ATOM     63  C   UNL     1      -7.515   5.955  13.697  1.00  0.00     0.023 A 
ATOM     64  C   UNL     1      -8.373   4.923  14.132  1.00  0.00     0.012 A 
ATOM     65  C   UNL     1      -8.068   7.118  13.127  1.00  0.00     0.148 A 
ATOM     66  C   UNL     1      -9.753   5.030  13.972  1.00  0.00     0.002 A 
ATOM     67  C   UNL     1      -9.449   7.233  13.005  1.00  0.00     0.091 A 
ATOM     68  F   UNL     1      -7.237   8.079  12.700  1.00  0.00    -0.205 F 
ATOM     69  C   UNL     1     -10.291   6.188  13.418  1.00  0.00     0.022 A 
BRANCH  67  70
ATOM     70  S   UNL     1     -10.242   8.712  12.364  1.00  0.00     0.127 S 
ATOM     71  O   UNL     1     -10.664   8.269  11.036  1.00  0.00    -0.237 OA
ATOM     72  O   UNL     1     -11.337   8.914  13.314  1.00  0.00    -0.237 OA
ATOM     73  O   UNL     1      -9.224   9.753  12.385  1.00  0.00    -0.744 OA
ENDBRANCH  67  70
ENDBRANCH  49  63
BRANCH  50  74
ATOM     74  C   UNL     1       2.413   4.971  14.421  1.00  0.00     0.023 A 
ATOM     75  C   UNL     1       2.987   4.376  15.561  1.00  0.00     0.012 A 
ATOM     76  C   UNL     1       3.251   5.383  13.367  1.00  0.00     0.148 A 
ATOM     77  C   UNL     1       4.369   4.218  15.662  1.00  0.00     0.002 A 
ATOM     78  C   UNL     1       4.623   5.176  13.452  1.00  0.00     0.091 A 
ATOM     79  F   UNL     1       2.689   5.959  12.294  1.00  0.00    -0.205 F 
ATOM     80  C   UNL     1       5.186   4.606  14.604  1.00  0.00     0.022 A 
BRANCH  78  81
ATOM     81  S   UNL     1       5.729   5.521  12.077  1.00  0.00     0.127 S 
ATOM     82  O   UNL     1       6.351   6.773  12.500  1.00  0.00    -0.237 OA
ATOM     83  O   UNL     1       6.614   4.356  12.093  1.00  0.00    -0.237 OA
ATOM     84  O   UNL     1       4.870   5.598  10.902  1.00  0.00    -0.744 OA
ENDBRANCH  78  81
ENDBRANCH  50  74
BRANCH  62  85
ATOM     85  C   UNL     1      -2.358   8.639  17.969  1.00  0.00     0.023 A 
ATOM     86  C   UNL     1      -1.880   9.942  17.729  1.00  0.00     0.012 A 
ATOM     87  C   UNL     1      -2.806   8.291  19.258  1.00  0.00     0.148 A 
ATOM     88  C   UNL     1      -1.827  10.878  18.761  1.00  0.00     0.002 A 
ATOM     89  C   UNL     1      -2.790   9.241  20.272  1.00  0.00     0.091 A 
ATOM     90  F   UNL     1      -3.233   7.038  19.471  1.00  0.00    -0.205 F 
ATOM     91  C   UNL     1      -2.293  10.532  20.028  1.00  0.00     0.022 A 
BRANCH  89  92
ATOM     92  S   UNL     1      -3.456   8.906  21.906  1.00  0.00     0.127 S 
ATOM     93  O   UNL     1      -2.238   8.694  22.687  1.00  0.00    -0.237 OA
ATOM     94  O   UNL     1      -4.170  10.145  22.216  1.00  0.00    -0.237 OA
ATOM     95  O   UNL     1      -4.316   7.740  21.752  1.00  0.00    -0.744 OA
ENDBRANCH  89  92
ENDBRANCH  62  85
ENDBRANCH  36  37
ENDBRANCH  28  31
ENDBRANCH  26  27
ENDBRANCH  25  26
ENDBRANCH   1  25
TORSDOF 17
