REMARK SMILES O=C(NCCCCNC(=O)c1cccc(COc2ccccc2C=C2C(=O)c3ccccc3C2=O)c1)c1ccc(-c2c3nc(c(-c4cccc(S(=O)(=O)[O-])c4F)c4ccc([nH]4)c(-c4cccc(S(=O)(=O)[O-])c4F)c4nc(c(-c5cccc(S(=O)(=O)[O-])c5F)c5ccc2[nH]5)C=C4)C=C3)cc1
REMARK SMILES IDX 6 1 5 2 4 3 3 4 1 5 2 6 37 8 38 9 99 10 39 11 98 12 40 13
REMARK SMILES IDX 41 14 42 15 92 16 43 17 97 18 91 19 93 20 44 21 96 22 90 23
REMARK SMILES IDX 89 24 45 26 77 27 57 28 76 29 58 30 61 31 75 32 94 33 59 34
REMARK SMILES IDX 60 35 74 37 95 38 62 39 46 40 47 41 55 42 48 43 50 44 56 45
REMARK SMILES IDX 49 46 51 47 52 48 53 49 54 50 78 51 79 52 87 53 80 54 82 55
REMARK SMILES IDX 88 56 81 57 83 58 84 59 85 60 86 61 63 62 64 63 72 64 65 65
REMARK SMILES IDX 67 66 73 67 66 68 68 69 69 70 70 71 71 72 7 73 8 74 9 75
REMARK SMILES IDX 10 77 11 78 12 79 36 80 13 81 15 82 14 83 16 84 17 85 18 86
REMARK SMILES IDX 19 87 23 88 20 89 22 90 21 91 24 92 25 93 26 94 34 95 27 96
REMARK SMILES IDX 28 97 33 98 35 99 29 100 32 101 30 102 31 103
REMARK H PARENT 3 7 93 25 61 36 8 76
REMARK Flexibility Score: inf
ROOT
ATOM      1  C   UNL     1       4.238  -3.595  -0.339  1.00  0.00     0.023 C 
ENDROOT
BRANCH   1   2
ATOM      2  C   UNL     1       4.808  -2.379   0.379  1.00  0.00     0.023 C 
BRANCH   2   3
ATOM      3  C   UNL     1       4.523  -1.052  -0.310  1.00  0.00     0.116 C 
BRANCH   3   4
ATOM      4  N   UNL     1       3.101  -0.831  -0.550  1.00  0.00    -0.352 N 
ATOM      5  O   UNL     1       1.091   0.170  -0.303  1.00  0.00    -0.269 OA
ATOM      6  C   UNL     1       2.305   0.212  -0.137  1.00  0.00     0.251 C 
ATOM      7  H   UNL     1       2.648  -1.524  -1.082  1.00  0.00     0.163 HD
BRANCH   6   8
ATOM      8  C   UNL     1       2.941   1.355   0.542  1.00  0.00     0.039 A 
ATOM      9  C   UNL     1       4.098   1.920   0.004  1.00  0.00     0.014 A 
ATOM     10  C   UNL     1       2.438   1.794   1.768  1.00  0.00     0.014 A 
ATOM     11  C   UNL     1       4.865   2.769   0.786  1.00  0.00     0.010 A 
ATOM     12  C   UNL     1       3.154   2.742   2.500  1.00  0.00     0.010 A 
ATOM     13  C   UNL     1       4.402   3.194   2.043  1.00  0.00    -0.014 A 
BRANCH  13  14
ATOM     14  C   UNL     1       5.233   4.137   2.835  1.00  0.00     0.031 A 
ATOM     15  C   UNL     1       5.758   3.766   4.196  1.00  0.00     0.074 A 
ATOM     16  C   UNL     1       5.531   5.335   2.296  1.00  0.00     0.049 A 
ATOM     17  N   UNL     1       6.526   4.462   4.996  1.00  0.00    -0.248 NA
ATOM     18  C   UNL     1       5.366   2.456   4.740  1.00  0.00     0.031 C 
ATOM     19  C   UNL     1       5.052   5.817   0.997  1.00  0.00     0.029 A 
ATOM     20  N   UNL     1       6.310   6.362   2.762  1.00  0.00    -0.354 N 
ATOM     21  C   UNL     1       6.664   3.705   6.154  1.00  0.00     0.074 A 
ATOM     22  C   UNL     1       5.898   2.494   5.955  1.00  0.00     0.031 C 
ATOM     23  C   UNL     1       5.582   7.022   0.750  1.00  0.00     0.029 A 
ATOM     24  C   UNL     1       6.380   7.429   1.898  1.00  0.00     0.049 A 
ATOM     25  H   UNL     1       6.774   6.337   3.629  1.00  0.00     0.167 HD
ATOM     26  C   UNL     1       7.370   3.990   7.275  1.00  0.00     0.034 A 
ATOM     27  C   UNL     1       7.005   8.615   2.021  1.00  0.00     0.034 A 
ATOM     28  C   UNL     1       8.162   5.180   7.447  1.00  0.00     0.049 A 
ATOM     29  C   UNL     1       7.800   8.888   3.263  1.00  0.00     0.074 A 
ATOM     30  C   UNL     1       8.972   5.527   8.514  1.00  0.00     0.029 A 
ATOM     31  N   UNL     1       8.236   6.223   6.536  1.00  0.00    -0.354 N 
ATOM     32  N   UNL     1       8.014   8.108   4.294  1.00  0.00    -0.248 NA
ATOM     33  C   UNL     1       8.466  10.194   3.345  1.00  0.00     0.031 C 
ATOM     34  C   UNL     1       9.507   6.795   8.264  1.00  0.00     0.029 A 
ATOM     35  C   UNL     1       9.066   7.220   7.021  1.00  0.00     0.049 A 
ATOM     36  H   UNL     1       7.767   6.250   5.670  1.00  0.00     0.167 HD
ATOM     37  C   UNL     1       8.873   8.810   5.129  1.00  0.00     0.074 A 
ATOM     38  C   UNL     1       9.152  10.072   4.473  1.00  0.00     0.031 C 
ATOM     39  C   UNL     1       9.377   8.447   6.334  1.00  0.00     0.034 A 
BRANCH  26  40
ATOM     40  C   UNL     1       7.333   2.992   8.407  1.00  0.00     0.023 A 
ATOM     41  C   UNL     1       8.000   1.756   8.282  1.00  0.00     0.012 A 
ATOM     42  C   UNL     1       6.689   3.307   9.620  1.00  0.00     0.148 A 
ATOM     43  C   UNL     1       7.995   0.836   9.331  1.00  0.00     0.002 A 
ATOM     44  C   UNL     1       6.728   2.405  10.678  1.00  0.00     0.091 A 
ATOM     45  F   UNL     1       6.043   4.478   9.717  1.00  0.00    -0.205 F 
ATOM     46  C   UNL     1       7.369   1.164  10.530  1.00  0.00     0.022 A 
BRANCH  44  47
ATOM     47  S   UNL     1       6.024   2.772  12.290  1.00  0.00     0.127 S 
ATOM     48  O   UNL     1       4.851   1.899  12.305  1.00  0.00    -0.237 OA
ATOM     49  O   UNL     1       7.099   2.363  13.196  1.00  0.00    -0.237 OA
ATOM     50  O   UNL     1       5.743   4.200  12.289  1.00  0.00    -0.744 OA
ENDBRANCH  44  47
ENDBRANCH  26  40
BRANCH  27  51
ATOM     51  C   UNL     1       6.939   9.604   0.910  1.00  0.00     0.023 A 
ATOM     52  C   UNL     1       8.100   9.887   0.166  1.00  0.00     0.012 A 
ATOM     53  C   UNL     1       5.728  10.233   0.563  1.00  0.00     0.148 A 
ATOM     54  C   UNL     1       8.063  10.803  -0.885  1.00  0.00     0.002 A 
ATOM     55  C   UNL     1       5.685  11.099  -0.523  1.00  0.00     0.091 A 
ATOM     56  F   UNL     1       4.636   9.954   1.289  1.00  0.00    -0.205 F 
ATOM     57  C   UNL     1       6.856  11.400  -1.236  1.00  0.00     0.022 A 
BRANCH  55  58
ATOM     58  S   UNL     1       4.151  11.805  -1.131  1.00  0.00     0.127 S 
ATOM     59  O   UNL     1       4.313  13.215  -0.783  1.00  0.00    -0.237 OA
ATOM     60  O   UNL     1       4.229  11.509  -2.562  1.00  0.00    -0.237 OA
ATOM     61  O   UNL     1       3.087  11.100  -0.429  1.00  0.00    -0.744 OA
ENDBRANCH  55  58
ENDBRANCH  27  51
BRANCH  39  62
ATOM     62  C   UNL     1      10.335   9.401   6.998  1.00  0.00     0.023 A 
ATOM     63  C   UNL     1       9.868  10.617   7.536  1.00  0.00     0.012 A 
ATOM     64  C   UNL     1      11.696   9.064   7.132  1.00  0.00     0.148 A 
ATOM     65  C   UNL     1      10.749  11.501   8.158  1.00  0.00     0.002 A 
ATOM     66  C   UNL     1      12.557   9.923   7.801  1.00  0.00     0.091 A 
ATOM     67  F   UNL     1      12.126   7.913   6.594  1.00  0.00    -0.205 F 
ATOM     68  C   UNL     1      12.089  11.149   8.301  1.00  0.00     0.022 A 
BRANCH  66  69
ATOM     69  S   UNL     1      14.273   9.502   8.120  1.00  0.00     0.127 S 
ATOM     70  O   UNL     1      14.973  10.357   7.163  1.00  0.00    -0.237 OA
ATOM     71  O   UNL     1      14.435   9.894   9.521  1.00  0.00    -0.237 OA
ATOM     72  O   UNL     1      14.385   8.070   7.880  1.00  0.00    -0.744 OA
ENDBRANCH  66  69
ENDBRANCH  39  62
ENDBRANCH  13  14
ENDBRANCH   6   8
ENDBRANCH   3   4
ENDBRANCH   2   3
ENDBRANCH   1   2
BRANCH   1  73
ATOM     73  C   UNL     1       4.583  -3.650  -1.821  1.00  0.00     0.116 C 
BRANCH  73  74
ATOM     74  N   UNL     1       6.014  -3.814  -2.021  1.00  0.00    -0.352 N 
ATOM     75  C   UNL     1       6.653  -4.915  -2.527  1.00  0.00     0.251 C 
ATOM     76  H   UNL     1       6.584  -3.053  -1.766  1.00  0.00     0.163 HD
ATOM     77  O   UNL     1       7.871  -5.038  -2.497  1.00  0.00    -0.269 OA
BRANCH  75  78
ATOM     78  C   UNL     1       5.822  -5.938  -3.174  1.00  0.00     0.040 A 
ATOM     79  C   UNL     1       5.791  -7.242  -2.687  1.00  0.00     0.014 A 
ATOM     80  C   UNL     1       5.109  -5.572  -4.317  1.00  0.00     0.021 A 
ATOM     81  C   UNL     1       4.994  -8.186  -3.329  1.00  0.00     0.001 A 
ATOM     82  C   UNL     1       4.340  -6.524  -4.983  1.00  0.00    -0.010 A 
ATOM     83  C   UNL     1       4.263  -7.827  -4.465  1.00  0.00     0.007 A 
BRANCH  82  84
ATOM     84  C   UNL     1       3.780  -6.201  -6.338  1.00  0.00     0.265 C 
BRANCH  84  85
ATOM     85  O   UNL     1       4.529  -6.982  -7.276  1.00  0.00    -0.488 OA
BRANCH  85  86
ATOM     86  C   UNL     1       5.457  -6.251  -7.974  1.00  0.00     0.127 A 
ATOM     87  C   UNL     1       5.005  -5.630  -9.146  1.00  0.00     0.047 A 
ATOM     88  C   UNL     1       6.827  -6.280  -7.649  1.00  0.00     0.017 A 
ATOM     89  C   UNL     1       5.916  -5.062 -10.034  1.00  0.00     0.004 A 
ATOM     90  C   UNL     1       7.723  -5.771  -8.603  1.00  0.00     0.012 A 
ATOM     91  C   UNL     1       7.277  -5.155  -9.773  1.00  0.00     0.001 A 
BRANCH  88  92
ATOM     92  C   UNL     1       7.368  -6.906  -6.421  1.00  0.00     0.028 C 
ATOM     93  C   UNL     1       8.390  -6.459  -5.666  1.00  0.00     0.071 C 
ATOM     94  C   UNL     1       9.216  -5.223  -5.807  1.00  0.00     0.197 C 
ATOM     95  C   UNL     1       8.978  -7.270  -4.553  1.00  0.00     0.197 C 
ATOM     96  O   UNL     1       9.036  -4.245  -6.504  1.00  0.00    -0.288 OA
ATOM     97  C   UNL     1      10.372  -5.418  -4.930  1.00  0.00     0.034 A 
ATOM     98  C   UNL     1      10.222  -6.578  -4.178  1.00  0.00     0.034 A 
ATOM     99  O   UNL     1       8.593  -8.336  -4.116  1.00  0.00    -0.288 OA
ATOM    100  C   UNL     1      11.521  -4.647  -4.867  1.00  0.00     0.013 A 
ATOM    101  C   UNL     1      11.209  -6.996  -3.301  1.00  0.00     0.013 A 
ATOM    102  C   UNL     1      12.537  -5.070  -4.007  1.00  0.00     0.001 A 
ATOM    103  C   UNL     1      12.378  -6.229  -3.223  1.00  0.00     0.001 A 
ENDBRANCH  88  92
ENDBRANCH  85  86
ENDBRANCH  84  85
ENDBRANCH  82  84
ENDBRANCH  75  78
ENDBRANCH  73  74
ENDBRANCH   1  73
TORSDOF 18
