REMARK SMILES CCCCCCNC(=O)Oc1cccc(-c2ccc([C@@H](C)C(=O)NCCCCNC(=O)c3ccc(-c4c5nc(c(-c6cccc(S(=O)(=O)[O-])c6F)c6ccc([nH]6)c(-c6cccc(S(=O)(=O)[O-])c6F)c6nc(c(-c7cccc(S(=O)(=O)[O-])c7F)c7ccc4[nH]7)C=C6)C=C5)cc3)cc2N)c1
REMARK SMILES IDX 20 1 21 2 19 3 16 4 17 5 96 6 18 7 95 8 15 9 11 10 12 11
REMARK SMILES IDX 98 12 13 13 14 14 10 15 8 16 7 17 9 19 6 20 5 21 4 22 3 23
REMARK SMILES IDX 2 24 1 25 97 26 22 29 23 30 24 31 25 33 26 34 27 35 28 36
REMARK SMILES IDX 29 37 30 38 31 40 32 41 33 42 94 43 34 44 93 45 35 46 36 47
REMARK SMILES IDX 37 48 87 49 38 50 92 51 86 52 88 53 39 54 91 55 85 56 84 57
REMARK SMILES IDX 40 59 72 60 52 61 71 62 53 63 56 64 70 65 89 66 54 67 55 68
REMARK SMILES IDX 69 70 90 71 57 72 41 73 42 74 50 75 43 76 45 77 51 78 44 79
REMARK SMILES IDX 46 80 47 81 48 82 49 83 73 84 74 85 82 86 75 87 77 88 83 89
REMARK SMILES IDX 76 90 78 91 79 92 80 93 81 94 58 95 59 96 67 97 60 98 62 99
REMARK SMILES IDX 68 100 61 101 63 102 64 103 65 104 66 105
REMARK H PARENT 7 18 97 27 97 28 24 32 29 39 88 58 56 69
REMARK Flexibility Score: inf
ROOT
ATOM      1  C   UNL     1      -4.883   7.349 -11.488  1.00  0.00     0.105 C 
ATOM      2  C   UNL     1      -6.050   7.965 -12.259  1.00  0.00     0.023 C 
ENDROOT
BRANCH   1   3
ATOM      3  C   UNL     1      -5.125   7.111 -10.006  1.00  0.00    -0.034 A 
ATOM      4  C   UNL     1      -5.301   6.667  -7.189  1.00  0.00     0.005 A 
ATOM      5  C   UNL     1      -5.703   7.879  -7.781  1.00  0.00     0.011 A 
ATOM      6  C   UNL     1      -4.918   5.619  -8.057  1.00  0.00     0.040 A 
ATOM      7  C   UNL     1      -5.674   8.074  -9.164  1.00  0.00     0.005 A 
ATOM      8  C   UNL     1      -4.759   5.883  -9.431  1.00  0.00     0.030 A 
BRANCH   4   9
ATOM      9  C   UNL     1      -5.301   6.558  -5.708  1.00  0.00    -0.013 A 
ATOM     10  C   UNL     1      -4.255   5.882  -3.617  1.00  0.00     0.133 A 
ATOM     11  C   UNL     1      -5.325   6.381  -2.881  1.00  0.00     0.047 A 
ATOM     12  C   UNL     1      -4.227   5.977  -5.010  1.00  0.00     0.056 A 
ATOM     13  C   UNL     1      -6.380   6.992  -3.548  1.00  0.00     0.004 A 
ATOM     14  C   UNL     1      -6.372   7.066  -4.944  1.00  0.00     0.009 A 
BRANCH  10  15
ATOM     15  O   UNL     1      -3.290   5.149  -2.907  1.00  0.00    -0.410 OA
BRANCH  15  16
ATOM     16  C   UNL     1      -1.949   5.455  -3.084  1.00  0.00     0.412 C 
ATOM     17  N   UNL     1      -1.118   4.601  -2.412  1.00  0.00    -0.321 N 
ATOM     18  H   UNL     1      -0.152   4.773  -2.492  1.00  0.00     0.167 HD
ATOM     19  O   UNL     1      -1.505   6.382  -3.747  1.00  0.00    -0.224 OA
BRANCH  17  20
ATOM     20  C   UNL     1      -1.513   3.471  -1.595  1.00  0.00     0.119 C 
BRANCH  20  21
ATOM     21  C   UNL     1      -0.912   2.159  -2.099  1.00  0.00     0.021 C 
BRANCH  21  22
ATOM     22  C   UNL     1       0.617   2.078  -2.017  1.00  0.00     0.002 C 
BRANCH  22  23
ATOM     23  C   UNL     1       1.212   2.255  -0.615  1.00  0.00    -0.000 C 
BRANCH  23  24
ATOM     24  C   UNL     1       0.724   1.256   0.437  1.00  0.00    -0.003 C 
ATOM     25  C   UNL     1       1.089  -0.185   0.114  1.00  0.00     0.004 C 
ENDBRANCH  23  24
ENDBRANCH  22  23
ENDBRANCH  21  22
ENDBRANCH  20  21
ENDBRANCH  17  20
ENDBRANCH  15  16
ENDBRANCH  10  15
ENDBRANCH   4   9
BRANCH   6  26
ATOM     26  N   UNL     1      -4.585   4.344  -7.595  1.00  0.00    -0.398 N 
ATOM     27  H   UNL     1      -4.684   4.125  -6.640  1.00  0.00     0.156 HD
ATOM     28  H   UNL     1      -4.251   3.664  -8.224  1.00  0.00     0.156 HD
ENDBRANCH   6  26
ENDBRANCH   1   3
BRANCH   1  29
ATOM     29  C   UNL     1      -3.517   7.979 -11.809  1.00  0.00     0.227 C 
ATOM     30  O   UNL     1      -2.634   7.284 -12.327  1.00  0.00    -0.274 OA
ATOM     31  N   UNL     1      -3.210   9.287 -11.587  1.00  0.00    -0.356 N 
ATOM     32  H   UNL     1      -2.318   9.551 -11.909  1.00  0.00     0.163 HD
BRANCH  31  33
ATOM     33  C   UNL     1      -3.956  10.359 -10.963  1.00  0.00     0.116 C 
BRANCH  33  34
ATOM     34  C   UNL     1      -3.589  10.533  -9.488  1.00  0.00     0.023 C 
BRANCH  34  35
ATOM     35  C   UNL     1      -2.420  11.477  -9.221  1.00  0.00     0.023 C 
BRANCH  35  36
ATOM     36  C   UNL     1      -2.632  12.915  -9.675  1.00  0.00     0.116 C 
BRANCH  36  37
ATOM     37  N   UNL     1      -3.808  13.556  -9.099  1.00  0.00    -0.352 N 
ATOM     38  C   UNL     1      -3.970  14.884  -8.775  1.00  0.00     0.251 C 
ATOM     39  H   UNL     1      -4.578  12.969  -8.921  1.00  0.00     0.163 HD
ATOM     40  O   UNL     1      -4.993  15.274  -8.222  1.00  0.00    -0.269 OA
BRANCH  38  41
ATOM     41  C   UNL     1      -2.866  15.822  -9.066  1.00  0.00     0.039 A 
ATOM     42  C   UNL     1      -2.361  16.618  -8.035  1.00  0.00     0.014 A 
ATOM     43  C   UNL     1      -2.275  15.838 -10.331  1.00  0.00     0.014 A 
ATOM     44  C   UNL     1      -1.208  17.374  -8.255  1.00  0.00     0.010 A 
ATOM     45  C   UNL     1      -1.080  16.522 -10.520  1.00  0.00     0.010 A 
ATOM     46  C   UNL     1      -0.534  17.298  -9.486  1.00  0.00    -0.014 A 
BRANCH  46  47
ATOM     47  C   UNL     1       0.744  18.019  -9.719  1.00  0.00     0.031 A 
ATOM     48  C   UNL     1       0.827  19.062 -10.802  1.00  0.00     0.074 A 
ATOM     49  C   UNL     1       1.847  17.674  -9.024  1.00  0.00     0.049 A 
ATOM     50  N   UNL     1       1.865  19.737 -11.220  1.00  0.00    -0.248 NA
ATOM     51  C   UNL     1      -0.417  19.366 -11.533  1.00  0.00     0.031 C 
ATOM     52  C   UNL     1       1.916  16.624  -8.003  1.00  0.00     0.029 A 
ATOM     53  N   UNL     1       3.133  18.152  -9.089  1.00  0.00    -0.354 N 
ATOM     54  C   UNL     1       1.411  20.519 -12.275  1.00  0.00     0.074 A 
ATOM     55  C   UNL     1       0.013  20.201 -12.467  1.00  0.00     0.031 C 
ATOM     56  C   UNL     1       3.172  16.545  -7.535  1.00  0.00     0.029 A 
ATOM     57  C   UNL     1       4.006  17.512  -8.239  1.00  0.00     0.049 A 
ATOM     58  H   UNL     1       3.404  18.884  -9.688  1.00  0.00     0.167 HD
ATOM     59  C   UNL     1       2.083  21.448 -12.994  1.00  0.00     0.034 A 
ATOM     60  C   UNL     1       5.330  17.684  -8.055  1.00  0.00     0.034 A 
ATOM     61  C   UNL     1       3.458  21.797 -12.769  1.00  0.00     0.049 A 
ATOM     62  C   UNL     1       6.043  18.747  -8.850  1.00  0.00     0.074 A 
ATOM     63  C   UNL     1       4.213  22.768 -13.402  1.00  0.00     0.029 A 
ATOM     64  N   UNL     1       4.283  21.194 -11.833  1.00  0.00    -0.354 N 
ATOM     65  N   UNL     1       5.559  19.575  -9.744  1.00  0.00    -0.248 NA
ATOM     66  C   UNL     1       7.479  18.925  -8.584  1.00  0.00     0.031 C 
ATOM     67  C   UNL     1       5.500  22.745 -12.855  1.00  0.00     0.029 A 
ATOM     68  C   UNL     1       5.538  21.775 -11.867  1.00  0.00     0.049 A 
ATOM     69  H   UNL     1       4.016  20.460 -11.234  1.00  0.00     0.167 HD
ATOM     70  C   UNL     1       6.617  20.400 -10.111  1.00  0.00     0.074 A 
ATOM     71  C   UNL     1       7.761  19.986  -9.327  1.00  0.00     0.031 C 
ATOM     72  C   UNL     1       6.644  21.399 -11.026  1.00  0.00     0.034 A 
BRANCH  59  73
ATOM     73  C   UNL     1       1.317  22.210 -14.044  1.00  0.00     0.023 A 
ATOM     74  C   UNL     1       0.364  23.167 -13.639  1.00  0.00     0.012 A 
ATOM     75  C   UNL     1       1.587  22.039 -15.415  1.00  0.00     0.148 A 
ATOM     76  C   UNL     1      -0.332  23.922 -14.583  1.00  0.00     0.002 A 
ATOM     77  C   UNL     1       0.922  22.827 -16.348  1.00  0.00     0.091 A 
ATOM     78  F   UNL     1       2.484  21.112 -15.780  1.00  0.00    -0.205 F 
ATOM     79  C   UNL     1      -0.044  23.759 -15.935  1.00  0.00     0.022 A 
BRANCH  77  80
ATOM     80  S   UNL     1       1.271  22.755 -18.109  1.00  0.00     0.127 S 
ATOM     81  O   UNL     1       0.017  22.215 -18.636  1.00  0.00    -0.237 OA
ATOM     82  O   UNL     1       1.512  24.161 -18.431  1.00  0.00    -0.237 OA
ATOM     83  O   UNL     1       2.430  21.886 -18.256  1.00  0.00    -0.744 OA
ENDBRANCH  77  80
ENDBRANCH  59  73
BRANCH  60  84
ATOM     84  C   UNL     1       6.066  16.884  -7.033  1.00  0.00     0.023 A 
ATOM     85  C   UNL     1       6.573  17.530  -5.886  1.00  0.00     0.012 A 
ATOM     86  C   UNL     1       6.284  15.503  -7.191  1.00  0.00     0.148 A 
ATOM     87  C   UNL     1       7.323  16.826  -4.944  1.00  0.00     0.002 A 
ATOM     88  C   UNL     1       6.986  14.796  -6.221  1.00  0.00     0.091 A 
ATOM     89  F   UNL     1       5.809  14.906  -8.294  1.00  0.00    -0.205 F 
ATOM     90  C   UNL     1       7.524  15.459  -5.107  1.00  0.00     0.022 A 
BRANCH  88  91
ATOM     91  S   UNL     1       7.183  13.012  -6.292  1.00  0.00     0.127 S 
ATOM     92  O   UNL     1       8.572  12.881  -6.724  1.00  0.00    -0.237 OA
ATOM     93  O   UNL     1       6.931  12.620  -4.904  1.00  0.00    -0.237 OA
ATOM     94  O   UNL     1       6.174  12.550  -7.235  1.00  0.00    -0.744 OA
ENDBRANCH  88  91
ENDBRANCH  60  84
BRANCH  72  95
ATOM     95  C   UNL     1       7.933  22.159 -11.195  1.00  0.00     0.023 A 
ATOM     96  C   UNL     1       9.027  21.552 -11.840  1.00  0.00     0.012 A 
ATOM     97  C   UNL     1       8.028  23.504 -10.784  1.00  0.00     0.148 A 
ATOM     98  C   UNL     1      10.210  22.260 -12.044  1.00  0.00     0.002 A 
ATOM     99  C   UNL     1       9.192  24.219 -11.036  1.00  0.00     0.091 A 
ATOM    100  F   UNL     1       6.981  24.057 -10.157  1.00  0.00    -0.205 F 
ATOM    101  C   UNL     1      10.289  23.595 -11.654  1.00  0.00     0.022 A 
BRANCH  99 102
ATOM    102  S   UNL     1       9.348  25.968 -10.659  1.00  0.00     0.127 S 
ATOM    103  O   UNL     1      10.260  25.947  -9.517  1.00  0.00    -0.237 OA
ATOM    104  O   UNL     1       9.928  26.501 -11.893  1.00  0.00    -0.237 OA
ATOM    105  O   UNL     1       8.000  26.439 -10.374  1.00  0.00    -0.744 OA
ENDBRANCH  99 102
ENDBRANCH  72  95
ENDBRANCH  46  47
ENDBRANCH  38  41
ENDBRANCH  36  37
ENDBRANCH  35  36
ENDBRANCH  34  35
ENDBRANCH  33  34
ENDBRANCH  31  33
ENDBRANCH   1  29
TORSDOF 24
