REMARK SMILES Cc1ccc(-c2cc(OCC(=O)NCCCCNC(=O)c3ccc(-c4c5nc(c(-c6cccc(S(=O)(=O)[O-])c6F)c6ccc([nH]6)c(-c6cccc(S(=O)(=O)[O-])c6F)c6nc(c(-c7cccc(S(=O)(=O)[O-])c7F)c7ccc4[nH]7)C=C6)C=C5)cc3)nc(NCc3ccc4c(c3)OCO4)n2)cc1
REMARK SMILES IDX 14 1 13 2 11 3 12 4 10 6 9 7 8 8 6 9 7 10 97 11 85 12 84 13
REMARK SMILES IDX 5 14 1 15 2 16 3 17 99 18 4 19 98 20 86 21 87 23 88 24 89 25
REMARK SMILES IDX 93 26 90 27 92 28 91 29 94 30 96 31 95 32 15 33 16 34 17 35
REMARK SMILES IDX 18 36 19 37 20 39 21 40 22 41 83 42 23 43 82 44 24 45 25 46
REMARK SMILES IDX 26 47 76 48 27 49 81 50 75 51 77 52 28 53 80 54 74 55 73 56
REMARK SMILES IDX 29 58 61 59 41 60 60 61 42 62 45 63 59 64 78 65 43 66 44 67
REMARK SMILES IDX 58 69 79 70 46 71 30 72 31 73 39 74 32 75 34 76 40 77 33 78
REMARK SMILES IDX 35 79 36 80 37 81 38 82 62 83 63 84 71 85 64 86 66 87 72 88
REMARK SMILES IDX 65 89 67 90 68 91 69 92 70 93 47 94 48 95 56 96 49 97 51 98
REMARK SMILES IDX 57 99 50 100 52 101 53 102 54 103 55 104
REMARK H PARENT 13 5 86 22 18 38 77 57 45 68
REMARK Flexibility Score: inf
ROOT
ATOM      1  C   UNL     1      -6.617   3.984  -1.500  1.00  0.00     0.116 C 
ENDROOT
BRANCH   1   2
ATOM      2  N   UNL     1      -5.231   3.943  -1.921  1.00  0.00    -0.353 N 
ATOM      3  C   UNL     1      -4.588   2.973  -2.630  1.00  0.00     0.258 C 
ATOM      4  O   UNL     1      -3.393   3.118  -2.900  1.00  0.00    -0.271 OA
ATOM      5  H   UNL     1      -4.682   4.718  -1.660  1.00  0.00     0.163 HD
BRANCH   3   6
ATOM      6  C   UNL     1      -5.350   1.719  -3.082  1.00  0.00     0.331 C 
BRANCH   6   7
ATOM      7  O   UNL     1      -5.961   0.926  -2.078  1.00  0.00    -0.467 OA
BRANCH   7   8
ATOM      8  C   UNL     1      -5.157   0.440  -1.085  1.00  0.00     0.219 A 
ATOM      9  C   UNL     1      -3.161  -0.092  -0.012  1.00  0.00     0.080 A 
ATOM     10  C   UNL     1      -3.793   0.358  -1.150  1.00  0.00     0.097 A 
ATOM     11  N   UNL     1      -3.826  -0.492   1.089  1.00  0.00    -0.213 NA
ATOM     12  C   UNL     1      -5.157  -0.372   1.064  1.00  0.00     0.226 A 
ATOM     13  N   UNL     1      -5.846   0.073   0.008  1.00  0.00    -0.177 NA
BRANCH   9  14
ATOM     14  C   UNL     1      -1.700  -0.086   0.066  1.00  0.00     0.000 A 
ATOM     15  C   UNL     1       2.621  -0.036   0.012  1.00  0.00     0.044 C 
ATOM     16  C   UNL     1       1.122  -0.046   0.054  1.00  0.00    -0.051 A 
ATOM     17  C   UNL     1       0.427  -1.261   0.108  1.00  0.00     0.004 A 
ATOM     18  C   UNL     1       0.401   1.150   0.021  1.00  0.00     0.004 A 
ATOM     19  C   UNL     1      -0.971  -1.280   0.122  1.00  0.00     0.010 A 
ATOM     20  C   UNL     1      -0.995   1.129   0.025  1.00  0.00     0.010 A 
ENDBRANCH   9  14
BRANCH  12  21
ATOM     21  N   UNL     1      -5.907  -0.653   2.175  1.00  0.00    -0.350 N 
ATOM     22  H   UNL     1      -6.769  -0.193   2.296  1.00  0.00     0.164 HD
BRANCH  21  23
ATOM     23  C   UNL     1      -5.475  -1.598   3.171  1.00  0.00     0.152 C 
BRANCH  23  24
ATOM     24  C   UNL     1      -5.891  -3.023   2.844  1.00  0.00    -0.025 A 
ATOM     25  C   UNL     1      -5.286  -4.092   3.554  1.00  0.00     0.009 A 
ATOM     26  C   UNL     1      -6.836  -3.320   1.845  1.00  0.00     0.056 A 
ATOM     27  C   UNL     1      -5.545  -5.427   3.220  1.00  0.00     0.051 A 
ATOM     28  C   UNL     1      -7.035  -4.639   1.509  1.00  0.00     0.166 A 
ATOM     29  C   UNL     1      -6.394  -5.664   2.164  1.00  0.00     0.165 A 
ATOM     30  O   UNL     1      -7.803  -5.085   0.477  1.00  0.00    -0.454 OA
ATOM     31  O   UNL     1      -6.670  -6.876   1.607  1.00  0.00    -0.454 OA
ATOM     32  C   UNL     1      -7.340  -6.446   0.402  1.00  0.00     0.468 C 
ENDBRANCH  23  24
ENDBRANCH  21  23
ENDBRANCH  12  21
ENDBRANCH   7   8
ENDBRANCH   6   7
ENDBRANCH   3   6
ENDBRANCH   1   2
BRANCH   1  33
ATOM     33  C   UNL     1      -6.832   3.580  -0.040  1.00  0.00     0.023 C 
BRANCH  33  34
ATOM     34  C   UNL     1      -5.987   4.288   1.031  1.00  0.00     0.023 C 
BRANCH  34  35
ATOM     35  C   UNL     1      -6.195   5.788   1.141  1.00  0.00     0.116 C 
BRANCH  35  36
ATOM     36  N   UNL     1      -7.587   6.114   1.454  1.00  0.00    -0.352 N 
ATOM     37  C   UNL     1      -8.224   7.331   1.461  1.00  0.00     0.251 C 
ATOM     38  H   UNL     1      -8.152   5.346   1.697  1.00  0.00     0.163 HD
ATOM     39  O   UNL     1      -9.165   7.488   2.259  1.00  0.00    -0.269 OA
BRANCH  37  40
ATOM     40  C   UNL     1      -7.874   8.374   0.487  1.00  0.00     0.039 A 
ATOM     41  C   UNL     1      -8.373   9.682   0.560  1.00  0.00     0.014 A 
ATOM     42  C   UNL     1      -7.183   7.972  -0.648  1.00  0.00     0.014 A 
ATOM     43  C   UNL     1      -8.287  10.505  -0.562  1.00  0.00     0.010 A 
ATOM     44  C   UNL     1      -6.851   8.852  -1.620  1.00  0.00     0.010 A 
ATOM     45  C   UNL     1      -7.584  10.029  -1.661  1.00  0.00    -0.014 A 
BRANCH  45  46
ATOM     46  C   UNL     1      -7.629  10.535  -3.013  1.00  0.00     0.031 A 
ATOM     47  C   UNL     1      -6.753  11.639  -3.380  1.00  0.00     0.074 A 
ATOM     48  C   UNL     1      -8.151   9.657  -3.904  1.00  0.00     0.049 A 
ATOM     49  N   UNL     1      -6.812  12.252  -4.504  1.00  0.00    -0.248 NA
ATOM     50  C   UNL     1      -5.710  12.135  -2.489  1.00  0.00     0.031 C 
ATOM     51  C   UNL     1      -7.806   9.435  -5.300  1.00  0.00     0.029 A 
ATOM     52  N   UNL     1      -9.095   8.670  -3.688  1.00  0.00    -0.354 N 
ATOM     53  C   UNL     1      -5.630  12.948  -4.628  1.00  0.00     0.074 A 
ATOM     54  C   UNL     1      -5.060  12.972  -3.302  1.00  0.00     0.031 C 
ATOM     55  C   UNL     1      -8.715   8.602  -5.850  1.00  0.00     0.029 A 
ATOM     56  C   UNL     1      -9.772   8.408  -4.869  1.00  0.00     0.049 A 
ATOM     57  H   UNL     1      -9.261   8.222  -2.827  1.00  0.00     0.167 HD
ATOM     58  C   UNL     1      -5.177  13.222  -5.883  1.00  0.00     0.034 A 
ATOM     59  C   UNL     1     -11.066   8.845  -5.005  1.00  0.00     0.034 A 
ATOM     60  C   UNL     1      -6.107  12.661  -6.885  1.00  0.00     0.049 A 
ATOM     61  C   UNL     1     -11.168  10.002  -5.992  1.00  0.00     0.074 A 
ATOM     62  C   UNL     1      -6.079  11.499  -7.642  1.00  0.00     0.029 A 
ATOM     63  N   UNL     1      -7.416  13.128  -6.943  1.00  0.00    -0.354 N 
ATOM     64  N   UNL     1     -10.142  10.668  -6.449  1.00  0.00    -0.248 NA
ATOM     65  C   UNL     1     -12.416  10.460  -6.590  1.00  0.00     0.031 C 
ATOM     66  C   UNL     1      -7.402  11.240  -8.102  1.00  0.00     0.029 A 
ATOM     67  C   UNL     1      -8.231  12.251  -7.644  1.00  0.00     0.049 A 
ATOM     68  H   UNL     1      -7.724  13.972  -6.539  1.00  0.00     0.167 HD
ATOM     69  C   UNL     1     -10.540  11.652  -7.310  1.00  0.00     0.074 A 
ATOM     70  C   UNL     1     -11.977  11.438  -7.406  1.00  0.00     0.031 C 
ATOM     71  C   UNL     1      -9.650  12.557  -7.836  1.00  0.00     0.034 A 
BRANCH  58  72
ATOM     72  C   UNL     1      -3.769  13.678  -6.228  1.00  0.00     0.023 A 
ATOM     73  C   UNL     1      -3.334  13.458  -7.554  1.00  0.00     0.012 A 
ATOM     74  C   UNL     1      -2.828  14.291  -5.365  1.00  0.00     0.148 A 
ATOM     75  C   UNL     1      -2.034  13.742  -7.982  1.00  0.00     0.002 A 
ATOM     76  C   UNL     1      -1.510  14.527  -5.775  1.00  0.00     0.091 A 
ATOM     77  F   UNL     1      -3.212  14.732  -4.165  1.00  0.00    -0.205 F 
ATOM     78  C   UNL     1      -1.111  14.251  -7.084  1.00  0.00     0.022 A 
BRANCH  76  79
ATOM     79  S   UNL     1      -0.235  15.145  -4.659  1.00  0.00     0.127 S 
ATOM     80  O   UNL     1       0.851  14.185  -4.869  1.00  0.00    -0.237 OA
ATOM     81  O   UNL     1       0.027  16.481  -5.190  1.00  0.00    -0.237 OA
ATOM     82  O   UNL     1      -0.811  15.102  -3.320  1.00  0.00    -0.744 OA
ENDBRANCH  76  79
ENDBRANCH  58  72
BRANCH  59  83
ATOM     83  C   UNL     1     -11.836   8.686  -3.719  1.00  0.00     0.023 A 
ATOM     84  C   UNL     1     -11.919   7.362  -3.210  1.00  0.00     0.012 A 
ATOM     85  C   UNL     1     -12.007   9.757  -2.821  1.00  0.00     0.148 A 
ATOM     86  C   UNL     1     -11.930   7.120  -1.834  1.00  0.00     0.002 A 
ATOM     87  C   UNL     1     -12.051   9.502  -1.445  1.00  0.00     0.091 A 
ATOM     88  F   UNL     1     -12.062  11.003  -3.306  1.00  0.00    -0.205 F 
ATOM     89  C   UNL     1     -11.943   8.193  -0.951  1.00  0.00     0.022 A 
BRANCH  87  90
ATOM     90  S   UNL     1     -12.155  10.851  -0.257  1.00  0.00     0.127 S 
ATOM     91  O   UNL     1     -13.602  11.039  -0.157  1.00  0.00    -0.237 OA
ATOM     92  O   UNL     1     -11.537  10.287   0.945  1.00  0.00    -0.237 OA
ATOM     93  O   UNL     1     -11.402  11.936  -0.857  1.00  0.00    -0.744 OA
ENDBRANCH  87  90
ENDBRANCH  59  83
BRANCH  71  94
ATOM     94  C   UNL     1     -10.006  13.831  -8.592  1.00  0.00     0.023 A 
ATOM     95  C   UNL     1     -11.310  14.353  -8.632  1.00  0.00     0.012 A 
ATOM     96  C   UNL     1      -8.992  14.638  -9.186  1.00  0.00     0.148 A 
ATOM     97  C   UNL     1     -11.609  15.567  -9.262  1.00  0.00     0.002 A 
ATOM     98  C   UNL     1      -9.272  15.905  -9.684  1.00  0.00     0.091 A 
ATOM     99  F   UNL     1      -7.742  14.173  -9.311  1.00  0.00    -0.205 F 
ATOM    100  C   UNL     1     -10.586  16.359  -9.759  1.00  0.00     0.022 A 
BRANCH  98 101
ATOM    101  S   UNL     1      -7.956  17.061 -10.095  1.00  0.00     0.127 S 
ATOM    102  O   UNL     1      -7.899  16.945 -11.551  1.00  0.00    -0.237 OA
ATOM    103  O   UNL     1      -8.498  18.330  -9.605  1.00  0.00    -0.237 OA
ATOM    104  O   UNL     1      -6.786  16.592  -9.367  1.00  0.00    -0.744 OA
ENDBRANCH  98 101
ENDBRANCH  71  94
ENDBRANCH  45  46
ENDBRANCH  37  40
ENDBRANCH  35  36
ENDBRANCH  34  35
ENDBRANCH  33  34
ENDBRANCH   1  33
TORSDOF 20
