REMARK SMILES CC(=O)N[C@@H](C(=O)NCCCCNC(=O)c1ccc(-c2c3nc(c(-c4cccc(S(=O)(=O)[O-])c4F)c4ccc([nH]4)c(-c4cccc(S(=O)(=O)[O-])c4F)c4nc(c(-c5cccc(S(=O)(=O)[O-])c5F)c5ccc2[nH]5)C=C4)C=C3)cc1)C(c1ccccc1)c1ccccc1
REMARK SMILES IDX 11 1 10 2 9 3 8 4 6 5 7 6 5 8 4 9 1 10 2 11 3 12 79 14 80 15
REMARK SMILES IDX 81 16 85 17 82 18 84 19 83 20 86 21 87 22 91 23 88 24 90 25
REMARK SMILES IDX 89 26 12 27 13 28 14 29 15 31 16 32 17 33 78 34 18 35 77 36
REMARK SMILES IDX 19 37 20 38 21 39 71 40 22 41 76 42 70 43 72 44 23 45 75 46
REMARK SMILES IDX 69 47 68 48 24 50 56 51 36 52 55 53 37 54 40 55 54 56 73 57
REMARK SMILES IDX 38 58 39 59 53 61 74 62 41 63 25 64 26 65 34 66 27 67 29 68
REMARK SMILES IDX 35 69 28 70 30 71 31 72 32 73 33 74 57 75 58 76 66 77 59 78
REMARK SMILES IDX 61 79 67 80 60 81 62 82 63 83 64 84 65 85 42 86 43 87 51 88
REMARK SMILES IDX 44 89 46 90 52 91 45 92 47 93 48 94 49 95 50 96
REMARK H PARENT 8 7 4 13 13 30 72 49 40 60
REMARK Flexibility Score: inf
ROOT
ATOM      1  C   UNL     1       4.444   1.341  -3.865  1.00  0.00     0.023 C 
ENDROOT
BRANCH   1   2
ATOM      2  C   UNL     1       3.361   1.031  -2.828  1.00  0.00     0.023 C 
BRANCH   2   3
ATOM      3  C   UNL     1       3.753   1.372  -1.390  1.00  0.00     0.116 C 
BRANCH   3   4
ATOM      4  N   UNL     1       3.670   2.797  -1.147  1.00  0.00    -0.354 N 
ATOM      5  C   UNL     1       2.675   3.510  -0.534  1.00  0.00     0.243 C 
ATOM      6  O   UNL     1       2.683   4.734  -0.676  1.00  0.00    -0.273 OA
ATOM      7  H   UNL     1       4.435   3.327  -1.468  1.00  0.00     0.163 HD
BRANCH   5   8
ATOM      8  C   UNL     1       1.542   2.764   0.218  1.00  0.00     0.183 C 
BRANCH   8   9
ATOM      9  N   UNL     1       0.647   2.240  -0.836  1.00  0.00    -0.344 N 
ATOM     10  C   UNL     1       0.551  -0.172  -0.205  1.00  0.00     0.114 C 
ATOM     11  C   UNL     1       0.197   0.986  -1.099  1.00  0.00     0.217 C 
ATOM     12  O   UNL     1      -0.519   0.810  -2.085  1.00  0.00    -0.275 OA
ATOM     13  H   UNL     1       0.317   2.925  -1.462  1.00  0.00     0.164 HD
ENDBRANCH   8   9
BRANCH   8  14
ATOM     14  C   UNL     1       0.792   3.759   1.169  1.00  0.00     0.081 C 
BRANCH  14  15
ATOM     15  C   UNL     1      -0.500   3.221   1.798  1.00  0.00    -0.038 A 
ATOM     16  C   UNL     1      -1.591   4.093   1.962  1.00  0.00     0.004 A 
ATOM     17  C   UNL     1      -0.619   1.912   2.284  1.00  0.00     0.004 A 
ATOM     18  C   UNL     1      -2.775   3.656   2.557  1.00  0.00     0.000 A 
ATOM     19  C   UNL     1      -1.812   1.468   2.858  1.00  0.00     0.000 A 
ATOM     20  C   UNL     1      -2.890   2.339   2.994  1.00  0.00     0.000 A 
ENDBRANCH  14  15
BRANCH  14  21
ATOM     21  C   UNL     1       1.679   4.351   2.268  1.00  0.00    -0.038 A 
ATOM     22  C   UNL     1       2.375   3.546   3.183  1.00  0.00     0.004 A 
ATOM     23  C   UNL     1       1.758   5.748   2.410  1.00  0.00     0.004 A 
ATOM     24  C   UNL     1       3.121   4.124   4.214  1.00  0.00     0.000 A 
ATOM     25  C   UNL     1       2.503   6.322   3.441  1.00  0.00     0.000 A 
ATOM     26  C   UNL     1       3.181   5.509   4.345  1.00  0.00     0.000 A 
ENDBRANCH  14  21
ENDBRANCH   8  14
ENDBRANCH   5   8
ENDBRANCH   3   4
ENDBRANCH   2   3
ENDBRANCH   1   2
BRANCH   1  27
ATOM     27  C   UNL     1       5.765   0.606  -3.661  1.00  0.00     0.116 C 
BRANCH  27  28
ATOM     28  N   UNL     1       5.624  -0.843  -3.644  1.00  0.00    -0.352 N 
ATOM     29  C   UNL     1       6.521  -1.785  -4.092  1.00  0.00     0.251 C 
ATOM     30  H   UNL     1       4.785  -1.192  -3.266  1.00  0.00     0.163 HD
ATOM     31  O   UNL     1       6.222  -2.975  -4.103  1.00  0.00    -0.269 OA
BRANCH  29  32
ATOM     32  C   UNL     1       7.834  -1.337  -4.596  1.00  0.00     0.039 A 
ATOM     33  C   UNL     1       8.248  -1.744  -5.866  1.00  0.00     0.014 A 
ATOM     34  C   UNL     1       8.620  -0.466  -3.836  1.00  0.00     0.014 A 
ATOM     35  C   UNL     1       9.425  -1.220  -6.405  1.00  0.00     0.010 A 
ATOM     36  C   UNL     1       9.752   0.107  -4.403  1.00  0.00     0.010 A 
ATOM     37  C   UNL     1      10.167  -0.265  -5.691  1.00  0.00    -0.014 A 
BRANCH  37  38
ATOM     38  C   UNL     1      11.377   0.371  -6.270  1.00  0.00     0.031 A 
ATOM     39  C   UNL     1      12.716   0.166  -5.619  1.00  0.00     0.074 A 
ATOM     40  C   UNL     1      11.254   1.212  -7.316  1.00  0.00     0.049 A 
ATOM     41  N   UNL     1      13.871   0.700  -5.921  1.00  0.00    -0.248 NA
ATOM     42  C   UNL     1      12.757  -0.732  -4.453  1.00  0.00     0.031 C 
ATOM     43  C   UNL     1       9.997   1.552  -7.986  1.00  0.00     0.029 A 
ATOM     44  N   UNL     1      12.196   1.957  -7.980  1.00  0.00    -0.354 N 
ATOM     45  C   UNL     1      14.764   0.236  -4.963  1.00  0.00     0.074 A 
ATOM     46  C   UNL     1      14.010  -0.592  -4.047  1.00  0.00     0.031 C 
ATOM     47  C   UNL     1      10.248   2.431  -8.970  1.00  0.00     0.029 A 
ATOM     48  C   UNL     1      11.675   2.738  -8.984  1.00  0.00     0.049 A 
ATOM     49  H   UNL     1      13.155   1.934  -7.758  1.00  0.00     0.167 HD
ATOM     50  C   UNL     1      16.098   0.449  -4.873  1.00  0.00     0.034 A 
ATOM     51  C   UNL     1      12.279   3.604  -9.821  1.00  0.00     0.034 A 
ATOM     52  C   UNL     1      16.852   1.230  -5.814  1.00  0.00     0.049 A 
ATOM     53  C   UNL     1      13.769   3.792  -9.727  1.00  0.00     0.074 A 
ATOM     54  C   UNL     1      18.219   1.436  -5.864  1.00  0.00     0.029 A 
ATOM     55  N   UNL     1      16.303   1.936  -6.874  1.00  0.00    -0.354 N 
ATOM     56  N   UNL     1      14.622   3.223  -8.911  1.00  0.00    -0.248 NA
ATOM     57  C   UNL     1      14.385   4.714 -10.693  1.00  0.00     0.031 C 
ATOM     58  C   UNL     1      18.495   2.277  -6.948  1.00  0.00     0.029 A 
ATOM     59  C   UNL     1      17.301   2.582  -7.582  1.00  0.00     0.049 A 
ATOM     60  H   UNL     1      15.343   1.972  -7.091  1.00  0.00     0.167 HD
ATOM     61  C   UNL     1      15.878   3.687  -9.287  1.00  0.00     0.074 A 
ATOM     62  C   UNL     1      15.674   4.573 -10.415  1.00  0.00     0.031 C 
ATOM     63  C   UNL     1      17.088   3.413  -8.740  1.00  0.00     0.034 A 
BRANCH  50  64
ATOM     64  C   UNL     1      16.832  -0.229  -3.745  1.00  0.00     0.023 A 
ATOM     65  C   UNL     1      17.008  -1.628  -3.777  1.00  0.00     0.012 A 
ATOM     66  C   UNL     1      17.367   0.508  -2.672  1.00  0.00     0.148 A 
ATOM     67  C   UNL     1      17.664  -2.288  -2.740  1.00  0.00     0.002 A 
ATOM     68  C   UNL     1      18.059  -0.152  -1.662  1.00  0.00     0.091 A 
ATOM     69  F   UNL     1      17.169   1.834  -2.641  1.00  0.00    -0.205 F 
ATOM     70  C   UNL     1      18.197  -1.549  -1.687  1.00  0.00     0.022 A 
BRANCH  68  71
ATOM     71  S   UNL     1      18.846   0.725  -0.305  1.00  0.00     0.127 S 
ATOM     72  O   UNL     1      17.901   0.492   0.785  1.00  0.00    -0.237 OA
ATOM     73  O   UNL     1      20.118   0.015  -0.171  1.00  0.00    -0.237 OA
ATOM     74  O   UNL     1      18.971   2.107  -0.748  1.00  0.00    -0.744 OA
ENDBRANCH  68  71
ENDBRANCH  50  64
BRANCH  51  75
ATOM     75  C   UNL     1      11.484   4.285 -10.882  1.00  0.00     0.023 A 
ATOM     76  C   UNL     1      11.652   3.886 -12.223  1.00  0.00     0.012 A 
ATOM     77  C   UNL     1      10.539   5.282 -10.575  1.00  0.00     0.148 A 
ATOM     78  C   UNL     1      10.911   4.484 -13.242  1.00  0.00     0.002 A 
ATOM     79  C   UNL     1       9.768   5.840 -11.589  1.00  0.00     0.091 A 
ATOM     80  F   UNL     1      10.401   5.653  -9.294  1.00  0.00    -0.205 F 
ATOM     81  C   UNL     1       9.963   5.453 -12.925  1.00  0.00     0.022 A 
BRANCH  79  82
ATOM     82  S   UNL     1       8.437   7.002 -11.265  1.00  0.00     0.127 S 
ATOM     83  O   UNL     1       8.974   8.237 -11.831  1.00  0.00    -0.237 OA
ATOM     84  O   UNL     1       7.330   6.409 -12.016  1.00  0.00    -0.237 OA
ATOM     85  O   UNL     1       8.254   6.997  -9.820  1.00  0.00    -0.744 OA
ENDBRANCH  79  82
ENDBRANCH  51  75
BRANCH  63  86
ATOM     86  C   UNL     1      18.300   4.048  -9.369  1.00  0.00     0.023 A 
ATOM     87  C   UNL     1      18.554   5.419  -9.169  1.00  0.00     0.012 A 
ATOM     88  C   UNL     1      19.230   3.268 -10.084  1.00  0.00     0.148 A 
ATOM     89  C   UNL     1      19.704   6.009  -9.693  1.00  0.00     0.002 A 
ATOM     90  C   UNL     1      20.396   3.853 -10.563  1.00  0.00     0.091 A 
ATOM     91  F   UNL     1      18.959   1.969 -10.280  1.00  0.00    -0.205 F 
ATOM     92  C   UNL     1      20.630   5.225 -10.378  1.00  0.00     0.022 A 
BRANCH  90  93
ATOM     93  S   UNL     1      21.687   2.901 -11.372  1.00  0.00     0.127 S 
ATOM     94  O   UNL     1      21.520   3.297 -12.769  1.00  0.00    -0.237 OA
ATOM     95  O   UNL     1      22.900   3.414 -10.733  1.00  0.00    -0.237 OA
ATOM     96  O   UNL     1      21.397   1.504 -11.078  1.00  0.00    -0.744 OA
ENDBRANCH  90  93
ENDBRANCH  63  86
ENDBRANCH  37  38
ENDBRANCH  29  32
ENDBRANCH  27  28
ENDBRANCH   1  27
TORSDOF 18
