REMARK SMILES C[C@@H](C(=O)NCCCCNC(=O)c1ccc(-c2c3nc(c(-c4cccc(S(=O)(=O)[O-])c4F)c4ccc([nH]4)c(-c4cccc(S(=O)(=O)[O-])c4F)c4nc(c(-c5cccc(S(=O)(=O)[O-])c5F)c5ccc2[nH]5)C=C4)C=C3)cc1)N1C(=O)/C(=C/c2ccc(N(C)C)cc2)SC1=S
REMARK SMILES IDX 7 1 6 2 5 3 3 4 4 5 2 7 1 8 76 9 77 10 91 11 78 12 79 13
REMARK SMILES IDX 90 14 92 15 80 16 81 17 82 18 89 19 83 20 88 21 84 22 85 23
REMARK SMILES IDX 86 24 87 25 8 26 9 27 10 28 11 29 12 31 13 32 14 33 75 34
REMARK SMILES IDX 15 35 74 36 16 37 17 38 18 39 68 40 19 41 73 42 67 43 69 44
REMARK SMILES IDX 20 45 72 46 66 47 65 48 21 50 53 51 33 52 52 53 34 54 37 55
REMARK SMILES IDX 51 56 70 57 35 58 36 59 50 61 71 62 38 63 22 64 23 65 31 66
REMARK SMILES IDX 24 67 26 68 32 69 25 70 27 71 28 72 29 73 30 74 54 75 55 76
REMARK SMILES IDX 63 77 56 78 58 79 64 80 57 81 59 82 60 83 61 84 62 85 39 86
REMARK SMILES IDX 40 87 48 88 41 89 43 90 49 91 42 92 44 93 45 94 46 95 47 96
REMARK H PARENT 5 6 10 30 69 49 37 60
REMARK Flexibility Score: inf
ROOT
ATOM      1  C   UNL     1       4.121   0.924   0.842  1.00  0.00     0.023 C 
ENDROOT
BRANCH   1   2
ATOM      2  C   UNL     1       3.389  -0.071   1.741  1.00  0.00     0.116 C 
BRANCH   2   3
ATOM      3  N   UNL     1       2.340   0.566   2.509  1.00  0.00    -0.354 N 
ATOM      4  C   UNL     1       0.988   0.517   2.353  1.00  0.00     0.242 C 
ATOM      5  O   UNL     1       0.306   0.996   3.264  1.00  0.00    -0.273 OA
ATOM      6  H   UNL     1       2.653   1.121   3.260  1.00  0.00     0.163 HD
BRANCH   4   7
ATOM      7  C   UNL     1       0.347  -0.198   1.142  1.00  0.00     0.178 C 
ATOM      8  C   UNL     1       0.801   0.209  -0.258  1.00  0.00     0.042 C 
BRANCH   7   9
ATOM      9  N   UNL     1      -1.126  -0.147   1.257  1.00  0.00    -0.281 N 
ATOM     10  C   UNL     1      -1.806  -1.345   1.412  1.00  0.00     0.266 C 
ATOM     11  C   UNL     1      -1.905   0.996   1.176  1.00  0.00     0.149 C 
ATOM     12  O   UNL     1      -1.307  -2.460   1.465  1.00  0.00    -0.268 OA
ATOM     13  C   UNL     1      -3.271  -1.111   1.405  1.00  0.00     0.081 C 
ATOM     14  S   UNL     1      -3.600   0.572   1.383  1.00  0.00    -0.054 SA
ATOM     15  S   UNL     1      -1.465   2.579   0.878  1.00  0.00    -0.052 S 
ATOM     16  C   UNL     1      -4.151  -2.120   1.359  1.00  0.00     0.029 C 
BRANCH  16  17
ATOM     17  C   UNL     1      -5.603  -1.957   1.260  1.00  0.00    -0.024 A 
ATOM     18  C   UNL     1      -6.433  -2.444   2.263  1.00  0.00     0.010 A 
ATOM     19  C   UNL     1      -6.185  -1.312   0.171  1.00  0.00     0.010 A 
ATOM     20  C   UNL     1      -7.822  -2.241   2.197  1.00  0.00     0.026 A 
ATOM     21  C   UNL     1      -7.570  -1.113   0.120  1.00  0.00     0.026 A 
ATOM     22  C   UNL     1      -8.437  -1.556   1.136  1.00  0.00     0.036 A 
BRANCH  22  23
ATOM     23  N   UNL     1      -9.808  -1.339   1.065  1.00  0.00    -0.378 N 
ATOM     24  C   UNL     1     -10.739  -1.718   2.120  1.00  0.00     0.143 C 
ATOM     25  C   UNL     1     -10.357  -0.466   0.030  1.00  0.00     0.143 C 
ENDBRANCH  22  23
ENDBRANCH  16  17
ENDBRANCH   7   9
ENDBRANCH   4   7
ENDBRANCH   2   3
ENDBRANCH   1   2
BRANCH   1  26
ATOM     26  C   UNL     1       4.910   2.001   1.590  1.00  0.00     0.023 C 
BRANCH  26  27
ATOM     27  C   UNL     1       5.920   1.481   2.605  1.00  0.00     0.116 C 
BRANCH  27  28
ATOM     28  N   UNL     1       6.897   0.579   2.016  1.00  0.00    -0.352 N 
ATOM     29  C   UNL     1       8.248   0.500   2.245  1.00  0.00     0.251 C 
ATOM     30  H   UNL     1       6.539  -0.065   1.363  1.00  0.00     0.163 HD
ATOM     31  O   UNL     1       8.938  -0.236   1.544  1.00  0.00    -0.269 OA
BRANCH  29  32
ATOM     32  C   UNL     1       8.872   1.311   3.314  1.00  0.00     0.039 A 
ATOM     33  C   UNL     1      10.103   1.922   3.062  1.00  0.00     0.014 A 
ATOM     34  C   UNL     1       8.264   1.455   4.564  1.00  0.00     0.014 A 
ATOM     35  C   UNL     1      10.708   2.696   4.054  1.00  0.00     0.010 A 
ATOM     36  C   UNL     1       8.824   2.299   5.518  1.00  0.00     0.010 A 
ATOM     37  C   UNL     1      10.068   2.903   5.287  1.00  0.00    -0.014 A 
BRANCH  37  38
ATOM     38  C   UNL     1      10.711   3.710   6.356  1.00  0.00     0.031 A 
ATOM     39  C   UNL     1      11.081   3.069   7.669  1.00  0.00     0.074 A 
ATOM     40  C   UNL     1      10.922   5.027   6.167  1.00  0.00     0.049 A 
ATOM     41  N   UNL     1      11.662   3.602   8.713  1.00  0.00    -0.248 NA
ATOM     42  C   UNL     1      10.726   1.650   7.847  1.00  0.00     0.031 C 
ATOM     43  C   UNL     1      10.537   5.784   4.974  1.00  0.00     0.029 A 
ATOM     44  N   UNL     1      11.503   5.967   6.982  1.00  0.00    -0.354 N 
ATOM     45  C   UNL     1      11.707   2.602   9.677  1.00  0.00     0.074 A 
ATOM     46  C   UNL     1      11.058   1.441   9.112  1.00  0.00     0.031 C 
ATOM     47  C   UNL     1      10.910   7.065   5.126  1.00  0.00     0.029 A 
ATOM     48  C   UNL     1      11.537   7.228   6.434  1.00  0.00     0.049 A 
ATOM     49  H   UNL     1      11.861   5.758   7.875  1.00  0.00     0.167 HD
ATOM     50  C   UNL     1      12.267   2.632  10.910  1.00  0.00     0.034 A 
ATOM     51  C   UNL     1      12.024   8.383   6.929  1.00  0.00     0.034 A 
ATOM     52  C   UNL     1      12.952   3.774  11.451  1.00  0.00     0.049 A 
ATOM     53  C   UNL     1      12.688   8.376   8.280  1.00  0.00     0.074 A 
ATOM     54  C   UNL     1      13.633   3.880  12.651  1.00  0.00     0.029 A 
ATOM     55  N   UNL     1      13.035   5.012  10.833  1.00  0.00    -0.354 N 
ATOM     56  N   UNL     1      12.865   7.377   9.109  1.00  0.00    -0.248 NA
ATOM     57  C   UNL     1      13.260   9.649   8.743  1.00  0.00     0.031 C 
ATOM     58  C   UNL     1      14.100   5.193  12.773  1.00  0.00     0.029 A 
ATOM     59  C   UNL     1      13.748   5.891  11.629  1.00  0.00     0.049 A 
ATOM     60  H   UNL     1      12.645   5.233   9.957  1.00  0.00     0.167 HD
ATOM     61  C   UNL     1      13.611   7.886  10.166  1.00  0.00     0.074 A 
ATOM     62  C   UNL     1      13.864   9.280   9.863  1.00  0.00     0.031 C 
ATOM     63  C   UNL     1      14.041   7.260  11.290  1.00  0.00     0.034 A 
BRANCH  50  64
ATOM     64  C   UNL     1      12.195   1.378  11.744  1.00  0.00     0.023 A 
ATOM     65  C   UNL     1      12.943   0.242  11.370  1.00  0.00     0.012 A 
ATOM     66  C   UNL     1      11.430   1.340  12.926  1.00  0.00     0.148 A 
ATOM     67  C   UNL     1      12.897  -0.924  12.134  1.00  0.00     0.002 A 
ATOM     68  C   UNL     1      11.429   0.192  13.710  1.00  0.00     0.091 A 
ATOM     69  F   UNL     1      10.709   2.421  13.256  1.00  0.00    -0.205 F 
ATOM     70  C   UNL     1      12.150  -0.945  13.308  1.00  0.00     0.022 A 
BRANCH  68  71
ATOM     71  S   UNL     1      10.569   0.093  15.283  1.00  0.00     0.127 S 
ATOM     72  O   UNL     1       9.484  -0.835  14.968  1.00  0.00    -0.237 OA
ATOM     73  O   UNL     1      11.602  -0.454  16.163  1.00  0.00    -0.237 OA
ATOM     74  O   UNL     1      10.156   1.452  15.602  1.00  0.00    -0.744 OA
ENDBRANCH  68  71
ENDBRANCH  50  64
BRANCH  51  75
ATOM     75  C   UNL     1      11.977   9.627   6.109  1.00  0.00     0.023 A 
ATOM     76  C   UNL     1      13.176  10.167   5.601  1.00  0.00     0.012 A 
ATOM     77  C   UNL     1      10.759  10.270   5.820  1.00  0.00     0.148 A 
ATOM     78  C   UNL     1      13.166  11.347   4.857  1.00  0.00     0.002 A 
ATOM     79  C   UNL     1      10.750  11.414   5.030  1.00  0.00     0.091 A 
ATOM     80  F   UNL     1       9.630   9.743   6.317  1.00  0.00    -0.205 F 
ATOM     81  C   UNL     1      11.954  11.965   4.565  1.00  0.00     0.022 A 
BRANCH  79  82
ATOM     82  S   UNL     1       9.230  12.206   4.497  1.00  0.00     0.127 S 
ATOM     83  O   UNL     1       9.273  13.465   5.237  1.00  0.00    -0.237 OA
ATOM     84  O   UNL     1       9.446  12.330   3.055  1.00  0.00    -0.237 OA
ATOM     85  O   UNL     1       8.158  11.292   4.867  1.00  0.00    -0.744 OA
ENDBRANCH  79  82
ENDBRANCH  51  75
BRANCH  63  86
ATOM     86  C   UNL     1      14.888   8.053  12.251  1.00  0.00     0.023 A 
ATOM     87  C   UNL     1      14.318   9.091  13.014  1.00  0.00     0.012 A 
ATOM     88  C   UNL     1      16.247   7.726  12.437  1.00  0.00     0.148 A 
ATOM     89  C   UNL     1      15.096   9.820  13.912  1.00  0.00     0.002 A 
ATOM     90  C   UNL     1      17.001   8.419  13.375  1.00  0.00     0.091 A 
ATOM     91  F   UNL     1      16.778   6.748  11.690  1.00  0.00    -0.205 F 
ATOM     92  C   UNL     1      16.433   9.477  14.101  1.00  0.00     0.022 A 
BRANCH  90  93
ATOM     93  S   UNL     1      18.699   7.974  13.757  1.00  0.00     0.127 S 
ATOM     94  O   UNL     1      19.443   9.048  13.102  1.00  0.00    -0.237 OA
ATOM     95  O   UNL     1      18.713   8.025  15.219  1.00  0.00    -0.237 OA
ATOM     96  O   UNL     1      18.898   6.643  13.199  1.00  0.00    -0.744 OA
ENDBRANCH  90  93
ENDBRANCH  63  86
ENDBRANCH  37  38
ENDBRANCH  29  32
ENDBRANCH  27  28
ENDBRANCH  26  27
ENDBRANCH   1  26
TORSDOF 17
