REMARK SMILES CC(C)[C@@H](CCNC(=O)N1C[C@@H](C)[C@H](C)C1)CCC(=O)NCCCCNC(=O)c1ccc(-c2c3nc(c(-c4cccc(S(=O)(=O)[O-])c4F)c4ccc([nH]4)c(-c4cccc(S(=O)(=O)[O-])c4F)c4nc(c(-c5cccc(S(=O)(=O)[O-])c5F)c5ccc2[nH]5)C=C4)C=C3)cc1
REMARK SMILES IDX 22 1 21 2 19 3 20 4 18 6 17 7 4 8 2 9 1 10 3 11 5 12 6 13
REMARK SMILES IDX 7 14 8 15 9 17 10 18 11 19 16 20 12 21 14 22 13 23 15 24
REMARK SMILES IDX 23 25 24 26 25 27 26 28 27 29 28 31 29 32 30 33 91 34 31 35
REMARK SMILES IDX 90 36 32 37 33 38 34 39 84 40 35 41 89 42 83 43 85 44 36 45
REMARK SMILES IDX 88 46 82 47 81 48 37 50 69 51 49 52 68 53 50 54 53 55 67 56
REMARK SMILES IDX 86 57 51 58 52 59 66 61 87 62 54 63 38 64 39 65 47 66 40 67
REMARK SMILES IDX 42 68 48 69 41 70 43 71 44 72 45 73 46 74 70 75 71 76 79 77
REMARK SMILES IDX 72 78 74 79 80 80 73 81 75 82 76 83 77 84 78 85 55 86 56 87
REMARK SMILES IDX 64 88 57 89 59 90 65 91 58 92 60 93 61 94 62 95 63 96
REMARK H PARENT 21 5 7 16 26 30 85 49 53 60
REMARK Flexibility Score: inf
ROOT
ATOM      1  C   UNL     1      -1.188  -1.428   2.749  1.00  0.00     0.116 C 
ENDROOT
BRANCH   1   2
ATOM      2  N   UNL     1      -2.199  -2.461   2.600  1.00  0.00    -0.356 N 
ATOM      3  C   UNL     1      -2.313  -3.482   1.705  1.00  0.00     0.220 C 
ATOM      4  O   UNL     1      -3.350  -4.148   1.710  1.00  0.00    -0.275 OA
ATOM      5  H   UNL     1      -2.928  -2.416   3.260  1.00  0.00     0.163 HD
BRANCH   3   6
ATOM      6  C   UNL     1      -1.177  -3.832   0.756  1.00  0.00     0.100 C 
BRANCH   6   7
ATOM      7  C   UNL     1      -1.246  -3.168  -0.634  1.00  0.00     0.014 C 
BRANCH   7   8
ATOM      8  C   UNL     1      -0.564  -1.784  -0.718  1.00  0.00    -0.006 C 
BRANCH   8   9
ATOM      9  C   UNL     1       0.982  -1.768  -0.927  1.00  0.00    -0.014 C 
ATOM     10  C   UNL     1       1.547  -0.367  -0.631  1.00  0.00     0.007 C 
ATOM     11  C   UNL     1       1.764  -2.773  -0.079  1.00  0.00     0.007 C 
ENDBRANCH   8   9
BRANCH   8  12
ATOM     12  C   UNL     1      -1.325  -0.818  -1.665  1.00  0.00     0.025 C 
BRANCH  12  13
ATOM     13  C   UNL     1      -0.952  -0.838  -3.148  1.00  0.00     0.118 C 
BRANCH  13  14
ATOM     14  N   UNL     1      -1.493  -1.989  -3.835  1.00  0.00    -0.338 N 
ATOM     15  C   UNL     1      -2.577  -2.064  -4.645  1.00  0.00     0.317 C 
ATOM     16  H   UNL     1      -1.008  -2.834  -3.696  1.00  0.00     0.165 HD
ATOM     17  O   UNL     1      -3.177  -3.138  -4.695  1.00  0.00    -0.249 OA
ATOM     18  N   UNL     1      -2.954  -0.974  -5.374  1.00  0.00    -0.324 N 
ATOM     19  C   UNL     1      -4.244  -0.921  -6.028  1.00  0.00     0.125 C 
ATOM     20  C   UNL     1      -2.080   0.056  -5.910  1.00  0.00     0.125 C 
ATOM     21  C   UNL     1      -3.919  -0.445  -7.439  1.00  0.00     0.010 C 
ATOM     22  C   UNL     1      -2.695   0.473  -7.254  1.00  0.00     0.010 C 
ATOM     23  C   UNL     1      -5.094   0.266  -8.095  1.00  0.00     0.010 C 
ATOM     24  C   UNL     1      -1.698   0.337  -8.400  1.00  0.00     0.010 C 
ENDBRANCH  13  14
ENDBRANCH  12  13
ENDBRANCH   8  12
ENDBRANCH   7   8
ENDBRANCH   6   7
ENDBRANCH   3   6
ENDBRANCH   1   2
BRANCH   1  25
ATOM     25  C   UNL     1      -1.665  -0.117   2.107  1.00  0.00     0.023 C 
BRANCH  25  26
ATOM     26  C   UNL     1      -2.069   0.969   3.096  1.00  0.00     0.023 C 
BRANCH  26  27
ATOM     27  C   UNL     1      -0.898   1.547   3.879  1.00  0.00     0.116 C 
BRANCH  27  28
ATOM     28  N   UNL     1       0.108   2.209   3.053  1.00  0.00    -0.352 N 
ATOM     29  C   UNL     1       0.935   3.253   3.412  1.00  0.00     0.251 C 
ATOM     30  H   UNL     1       0.209   1.870   2.134  1.00  0.00     0.163 HD
ATOM     31  O   UNL     1       1.701   3.757   2.603  1.00  0.00    -0.269 OA
BRANCH  29  32
ATOM     32  C   UNL     1       0.823   3.785   4.787  1.00  0.00     0.039 A 
ATOM     33  C   UNL     1       0.540   5.140   4.966  1.00  0.00     0.014 A 
ATOM     34  C   UNL     1       0.857   2.913   5.877  1.00  0.00     0.014 A 
ATOM     35  C   UNL     1       0.195   5.602   6.238  1.00  0.00     0.010 A 
ATOM     36  C   UNL     1       0.420   3.355   7.117  1.00  0.00     0.010 A 
ATOM     37  C   UNL     1       0.081   4.703   7.312  1.00  0.00    -0.014 A 
BRANCH  37  38
ATOM     38  C   UNL     1      -0.414   5.146   8.640  1.00  0.00     0.031 A 
ATOM     39  C   UNL     1       0.459   5.009   9.858  1.00  0.00     0.074 A 
ATOM     40  C   UNL     1      -1.685   5.580   8.767  1.00  0.00     0.049 A 
ATOM     41  N   UNL     1       0.191   5.312  11.101  1.00  0.00    -0.248 NA
ATOM     42  C   UNL     1       1.792   4.415   9.661  1.00  0.00     0.031 C 
ATOM     43  C   UNL     1      -2.672   5.647   7.686  1.00  0.00     0.029 A 
ATOM     44  N   UNL     1      -2.373   6.028   9.867  1.00  0.00    -0.354 N 
ATOM     45  C   UNL     1       1.300   4.912  11.835  1.00  0.00     0.074 A 
ATOM     46  C   UNL     1       2.224   4.299  10.908  1.00  0.00     0.031 C 
ATOM     47  C   UNL     1      -3.828   6.129   8.172  1.00  0.00     0.029 A 
ATOM     48  C   UNL     1      -3.672   6.392   9.599  1.00  0.00     0.049 A 
ATOM     49  H   UNL     1      -1.973   6.084  10.765  1.00  0.00     0.167 HD
ATOM     50  C   UNL     1       1.550   5.080  13.155  1.00  0.00     0.034 A 
ATOM     51  C   UNL     1      -4.623   6.898  10.408  1.00  0.00     0.034 A 
ATOM     52  C   UNL     1       0.662   5.754  14.061  1.00  0.00     0.049 A 
ATOM     53  C   UNL     1      -4.281   7.173  11.848  1.00  0.00     0.074 A 
ATOM     54  C   UNL     1       0.864   6.068  15.393  1.00  0.00     0.029 A 
ATOM     55  N   UNL     1      -0.596   6.228  13.723  1.00  0.00    -0.354 N 
ATOM     56  N   UNL     1      -3.156   6.956  12.485  1.00  0.00    -0.248 NA
ATOM     57  C   UNL     1      -5.323   7.808  12.669  1.00  0.00     0.031 C 
ATOM     58  C   UNL     1      -0.275   6.734  15.861  1.00  0.00     0.029 A 
ATOM     59  C   UNL     1      -1.182   6.839  14.818  1.00  0.00     0.049 A 
ATOM     60  H   UNL     1      -1.012   6.142  12.835  1.00  0.00     0.167 HD
ATOM     61  C   UNL     1      -3.341   7.457  13.768  1.00  0.00     0.074 A 
ATOM     62  C   UNL     1      -4.679   8.012  13.810  1.00  0.00     0.031 C 
ATOM     63  C   UNL     1      -2.490   7.442  14.823  1.00  0.00     0.034 A 
BRANCH  50  64
ATOM     64  C   UNL     1       2.880   4.598  13.674  1.00  0.00     0.023 A 
ATOM     65  C   UNL     1       4.051   5.300  13.321  1.00  0.00     0.012 A 
ATOM     66  C   UNL     1       2.974   3.482  14.527  1.00  0.00     0.148 A 
ATOM     67  C   UNL     1       5.299   4.877  13.775  1.00  0.00     0.002 A 
ATOM     68  C   UNL     1       4.218   3.092  15.011  1.00  0.00     0.091 A 
ATOM     69  F   UNL     1       1.854   2.810  14.830  1.00  0.00    -0.205 F 
ATOM     70  C   UNL     1       5.381   3.780  14.627  1.00  0.00     0.022 A 
BRANCH  68  71
ATOM     71  S   UNL     1       4.418   1.736  16.172  1.00  0.00     0.127 S 
ATOM     72  O   UNL     1       4.962   0.687  15.310  1.00  0.00    -0.237 OA
ATOM     73  O   UNL     1       5.373   2.289  17.134  1.00  0.00    -0.237 OA
ATOM     74  O   UNL     1       3.093   1.480  16.717  1.00  0.00    -0.744 OA
ENDBRANCH  68  71
ENDBRANCH  50  64
BRANCH  51  75
ATOM     75  C   UNL     1      -5.948   7.288   9.847  1.00  0.00     0.023 A 
ATOM     76  C   UNL     1      -6.256   8.656   9.709  1.00  0.00     0.012 A 
ATOM     77  C   UNL     1      -6.885   6.328   9.422  1.00  0.00     0.148 A 
ATOM     78  C   UNL     1      -7.485   9.062   9.188  1.00  0.00     0.002 A 
ATOM     79  C   UNL     1      -8.088   6.739   8.856  1.00  0.00     0.091 A 
ATOM     80  F   UNL     1      -6.580   5.032   9.572  1.00  0.00    -0.205 F 
ATOM     81  C   UNL     1      -8.396   8.104   8.753  1.00  0.00     0.022 A 
BRANCH  79  82
ATOM     82  S   UNL     1      -9.261   5.576   8.149  1.00  0.00     0.127 S 
ATOM     83  O   UNL     1     -10.309   5.553   9.166  1.00  0.00    -0.237 OA
ATOM     84  O   UNL     1      -9.630   6.237   6.897  1.00  0.00    -0.237 OA
ATOM     85  O   UNL     1      -8.516   4.336   7.971  1.00  0.00    -0.744 OA
ENDBRANCH  79  82
ENDBRANCH  51  75
BRANCH  63  86
ATOM     86  C   UNL     1      -2.963   8.067  16.108  1.00  0.00     0.023 A 
ATOM     87  C   UNL     1      -3.923   7.399  16.894  1.00  0.00     0.012 A 
ATOM     88  C   UNL     1      -2.411   9.277  16.569  1.00  0.00     0.148 A 
ATOM     89  C   UNL     1      -4.349   7.943  18.104  1.00  0.00     0.002 A 
ATOM     90  C   UNL     1      -2.808   9.791  17.798  1.00  0.00     0.091 A 
ATOM     91  F   UNL     1      -1.516   9.912  15.797  1.00  0.00    -0.205 F 
ATOM     92  C   UNL     1      -3.784   9.131  18.562  1.00  0.00     0.022 A 
BRANCH  90  93
ATOM     93  S   UNL     1      -2.057  11.267  18.494  1.00  0.00     0.127 S 
ATOM     94  O   UNL     1      -3.029  12.297  18.134  1.00  0.00    -0.237 OA
ATOM     95  O   UNL     1      -2.003  10.953  19.923  1.00  0.00    -0.237 OA
ATOM     96  O   UNL     1      -0.750  11.376  17.858  1.00  0.00    -0.744 OA
ENDBRANCH  90  93
ENDBRANCH  63  86
ENDBRANCH  37  38
ENDBRANCH  29  32
ENDBRANCH  27  28
ENDBRANCH  26  27
ENDBRANCH  25  26
ENDBRANCH   1  25
TORSDOF 20
