REMARK SMILES C[C@@H](C(=O)NCCCCNC(=O)c1ccc(-c2c3nc(c(-c4cccc(S(=O)(=O)[O-])c4F)c4ccc([nH]4)c(-c4cccc(S(=O)(=O)[O-])c4F)c4nc(c(-c5cccc(S(=O)(=O)[O-])c5F)c5ccc2[nH]5)C=C4)C=C3)cc1)c1ccc(C[C@@H]2CCC[C@@H]2O)cc1
REMARK SMILES IDX 7 1 6 2 5 3 3 4 4 5 2 7 1 8 76 9 77 10 88 11 78 12 87 13
REMARK SMILES IDX 79 14 80 15 81 16 82 17 85 18 83 19 84 20 86 21 8 23 9 24
REMARK SMILES IDX 10 25 11 26 12 28 13 29 14 30 75 31 15 32 74 33 16 34 17 35
REMARK SMILES IDX 18 36 68 37 19 38 73 39 67 40 69 41 20 42 72 43 66 44 65 45
REMARK SMILES IDX 21 47 53 48 33 49 52 50 34 51 37 52 51 53 70 54 35 55 36 56
REMARK SMILES IDX 50 58 71 59 38 60 22 61 23 62 31 63 24 64 26 65 32 66 25 67
REMARK SMILES IDX 27 68 28 69 29 70 30 71 54 72 55 73 63 74 56 75 58 76 64 77
REMARK SMILES IDX 57 78 59 79 60 80 61 81 62 82 39 83 40 84 48 85 41 86 43 87
REMARK SMILES IDX 49 88 42 89 44 90 45 91 46 92 47 93
REMARK H PARENT 5 6 86 22 10 27 69 46 37 57
REMARK Flexibility Score: inf
ROOT
ATOM      1  C   UNL     1     -10.213   2.763  10.681  1.00  0.00     0.023 C 
ENDROOT
BRANCH   1   2
ATOM      2  C   UNL     1     -10.531   3.307   9.287  1.00  0.00     0.116 C 
BRANCH   2   3
ATOM      3  N   UNL     1      -9.342   3.356   8.463  1.00  0.00    -0.356 N 
ATOM      4  C   UNL     1      -8.890   2.482   7.517  1.00  0.00     0.227 C 
ATOM      5  O   UNL     1      -7.784   2.720   7.027  1.00  0.00    -0.274 OA
ATOM      6  H   UNL     1      -8.768   4.143   8.608  1.00  0.00     0.163 HD
BRANCH   4   7
ATOM      7  C   UNL     1      -9.770   1.296   7.066  1.00  0.00     0.105 C 
ATOM      8  C   UNL     1      -9.958   0.266   8.188  1.00  0.00     0.023 C 
BRANCH   7   9
ATOM      9  C   UNL     1      -9.214   0.659   5.791  1.00  0.00    -0.036 A 
ATOM     10  C   UNL     1      -8.451  -0.516   5.816  1.00  0.00     0.005 A 
ATOM     11  C   UNL     1      -9.404   1.300   4.556  1.00  0.00     0.005 A 
ATOM     12  C   UNL     1      -7.883  -1.028   4.651  1.00  0.00     0.004 A 
ATOM     13  C   UNL     1      -8.807   0.801   3.394  1.00  0.00     0.004 A 
ATOM     14  C   UNL     1      -8.007  -0.348   3.438  1.00  0.00    -0.048 A 
BRANCH  14  15
ATOM     15  C   UNL     1      -7.264  -0.821   2.214  1.00  0.00     0.041 C 
BRANCH  15  16
ATOM     16  C   UNL     1      -5.739  -0.564   2.150  1.00  0.00     0.022 C 
ATOM     17  C   UNL     1      -4.897  -1.280   3.214  1.00  0.00     0.007 C 
ATOM     18  C   UNL     1      -5.267   0.889   2.276  1.00  0.00     0.117 C 
ATOM     19  C   UNL     1      -4.571  -0.246   4.296  1.00  0.00     0.003 C 
ATOM     20  C   UNL     1      -5.040   1.105   3.768  1.00  0.00     0.032 C 
BRANCH  18  21
ATOM     21  O   UNL     1      -6.157   1.819   1.693  1.00  0.00    -0.393 OA
ATOM     22  H   UNL     1      -7.023   1.753   2.126  1.00  0.00     0.210 HD
ENDBRANCH  18  21
ENDBRANCH  15  16
ENDBRANCH  14  15
ENDBRANCH   7   9
ENDBRANCH   4   7
ENDBRANCH   2   3
ENDBRANCH   1   2
BRANCH   1  23
ATOM     23  C   UNL     1      -9.369   3.696  11.554  1.00  0.00     0.023 C 
BRANCH  23  24
ATOM     24  C   UNL     1      -9.972   5.072  11.807  1.00  0.00     0.116 C 
BRANCH  24  25
ATOM     25  N   UNL     1     -11.295   5.011  12.412  1.00  0.00    -0.352 N 
ATOM     26  C   UNL     1     -11.829   5.811  13.392  1.00  0.00     0.251 C 
ATOM     27  H   UNL     1     -11.886   4.301  12.072  1.00  0.00     0.163 HD
ATOM     28  O   UNL     1     -12.926   5.540  13.874  1.00  0.00    -0.269 OA
BRANCH  26  29
ATOM     29  C   UNL     1     -11.064   6.976  13.884  1.00  0.00     0.039 A 
ATOM     30  C   UNL     1     -10.938   7.167  15.262  1.00  0.00     0.014 A 
ATOM     31  C   UNL     1     -10.453   7.860  12.991  1.00  0.00     0.014 A 
ATOM     32  C   UNL     1     -10.144   8.210  15.745  1.00  0.00     0.010 A 
ATOM     33  C   UNL     1      -9.606   8.853  13.473  1.00  0.00     0.010 A 
ATOM     34  C   UNL     1      -9.445   9.040  14.855  1.00  0.00    -0.014 A 
BRANCH  34  35
ATOM     35  C   UNL     1      -8.525  10.098  15.346  1.00  0.00     0.031 A 
ATOM     36  C   UNL     1      -8.804  11.545  15.046  1.00  0.00     0.074 A 
ATOM     37  C   UNL     1      -7.387   9.747  15.977  1.00  0.00     0.049 A 
ATOM     38  N   UNL     1      -8.087  12.599  15.337  1.00  0.00    -0.248 NA
ATOM     39  C   UNL     1     -10.036  11.846  14.298  1.00  0.00     0.031 C 
ATOM     40  C   UNL     1      -6.960   8.372  16.250  1.00  0.00     0.029 A 
ATOM     41  N   UNL     1      -6.366  10.516  16.477  1.00  0.00    -0.354 N 
ATOM     42  C   UNL     1      -8.756  13.680  14.776  1.00  0.00     0.074 A 
ATOM     43  C   UNL     1      -9.921  13.152  14.101  1.00  0.00     0.031 C 
ATOM     44  C   UNL     1      -5.768   8.396  16.867  1.00  0.00     0.029 A 
ATOM     45  C   UNL     1      -5.333   9.782  17.012  1.00  0.00     0.049 A 
ATOM     46  H   UNL     1      -6.373  11.500  16.456  1.00  0.00     0.167 HD
ATOM     47  C   UNL     1      -8.447  14.997  14.842  1.00  0.00     0.034 A 
ATOM     48  C   UNL     1      -4.164  10.179  17.552  1.00  0.00     0.034 A 
ATOM     49  C   UNL     1      -7.316  15.523  15.558  1.00  0.00     0.049 A 
ATOM     50  C   UNL     1      -3.871  11.651  17.662  1.00  0.00     0.074 A 
ATOM     51  C   UNL     1      -6.972  16.847  15.768  1.00  0.00     0.029 A 
ATOM     52  N   UNL     1      -6.341  14.754  16.174  1.00  0.00    -0.354 N 
ATOM     53  N   UNL     1      -4.603  12.668  17.276  1.00  0.00    -0.248 NA
ATOM     54  C   UNL     1      -2.611  12.032  18.315  1.00  0.00     0.031 C 
ATOM     55  C   UNL     1      -5.779  16.878  16.497  1.00  0.00     0.029 A 
ATOM     56  C   UNL     1      -5.391  15.573  16.759  1.00  0.00     0.049 A 
ATOM     57  H   UNL     1      -6.327  13.770  16.193  1.00  0.00     0.167 HD
ATOM     58  C   UNL     1      -3.910  13.807  17.670  1.00  0.00     0.074 A 
ATOM     59  C   UNL     1      -2.711  13.354  18.344  1.00  0.00     0.031 C 
ATOM     60  C   UNL     1      -4.231  15.111  17.477  1.00  0.00     0.034 A 
BRANCH  47  61
ATOM     61  C   UNL     1      -9.380  15.970  14.171  1.00  0.00     0.023 A 
ATOM     62  C   UNL     1     -10.650  16.213  14.734  1.00  0.00     0.012 A 
ATOM     63  C   UNL     1      -8.984  16.687  13.025  1.00  0.00     0.148 A 
ATOM     64  C   UNL     1     -11.524  17.127  14.148  1.00  0.00     0.002 A 
ATOM     65  C   UNL     1      -9.844  17.629  12.472  1.00  0.00     0.091 A 
ATOM     66  F   UNL     1      -7.782  16.427  12.491  1.00  0.00    -0.205 F 
ATOM     67  C   UNL     1     -11.118  17.842  13.025  1.00  0.00     0.022 A 
BRANCH  65  68
ATOM     68  S   UNL     1      -9.384  18.657  11.073  1.00  0.00     0.127 S 
ATOM     69  O   UNL     1     -10.201  18.084  10.005  1.00  0.00    -0.237 OA
ATOM     70  O   UNL     1      -9.804  19.987  11.515  1.00  0.00    -0.237 OA
ATOM     71  O   UNL     1      -7.945  18.497  10.915  1.00  0.00    -0.744 OA
ENDBRANCH  65  68
ENDBRANCH  47  61
BRANCH  48  72
ATOM     72  C   UNL     1      -3.216   9.167  18.099  1.00  0.00     0.023 A 
ATOM     73  C   UNL     1      -3.043   9.068  19.493  1.00  0.00     0.012 A 
ATOM     74  C   UNL     1      -2.516   8.284  17.255  1.00  0.00     0.148 A 
ATOM     75  C   UNL     1      -2.166   8.128  20.036  1.00  0.00     0.002 A 
ATOM     76  C   UNL     1      -1.685   7.314  17.806  1.00  0.00     0.091 A 
ATOM     77  F   UNL     1      -2.685   8.401  15.931  1.00  0.00    -0.205 F 
ATOM     78  C   UNL     1      -1.496   7.245  19.195  1.00  0.00     0.022 A 
BRANCH  76  79
ATOM     79  S   UNL     1      -0.887   6.051  16.808  1.00  0.00     0.127 S 
ATOM     80  O   UNL     1       0.510   6.473  16.852  1.00  0.00    -0.237 OA
ATOM     81  O   UNL     1      -1.189   4.834  17.562  1.00  0.00    -0.237 OA
ATOM     82  O   UNL     1      -1.531   6.120  15.502  1.00  0.00    -0.744 OA
ENDBRANCH  76  79
ENDBRANCH  48  72
BRANCH  60  83
ATOM     83  C   UNL     1      -3.292  16.151  18.028  1.00  0.00     0.023 A 
ATOM     84  C   UNL     1      -2.051  16.377  17.401  1.00  0.00     0.012 A 
ATOM     85  C   UNL     1      -3.675  16.959  19.117  1.00  0.00     0.148 A 
ATOM     86  C   UNL     1      -1.192  17.370  17.868  1.00  0.00     0.002 A 
ATOM     87  C   UNL     1      -2.834  17.979  19.547  1.00  0.00     0.091 A 
ATOM     88  F   UNL     1      -4.851  16.716  19.713  1.00  0.00    -0.205 F 
ATOM     89  C   UNL     1      -1.587  18.178  18.932  1.00  0.00     0.022 A 
BRANCH  87  90
ATOM     90  S   UNL     1      -3.303  19.129  20.845  1.00  0.00     0.127 S 
ATOM     91  O   UNL     1      -2.476  18.673  21.961  1.00  0.00    -0.237 OA
ATOM     92  O   UNL     1      -2.906  20.418  20.278  1.00  0.00    -0.237 OA
ATOM     93  O   UNL     1      -4.740  18.966  21.023  1.00  0.00    -0.744 OA
ENDBRANCH  87  90
ENDBRANCH  60  83
ENDBRANCH  34  35
ENDBRANCH  26  29
ENDBRANCH  24  25
ENDBRANCH  23  24
ENDBRANCH   1  23
TORSDOF 18
