REMARK SMILES C[C@@]1(CN2C(=O)c3ccc(C(=O)NCCCCNC(=O)c4ccc(-c5c6nc(c(-c7cccc(S(=O)(=O)[O-])c7F)c7ccc([nH]7)c(-c7cccc(S(=O)(=O)[O-])c7F)c7nc(c(-c8cccc(S(=O)(=O)[O-])c8F)c8ccc5[nH]8)C=C7)C=C6)cc4)cc3C2=O)CCCO1
REMARK SMILES IDX 16 1 15 2 14 3 13 4 11 5 12 6 10 8 4 9 5 10 86 11 6 12 7 13
REMARK SMILES IDX 85 14 87 15 8 16 84 17 9 18 3 19 2 20 1 21 88 22 91 23 89 24
REMARK SMILES IDX 90 25 17 26 18 27 19 28 20 30 21 31 22 32 83 33 23 34 82 35
REMARK SMILES IDX 24 36 25 37 26 38 76 39 27 40 81 41 75 42 77 43 28 44 80 45
REMARK SMILES IDX 74 46 73 47 29 49 61 50 41 51 60 52 42 53 45 54 59 55 78 56
REMARK SMILES IDX 43 57 44 58 58 60 79 61 46 62 30 63 31 64 39 65 32 66 34 67
REMARK SMILES IDX 40 68 33 69 35 70 36 71 37 72 38 73 62 74 63 75 71 76 64 77
REMARK SMILES IDX 66 78 72 79 65 80 67 81 68 82 69 83 70 84 47 85 48 86 56 87
REMARK SMILES IDX 49 88 51 89 57 90 50 91 52 92 53 93 54 94 55 95
REMARK H PARENT 13 7 18 29 77 48 45 59
REMARK Flexibility Score: inf
ROOT
ATOM      1  C   UNL     1      -2.771   7.846   6.725  1.00  0.00     0.023 C 
ENDROOT
BRANCH   1   2
ATOM      2  C   UNL     1      -2.136   6.884   5.719  1.00  0.00     0.023 C 
BRANCH   2   3
ATOM      3  C   UNL     1      -1.198   5.848   6.347  1.00  0.00     0.116 C 
BRANCH   3   4
ATOM      4  N   UNL     1      -1.950   4.723   6.865  1.00  0.00    -0.352 N 
ATOM      5  C   UNL     1      -2.283   3.505   6.335  1.00  0.00     0.251 C 
ATOM      6  O   UNL     1      -2.913   2.728   7.054  1.00  0.00    -0.269 OA
ATOM      7  H   UNL     1      -2.289   4.862   7.779  1.00  0.00     0.163 HD
BRANCH   5   8
ATOM      8  C   UNL     1      -1.914   3.054   4.958  1.00  0.00     0.040 A 
ATOM      9  N   UNL     1      -1.237  -0.001   1.575  1.00  0.00    -0.271 N 
ATOM     10  C   UNL     1      -1.102   1.309   1.224  1.00  0.00     0.261 C 
ATOM     11  C   UNL     1      -1.629  -0.141   2.882  1.00  0.00     0.261 C 
ATOM     12  O   UNL     1      -0.868   1.800   0.134  1.00  0.00    -0.269 OA
ATOM     13  C   UNL     1      -1.321   2.085   2.433  1.00  0.00     0.053 A 
ATOM     14  C   UNL     1      -1.657   1.211   3.448  1.00  0.00     0.054 A 
ATOM     15  O   UNL     1      -1.948  -1.144   3.487  1.00  0.00    -0.269 OA
ATOM     16  C   UNL     1      -1.261   3.445   2.620  1.00  0.00     0.015 A 
ATOM     17  C   UNL     1      -1.960   1.664   4.718  1.00  0.00     0.028 A 
ATOM     18  C   UNL     1      -1.586   3.924   3.892  1.00  0.00     0.015 A 
BRANCH   9  19
ATOM     19  C   UNL     1      -1.028  -1.101   0.650  1.00  0.00     0.164 C 
BRANCH  19  20
ATOM     20  C   UNL     1       0.469  -1.483   0.468  1.00  0.00     0.084 C 
ATOM     21  C   UNL     1       1.340  -0.317  -0.001  1.00  0.00     0.044 C 
ATOM     22  C   UNL     1       0.609  -2.670  -0.488  1.00  0.00     0.039 C 
ATOM     23  O   UNL     1       0.993  -1.950   1.729  1.00  0.00    -0.373 OA
ATOM     24  C   UNL     1       0.430  -3.858   0.424  1.00  0.00     0.031 C 
ATOM     25  C   UNL     1       1.064  -3.382   1.713  1.00  0.00     0.161 C 
ENDBRANCH  19  20
ENDBRANCH   9  19
ENDBRANCH   5   8
ENDBRANCH   3   4
ENDBRANCH   2   3
ENDBRANCH   1   2
BRANCH   1  26
ATOM     26  C   UNL     1      -1.777   8.686   7.518  1.00  0.00     0.116 C 
BRANCH  26  27
ATOM     27  N   UNL     1      -0.863   9.441   6.673  1.00  0.00    -0.352 N 
ATOM     28  C   UNL     1      -0.290  10.664   6.919  1.00  0.00     0.251 C 
ATOM     29  H   UNL     1      -0.625   9.020   5.816  1.00  0.00     0.163 HD
ATOM     30  O   UNL     1       0.362  11.225   6.044  1.00  0.00    -0.269 OA
BRANCH  28  31
ATOM     31  C   UNL     1      -0.500  11.308   8.231  1.00  0.00     0.039 A 
ATOM     32  C   UNL     1      -0.880  12.650   8.266  1.00  0.00     0.014 A 
ATOM     33  C   UNL     1      -0.356  10.581   9.416  1.00  0.00     0.014 A 
ATOM     34  C   UNL     1      -1.163  13.249   9.494  1.00  0.00     0.010 A 
ATOM     35  C   UNL     1      -0.727  11.154  10.627  1.00  0.00     0.010 A 
ATOM     36  C   UNL     1      -1.119  12.498  10.682  1.00  0.00    -0.014 A 
BRANCH  36  37
ATOM     37  C   UNL     1      -1.488  13.118  11.979  1.00  0.00     0.031 A 
ATOM     38  C   UNL     1      -0.480  13.227  13.091  1.00  0.00     0.074 A 
ATOM     39  C   UNL     1      -2.751  13.548  12.169  1.00  0.00     0.049 A 
ATOM     40  N   UNL     1      -0.612  13.781  14.269  1.00  0.00    -0.248 NA
ATOM     41  C   UNL     1       0.840  12.615  12.865  1.00  0.00     0.031 C 
ATOM     42  C   UNL     1      -3.845  13.412  11.203  1.00  0.00     0.029 A 
ATOM     43  N   UNL     1      -3.332  14.179  13.239  1.00  0.00    -0.354 N 
ATOM     44  C   UNL     1       0.591  13.563  14.930  1.00  0.00     0.074 A 
ATOM     45  C   UNL     1       1.425  12.786  14.041  1.00  0.00     0.031 C 
ATOM     46  C   UNL     1      -4.955  13.969  11.713  1.00  0.00     0.029 A 
ATOM     47  C   UNL     1      -4.662  14.474  13.050  1.00  0.00     0.049 A 
ATOM     48  H   UNL     1      -2.843  14.401  14.064  1.00  0.00     0.167 HD
ATOM     49  C   UNL     1       0.980  13.998  16.151  1.00  0.00     0.034 A 
ATOM     50  C   UNL     1      -5.546  15.086  13.862  1.00  0.00     0.034 A 
ATOM     51  C   UNL     1       0.154  14.792  17.021  1.00  0.00     0.049 A 
ATOM     52  C   UNL     1      -5.075  15.598  15.195  1.00  0.00     0.074 A 
ATOM     53  C   UNL     1       0.480  15.350  18.245  1.00  0.00     0.029 A 
ATOM     54  N   UNL     1      -1.166  15.129  16.769  1.00  0.00    -0.354 N 
ATOM     55  N   UNL     1      -3.883  15.522  15.736  1.00  0.00    -0.248 NA
ATOM     56  C   UNL     1      -6.061  16.319  16.011  1.00  0.00     0.031 C 
ATOM     57  C   UNL     1      -0.656  15.992  18.750  1.00  0.00     0.029 A 
ATOM     58  C   UNL     1      -1.674  15.878  17.817  1.00  0.00     0.049 A 
ATOM     59  H   UNL     1      -1.669  14.874  15.962  1.00  0.00     0.167 HD
ATOM     60  C   UNL     1      -3.964  16.221  16.935  1.00  0.00     0.074 A 
ATOM     61  C   UNL     1      -5.317  16.732  17.027  1.00  0.00     0.031 C 
ATOM     62  C   UNL     1      -3.010  16.414  17.879  1.00  0.00     0.034 A 
BRANCH  49  63
ATOM     63  C   UNL     1       2.378  13.656  16.604  1.00  0.00     0.023 A 
ATOM     64  C   UNL     1       3.486  14.249  15.963  1.00  0.00     0.012 A 
ATOM     65  C   UNL     1       2.594  12.791  17.694  1.00  0.00     0.148 A 
ATOM     66  C   UNL     1       4.787  13.956  16.373  1.00  0.00     0.002 A 
ATOM     67  C   UNL     1       3.890  12.544  18.130  1.00  0.00     0.091 A 
ATOM     68  F   UNL     1       1.531  12.221  18.278  1.00  0.00    -0.205 F 
ATOM     69  C   UNL     1       4.987  13.113  17.462  1.00  0.00     0.022 A 
BRANCH  67  70
ATOM     70  S   UNL     1       4.253  11.542  19.575  1.00  0.00     0.127 S 
ATOM     71  O   UNL     1       4.891  10.373  18.970  1.00  0.00    -0.237 OA
ATOM     72  O   UNL     1       5.159  12.409  20.329  1.00  0.00    -0.237 OA
ATOM     73  O   UNL     1       2.974  11.288  20.222  1.00  0.00    -0.744 OA
ENDBRANCH  67  70
ENDBRANCH  49  63
BRANCH  50  74
ATOM     74  C   UNL     1      -6.948  15.308  13.407  1.00  0.00     0.023 A 
ATOM     75  C   UNL     1      -7.395  16.616  13.134  1.00  0.00     0.012 A 
ATOM     76  C   UNL     1      -7.833  14.229  13.228  1.00  0.00     0.148 A 
ATOM     77  C   UNL     1      -8.710  16.849  12.732  1.00  0.00     0.002 A 
ATOM     78  C   UNL     1      -9.124  14.461  12.769  1.00  0.00     0.091 A 
ATOM     79  F   UNL     1      -7.390  12.993  13.499  1.00  0.00    -0.205 F 
ATOM     80  C   UNL     1      -9.572  15.772  12.541  1.00  0.00     0.022 A 
BRANCH  78  81
ATOM     81  S   UNL     1     -10.258  13.128  12.368  1.00  0.00     0.127 S 
ATOM     82  O   UNL     1     -11.273  13.276  13.407  1.00  0.00    -0.237 OA
ATOM     83  O   UNL     1     -10.693  13.501  11.021  1.00  0.00    -0.237 OA
ATOM     84  O   UNL     1      -9.466  11.907  12.426  1.00  0.00    -0.744 OA
ENDBRANCH  78  81
ENDBRANCH  50  74
BRANCH  62  85
ATOM     85  C   UNL     1      -3.377  17.259  19.072  1.00  0.00     0.023 A 
ATOM     86  C   UNL     1      -4.302  16.784  20.023  1.00  0.00     0.012 A 
ATOM     87  C   UNL     1      -2.773  18.517  19.266  1.00  0.00     0.148 A 
ATOM     88  C   UNL     1      -4.661  17.570  21.117  1.00  0.00     0.002 A 
ATOM     89  C   UNL     1      -3.092  19.270  20.390  1.00  0.00     0.091 A 
ATOM     90  F   UNL     1      -1.908  18.963  18.343  1.00  0.00    -0.205 F 
ATOM     91  C   UNL     1      -4.050  18.807  21.306  1.00  0.00     0.022 A 
BRANCH  89  92
ATOM     92  S   UNL     1      -2.277  20.826  20.765  1.00  0.00     0.127 S 
ATOM     93  O   UNL     1      -3.325  21.794  20.449  1.00  0.00    -0.237 OA
ATOM     94  O   UNL     1      -1.984  20.686  22.192  1.00  0.00    -0.237 OA
ATOM     95  O   UNL     1      -1.098  20.876  19.910  1.00  0.00    -0.744 OA
ENDBRANCH  89  92
ENDBRANCH  62  85
ENDBRANCH  36  37
ENDBRANCH  28  31
ENDBRANCH  26  27
ENDBRANCH   1  26
TORSDOF 16
