REMARK SMILES O=C(NCCCCNC(=O)[C@@H]1CCn2c(C(=O)c3ccccc3)ccc21)c1ccc(-c2c3nc(c(-c4cccc(S(=O)(=O)[O-])c4F)c4ccc([nH]4)c(-c4cccc(S(=O)(=O)[O-])c4F)c4nc(c(-c5cccc(S(=O)(=O)[O-])c5F)c5ccc2[nH]5)C=C4)C=C3)cc1
REMARK SMILES IDX 5 1 4 2 3 3 1 4 2 5 27 7 28 8 89 9 29 10 88 11 30 12 31 13
REMARK SMILES IDX 32 14 82 15 33 16 87 17 81 18 83 19 34 20 86 21 80 22 79 23
REMARK SMILES IDX 35 25 67 26 47 27 66 28 48 29 51 30 65 31 84 32 49 33 50 34
REMARK SMILES IDX 64 36 85 37 52 38 36 39 37 40 45 41 38 42 40 43 46 44 39 45
REMARK SMILES IDX 41 46 42 47 43 48 44 49 68 50 69 51 77 52 70 53 72 54 78 55
REMARK SMILES IDX 71 56 73 57 74 58 75 59 76 60 53 61 54 62 62 63 55 64 57 65
REMARK SMILES IDX 63 66 56 67 58 68 59 69 60 70 61 71 6 72 7 73 8 74 9 75
REMARK SMILES IDX 10 77 11 78 12 79 26 80 13 81 14 82 25 83 15 84 24 85 16 86
REMARK SMILES IDX 17 87 18 88 19 89 23 90 20 91 22 92 21 93
REMARK H PARENT 3 6 83 24 51 35 8 76
REMARK Flexibility Score: inf
ROOT
ATOM      1  C   UNL     1       4.796   0.860  -2.683  1.00  0.00     0.023 C 
ENDROOT
BRANCH   1   2
ATOM      2  C   UNL     1       4.421   0.492  -1.258  1.00  0.00     0.116 C 
BRANCH   2   3
ATOM      3  N   UNL     1       2.996   0.594  -0.978  1.00  0.00    -0.352 N 
ATOM      4  O   UNL     1       1.055  -0.003   0.021  1.00  0.00    -0.269 OA
ATOM      5  C   UNL     1       2.271  -0.116  -0.045  1.00  0.00     0.251 C 
ATOM      6  H   UNL     1       2.492   1.246  -1.518  1.00  0.00     0.163 HD
BRANCH   5   7
ATOM      7  C   UNL     1       2.997  -1.057   0.837  1.00  0.00     0.039 A 
ATOM      8  C   UNL     1       4.158  -0.643   1.490  1.00  0.00     0.014 A 
ATOM      9  C   UNL     1       2.557  -2.378   0.945  1.00  0.00     0.014 A 
ATOM     10  C   UNL     1       4.970  -1.586   2.103  1.00  0.00     0.010 A 
ATOM     11  C   UNL     1       3.328  -3.307   1.650  1.00  0.00     0.010 A 
ATOM     12  C   UNL     1       4.562  -2.928   2.200  1.00  0.00    -0.014 A 
BRANCH  12  13
ATOM     13  C   UNL     1       5.425  -3.877   2.947  1.00  0.00     0.031 A 
ATOM     14  C   UNL     1       6.081  -5.051   2.274  1.00  0.00     0.074 A 
ATOM     15  C   UNL     1       5.652  -3.628   4.252  1.00  0.00     0.049 A 
ATOM     16  N   UNL     1       6.928  -5.912   2.777  1.00  0.00    -0.248 NA
ATOM     17  C   UNL     1       5.744  -5.301   0.863  1.00  0.00     0.031 C 
ATOM     18  C   UNL     1       5.023  -2.550   5.020  1.00  0.00     0.029 A 
ATOM     19  N   UNL     1       6.481  -4.239   5.156  1.00  0.00    -0.354 N 
ATOM     20  C   UNL     1       7.198  -6.824   1.764  1.00  0.00     0.074 A 
ATOM     21  C   UNL     1       6.420  -6.416   0.614  1.00  0.00     0.031 C 
ATOM     22  C   UNL     1       5.526  -2.541   6.261  1.00  0.00     0.029 A 
ATOM     23  C   UNL     1       6.473  -3.642   6.394  1.00  0.00     0.049 A 
ATOM     24  H   UNL     1       7.030  -5.027   4.939  1.00  0.00     0.167 HD
ATOM     25  C   UNL     1       8.033  -7.891   1.788  1.00  0.00     0.034 A 
ATOM     26  C   UNL     1       7.151  -3.944   7.518  1.00  0.00     0.034 A 
ATOM     27  C   UNL     1       8.836  -8.266   2.923  1.00  0.00     0.049 A 
ATOM     28  C   UNL     1       8.120  -5.088   7.489  1.00  0.00     0.074 A 
ATOM     29  C   UNL     1       9.736  -9.312   3.034  1.00  0.00     0.029 A 
ATOM     30  N   UNL     1       8.842  -7.605   4.143  1.00  0.00    -0.354 N 
ATOM     31  N   UNL     1       8.439  -5.870   6.486  1.00  0.00    -0.248 NA
ATOM     32  C   UNL     1       8.841  -5.377   8.735  1.00  0.00     0.031 C 
ATOM     33  C   UNL     1      10.286  -9.284   4.321  1.00  0.00     0.029 A 
ATOM     34  C   UNL     1       9.733  -8.216   5.010  1.00  0.00     0.049 A 
ATOM     35  H   UNL     1       8.294  -6.817   4.360  1.00  0.00     0.167 HD
ATOM     36  C   UNL     1       9.396  -6.746   6.979  1.00  0.00     0.074 A 
ATOM     37  C   UNL     1       9.642  -6.363   8.356  1.00  0.00     0.031 C 
ATOM     38  C   UNL     1       9.991  -7.796   6.362  1.00  0.00     0.034 A 
BRANCH  25  39
ATOM     39  C   UNL     1       8.174  -8.707   0.528  1.00  0.00     0.023 A 
ATOM     40  C   UNL     1       8.950  -8.202  -0.534  1.00  0.00     0.012 A 
ATOM     41  C   UNL     1       7.622  -9.999   0.427  1.00  0.00     0.148 A 
ATOM     42  C   UNL     1       9.163  -8.962  -1.684  1.00  0.00     0.002 A 
ATOM     43  C   UNL     1       7.866 -10.765  -0.709  1.00  0.00     0.091 A 
ATOM     44  F   UNL     1       6.869 -10.454   1.438  1.00  0.00    -0.205 F 
ATOM     45  C   UNL     1       8.631 -10.246  -1.766  1.00  0.00     0.022 A 
BRANCH  43  46
ATOM     46  S   UNL     1       7.283 -12.457  -0.884  1.00  0.00     0.127 S 
ATOM     47  O   UNL     1       6.226 -12.302  -1.882  1.00  0.00    -0.237 OA
ATOM     48  O   UNL     1       8.479 -13.148  -1.366  1.00  0.00    -0.237 OA
ATOM     49  O   UNL     1       6.839 -12.866   0.441  1.00  0.00    -0.744 OA
ENDBRANCH  43  46
ENDBRANCH  25  39
BRANCH  26  50
ATOM     50  C   UNL     1       6.963  -3.106   8.734  1.00  0.00     0.023 A 
ATOM     51  C   UNL     1       8.008  -2.271   9.172  1.00  0.00     0.012 A 
ATOM     52  C   UNL     1       5.730  -3.074   9.412  1.00  0.00     0.148 A 
ATOM     53  C   UNL     1       7.832  -1.432  10.274  1.00  0.00     0.002 A 
ATOM     54  C   UNL     1       5.540  -2.188  10.466  1.00  0.00     0.091 A 
ATOM     55  F   UNL     1       4.750  -3.892   9.000  1.00  0.00    -0.205 F 
ATOM     56  C   UNL     1       6.594  -1.378  10.910  1.00  0.00     0.022 A 
BRANCH  54  57
ATOM     57  S   UNL     1       3.916  -1.957  11.198  1.00  0.00     0.127 S 
ATOM     58  O   UNL     1       3.947  -2.900  12.311  1.00  0.00    -0.237 OA
ATOM     59  O   UNL     1       3.941  -0.545  11.586  1.00  0.00    -0.237 OA
ATOM     60  O   UNL     1       2.980  -2.255  10.120  1.00  0.00    -0.744 OA
ENDBRANCH  54  57
ENDBRANCH  26  50
BRANCH  38  61
ATOM     61  C   UNL     1      10.952  -8.611   7.184  1.00  0.00     0.023 A 
ATOM     62  C   UNL     1      10.444  -9.489   8.162  1.00  0.00     0.012 A 
ATOM     63  C   UNL     1      12.341  -8.538   6.971  1.00  0.00     0.148 A 
ATOM     64  C   UNL     1      11.307 -10.258   8.941  1.00  0.00     0.002 A 
ATOM     65  C   UNL     1      13.194  -9.336   7.725  1.00  0.00     0.091 A 
ATOM     66  F   UNL     1      12.807  -7.677   6.054  1.00  0.00    -0.205 F 
ATOM     67  C   UNL     1      12.680 -10.188   8.717  1.00  0.00     0.022 A 
BRANCH  65  68
ATOM     68  S   UNL     1      14.967  -9.356   7.442  1.00  0.00     0.127 S 
ATOM     69  O   UNL     1      15.446  -8.435   8.470  1.00  0.00    -0.237 OA
ATOM     70  O   UNL     1      15.311 -10.760   7.673  1.00  0.00    -0.237 OA
ATOM     71  O   UNL     1      15.145  -8.917   6.064  1.00  0.00    -0.744 OA
ENDBRANCH  65  68
ENDBRANCH  38  61
ENDBRANCH  12  13
ENDBRANCH   5   7
ENDBRANCH   2   3
ENDBRANCH   1   2
BRANCH   1  72
ATOM     72  C   UNL     1       4.462   2.299  -3.073  1.00  0.00     0.023 C 
BRANCH  72  73
ATOM     73  C   UNL     1       5.278   3.372  -2.347  1.00  0.00     0.116 C 
BRANCH  73  74
ATOM     74  N   UNL     1       6.595   3.500  -2.941  1.00  0.00    -0.356 N 
ATOM     75  C   UNL     1       7.028   4.226  -4.006  1.00  0.00     0.229 C 
ATOM     76  H   UNL     1       7.295   2.971  -2.497  1.00  0.00     0.163 HD
ATOM     77  O   UNL     1       8.177   3.977  -4.398  1.00  0.00    -0.274 OA
BRANCH  75  78
ATOM     78  C   UNL     1       6.294   5.415  -4.619  1.00  0.00     0.127 C 
ATOM     79  C   UNL     1       6.632   6.687  -3.796  1.00  0.00     0.042 C 
ATOM     80  C   UNL     1       4.809   5.422  -4.646  1.00  0.00     0.031 A 
ATOM     81  C   UNL     1       5.329   7.474  -3.620  1.00  0.00     0.124 C 
ATOM     82  N   UNL     1       4.303   6.551  -4.064  1.00  0.00    -0.341 N 
ATOM     83  C   UNL     1       3.752   4.696  -5.127  1.00  0.00     0.025 A 
ATOM     84  C   UNL     1       2.946   6.503  -3.965  1.00  0.00     0.090 A 
ATOM     85  C   UNL     1       2.581   5.329  -4.621  1.00  0.00     0.032 A 
BRANCH  84  86
ATOM     86  C   UNL     1       2.059   7.433  -3.288  1.00  0.00     0.209 C 
ATOM     87  O   UNL     1       1.010   7.087  -2.749  1.00  0.00    -0.287 OA
BRANCH  86  88
ATOM     88  C   UNL     1       2.399   8.875  -3.248  1.00  0.00     0.024 A 
ATOM     89  C   UNL     1       2.273   9.571  -2.042  1.00  0.00     0.012 A 
ATOM     90  C   UNL     1       2.805   9.544  -4.409  1.00  0.00     0.012 A 
ATOM     91  C   UNL     1       2.597  10.927  -1.988  1.00  0.00     0.001 A 
ATOM     92  C   UNL     1       3.130  10.899  -4.349  1.00  0.00     0.001 A 
ATOM     93  C   UNL     1       3.031  11.587  -3.139  1.00  0.00     0.000 A 
ENDBRANCH  86  88
ENDBRANCH  84  86
ENDBRANCH  75  78
ENDBRANCH  73  74
ENDBRANCH  72  73
ENDBRANCH   1  72
TORSDOF 16
