REMARK SMILES COc1ccc(OC)c(-c2cc(C(=O)NCCCCNC(=O)c3ccc(-c4c5nc(c(-c6cccc(S(=O)(=O)[O-])c6F)c6ccc([nH]6)c(-c6cccc(S(=O)(=O)[O-])c6F)c6nc(c(-c7cccc(S(=O)(=O)[O-])c7F)c7ccc4[nH]7)C=C6)C=C5)cc3)ccn2)c1
REMARK SMILES IDX 18 1 17 2 16 3 15 4 13 5 14 6 12 8 10 9 11 10 88 11 87 12
REMARK SMILES IDX 86 13 9 14 3 15 4 16 89 17 5 18 6 19 2 20 1 21 7 22 8 23
REMARK SMILES IDX 19 24 20 25 21 26 22 28 23 29 24 30 85 31 25 32 84 33 26 34
REMARK SMILES IDX 27 35 28 36 78 37 29 38 83 39 77 40 79 41 30 42 82 43 76 44
REMARK SMILES IDX 75 45 31 47 63 48 43 49 62 50 44 51 47 52 61 53 80 54 45 55
REMARK SMILES IDX 46 56 60 58 81 59 48 60 32 61 33 62 41 63 34 64 36 65 42 66
REMARK SMILES IDX 35 67 37 68 38 69 39 70 40 71 64 72 65 73 73 74 66 75 68 76
REMARK SMILES IDX 74 77 67 78 69 79 70 80 71 81 72 82 49 83 50 84 58 85 51 86
REMARK SMILES IDX 53 87 59 88 52 89 54 90 55 91 56 92 57 93
REMARK H PARENT 15 7 20 27 79 46 47 57
REMARK Flexibility Score: inf
ROOT
ATOM      1  C   UNL     1       5.635  -6.643   1.695  1.00  0.00     0.023 C 
ENDROOT
BRANCH   1   2
ATOM      2  C   UNL     1       5.033  -5.706   0.644  1.00  0.00     0.023 C 
BRANCH   2   3
ATOM      3  C   UNL     1       5.883  -4.468   0.348  1.00  0.00     0.116 C 
BRANCH   3   4
ATOM      4  N   UNL     1       6.955  -4.791  -0.577  1.00  0.00    -0.352 N 
ATOM      5  C   UNL     1       7.087  -4.613  -1.930  1.00  0.00     0.251 C 
ATOM      6  O   UNL     1       8.143  -4.947  -2.465  1.00  0.00    -0.269 OA
ATOM      7  H   UNL     1       7.734  -5.219  -0.152  1.00  0.00     0.163 HD
BRANCH   5   8
ATOM      8  C   UNL     1       6.039  -3.978  -2.772  1.00  0.00     0.043 A 
ATOM      9  C   UNL     1       3.794  -3.334  -3.311  1.00  0.00     0.075 A 
ATOM     10  C   UNL     1       4.675  -4.061  -2.517  1.00  0.00     0.043 A 
ATOM     11  N   UNL     1       4.202  -2.605  -4.376  1.00  0.00    -0.256 NA
ATOM     12  C   UNL     1       5.521  -2.616  -4.663  1.00  0.00     0.112 A 
ATOM     13  C   UNL     1       6.467  -3.269  -3.895  1.00  0.00     0.034 A 
BRANCH   9  14
ATOM     14  C   UNL     1       2.378  -3.232  -2.943  1.00  0.00     0.046 A 
ATOM     15  C   UNL     1       0.779  -2.166  -1.405  1.00  0.00     0.119 A 
ATOM     16  C   UNL     1      -0.210  -3.033  -1.849  1.00  0.00     0.050 A 
ATOM     17  C   UNL     1       2.058  -2.266  -1.951  1.00  0.00     0.060 A 
ATOM     18  C   UNL     1       0.072  -3.968  -2.845  1.00  0.00     0.051 A 
ATOM     19  C   UNL     1       1.356  -4.081  -3.403  1.00  0.00     0.128 A 
BRANCH  15  20
ATOM     20  O   UNL     1       0.403  -1.321  -0.400  1.00  0.00    -0.497 OA
ATOM     21  C   UNL     1       1.161  -0.124  -0.263  1.00  0.00     0.278 C 
ENDBRANCH  15  20
BRANCH  19  22
ATOM     22  O   UNL     1       1.425  -5.111  -4.303  1.00  0.00    -0.496 OA
ATOM     23  C   UNL     1       2.462  -5.117  -5.271  1.00  0.00     0.278 C 
ENDBRANCH  19  22
ENDBRANCH   9  14
ENDBRANCH   5   8
ENDBRANCH   3   4
ENDBRANCH   2   3
ENDBRANCH   1   2
BRANCH   1  24
ATOM     24  C   UNL     1       5.753  -6.047   3.095  1.00  0.00     0.116 C 
BRANCH  24  25
ATOM     25  N   UNL     1       4.481  -5.594   3.636  1.00  0.00    -0.352 N 
ATOM     26  C   UNL     1       4.087  -5.527   4.952  1.00  0.00     0.251 C 
ATOM     27  H   UNL     1       3.815  -5.297   2.975  1.00  0.00     0.163 HD
ATOM     28  O   UNL     1       2.937  -5.216   5.236  1.00  0.00    -0.269 OA
BRANCH  26  29
ATOM     29  C   UNL     1       5.052  -5.877   6.017  1.00  0.00     0.039 A 
ATOM     30  C   UNL     1       4.657  -6.780   7.007  1.00  0.00     0.014 A 
ATOM     31  C   UNL     1       6.342  -5.341   6.022  1.00  0.00     0.014 A 
ATOM     32  C   UNL     1       5.580  -7.195   7.969  1.00  0.00     0.010 A 
ATOM     33  C   UNL     1       7.278  -5.805   6.941  1.00  0.00     0.010 A 
ATOM     34  C   UNL     1       6.907  -6.735   7.924  1.00  0.00    -0.014 A 
BRANCH  34  35
ATOM     35  C   UNL     1       7.923  -7.235   8.883  1.00  0.00     0.031 A 
ATOM     36  C   UNL     1       8.569  -6.298   9.865  1.00  0.00     0.074 A 
ATOM     37  C   UNL     1       8.327  -8.518   8.807  1.00  0.00     0.049 A 
ATOM     38  N   UNL     1       9.498  -6.548  10.751  1.00  0.00    -0.248 NA
ATOM     39  C   UNL     1       8.138  -4.891   9.827  1.00  0.00     0.031 C 
ATOM     40  C   UNL     1       7.848  -9.499   7.831  1.00  0.00     0.029 A 
ATOM     41  N   UNL     1       9.254  -9.210   9.545  1.00  0.00    -0.354 N 
ATOM     42  C   UNL     1       9.782  -5.330  11.356  1.00  0.00     0.074 A 
ATOM     43  C   UNL     1       8.957  -4.334  10.707  1.00  0.00     0.031 C 
ATOM     44  C   UNL     1       8.485 -10.664   8.028  1.00  0.00     0.029 A 
ATOM     45  C   UNL     1       9.428 -10.510   9.132  1.00  0.00     0.049 A 
ATOM     46  H   UNL     1       9.747  -8.813  10.299  1.00  0.00     0.167 HD
ATOM     47  C   UNL     1      10.626  -5.068  12.384  1.00  0.00     0.034 A 
ATOM     48  C   UNL     1      10.253 -11.471   9.591  1.00  0.00     0.034 A 
ATOM     49  C   UNL     1      11.411  -6.069  13.055  1.00  0.00     0.049 A 
ATOM     50  C   UNL     1      11.129 -11.175  10.777  1.00  0.00     0.074 A 
ATOM     51  C   UNL     1      12.231  -5.922  14.159  1.00  0.00     0.029 A 
ATOM     52  N   UNL     1      11.477  -7.403  12.682  1.00  0.00    -0.354 N 
ATOM     53  N   UNL     1      11.256 -10.056  11.449  1.00  0.00    -0.248 NA
ATOM     54  C   UNL     1      11.942 -12.284  11.298  1.00  0.00     0.031 C 
ATOM     55  C   UNL     1      12.800  -7.168  14.450  1.00  0.00     0.029 A 
ATOM     56  C   UNL     1      12.323  -8.092  13.534  1.00  0.00     0.049 A 
ATOM     57  H   UNL     1      10.994  -7.801  11.923  1.00  0.00     0.167 HD
ATOM     58  C   UNL     1      12.139 -10.331  12.486  1.00  0.00     0.074 A 
ATOM     59  C   UNL     1      12.494 -11.732  12.370  1.00  0.00     0.031 C 
ATOM     60  C   UNL     1      12.628  -9.497  13.437  1.00  0.00     0.034 A 
BRANCH  47  61
ATOM     61  C   UNL     1      10.682  -3.651  12.890  1.00  0.00     0.023 A 
ATOM     62  C   UNL     1       9.584  -3.132  13.608  1.00  0.00     0.012 A 
ATOM     63  C   UNL     1      11.822  -2.847  12.698  1.00  0.00     0.148 A 
ATOM     64  C   UNL     1       9.603  -1.826  14.093  1.00  0.00     0.002 A 
ATOM     65  C   UNL     1      11.850  -1.559  13.222  1.00  0.00     0.091 A 
ATOM     66  F   UNL     1      12.848  -3.346  11.993  1.00  0.00    -0.205 F 
ATOM     67  C   UNL     1      10.739  -1.043  13.909  1.00  0.00     0.022 A 
BRANCH  65  68
ATOM     68  S   UNL     1      13.296  -0.498  13.101  1.00  0.00     0.127 S 
ATOM     69  O   UNL     1      12.878   0.454  12.073  1.00  0.00    -0.237 OA
ATOM     70  O   UNL     1      13.384   0.062  14.450  1.00  0.00    -0.237 OA
ATOM     71  O   UNL     1      14.401  -1.373  12.736  1.00  0.00    -0.744 OA
ENDBRANCH  65  68
ENDBRANCH  47  61
BRANCH  48  72
ATOM     72  C   UNL     1      10.223 -12.826   8.973  1.00  0.00     0.023 A 
ATOM     73  C   UNL     1       9.651 -13.898   9.685  1.00  0.00     0.012 A 
ATOM     74  C   UNL     1      10.709 -13.048   7.670  1.00  0.00     0.148 A 
ATOM     75  C   UNL     1       9.588 -15.173   9.122  1.00  0.00     0.002 A 
ATOM     76  C   UNL     1      10.594 -14.308   7.094  1.00  0.00     0.091 A 
ATOM     77  F   UNL     1      11.260 -12.017   7.013  1.00  0.00    -0.205 F 
ATOM     78  C   UNL     1      10.049 -15.375   7.824  1.00  0.00     0.022 A 
BRANCH  76  79
ATOM     79  S   UNL     1      11.033 -14.624   5.380  1.00  0.00     0.127 S 
ATOM     80  O   UNL     1      12.271 -15.385   5.525  1.00  0.00    -0.237 OA
ATOM     81  O   UNL     1       9.884 -15.398   4.909  1.00  0.00    -0.237 OA
ATOM     82  O   UNL     1      11.162 -13.311   4.763  1.00  0.00    -0.744 OA
ENDBRANCH  76  79
ENDBRANCH  48  72
BRANCH  60  83
ATOM     83  C   UNL     1      13.588 -10.075  14.442  1.00  0.00     0.023 A 
ATOM     84  C   UNL     1      14.906 -10.384  14.048  1.00  0.00     0.012 A 
ATOM     85  C   UNL     1      13.210 -10.249  15.788  1.00  0.00     0.148 A 
ATOM     86  C   UNL     1      15.822 -10.887  14.971  1.00  0.00     0.002 A 
ATOM     87  C   UNL     1      14.142 -10.709  16.712  1.00  0.00     0.091 A 
ATOM     88  F   UNL     1      11.946  -9.971  16.140  1.00  0.00    -0.205 F 
ATOM     89  C   UNL     1      15.444 -11.038  16.303  1.00  0.00     0.022 A 
BRANCH  87  90
ATOM     90  S   UNL     1      13.765 -10.845  18.463  1.00  0.00     0.127 S 
ATOM     91  O   UNL     1      13.566 -12.285  18.614  1.00  0.00    -0.237 OA
ATOM     92  O   UNL     1      14.984 -10.329  19.088  1.00  0.00    -0.237 OA
ATOM     93  O   UNL     1      12.585 -10.020  18.680  1.00  0.00    -0.744 OA
ENDBRANCH  87  90
ENDBRANCH  60  83
ENDBRANCH  34  35
ENDBRANCH  26  29
ENDBRANCH  24  25
ENDBRANCH   1  24
TORSDOF 17
