REMARK SMILES CC[C@@H]1CCCN1C(=O)N[C@H]1C=C[C@@H](C(=O)NCCCCNC(=O)c2ccc(-c3c4nc(c(-c5cccc(S(=O)(=O)[O-])c5F)c5ccc([nH]5)c(-c5cccc(S(=O)(=O)[O-])c5F)c5nc(c(-c6cccc(S(=O)(=O)[O-])c6F)c6ccc3[nH]6)C=C5)C=C4)cc2)C1
REMARK SMILES IDX 19 1 18 2 17 3 15 4 16 5 14 7 11 8 12 9 88 10 13 11 10 12
REMARK SMILES IDX 8 13 9 14 7 16 3 17 4 18 5 19 6 20 2 21 1 22 20 23 21 24
REMARK SMILES IDX 22 25 23 26 24 28 25 29 26 30 87 31 27 32 86 33 28 34 29 35
REMARK SMILES IDX 30 36 80 37 31 38 85 39 79 40 81 41 32 42 84 43 78 44 77 45
REMARK SMILES IDX 33 47 65 48 45 49 64 50 46 51 49 52 63 53 82 54 47 55 48 56
REMARK SMILES IDX 62 58 83 59 50 60 34 61 35 62 43 63 36 64 38 65 44 66 37 67
REMARK SMILES IDX 39 68 40 69 41 70 42 71 66 72 67 73 75 74 68 75 70 76 76 77
REMARK SMILES IDX 69 78 71 79 72 80 73 81 74 82 51 83 52 84 60 85 53 86 55 87
REMARK SMILES IDX 61 88 54 89 56 90 57 91 58 92 59 93
REMARK H PARENT 17 6 10 15 22 27 81 46 49 57
REMARK Flexibility Score: inf
ROOT
ATOM      1  C   UNL     1       1.988   2.679   3.335  1.00  0.00     0.023 C 
ENDROOT
BRANCH   1   2
ATOM      2  C   UNL     1       0.887   3.360   2.524  1.00  0.00     0.116 C 
BRANCH   2   3
ATOM      3  N   UNL     1       1.425   4.159   1.441  1.00  0.00    -0.356 N 
ATOM      4  C   UNL     1       1.412   3.935   0.098  1.00  0.00     0.227 C 
ATOM      5  O   UNL     1       1.943   4.774  -0.635  1.00  0.00    -0.274 OA
ATOM      6  H   UNL     1       1.869   4.992   1.720  1.00  0.00     0.163 HD
BRANCH   4   7
ATOM      7  C   UNL     1       0.783   2.682  -0.511  1.00  0.00     0.103 C 
ATOM      8  C   UNL     1       0.337   0.339  -0.078  1.00  0.00     0.107 C 
ATOM      9  C   UNL     1      -0.893   1.168   0.126  1.00  0.00    -0.006 C 
ATOM     10  C   UNL     1       1.450   1.384  -0.066  1.00  0.00     0.047 C 
ATOM     11  C   UNL     1      -0.660   2.456  -0.163  1.00  0.00    -0.016 C 
BRANCH   8  12
ATOM     12  N   UNL     1       0.489  -0.623   0.969  1.00  0.00    -0.332 N 
ATOM     13  C   UNL     1       0.601  -1.943   1.086  1.00  0.00     0.318 C 
ATOM     14  O   UNL     1       0.542  -2.319   2.268  1.00  0.00    -0.249 OA
ATOM     15  H   UNL     1       0.521  -0.185   1.850  1.00  0.00     0.165 HD
BRANCH  13  16
ATOM     16  N   UNL     1       0.704  -2.857   0.084  1.00  0.00    -0.322 N 
ATOM     17  C   UNL     1       1.159  -2.945  -1.327  1.00  0.00     0.086 C 
ATOM     18  C   UNL     1       0.402  -4.198  -1.799  1.00  0.00     0.027 C 
ATOM     19  C   UNL     1       0.607  -5.153  -0.647  1.00  0.00     0.024 C 
ATOM     20  C   UNL     1       0.561  -4.240   0.567  1.00  0.00     0.122 C 
BRANCH  17  21
ATOM     21  C   UNL     1       0.996  -1.877  -2.402  1.00  0.00     0.022 C 
ATOM     22  C   UNL     1       2.188  -0.929  -2.437  1.00  0.00     0.006 C 
ENDBRANCH  17  21
ENDBRANCH  13  16
ENDBRANCH   8  12
ENDBRANCH   4   7
ENDBRANCH   2   3
ENDBRANCH   1   2
BRANCH   1  23
ATOM     23  C   UNL     1       2.694   3.585   4.337  1.00  0.00     0.023 C 
BRANCH  23  24
ATOM     24  C   UNL     1       1.764   4.340   5.272  1.00  0.00     0.116 C 
BRANCH  24  25
ATOM     25  N   UNL     1       0.784   3.490   5.937  1.00  0.00    -0.352 N 
ATOM     26  C   UNL     1       0.159   3.728   7.137  1.00  0.00     0.251 C 
ATOM     27  H   UNL     1       0.543   2.655   5.476  1.00  0.00     0.163 HD
ATOM     28  O   UNL     1      -0.590   2.895   7.637  1.00  0.00    -0.269 OA
BRANCH  26  29
ATOM     29  C   UNL     1       0.450   4.997   7.827  1.00  0.00     0.039 A 
ATOM     30  C   UNL     1       0.934   4.961   9.134  1.00  0.00     0.014 A 
ATOM     31  C   UNL     1       0.335   6.205   7.134  1.00  0.00     0.014 A 
ATOM     32  C   UNL     1       1.348   6.148   9.737  1.00  0.00     0.010 A 
ATOM     33  C   UNL     1       0.838   7.366   7.701  1.00  0.00     0.010 A 
ATOM     34  C   UNL     1       1.322   7.354   9.017  1.00  0.00    -0.014 A 
BRANCH  34  35
ATOM     35  C   UNL     1       1.745   8.629   9.641  1.00  0.00     0.031 A 
ATOM     36  C   UNL     1       0.740   9.737   9.812  1.00  0.00     0.074 A 
ATOM     37  C   UNL     1       3.034   8.816   9.983  1.00  0.00     0.049 A 
ATOM     38  N   UNL     1       0.911  10.937  10.300  1.00  0.00    -0.248 NA
ATOM     39  C   UNL     1      -0.630   9.476   9.334  1.00  0.00     0.031 C 
ATOM     40  C   UNL     1       4.117   7.852   9.775  1.00  0.00     0.029 A 
ATOM     41  N   UNL     1       3.655   9.893  10.561  1.00  0.00    -0.354 N 
ATOM     42  C   UNL     1      -0.311  11.582  10.148  1.00  0.00     0.074 A 
ATOM     43  C   UNL     1      -1.199  10.662   9.476  1.00  0.00     0.031 C 
ATOM     44  C   UNL     1       5.266   8.377  10.233  1.00  0.00     0.029 A 
ATOM     45  C   UNL     1       5.006   9.716  10.751  1.00  0.00     0.049 A 
ATOM     46  H   UNL     1       3.179  10.716  10.817  1.00  0.00     0.167 HD
ATOM     47  C   UNL     1      -0.677  12.815  10.571  1.00  0.00     0.034 A 
ATOM     48  C   UNL     1       5.923  10.540  11.292  1.00  0.00     0.034 A 
ATOM     49  C   UNL     1       0.191  13.696  11.300  1.00  0.00     0.049 A 
ATOM     50  C   UNL     1       5.470  11.869  11.836  1.00  0.00     0.074 A 
ATOM     51  C   UNL     1      -0.101  14.927  11.858  1.00  0.00     0.029 A 
ATOM     52  N   UNL     1       1.523  13.434  11.579  1.00  0.00    -0.354 N 
ATOM     53  N   UNL     1       4.269  12.398  11.833  1.00  0.00    -0.248 NA
ATOM     54  C   UNL     1       6.487  12.695  12.502  1.00  0.00     0.031 C 
ATOM     55  C   UNL     1       1.060  15.414  12.468  1.00  0.00     0.029 A 
ATOM     56  C   UNL     1       2.068  14.477  12.306  1.00  0.00     0.049 A 
ATOM     57  H   UNL     1       2.010  12.625  11.300  1.00  0.00     0.167 HD
ATOM     58  C   UNL     1       4.378  13.596  12.528  1.00  0.00     0.074 A 
ATOM     59  C   UNL     1       5.757  13.703  12.959  1.00  0.00     0.031 C 
ATOM     60  C   UNL     1       3.429  14.533  12.775  1.00  0.00     0.034 A 
BRANCH  47  61
ATOM     61  C   UNL     1      -2.098  13.244  10.313  1.00  0.00     0.023 A 
ATOM     62  C   UNL     1      -3.150  12.624  11.020  1.00  0.00     0.012 A 
ATOM     63  C   UNL     1      -2.393  14.274   9.400  1.00  0.00     0.148 A 
ATOM     64  C   UNL     1      -4.475  12.991  10.792  1.00  0.00     0.002 A 
ATOM     65  C   UNL     1      -3.714  14.668   9.213  1.00  0.00     0.091 A 
ATOM     66  F   UNL     1      -1.385  14.835   8.718  1.00  0.00    -0.205 F 
ATOM     67  C   UNL     1      -4.755  14.019   9.897  1.00  0.00     0.022 A 
BRANCH  65  68
ATOM     68  S   UNL     1      -4.174  16.036   8.144  1.00  0.00     0.127 S 
ATOM     69  O   UNL     1      -4.809  15.337   7.027  1.00  0.00    -0.237 OA
ATOM     70  O   UNL     1      -5.095  16.793   8.992  1.00  0.00    -0.237 OA
ATOM     71  O   UNL     1      -2.934  16.730   7.824  1.00  0.00    -0.744 OA
ENDBRANCH  65  68
ENDBRANCH  47  61
BRANCH  48  72
ATOM     72  C   UNL     1       7.337  10.092  11.439  1.00  0.00     0.023 A 
ATOM     73  C   UNL     1       7.837   9.799  12.723  1.00  0.00     0.012 A 
ATOM     74  C   UNL     1       8.180   9.933  10.322  1.00  0.00     0.148 A 
ATOM     75  C   UNL     1       9.160   9.391  12.897  1.00  0.00     0.002 A 
ATOM     76  C   UNL     1       9.481   9.476  10.498  1.00  0.00     0.091 A 
ATOM     77  F   UNL     1       7.689  10.225   9.110  1.00  0.00    -0.205 F 
ATOM     78  C   UNL     1       9.979   9.221  11.785  1.00  0.00     0.022 A 
BRANCH  76  79
ATOM     79  S   UNL     1      10.566   9.106   9.114  1.00  0.00     0.127 S 
ATOM     80  O   UNL     1      11.524  10.206   9.183  1.00  0.00    -0.237 OA
ATOM     81  O   UNL     1      11.101   7.797   9.489  1.00  0.00    -0.237 OA
ATOM     82  O   UNL     1       9.706   9.085   7.938  1.00  0.00    -0.744 OA
ENDBRANCH  76  79
ENDBRANCH  48  72
BRANCH  60  83
ATOM     83  C   UNL     1       3.837  15.738  13.581  1.00  0.00     0.023 A 
ATOM     84  C   UNL     1       4.667  16.719  13.003  1.00  0.00     0.012 A 
ATOM     85  C   UNL     1       3.345  15.928  14.887  1.00  0.00     0.148 A 
ATOM     86  C   UNL     1       5.035  17.851  13.728  1.00  0.00     0.002 A 
ATOM     87  C   UNL     1       3.675  17.084  15.585  1.00  0.00     0.091 A 
ATOM     88  F   UNL     1       2.573  14.975  15.428  1.00  0.00    -0.205 F 
ATOM     89  C   UNL     1       4.530  18.039  15.013  1.00  0.00     0.022 A 
BRANCH  87  90
ATOM     90  S   UNL     1       2.986  17.447  17.203  1.00  0.00     0.127 S 
ATOM     91  O   UNL     1       4.091  17.085  18.087  1.00  0.00    -0.237 OA
ATOM     92  O   UNL     1       2.719  18.883  17.117  1.00  0.00    -0.237 OA
ATOM     93  O   UNL     1       1.790  16.622  17.317  1.00  0.00    -0.744 OA
ENDBRANCH  87  90
ENDBRANCH  60  83
ENDBRANCH  34  35
ENDBRANCH  26  29
ENDBRANCH  24  25
ENDBRANCH  23  24
ENDBRANCH   1  23
TORSDOF 17
