REMARK SMILES O=C(NCCCCNC(=O)[C@H]1C[C@@H](C(=O)N2CCCC2)C[N@@H+](Cc2cccnc2)C1)c1ccc(-c2c3nc(c(-c4cccc(S(=O)(=O)[O-])c4F)c4ccc([nH]4)c(-c4cccc(S(=O)(=O)[O-])c4F)c4nc(c(-c5cccc(S(=O)(=O)[O-])c5F)c5ccc2[nH]5)C=C4)C=C3)cc1
REMARK SMILES IDX 5 1 4 2 3 3 1 4 2 5 31 7 32 8 93 9 33 10 92 11 34 12 35 13
REMARK SMILES IDX 36 14 86 15 37 16 91 17 85 18 87 19 38 20 90 21 84 22 83 23
REMARK SMILES IDX 39 25 71 26 51 27 70 28 52 29 55 30 69 31 88 32 53 33 54 34
REMARK SMILES IDX 68 36 89 37 56 38 40 39 41 40 49 41 42 42 44 43 50 44 43 45
REMARK SMILES IDX 45 46 46 47 47 48 48 49 72 50 73 51 81 52 74 53 76 54 82 55
REMARK SMILES IDX 75 56 77 57 78 58 79 59 80 60 57 61 58 62 66 63 59 64 61 65
REMARK SMILES IDX 67 66 60 67 62 68 63 69 64 70 65 71 6 72 7 73 8 74 9 75
REMARK SMILES IDX 10 77 11 78 12 79 30 80 13 81 22 82 21 83 14 85 15 86 16 87
REMARK SMILES IDX 17 88 20 89 18 90 19 91 23 92 24 93 25 94 29 95 26 96 28 97
REMARK SMILES IDX 27 98
REMARK H PARENT 3 6 87 24 55 35 8 76 22 84
REMARK Flexibility Score: inf
ROOT
ATOM      1  C   UNL     1       5.291   6.101  -4.961  1.00  0.00     0.023 C 
ENDROOT
BRANCH   1   2
ATOM      2  C   UNL     1       6.397   6.198  -6.008  1.00  0.00     0.116 C 
BRANCH   2   3
ATOM      3  N   UNL     1       6.744   4.907  -6.575  1.00  0.00    -0.352 N 
ATOM      4  O   UNL     1       7.111   3.397  -8.200  1.00  0.00    -0.269 OA
ATOM      5  C   UNL     1       6.970   4.577  -7.889  1.00  0.00     0.251 C 
ATOM      6  H   UNL     1       6.828   4.168  -5.930  1.00  0.00     0.163 HD
BRANCH   5   7
ATOM      7  C   UNL     1       7.009   5.636  -8.921  1.00  0.00     0.039 A 
ATOM      8  C   UNL     1       7.740   6.811  -8.719  1.00  0.00     0.014 A 
ATOM      9  C   UNL     1       6.312   5.441 -10.117  1.00  0.00     0.014 A 
ATOM     10  C   UNL     1       7.681   7.834  -9.662  1.00  0.00     0.010 A 
ATOM     11  C   UNL     1       6.308   6.443 -11.091  1.00  0.00     0.010 A 
ATOM     12  C   UNL     1       6.972   7.658 -10.862  1.00  0.00    -0.014 A 
BRANCH  12  13
ATOM     13  C   UNL     1       6.999   8.724 -11.896  1.00  0.00     0.031 A 
ATOM     14  C   UNL     1       5.752   9.470 -12.283  1.00  0.00     0.074 A 
ATOM     15  C   UNL     1       8.170   9.005 -12.500  1.00  0.00     0.049 A 
ATOM     16  N   UNL     1       5.612  10.439 -13.151  1.00  0.00    -0.248 NA
ATOM     17  C   UNL     1       4.499   9.076 -11.619  1.00  0.00     0.031 C 
ATOM     18  C   UNL     1       9.434   8.311 -12.246  1.00  0.00     0.029 A 
ATOM     19  N   UNL     1       8.489   9.938 -13.454  1.00  0.00    -0.354 N 
ATOM     20  C   UNL     1       4.258  10.748 -13.166  1.00  0.00     0.074 A 
ATOM     21  C   UNL     1       3.613   9.858 -12.224  1.00  0.00     0.031 C 
ATOM     22  C   UNL     1      10.395   8.852 -13.009  1.00  0.00     0.029 A 
ATOM     23  C   UNL     1       9.810   9.902 -13.835  1.00  0.00     0.049 A 
ATOM     24  H   UNL     1       7.836  10.572 -13.829  1.00  0.00     0.167 HD
ATOM     25  C   UNL     1       3.614  11.700 -13.885  1.00  0.00     0.034 A 
ATOM     26  C   UNL     1      10.477  10.626 -14.754  1.00  0.00     0.034 A 
ATOM     27  C   UNL     1       4.266  12.609 -14.791  1.00  0.00     0.049 A 
ATOM     28  C   UNL     1       9.744  11.696 -15.510  1.00  0.00     0.074 A 
ATOM     29  C   UNL     1       3.710  13.652 -15.512  1.00  0.00     0.029 A 
ATOM     30  N   UNL     1       5.616  12.582 -15.108  1.00  0.00    -0.354 N 
ATOM     31  N   UNL     1       8.491  12.066 -15.405  1.00  0.00    -0.248 NA
ATOM     32  C   UNL     1      10.520  12.468 -16.490  1.00  0.00     0.031 C 
ATOM     33  C   UNL     1       4.721  14.247 -16.274  1.00  0.00     0.029 A 
ATOM     34  C   UNL     1       5.910  13.583 -16.018  1.00  0.00     0.049 A 
ATOM     35  H   UNL     1       6.269  11.944 -14.739  1.00  0.00     0.167 HD
ATOM     36  C   UNL     1       8.333  13.129 -16.286  1.00  0.00     0.074 A 
ATOM     37  C   UNL     1       9.626  13.360 -16.896  1.00  0.00     0.031 C 
ATOM     38  C   UNL     1       7.213  13.834 -16.578  1.00  0.00     0.034 A 
BRANCH  25  39
ATOM     39  C   UNL     1       2.128  11.850 -13.685  1.00  0.00     0.023 A 
ATOM     40  C   UNL     1       1.648  12.470 -12.514  1.00  0.00     0.012 A 
ATOM     41  C   UNL     1       1.215  11.456 -14.684  1.00  0.00     0.148 A 
ATOM     42  C   UNL     1       0.281  12.676 -12.329  1.00  0.00     0.002 A 
ATOM     43  C   UNL     1      -0.143  11.697 -14.507  1.00  0.00     0.091 A 
ATOM     44  F   UNL     1       1.689  10.848 -15.781  1.00  0.00    -0.205 F 
ATOM     45  C   UNL     1      -0.612  12.300 -13.328  1.00  0.00     0.022 A 
BRANCH  43  46
ATOM     46  S   UNL     1      -1.364  11.312 -15.768  1.00  0.00     0.127 S 
ATOM     47  O   UNL     1      -2.000  10.120 -15.209  1.00  0.00    -0.237 OA
ATOM     48  O   UNL     1      -2.206  12.509 -15.763  1.00  0.00    -0.237 OA
ATOM     49  O   UNL     1      -0.614  11.106 -16.999  1.00  0.00    -0.744 OA
ENDBRANCH  43  46
ENDBRANCH  25  39
BRANCH  26  50
ATOM     50  C   UNL     1      11.934  10.393 -14.956  1.00  0.00     0.023 A 
ATOM     51  C   UNL     1      12.856  11.365 -14.522  1.00  0.00     0.012 A 
ATOM     52  C   UNL     1      12.413   9.192 -15.514  1.00  0.00     0.148 A 
ATOM     53  C   UNL     1      14.228  11.152 -14.658  1.00  0.00     0.002 A 
ATOM     54  C   UNL     1      13.781   8.962 -15.593  1.00  0.00     0.091 A 
ATOM     55  F   UNL     1      11.520   8.287 -15.940  1.00  0.00    -0.205 F 
ATOM     56  C   UNL     1      14.691   9.947 -15.180  1.00  0.00     0.022 A 
BRANCH  54  57
ATOM     57  S   UNL     1      14.450   7.378 -16.112  1.00  0.00     0.127 S 
ATOM     58  O   UNL     1      14.865   7.661 -17.482  1.00  0.00    -0.237 OA
ATOM     59  O   UNL     1      15.547   7.181 -15.163  1.00  0.00    -0.237 OA
ATOM     60  O   UNL     1      13.354   6.429 -15.957  1.00  0.00    -0.744 OA
ENDBRANCH  54  57
ENDBRANCH  26  50
BRANCH  38  61
ATOM     61  C   UNL     1       7.336  14.938 -17.594  1.00  0.00     0.023 A 
ATOM     62  C   UNL     1       7.454  14.613 -18.960  1.00  0.00     0.012 A 
ATOM     63  C   UNL     1       7.269  16.290 -17.206  1.00  0.00     0.148 A 
ATOM     64  C   UNL     1       7.531  15.618 -19.923  1.00  0.00     0.002 A 
ATOM     65  C   UNL     1       7.304  17.286 -18.175  1.00  0.00     0.091 A 
ATOM     66  F   UNL     1       7.180  16.578 -15.900  1.00  0.00    -0.205 F 
ATOM     67  C   UNL     1       7.445  16.953 -19.532  1.00  0.00     0.022 A 
BRANCH  65  68
ATOM     68  S   UNL     1       7.111  19.024 -17.766  1.00  0.00     0.127 S 
ATOM     69  O   UNL     1       8.487  19.508 -17.860  1.00  0.00    -0.237 OA
ATOM     70  O   UNL     1       6.223  19.500 -18.828  1.00  0.00    -0.237 OA
ATOM     71  O   UNL     1       6.522  19.055 -16.434  1.00  0.00    -0.744 OA
ENDBRANCH  65  68
ENDBRANCH  38  61
ENDBRANCH  12  13
ENDBRANCH   5   7
ENDBRANCH   2   3
ENDBRANCH   1   2
BRANCH   1  72
ATOM     72  C   UNL     1       5.600   5.211  -3.746  1.00  0.00     0.023 C 
BRANCH  72  73
ATOM     73  C   UNL     1       6.940   5.500  -3.065  1.00  0.00     0.116 C 
BRANCH  73  74
ATOM     74  N   UNL     1       7.017   6.888  -2.671  1.00  0.00    -0.356 N 
ATOM     75  C   UNL     1       6.873   7.557  -1.511  1.00  0.00     0.228 C 
ATOM     76  H   UNL     1       7.223   7.485  -3.427  1.00  0.00     0.163 HD
ATOM     77  O   UNL     1       6.813   8.787  -1.648  1.00  0.00    -0.275 OA
BRANCH  75  78
ATOM     78  C   UNL     1       6.905   6.923  -0.112  1.00  0.00     0.134 C 
ATOM     79  C   UNL     1       6.493   8.047   0.861  1.00  0.00     0.038 C 
ATOM     80  C   UNL     1       5.998   5.712   0.142  1.00  0.00     0.276 C 
ATOM     81  C   UNL     1       6.372   7.612   2.316  1.00  0.00     0.134 C 
ATOM     82  N   UNL     1       6.052   5.303   1.556  1.00  0.00    -0.330 N 
ATOM     83  C   UNL     1       5.541   6.342   2.464  1.00  0.00     0.276 C 
ATOM     84  H   UNL     1       7.046   5.210   1.766  1.00  0.00     0.348 HD
BRANCH  81  85
ATOM     85  C   UNL     1       5.923   8.699   3.303  1.00  0.00     0.231 C 
ATOM     86  O   UNL     1       6.109   8.542   4.513  1.00  0.00    -0.274 OA
ATOM     87  N   UNL     1       5.505   9.908   2.811  1.00  0.00    -0.342 N 
ATOM     88  C   UNL     1       4.404  10.200   1.911  1.00  0.00     0.119 C 
ATOM     89  C   UNL     1       6.186  11.130   3.185  1.00  0.00     0.119 C 
ATOM     90  C   UNL     1       4.944  11.375   1.116  1.00  0.00     0.023 C 
ATOM     91  C   UNL     1       5.696  12.177   2.182  1.00  0.00     0.023 C 
ENDBRANCH  81  85
BRANCH  82  92
ATOM     92  C   UNL     1       5.522   3.961   1.827  1.00  0.00     0.300 C 
BRANCH  92  93
ATOM     93  C   UNL     1       4.024   3.817   1.823  1.00  0.00     0.025 A 
ATOM     94  C   UNL     1       3.286   3.749   0.640  1.00  0.00     0.013 A 
ATOM     95  C   UNL     1       3.316   3.752   3.021  1.00  0.00     0.120 A 
ATOM     96  C   UNL     1       1.899   3.651   0.696  1.00  0.00     0.021 A 
ATOM     97  N   UNL     1       1.971   3.645   3.107  1.00  0.00    -0.264 NA
ATOM     98  C   UNL     1       1.294   3.605   1.940  1.00  0.00     0.111 A 
ENDBRANCH  92  93
ENDBRANCH  82  92
ENDBRANCH  75  78
ENDBRANCH  73  74
ENDBRANCH  72  73
ENDBRANCH   1  72
TORSDOF 17
