REMARK SMILES O=C(NCCCCNC(=O)[C@H]1CCCN(c2cc(-c3ccccn3)nc(-c3ccccc3F)n2)C1)c1ccc(-c2c3nc(c(-c4cccc(S(=O)(=O)[O-])c4F)c4ccc([nH]4)c(-c4cccc(S(=O)(=O)[O-])c4F)c4nc(c(-c5cccc(S(=O)(=O)[O-])c5F)c5ccc2[nH]5)C=C4)C=C3)cc1
REMARK SMILES IDX 5 1 4 2 3 3 1 4 2 5 36 7 37 8 98 9 38 10 97 11 39 12 40 13
REMARK SMILES IDX 41 14 91 15 42 16 96 17 90 18 92 19 43 20 95 21 89 22 88 23
REMARK SMILES IDX 44 25 76 26 56 27 75 28 57 29 60 30 74 31 93 32 58 33 59 34
REMARK SMILES IDX 73 36 94 37 61 38 45 39 46 40 54 41 47 42 49 43 55 44 48 45
REMARK SMILES IDX 50 46 51 47 52 48 53 49 77 50 78 51 86 52 79 53 81 54 87 55
REMARK SMILES IDX 80 56 82 57 83 58 84 59 85 60 62 61 63 62 71 63 64 64 66 65
REMARK SMILES IDX 72 66 65 67 67 68 68 69 69 70 70 71 6 72 7 73 8 74 9 75
REMARK SMILES IDX 10 77 11 78 12 79 35 80 13 81 15 82 14 83 16 84 17 85 34 86
REMARK SMILES IDX 18 87 26 88 25 89 19 90 20 91 24 92 21 93 23 94 22 95 27 96
REMARK SMILES IDX 28 97 32 98 29 99 31 100 33 101 30 102
REMARK H PARENT 3 6 92 24 60 35 8 76
REMARK Flexibility Score: inf
ROOT
ATOM      1  C   UNL     1       6.501  -4.692  10.252  1.00  0.00     0.023 C 
ENDROOT
BRANCH   1   2
ATOM      2  C   UNL     1       5.276  -5.128  11.045  1.00  0.00     0.116 C 
BRANCH   2   3
ATOM      3  N   UNL     1       5.247  -6.559  11.299  1.00  0.00    -0.352 N 
ATOM      4  O   UNL     1       5.104  -8.432  12.536  1.00  0.00    -0.269 OA
ATOM      5  C   UNL     1       4.945  -7.222  12.465  1.00  0.00     0.251 C 
ATOM      6  H   UNL     1       5.476  -7.131  10.531  1.00  0.00     0.163 HD
BRANCH   5   7
ATOM      7  C   UNL     1       4.457  -6.452  13.630  1.00  0.00     0.039 A 
ATOM      8  C   UNL     1       3.438  -5.506  13.485  1.00  0.00     0.014 A 
ATOM      9  C   UNL     1       5.034  -6.685  14.880  1.00  0.00     0.014 A 
ATOM     10  C   UNL     1       3.071  -4.714  14.569  1.00  0.00     0.010 A 
ATOM     11  C   UNL     1       4.621  -5.931  15.980  1.00  0.00     0.010 A 
ATOM     12  C   UNL     1       3.652  -4.927  15.829  1.00  0.00    -0.014 A 
BRANCH  12  13
ATOM     13  C   UNL     1       3.191  -4.151  17.005  1.00  0.00     0.031 A 
ATOM     14  C   UNL     1       4.111  -3.187  17.701  1.00  0.00     0.074 A 
ATOM     15  C   UNL     1       1.940  -4.351  17.462  1.00  0.00     0.049 A 
ATOM     16  N   UNL     1       3.907  -2.505  18.798  1.00  0.00    -0.248 NA
ATOM     17  C   UNL     1       5.431  -2.958  17.090  1.00  0.00     0.031 C 
ATOM     18  C   UNL     1       0.963  -5.267  16.868  1.00  0.00     0.029 A 
ATOM     19  N   UNL     1       1.280  -3.814  18.537  1.00  0.00    -0.354 N 
ATOM     20  C   UNL     1       5.076  -1.791  19.029  1.00  0.00     0.074 A 
ATOM     21  C   UNL     1       5.991  -2.122  17.956  1.00  0.00     0.031 C 
ATOM     22  C   UNL     1      -0.171  -5.226  17.582  1.00  0.00     0.029 A 
ATOM     23  C   UNL     1       0.015  -4.326  18.714  1.00  0.00     0.049 A 
ATOM     24  H   UNL     1       1.672  -3.129  19.125  1.00  0.00     0.167 HD
ATOM     25  C   UNL     1       5.352  -0.928  20.035  1.00  0.00     0.034 A 
ATOM     26  C   UNL     1      -0.884  -4.116  19.695  1.00  0.00     0.034 A 
ATOM     27  C   UNL     1       4.426  -0.583  21.082  1.00  0.00     0.049 A 
ATOM     28  C   UNL     1      -0.537  -3.166  20.806  1.00  0.00     0.074 A 
ATOM     29  C   UNL     1       4.611   0.293  22.137  1.00  0.00     0.029 A 
ATOM     30  N   UNL     1       3.141  -1.089  21.204  1.00  0.00    -0.354 N 
ATOM     31  N   UNL     1       0.546  -2.445  20.966  1.00  0.00    -0.248 NA
ATOM     32  C   UNL     1      -1.543  -2.985  21.861  1.00  0.00     0.031 C 
ATOM     33  C   UNL     1       3.441   0.312  22.902  1.00  0.00     0.029 A 
ATOM     34  C   UNL     1       2.521  -0.542  22.315  1.00  0.00     0.049 A 
ATOM     35  H   UNL     1       2.730  -1.742  20.592  1.00  0.00     0.167 HD
ATOM     36  C   UNL     1       0.342  -1.707  22.125  1.00  0.00     0.074 A 
ATOM     37  C   UNL     1      -0.982  -2.045  22.608  1.00  0.00     0.031 C 
ATOM     38  C   UNL     1       1.183  -0.847  22.750  1.00  0.00     0.034 A 
BRANCH  25  39
ATOM     39  C   UNL     1       6.692  -0.240  20.040  1.00  0.00     0.023 A 
ATOM     40  C   UNL     1       6.907   0.847  19.170  1.00  0.00     0.012 A 
ATOM     41  C   UNL     1       7.680  -0.578  20.987  1.00  0.00     0.148 A 
ATOM     42  C   UNL     1       8.088   1.585  19.237  1.00  0.00     0.002 A 
ATOM     43  C   UNL     1       8.840   0.184  21.071  1.00  0.00     0.091 A 
ATOM     44  F   UNL     1       7.456  -1.623  21.796  1.00  0.00    -0.205 F 
ATOM     45  C   UNL     1       9.047   1.262  20.194  1.00  0.00     0.022 A 
BRANCH  43  46
ATOM     46  S   UNL     1      10.108  -0.099  22.312  1.00  0.00     0.127 S 
ATOM     47  O   UNL     1      11.257  -0.462  21.482  1.00  0.00    -0.237 OA
ATOM     48  O   UNL     1      10.208   1.212  22.952  1.00  0.00    -0.237 OA
ATOM     49  O   UNL     1       9.606  -1.165  23.168  1.00  0.00    -0.744 OA
ENDBRANCH  43  46
ENDBRANCH  25  39
BRANCH  26  50
ATOM     50  C   UNL     1      -2.212  -4.788  19.643  1.00  0.00     0.023 A 
ATOM     51  C   UNL     1      -3.365  -4.013  19.414  1.00  0.00     0.012 A 
ATOM     52  C   UNL     1      -2.340  -6.184  19.781  1.00  0.00     0.148 A 
ATOM     53  C   UNL     1      -4.623  -4.612  19.351  1.00  0.00     0.002 A 
ATOM     54  C   UNL     1      -3.589  -6.781  19.656  1.00  0.00     0.091 A 
ATOM     55  F   UNL     1      -1.236  -6.906  20.022  1.00  0.00    -0.205 F 
ATOM     56  C   UNL     1      -4.734  -5.996  19.458  1.00  0.00     0.022 A 
BRANCH  54  57
ATOM     57  S   UNL     1      -3.789  -8.566  19.634  1.00  0.00     0.127 S 
ATOM     58  O   UNL     1      -4.247  -8.834  20.994  1.00  0.00    -0.237 OA
ATOM     59  O   UNL     1      -4.802  -8.752  18.594  1.00  0.00    -0.237 OA
ATOM     60  O   UNL     1      -2.476  -9.093  19.284  1.00  0.00    -0.744 OA
ENDBRANCH  54  57
ENDBRANCH  26  50
BRANCH  38  61
ATOM     61  C   UNL     1       0.695  -0.196  24.015  1.00  0.00     0.023 A 
ATOM     62  C   UNL     1       0.610  -0.957  25.198  1.00  0.00     0.012 A 
ATOM     63  C   UNL     1       0.386   1.177  24.052  1.00  0.00     0.148 A 
ATOM     64  C   UNL     1       0.194  -0.368  26.391  1.00  0.00     0.002 A 
ATOM     65  C   UNL     1       0.016   1.768  25.255  1.00  0.00     0.091 A 
ATOM     66  F   UNL     1       0.450   1.881  22.912  1.00  0.00    -0.205 F 
ATOM     67  C   UNL     1      -0.091   0.995  26.422  1.00  0.00     0.022 A 
BRANCH  65  68
ATOM     68  S   UNL     1      -0.274   3.535  25.397  1.00  0.00     0.127 S 
ATOM     69  O   UNL     1      -1.733   3.603  25.358  1.00  0.00    -0.237 OA
ATOM     70  O   UNL     1       0.316   3.849  26.699  1.00  0.00    -0.237 OA
ATOM     71  O   UNL     1       0.419   4.138  24.266  1.00  0.00    -0.744 OA
ENDBRANCH  65  68
ENDBRANCH  38  61
ENDBRANCH  12  13
ENDBRANCH   5   7
ENDBRANCH   2   3
ENDBRANCH   1   2
BRANCH   1  72
ATOM     72  C   UNL     1       6.670  -5.373   8.895  1.00  0.00     0.023 C 
BRANCH  72  73
ATOM     73  C   UNL     1       5.544  -5.100   7.897  1.00  0.00     0.116 C 
BRANCH  73  74
ATOM     74  N   UNL     1       5.631  -3.756   7.352  1.00  0.00    -0.356 N 
ATOM     75  C   UNL     1       6.143  -3.289   6.178  1.00  0.00     0.224 C 
ATOM     76  H   UNL     1       5.253  -3.058   7.934  1.00  0.00     0.163 HD
ATOM     77  O   UNL     1       6.137  -2.066   6.011  1.00  0.00    -0.275 OA
BRANCH  75  78
ATOM     78  C   UNL     1       6.649  -4.212   5.074  1.00  0.00     0.098 C 
ATOM     79  C   UNL     1       7.805  -5.125   5.505  1.00  0.00     0.017 C 
ATOM     80  C   UNL     1       5.451  -4.923   4.438  1.00  0.00     0.131 C 
ATOM     81  C   UNL     1       8.102  -6.222   4.487  1.00  0.00     0.022 C 
ATOM     82  N   UNL     1       5.839  -6.069   3.622  1.00  0.00    -0.356 N 
ATOM     83  C   UNL     1       6.826  -6.992   4.163  1.00  0.00     0.118 C 
BRANCH  82  84
ATOM     84  C   UNL     1       5.774  -5.955   2.242  1.00  0.00     0.133 A 
ATOM     85  C   UNL     1       5.263  -7.015   1.526  1.00  0.00     0.077 A 
ATOM     86  N   UNL     1       6.180  -4.832   1.634  1.00  0.00    -0.211 NA
ATOM     87  C   UNL     1       5.147  -6.870   0.160  1.00  0.00     0.095 A 
ATOM     88  C   UNL     1       6.061  -4.782   0.291  1.00  0.00     0.165 A 
ATOM     89  N   UNL     1       5.550  -5.756  -0.481  1.00  0.00    -0.226 NA
BRANCH  87  90
ATOM     90  C   UNL     1       4.522  -7.935  -0.632  1.00  0.00     0.089 A 
ATOM     91  C   UNL     1       3.167  -8.240  -0.475  1.00  0.00     0.030 A 
ATOM     92  N   UNL     1       5.343  -8.676  -1.420  1.00  0.00    -0.255 NA
ATOM     93  C   UNL     1       2.637  -9.339  -1.142  1.00  0.00     0.004 A 
ATOM     94  C   UNL     1       4.797  -9.730  -2.066  1.00  0.00     0.112 A 
ATOM     95  C   UNL     1       3.467 -10.102  -1.953  1.00  0.00     0.020 A 
ENDBRANCH  87  90
BRANCH  88  96
ATOM     96  C   UNL     1       6.613  -3.608  -0.383  1.00  0.00     0.055 A 
ATOM     97  C   UNL     1       7.934  -3.188  -0.137  1.00  0.00     0.015 A 
ATOM     98  C   UNL     1       5.860  -2.869  -1.302  1.00  0.00     0.134 A 
ATOM     99  C   UNL     1       8.479  -2.082  -0.799  1.00  0.00     0.001 A 
ATOM    100  C   UNL     1       6.394  -1.758  -1.959  1.00  0.00     0.040 A 
ATOM    101  F   UNL     1       4.584  -3.196  -1.559  1.00  0.00    -0.206 F 
ATOM    102  C   UNL     1       7.707  -1.366  -1.711  1.00  0.00     0.003 A 
ENDBRANCH  88  96
ENDBRANCH  82  84
ENDBRANCH  75  78
ENDBRANCH  73  74
ENDBRANCH  72  73
ENDBRANCH   1  72
TORSDOF 17
