REMARK SMILES CCn1ncc(NC(=O)[C@@H]2CCCC[C@@H]2C(=O)NCCCCNC(=O)c2ccc(-c3c4nc(c(-c5cccc(S(=O)(=O)[O-])c5F)c5ccc([nH]5)c(-c5cccc(S(=O)(=O)[O-])c5F)c5nc(c(-c6cccc(S(=O)(=O)[O-])c6F)c6ccc3[nH]6)C=C5)C=C4)cc2)c1C(=O)Nc1cnn(C)c1C
REMARK SMILES IDX 20 1 19 2 18 3 16 4 17 5 15 7 10 8 11 9 12 10 14 11 13 12
REMARK SMILES IDX 8 13 7 14 9 16 6 17 3 18 4 19 89 20 5 21 2 22 1 23 90 24
REMARK SMILES IDX 91 25 92 26 93 28 94 29 98 30 95 31 96 32 99 33 97 34 21 35
REMARK SMILES IDX 22 36 23 37 24 38 25 40 26 41 27 42 88 43 28 44 87 45 29 46
REMARK SMILES IDX 30 47 31 48 81 49 32 50 86 51 80 52 82 53 33 54 85 55 79 56
REMARK SMILES IDX 78 57 34 59 66 60 46 61 65 62 47 63 50 64 64 65 83 66 48 67
REMARK SMILES IDX 49 68 63 70 84 71 51 72 35 73 36 74 44 75 37 76 39 77 45 78
REMARK SMILES IDX 38 79 40 80 41 81 42 82 43 83 67 84 68 85 76 86 69 87 71 88
REMARK SMILES IDX 77 89 70 90 72 91 73 92 74 93 75 94 52 95 53 96 61 97 54 98
REMARK SMILES IDX 56 99 62 100 55 101 57 102 58 103 59 104 60 105
REMARK H PARENT 18 6 7 15 92 27 23 39 82 58 50 69
REMARK Flexibility Score: inf
ROOT
ATOM      1  C   UNL     1      -3.855 -10.450   1.131  1.00  0.00     0.023 C 
ENDROOT
BRANCH   1   2
ATOM      2  C   UNL     1      -3.589  -9.116   0.433  1.00  0.00     0.116 C 
BRANCH   2   3
ATOM      3  N   UNL     1      -3.368  -8.061   1.392  1.00  0.00    -0.356 N 
ATOM      4  C   UNL     1      -2.237  -7.356   1.652  1.00  0.00     0.223 C 
ATOM      5  O   UNL     1      -2.123  -6.920   2.799  1.00  0.00    -0.275 OA
ATOM      6  H   UNL     1      -4.151  -7.817   1.937  1.00  0.00     0.163 HD
BRANCH   4   7
ATOM      7  C   UNL     1      -1.165  -7.140   0.569  1.00  0.00     0.091 C 
ATOM      8  C   UNL     1      -0.281  -5.907   0.929  1.00  0.00     0.091 C 
ATOM      9  C   UNL     1      -1.193  -4.675   1.070  1.00  0.00     0.014 C 
ATOM     10  C   UNL     1      -1.845  -4.393  -0.275  1.00  0.00     0.001 C 
ATOM     11  C   UNL     1      -1.732  -6.839  -0.841  1.00  0.00     0.014 C 
ATOM     12  C   UNL     1      -2.592  -5.578  -0.860  1.00  0.00     0.001 C 
BRANCH   8  13
ATOM     13  C   UNL     1       0.740  -6.160   2.032  1.00  0.00     0.228 C 
ATOM     14  N   UNL     1       1.590  -5.183   2.476  1.00  0.00    -0.322 N 
ATOM     15  H   UNL     1       2.171  -5.473   3.216  1.00  0.00     0.170 HD
ATOM     16  O   UNL     1       0.875  -7.284   2.533  1.00  0.00    -0.274 OA
BRANCH  14  17
ATOM     17  C   UNL     1       1.797  -3.865   2.091  1.00  0.00     0.092 A 
ATOM     18  N   UNL     1       1.540  -1.881   1.285  1.00  0.00    -0.258 N 
ATOM     19  N   UNL     1       2.188  -1.655   2.459  1.00  0.00    -0.178 NA
ATOM     20  C   UNL     1       1.719  -3.193   0.860  1.00  0.00     0.150 A 
ATOM     21  C   UNL     1       2.217  -2.869   3.002  1.00  0.00     0.162 A 
BRANCH  18  22
ATOM     22  C   UNL     1       0.459  -0.953   0.969  1.00  0.00     0.142 C 
ATOM     23  C   UNL     1       0.962   0.466   0.765  1.00  0.00     0.029 C 
ENDBRANCH  18  22
BRANCH  20  24
ATOM     24  C   UNL     1       1.806  -3.770  -0.478  1.00  0.00     0.276 C 
ATOM     25  O   UNL     1       2.381  -4.850  -0.658  1.00  0.00    -0.267 OA
ATOM     26  N   UNL     1       1.111  -3.287  -1.564  1.00  0.00    -0.318 N 
ATOM     27  H   UNL     1       0.663  -3.978  -2.103  1.00  0.00     0.170 HD
BRANCH  26  28
ATOM     28  C   UNL     1       0.936  -2.007  -2.024  1.00  0.00     0.082 A 
ATOM     29  C   UNL     1       1.851  -0.942  -2.083  1.00  0.00     0.161 A 
ATOM     30  C   UNL     1      -0.227  -1.517  -2.592  1.00  0.00     0.059 A 
ATOM     31  N   UNL     1       1.296   0.173  -2.566  1.00  0.00    -0.179 NA
ATOM     32  N   UNL     1      -0.006  -0.164  -2.713  1.00  0.00    -0.271 N 
ATOM     33  C   UNL     1      -1.569  -2.119  -2.825  1.00  0.00     0.068 C 
ATOM     34  C   UNL     1      -0.994   0.886  -2.833  1.00  0.00     0.174 C 
ENDBRANCH  26  28
ENDBRANCH  20  24
ENDBRANCH  14  17
ENDBRANCH   8  13
ENDBRANCH   4   7
ENDBRANCH   2   3
ENDBRANCH   1   2
BRANCH   1  35
ATOM     35  C   UNL     1      -5.047 -10.483   2.095  1.00  0.00     0.023 C 
BRANCH  35  36
ATOM     36  C   UNL     1      -6.366 -10.078   1.462  1.00  0.00     0.116 C 
BRANCH  36  37
ATOM     37  N   UNL     1      -6.767 -10.962   0.365  1.00  0.00    -0.352 N 
ATOM     38  C   UNL     1      -7.926 -10.894  -0.395  1.00  0.00     0.251 C 
ATOM     39  H   UNL     1      -6.142 -11.689   0.141  1.00  0.00     0.163 HD
ATOM     40  O   UNL     1      -8.317 -11.835  -1.053  1.00  0.00    -0.269 OA
BRANCH  38  41
ATOM     41  C   UNL     1      -8.653  -9.612  -0.392  1.00  0.00     0.039 A 
ATOM     42  C   UNL     1     -10.038  -9.537  -0.218  1.00  0.00     0.014 A 
ATOM     43  C   UNL     1      -7.874  -8.466  -0.487  1.00  0.00     0.014 A 
ATOM     44  C   UNL     1     -10.622  -8.280  -0.075  1.00  0.00     0.010 A 
ATOM     45  C   UNL     1      -8.414  -7.267  -0.130  1.00  0.00     0.010 A 
ATOM     46  C   UNL     1      -9.795  -7.150  -0.026  1.00  0.00    -0.014 A 
BRANCH  46  47
ATOM     47  C   UNL     1     -10.318  -5.810   0.197  1.00  0.00     0.031 A 
ATOM     48  C   UNL     1     -11.061  -5.627   1.472  1.00  0.00     0.074 A 
ATOM     49  C   UNL     1      -9.903  -4.772  -0.565  1.00  0.00     0.049 A 
ATOM     50  N   UNL     1     -12.315  -5.355   1.627  1.00  0.00    -0.248 NA
ATOM     51  C   UNL     1     -10.356  -5.912   2.733  1.00  0.00     0.031 C 
ATOM     52  C   UNL     1      -8.896  -4.779  -1.641  1.00  0.00     0.029 A 
ATOM     53  N   UNL     1     -10.161  -3.448  -0.419  1.00  0.00    -0.354 N 
ATOM     54  C   UNL     1     -12.494  -5.182   2.999  1.00  0.00     0.074 A 
ATOM     55  C   UNL     1     -11.334  -5.756   3.628  1.00  0.00     0.031 C 
ATOM     56  C   UNL     1      -8.431  -3.526  -1.833  1.00  0.00     0.029 A 
ATOM     57  C   UNL     1      -9.245  -2.615  -1.055  1.00  0.00     0.049 A 
ATOM     58  H   UNL     1     -10.930  -3.106   0.093  1.00  0.00     0.167 HD
ATOM     59  C   UNL     1     -13.440  -4.331   3.487  1.00  0.00     0.034 A 
ATOM     60  C   UNL     1      -9.140  -1.272  -0.914  1.00  0.00     0.034 A 
ATOM     61  C   UNL     1     -14.386  -3.959   2.463  1.00  0.00     0.049 A 
ATOM     62  C   UNL     1     -10.435  -0.799  -0.374  1.00  0.00     0.074 A 
ATOM     63  C   UNL     1     -15.247  -4.641   1.627  1.00  0.00     0.029 A 
ATOM     64  N   UNL     1     -14.234  -2.711   1.907  1.00  0.00    -0.354 N 
ATOM     65  N   UNL     1     -11.560  -0.889  -1.029  1.00  0.00    -0.248 NA
ATOM     66  C   UNL     1     -10.554  -0.648   1.065  1.00  0.00     0.031 C 
ATOM     67  C   UNL     1     -15.161  -3.952   0.379  1.00  0.00     0.029 A 
ATOM     68  C   UNL     1     -14.314  -2.854   0.548  1.00  0.00     0.049 A 
ATOM     69  H   UNL     1     -14.094  -1.869   2.397  1.00  0.00     0.167 HD
ATOM     70  C   UNL     1     -12.487  -1.270  -0.067  1.00  0.00     0.074 A 
ATOM     71  C   UNL     1     -11.837  -0.992   1.214  1.00  0.00     0.031 C 
ATOM     72  C   UNL     1     -13.564  -2.047  -0.391  1.00  0.00     0.034 A 
BRANCH  59  73
ATOM     73  C   UNL     1     -13.311  -3.513   4.758  1.00  0.00     0.023 A 
ATOM     74  C   UNL     1     -14.447  -2.773   5.164  1.00  0.00     0.012 A 
ATOM     75  C   UNL     1     -12.090  -3.199   5.396  1.00  0.00     0.148 A 
ATOM     76  C   UNL     1     -14.357  -1.733   6.096  1.00  0.00     0.002 A 
ATOM     77  C   UNL     1     -12.020  -2.217   6.379  1.00  0.00     0.091 A 
ATOM     78  F   UNL     1     -10.948  -3.744   4.972  1.00  0.00    -0.205 F 
ATOM     79  C   UNL     1     -13.142  -1.456   6.708  1.00  0.00     0.022 A 
BRANCH  77  80
ATOM     80  S   UNL     1     -10.478  -1.848   7.226  1.00  0.00     0.127 S 
ATOM     81  O   UNL     1     -10.080  -0.604   6.574  1.00  0.00    -0.237 OA
ATOM     82  O   UNL     1     -10.923  -1.709   8.613  1.00  0.00    -0.237 OA
ATOM     83  O   UNL     1      -9.621  -3.004   6.989  1.00  0.00    -0.744 OA
ENDBRANCH  77  80
ENDBRANCH  59  73
BRANCH  60  84
ATOM     84  C   UNL     1      -7.941  -0.407  -0.963  1.00  0.00     0.023 A 
ATOM     85  C   UNL     1      -8.074   0.964  -1.249  1.00  0.00     0.012 A 
ATOM     86  C   UNL     1      -6.704  -0.863  -0.456  1.00  0.00     0.148 A 
ATOM     87  C   UNL     1      -7.023   1.859  -1.005  1.00  0.00     0.002 A 
ATOM     88  C   UNL     1      -5.660   0.031  -0.221  1.00  0.00     0.091 A 
ATOM     89  F   UNL     1      -6.585  -2.155  -0.118  1.00  0.00    -0.205 F 
ATOM     90  C   UNL     1      -5.819   1.395  -0.483  1.00  0.00     0.022 A 
BRANCH  88  91
ATOM     91  S   UNL     1      -4.085  -0.509   0.445  1.00  0.00     0.127 S 
ATOM     92  O   UNL     1      -3.120   0.215  -0.386  1.00  0.00    -0.237 OA
ATOM     93  O   UNL     1      -4.157  -0.063   1.831  1.00  0.00    -0.237 OA
ATOM     94  O   UNL     1      -4.070  -1.948   0.235  1.00  0.00    -0.744 OA
ENDBRANCH  88  91
ENDBRANCH  60  84
BRANCH  72  95
ATOM     95  C   UNL     1     -13.850  -2.294  -1.855  1.00  0.00     0.023 A 
ATOM     96  C   UNL     1     -12.965  -3.013  -2.688  1.00  0.00     0.012 A 
ATOM     97  C   UNL     1     -15.117  -1.954  -2.353  1.00  0.00     0.148 A 
ATOM     98  C   UNL     1     -13.328  -3.364  -3.992  1.00  0.00     0.002 A 
ATOM     99  C   UNL     1     -15.492  -2.341  -3.634  1.00  0.00     0.091 A 
ATOM    100  F   UNL     1     -15.952  -1.280  -1.548  1.00  0.00    -0.205 F 
ATOM    101  C   UNL     1     -14.597  -3.038  -4.462  1.00  0.00     0.022 A 
BRANCH  99 102
ATOM    102  S   UNL     1     -17.153  -2.060  -4.250  1.00  0.00     0.127 S 
ATOM    103  O   UNL     1     -16.948  -0.954  -5.183  1.00  0.00    -0.237 OA
ATOM    104  O   UNL     1     -17.476  -3.341  -4.880  1.00  0.00    -0.237 OA
ATOM    105  O   UNL     1     -17.966  -1.752  -3.080  1.00  0.00    -0.744 OA
ENDBRANCH  99 102
ENDBRANCH  72  95
ENDBRANCH  46  47
ENDBRANCH  38  41
ENDBRANCH  36  37
ENDBRANCH  35  36
ENDBRANCH   1  35
TORSDOF 19
