REMARK SMILES CC[C@@H](C)N1C(=O)/C(=C/Nc2cccc(C(=O)NCCCCNC(=O)c3ccc(-c4c5nc(c(-c6cccc(S(=O)(=O)[O-])c6F)c6ccc([nH]6)c(-c6cccc(S(=O)(=O)[O-])c6F)c6nc(c(-c7cccc(S(=O)(=O)[O-])c7F)c7ccc4[nH]7)C=C6)C=C5)cc3)c2)C(=O)NC1=S
REMARK SMILES IDX 20 1 19 2 18 3 16 4 17 5 15 7 11 8 12 9 89 10 13 11 14 12
REMARK SMILES IDX 10 13 9 15 5 16 6 17 93 18 7 19 8 20 92 21 94 22 90 23 91 25
REMARK SMILES IDX 3 26 4 27 2 28 1 29 21 30 22 31 23 32 24 33 25 35 26 36
REMARK SMILES IDX 27 37 88 38 28 39 87 40 29 41 30 42 31 43 81 44 32 45 86 46
REMARK SMILES IDX 80 47 82 48 33 49 85 50 79 51 78 52 34 54 66 55 46 56 65 57
REMARK SMILES IDX 47 58 50 59 64 60 83 61 48 62 49 63 63 65 84 66 51 67 35 68
REMARK SMILES IDX 36 69 44 70 37 71 39 72 45 73 38 74 40 75 41 76 42 77 43 78
REMARK SMILES IDX 67 79 68 80 76 81 69 82 71 83 77 84 70 85 72 86 73 87 74 88
REMARK SMILES IDX 75 89 52 90 53 91 61 92 54 93 56 94 62 95 55 96 57 97 58 98
REMARK SMILES IDX 59 99 60 100
REMARK H PARENT 18 6 10 14 92 24 23 34 82 53 50 64
REMARK Flexibility Score: inf
ROOT
ATOM      1  C   UNL     1       5.159   5.201  -4.162  1.00  0.00     0.023 C 
ENDROOT
BRANCH   1   2
ATOM      2  C   UNL     1       5.224   6.094  -2.930  1.00  0.00     0.116 C 
BRANCH   2   3
ATOM      3  N   UNL     1       6.295   7.079  -2.942  1.00  0.00    -0.352 N 
ATOM      4  C   UNL     1       6.289   8.428  -2.646  1.00  0.00     0.251 C 
ATOM      5  O   UNL     1       7.335   9.066  -2.740  1.00  0.00    -0.269 OA
ATOM      6  H   UNL     1       7.174   6.723  -3.206  1.00  0.00     0.163 HD
BRANCH   4   7
ATOM      7  C   UNL     1       5.037   9.147  -2.286  1.00  0.00     0.041 A 
ATOM      8  C   UNL     1       2.735   9.094  -1.499  1.00  0.00     0.039 A 
ATOM      9  C   UNL     1       2.569  10.402  -1.968  1.00  0.00     0.026 A 
ATOM     10  C   UNL     1       4.021   8.543  -1.544  1.00  0.00     0.039 A 
ATOM     11  C   UNL     1       3.632  11.093  -2.561  1.00  0.00     0.003 A 
ATOM     12  C   UNL     1       4.856  10.452  -2.752  1.00  0.00     0.014 A 
BRANCH   8  13
ATOM     13  N   UNL     1       1.616   8.367  -1.037  1.00  0.00    -0.361 N 
ATOM     14  H   UNL     1       0.762   8.852  -0.968  1.00  0.00     0.166 HD
BRANCH  13  15
ATOM     15  C   UNL     1       1.614   7.035  -0.674  1.00  0.00     0.102 C 
ATOM     16  N   UNL     1       0.177   3.698  -1.022  1.00  0.00    -0.282 N 
ATOM     17  C   UNL     1       1.009   4.694  -0.493  1.00  0.00     0.267 C 
ATOM     18  C   UNL     1      -1.104   3.984  -1.489  1.00  0.00     0.183 C 
ATOM     19  O   UNL     1       1.977   4.462   0.230  1.00  0.00    -0.268 OA
ATOM     20  C   UNL     1       0.676   6.090  -0.866  1.00  0.00     0.121 C 
ATOM     21  N   UNL     1      -1.400   5.308  -1.707  1.00  0.00    -0.298 N 
ATOM     22  S   UNL     1      -2.354   2.923  -1.839  1.00  0.00    -0.040 S 
ATOM     23  C   UNL     1      -0.595   6.397  -1.528  1.00  0.00     0.264 C 
ATOM     24  H   UNL     1      -2.309   5.496  -2.034  1.00  0.00     0.172 HD
ATOM     25  O   UNL     1      -0.930   7.519  -1.889  1.00  0.00    -0.269 OA
BRANCH  16  26
ATOM     26  C   UNL     1       0.770   2.321  -0.989  1.00  0.00     0.090 C 
ATOM     27  C   UNL     1       0.737   1.627  -2.357  1.00  0.00     0.031 C 
BRANCH  26  28
ATOM     28  C   UNL     1       0.256   1.466   0.185  1.00  0.00     0.022 C 
ATOM     29  C   UNL     1       0.852   0.063   0.212  1.00  0.00     0.006 C 
ENDBRANCH  26  28
ENDBRANCH  16  26
ENDBRANCH  13  15
ENDBRANCH   8  13
ENDBRANCH   4   7
ENDBRANCH   2   3
ENDBRANCH   1   2
BRANCH   1  30
ATOM     30  C   UNL     1       6.329   4.249  -4.370  1.00  0.00     0.023 C 
BRANCH  30  31
ATOM     31  C   UNL     1       6.704   3.380  -3.176  1.00  0.00     0.116 C 
BRANCH  31  32
ATOM     32  N   UNL     1       5.603   2.573  -2.664  1.00  0.00    -0.352 N 
ATOM     33  C   UNL     1       5.554   1.219  -2.415  1.00  0.00     0.251 C 
ATOM     34  H   UNL     1       4.775   3.067  -2.467  1.00  0.00     0.163 HD
ATOM     35  O   UNL     1       4.494   0.697  -2.078  1.00  0.00    -0.269 OA
BRANCH  33  36
ATOM     36  C   UNL     1       6.772   0.396  -2.597  1.00  0.00     0.039 A 
ATOM     37  C   UNL     1       6.688  -0.790  -3.329  1.00  0.00     0.014 A 
ATOM     38  C   UNL     1       8.004   0.823  -2.094  1.00  0.00     0.014 A 
ATOM     39  C   UNL     1       7.856  -1.497  -3.635  1.00  0.00     0.010 A 
ATOM     40  C   UNL     1       9.171   0.170  -2.479  1.00  0.00     0.010 A 
ATOM     41  C   UNL     1       9.113  -0.996  -3.257  1.00  0.00    -0.014 A 
BRANCH  41  42
ATOM     42  C   UNL     1      10.373  -1.658  -3.694  1.00  0.00     0.031 A 
ATOM     43  C   UNL     1      11.352  -2.187  -2.679  1.00  0.00     0.074 A 
ATOM     44  C   UNL     1      10.680  -1.706  -5.007  1.00  0.00     0.049 A 
ATOM     45  N   UNL     1      12.512  -2.759  -2.873  1.00  0.00    -0.248 NA
ATOM     46  C   UNL     1      10.996  -2.028  -1.259  1.00  0.00     0.031 C 
ATOM     47  C   UNL     1       9.864  -1.148  -6.089  1.00  0.00     0.029 A 
ATOM     48  N   UNL     1      11.773  -2.228  -5.656  1.00  0.00    -0.354 N 
ATOM     49  C   UNL     1      13.037  -2.998  -1.609  1.00  0.00     0.074 A 
ATOM     50  C   UNL     1      12.088  -2.472  -0.653  1.00  0.00     0.031 C 
ATOM     51  C   UNL     1      10.477  -1.369  -7.263  1.00  0.00     0.029 A 
ATOM     52  C   UNL     1      11.743  -2.052  -7.021  1.00  0.00     0.049 A 
ATOM     53  H   UNL     1      12.509  -2.685  -5.188  1.00  0.00     0.167 HD
ATOM     54  C   UNL     1      14.189  -3.625  -1.270  1.00  0.00     0.034 A 
ATOM     55  C   UNL     1      12.636  -2.395  -7.971  1.00  0.00     0.034 A 
ATOM     56  C   UNL     1      15.115  -4.180  -2.220  1.00  0.00     0.049 A 
ATOM     57  C   UNL     1      13.889  -3.123  -7.569  1.00  0.00     0.074 A 
ATOM     58  C   UNL     1      16.263  -4.913  -1.973  1.00  0.00     0.029 A 
ATOM     59  N   UNL     1      15.009  -4.054  -3.595  1.00  0.00    -0.354 N 
ATOM     60  N   UNL     1      14.285  -3.489  -6.373  1.00  0.00    -0.248 NA
ATOM     61  C   UNL     1      14.803  -3.522  -8.650  1.00  0.00     0.031 C 
ATOM     62  C   UNL     1      16.869  -5.202  -3.200  1.00  0.00     0.029 A 
ATOM     63  C   UNL     1      16.077  -4.684  -4.212  1.00  0.00     0.049 A 
ATOM     64  H   UNL     1      14.282  -3.586  -4.066  1.00  0.00     0.167 HD
ATOM     65  C   UNL     1      15.469  -4.191  -6.561  1.00  0.00     0.074 A 
ATOM     66  C   UNL     1      15.715  -4.221  -7.988  1.00  0.00     0.031 C 
ATOM     67  C   UNL     1      16.286  -4.751  -5.635  1.00  0.00     0.034 A 
BRANCH  54  68
ATOM     68  C   UNL     1      14.491  -3.793   0.198  1.00  0.00     0.023 A 
ATOM     69  C   UNL     1      13.719  -4.684   0.971  1.00  0.00     0.012 A 
ATOM     70  C   UNL     1      15.575  -3.122   0.797  1.00  0.00     0.148 A 
ATOM     71  C   UNL     1      13.996  -4.878   2.323  1.00  0.00     0.002 A 
ATOM     72  C   UNL     1      15.877  -3.358   2.133  1.00  0.00     0.091 A 
ATOM     73  F   UNL     1      16.287  -2.265   0.052  1.00  0.00    -0.205 F 
ATOM     74  C   UNL     1      15.081  -4.225   2.901  1.00  0.00     0.022 A 
BRANCH  72  75
ATOM     75  S   UNL     1      17.302  -2.631   2.950  1.00  0.00     0.127 S 
ATOM     76  O   UNL     1      16.664  -1.711   3.891  1.00  0.00    -0.237 OA
ATOM     77  O   UNL     1      17.928  -3.800   3.570  1.00  0.00    -0.237 OA
ATOM     78  O   UNL     1      18.091  -2.002   1.901  1.00  0.00    -0.744 OA
ENDBRANCH  72  75
ENDBRANCH  54  68
BRANCH  55  79
ATOM     79  C   UNL     1      12.351  -2.107  -9.407  1.00  0.00     0.023 A 
ATOM     80  C   UNL     1      12.092  -3.173 -10.291  1.00  0.00     0.012 A 
ATOM     81  C   UNL     1      12.323  -0.787  -9.898  1.00  0.00     0.148 A 
ATOM     82  C   UNL     1      11.852  -2.934 -11.644  1.00  0.00     0.002 A 
ATOM     83  C   UNL     1      12.025  -0.552 -11.235  1.00  0.00     0.091 A 
ATOM     84  F   UNL     1      12.582   0.213  -9.044  1.00  0.00    -0.205 F 
ATOM     85  C   UNL     1      11.809  -1.624 -12.114  1.00  0.00     0.022 A 
BRANCH  83  86
ATOM     86  S   UNL     1      11.817   1.104 -11.898  1.00  0.00     0.127 S 
ATOM     87  O   UNL     1      12.992   1.232 -12.757  1.00  0.00    -0.237 OA
ATOM     88  O   UNL     1      10.543   0.986 -12.608  1.00  0.00    -0.237 OA
ATOM     89  O   UNL     1      11.778   1.989 -10.742  1.00  0.00    -0.744 OA
ENDBRANCH  83  86
ENDBRANCH  55  79
BRANCH  67  90
ATOM     90  C   UNL     1      17.504  -5.488  -6.130  1.00  0.00     0.023 A 
ATOM     91  C   UNL     1      18.588  -4.774  -6.679  1.00  0.00     0.012 A 
ATOM     92  C   UNL     1      17.601  -6.887  -5.986  1.00  0.00     0.148 A 
ATOM     93  C   UNL     1      19.731  -5.444  -7.114  1.00  0.00     0.002 A 
ATOM     94  C   UNL     1      18.764  -7.541  -6.371  1.00  0.00     0.091 A 
ATOM     95  F   UNL     1      16.553  -7.551  -5.477  1.00  0.00    -0.205 F 
ATOM     96  C   UNL     1      19.824  -6.824  -6.949  1.00  0.00     0.022 A 
BRANCH  94  97
ATOM     97  S   UNL     1      19.012  -9.300  -6.106  1.00  0.00     0.127 S 
ATOM     98  O   UNL     1      18.941  -9.820  -7.470  1.00  0.00    -0.237 OA
ATOM     99  O   UNL     1      20.348  -9.337  -5.508  1.00  0.00    -0.237 OA
ATOM    100  O   UNL     1      17.941  -9.729  -5.217  1.00  0.00    -0.744 OA
ENDBRANCH  94  97
ENDBRANCH  67  90
ENDBRANCH  41  42
ENDBRANCH  33  36
ENDBRANCH  31  32
ENDBRANCH  30  31
ENDBRANCH   1  30
TORSDOF 18
