REMARK SMILES Cc1cccc(C[N@@H+]2CCn3nc(CCC(=O)NCCCCNC(=O)c4ccc(-c5c6nc(c(-c7cccc(S(=O)(=O)[O-])c7F)c7ccc([nH]7)c(-c7cccc(S(=O)(=O)[O-])c7F)c7nc(c(-c8cccc(S(=O)(=O)[O-])c8F)c8ccc5[nH]8)C=C7)C=C6)cc4)cc3C2)c1
REMARK SMILES IDX 20 1 19 2 18 3 16 4 17 5 15 7 14 8 13 9 8 10 9 11 91 12
REMARK SMILES IDX 10 14 90 15 11 16 89 17 12 18 7 19 6 20 1 21 2 22 3 23 92 24
REMARK SMILES IDX 4 25 5 26 21 27 22 28 23 29 24 30 25 32 26 33 27 34 88 35
REMARK SMILES IDX 28 36 87 37 29 38 30 39 31 40 81 41 32 42 86 43 80 44 82 45
REMARK SMILES IDX 33 46 85 47 79 48 78 49 34 51 66 52 46 53 65 54 47 55 50 56
REMARK SMILES IDX 64 57 83 58 48 59 49 60 63 62 84 63 51 64 35 65 36 66 44 67
REMARK SMILES IDX 37 68 39 69 45 70 38 71 40 72 41 73 42 74 43 75 67 76 68 77
REMARK SMILES IDX 76 78 69 79 71 80 77 81 70 82 72 83 73 84 74 85 75 86 52 87
REMARK SMILES IDX 53 88 61 89 54 90 56 91 62 92 55 93 57 94 58 95 59 96 60 97
REMARK H PARENT 18 6 8 13 23 31 82 50 50 61
REMARK Flexibility Score: inf
ROOT
ATOM      1  C   UNL     1      -3.423  -0.938  -3.759  1.00  0.00     0.023 C 
ENDROOT
BRANCH   1   2
ATOM      2  C   UNL     1      -2.315  -1.984  -3.786  1.00  0.00     0.116 C 
BRANCH   2   3
ATOM      3  N   UNL     1      -2.259  -2.627  -5.081  1.00  0.00    -0.356 N 
ATOM      4  C   UNL     1      -1.692  -2.140  -6.222  1.00  0.00     0.220 C 
ATOM      5  O   UNL     1      -1.927  -2.716  -7.287  1.00  0.00    -0.275 OA
ATOM      6  H   UNL     1      -2.677  -3.516  -5.145  1.00  0.00     0.163 HD
BRANCH   4   7
ATOM      7  C   UNL     1      -0.753  -0.942  -6.175  1.00  0.00     0.106 C 
BRANCH   7   8
ATOM      8  C   UNL     1      -1.385   0.367  -6.656  1.00  0.00     0.068 C 
BRANCH   8   9
ATOM      9  C   UNL     1      -1.737   1.345  -5.571  1.00  0.00     0.063 A 
ATOM     10  N   UNL     1      -2.366   3.473  -1.654  1.00  0.00    -0.325 N 
ATOM     11  C   UNL     1      -3.762   3.150  -1.949  1.00  0.00     0.286 C 
ATOM     12  C   UNL     1      -1.522   3.776  -2.796  1.00  0.00     0.319 C 
ATOM     13  H   UNL     1      -2.468   4.399  -1.238  1.00  0.00     0.348 HD
ATOM     14  C   UNL     1      -4.103   2.522  -3.314  1.00  0.00     0.206 C 
ATOM     15  C   UNL     1      -1.704   2.800  -3.889  1.00  0.00     0.093 A 
ATOM     16  N   UNL     1      -2.958   2.372  -4.186  1.00  0.00    -0.258 N 
ATOM     17  C   UNL     1      -0.870   2.096  -4.731  1.00  0.00     0.055 A 
ATOM     18  N   UNL     1      -3.021   1.651  -5.321  1.00  0.00    -0.177 NA
BRANCH  10  19
ATOM     19  C   UNL     1      -1.743   2.769  -0.535  1.00  0.00     0.299 C 
BRANCH  19  20
ATOM     20  C   UNL     1      -1.090   1.439  -0.829  1.00  0.00     0.006 A 
ATOM     21  C   UNL     1       2.340   0.043  -1.787  1.00  0.00     0.044 C 
ATOM     22  C   UNL     1       0.885   0.125  -1.443  1.00  0.00    -0.051 A 
ATOM     23  C   UNL     1       0.141  -1.042  -1.290  1.00  0.00     0.003 A 
ATOM     24  C   UNL     1       0.253   1.361  -1.245  1.00  0.00     0.013 A 
ATOM     25  C   UNL     1      -1.181  -0.975  -0.859  1.00  0.00     0.001 A 
ATOM     26  C   UNL     1      -1.789   0.252  -0.608  1.00  0.00     0.009 A 
ENDBRANCH  19  20
ENDBRANCH  10  19
ENDBRANCH   8   9
ENDBRANCH   7   8
ENDBRANCH   4   7
ENDBRANCH   2   3
ENDBRANCH   1   2
BRANCH   1  27
ATOM     27  C   UNL     1      -4.826  -1.403  -3.396  1.00  0.00     0.023 C 
BRANCH  27  28
ATOM     28  C   UNL     1      -4.973  -1.665  -1.915  1.00  0.00     0.116 C 
BRANCH  28  29
ATOM     29  N   UNL     1      -5.394  -0.535  -1.103  1.00  0.00    -0.352 N 
ATOM     30  C   UNL     1      -5.628  -0.469   0.264  1.00  0.00     0.251 C 
ATOM     31  H   UNL     1      -5.535   0.307  -1.594  1.00  0.00     0.163 HD
ATOM     32  O   UNL     1      -6.187   0.535   0.700  1.00  0.00    -0.269 OA
BRANCH  30  33
ATOM     33  C   UNL     1      -5.062  -1.492   1.191  1.00  0.00     0.039 A 
ATOM     34  C   UNL     1      -4.717  -1.097   2.490  1.00  0.00     0.014 A 
ATOM     35  C   UNL     1      -4.552  -2.680   0.699  1.00  0.00     0.014 A 
ATOM     36  C   UNL     1      -3.640  -1.702   3.128  1.00  0.00     0.010 A 
ATOM     37  C   UNL     1      -3.360  -3.117   1.195  1.00  0.00     0.010 A 
ATOM     38  C   UNL     1      -2.878  -2.585   2.392  1.00  0.00    -0.014 A 
BRANCH  38  39
ATOM     39  C   UNL     1      -1.667  -3.244   2.829  1.00  0.00     0.031 A 
ATOM     40  C   UNL     1      -1.863  -4.595   3.383  1.00  0.00     0.074 A 
ATOM     41  C   UNL     1      -0.551  -2.822   2.199  1.00  0.00     0.049 A 
ATOM     42  N   UNL     1      -0.935  -5.348   3.846  1.00  0.00    -0.248 NA
ATOM     43  C   UNL     1      -3.194  -5.202   3.461  1.00  0.00     0.031 C 
ATOM     44  C   UNL     1       0.570  -3.610   1.708  1.00  0.00     0.029 A 
ATOM     45  N   UNL     1      -0.176  -1.504   1.941  1.00  0.00    -0.354 N 
ATOM     46  C   UNL     1      -1.478  -6.615   3.962  1.00  0.00     0.074 A 
ATOM     47  C   UNL     1      -2.901  -6.439   3.854  1.00  0.00     0.031 C 
ATOM     48  C   UNL     1       1.590  -2.777   1.428  1.00  0.00     0.029 A 
ATOM     49  C   UNL     1       1.220  -1.461   1.942  1.00  0.00     0.049 A 
ATOM     50  H   UNL     1      -0.783  -0.745   1.786  1.00  0.00     0.167 HD
ATOM     51  C   UNL     1      -0.641  -7.687   3.923  1.00  0.00     0.034 A 
ATOM     52  C   UNL     1       1.939  -0.754   2.863  1.00  0.00     0.034 A 
ATOM     53  C   UNL     1       0.749  -7.212   3.782  1.00  0.00     0.049 A 
ATOM     54  C   UNL     1       2.739  -1.688   3.745  1.00  0.00     0.074 A 
ATOM     55  C   UNL     1       1.557  -7.049   2.667  1.00  0.00     0.029 A 
ATOM     56  N   UNL     1       1.332  -6.463   4.802  1.00  0.00    -0.354 N 
ATOM     57  N   UNL     1       2.525  -2.974   3.812  1.00  0.00    -0.248 NA
ATOM     58  C   UNL     1       3.838  -1.265   4.606  1.00  0.00     0.031 C 
ATOM     59  C   UNL     1       2.574  -6.111   3.001  1.00  0.00     0.029 A 
ATOM     60  C   UNL     1       2.408  -5.726   4.323  1.00  0.00     0.049 A 
ATOM     61  H   UNL     1       1.022  -6.457   5.736  1.00  0.00     0.167 HD
ATOM     62  C   UNL     1       3.313  -3.528   4.770  1.00  0.00     0.074 A 
ATOM     63  C   UNL     1       4.169  -2.430   5.191  1.00  0.00     0.031 C 
ATOM     64  C   UNL     1       3.139  -4.813   5.201  1.00  0.00     0.034 A 
BRANCH  51  65
ATOM     65  C   UNL     1      -1.049  -9.136   3.676  1.00  0.00     0.023 A 
ATOM     66  C   UNL     1      -0.016 -10.018   3.282  1.00  0.00     0.012 A 
ATOM     67  C   UNL     1      -2.341  -9.715   3.766  1.00  0.00     0.148 A 
ATOM     68  C   UNL     1      -0.247 -11.354   2.938  1.00  0.00     0.002 A 
ATOM     69  C   UNL     1      -2.583 -11.041   3.383  1.00  0.00     0.091 A 
ATOM     70  F   UNL     1      -3.353  -9.026   4.293  1.00  0.00    -0.205 F 
ATOM     71  C   UNL     1      -1.534 -11.863   2.967  1.00  0.00     0.022 A 
BRANCH  69  72
ATOM     72  S   UNL     1      -4.233 -11.774   3.367  1.00  0.00     0.127 S 
ATOM     73  O   UNL     1      -4.308 -12.335   2.016  1.00  0.00    -0.237 OA
ATOM     74  O   UNL     1      -4.142 -12.769   4.433  1.00  0.00    -0.237 OA
ATOM     75  O   UNL     1      -5.169 -10.682   3.608  1.00  0.00    -0.744 OA
ENDBRANCH  69  72
ENDBRANCH  51  65
BRANCH  52  76
ATOM     76  C   UNL     1       1.285   0.511   3.318  1.00  0.00     0.023 A 
ATOM     77  C   UNL     1       1.388   1.631   2.464  1.00  0.00     0.012 A 
ATOM     78  C   UNL     1       0.242   0.474   4.268  1.00  0.00     0.148 A 
ATOM     79  C   UNL     1       0.406   2.624   2.464  1.00  0.00     0.002 A 
ATOM     80  C   UNL     1      -0.770   1.430   4.208  1.00  0.00     0.091 A 
ATOM     81  F   UNL     1       0.175  -0.579   5.091  1.00  0.00    -0.205 F 
ATOM     82  C   UNL     1      -0.702   2.490   3.292  1.00  0.00     0.022 A 
BRANCH  80  83
ATOM     83  S   UNL     1      -2.317   1.265   5.109  1.00  0.00     0.127 S 
ATOM     84  O   UNL     1      -2.287   2.445   5.975  1.00  0.00    -0.237 OA
ATOM     85  O   UNL     1      -3.294   1.339   4.020  1.00  0.00    -0.237 OA
ATOM     86  O   UNL     1      -2.247  -0.014   5.784  1.00  0.00    -0.744 OA
ENDBRANCH  80  83
ENDBRANCH  52  76
BRANCH  64  87
ATOM     87  C   UNL     1       3.659  -5.283   6.535  1.00  0.00     0.023 A 
ATOM     88  C   UNL     1       3.881  -4.372   7.590  1.00  0.00     0.012 A 
ATOM     89  C   UNL     1       3.784  -6.657   6.834  1.00  0.00     0.148 A 
ATOM     90  C   UNL     1       4.323  -4.788   8.844  1.00  0.00     0.002 A 
ATOM     91  C   UNL     1       4.098  -7.073   8.123  1.00  0.00     0.091 A 
ATOM     92  F   UNL     1       3.608  -7.570   5.868  1.00  0.00    -0.205 F 
ATOM     93  C   UNL     1       4.416  -6.143   9.116  1.00  0.00     0.022 A 
BRANCH  91  94
ATOM     94  S   UNL     1       3.952  -8.797   8.603  1.00  0.00     0.127 S 
ATOM     95  O   UNL     1       5.329  -9.264   8.463  1.00  0.00    -0.237 OA
ATOM     96  O   UNL     1       3.479  -8.697   9.985  1.00  0.00    -0.237 OA
ATOM     97  O   UNL     1       2.981  -9.369   7.681  1.00  0.00    -0.744 OA
ENDBRANCH  91  94
ENDBRANCH  64  87
ENDBRANCH  38  39
ENDBRANCH  30  33
ENDBRANCH  28  29
ENDBRANCH  27  28
ENDBRANCH   1  27
TORSDOF 18
