REMARK SMILES O=C(C[NH+]1CCN(c2cc(-c3ccccc3)nc(-c3ccccc3F)n2)CC1)NCCCCNC(=O)c1ccc(-c2c3nc(c(-c4cccc(S(=O)(=O)[O-])c4F)c4ccc([nH]4)c(-c4cccc(S(=O)(=O)[O-])c4F)c4nc(c(-c5cccc(S(=O)(=O)[O-])c5F)c5ccc2[nH]5)C=C4)C=C3)cc1
REMARK SMILES IDX 31 1 30 2 29 3 1 4 2 5 3 7 4 8 5 9 28 10 6 12 27 13 7 14
REMARK SMILES IDX 8 15 9 16 26 17 10 18 18 19 17 20 11 21 12 22 16 23 13 24
REMARK SMILES IDX 15 25 14 26 19 27 20 28 24 29 21 30 23 31 25 32 22 33 32 34
REMARK SMILES IDX 33 35 34 36 35 37 36 39 37 40 38 41 99 42 39 43 98 44 40 45
REMARK SMILES IDX 41 46 42 47 92 48 43 49 97 50 91 51 93 52 44 53 96 54 90 55
REMARK SMILES IDX 89 56 45 58 77 59 57 60 76 61 58 62 61 63 75 64 94 65 59 66
REMARK SMILES IDX 60 67 74 69 95 70 62 71 46 72 47 73 55 74 48 75 50 76 56 77
REMARK SMILES IDX 49 78 51 79 52 80 53 81 54 82 78 83 79 84 87 85 80 86 82 87
REMARK SMILES IDX 88 88 81 89 83 90 84 91 85 92 86 93 63 94 64 95 72 96 65 97
REMARK SMILES IDX 67 98 73 99 66 100 68 101 69 102 70 103 71 104
REMARK H PARENT 29 6 4 11 34 38 93 57 61 68
REMARK Flexibility Score: inf
ROOT
ATOM      1  C   UNL     1       2.525   1.962   3.448  1.00  0.00     0.023 C 
ENDROOT
BRANCH   1   2
ATOM      2  C   UNL     1       1.966   1.804   2.033  1.00  0.00     0.116 C 
BRANCH   2   3
ATOM      3  N   UNL     1       2.399   0.588   1.376  1.00  0.00    -0.351 N 
ATOM      4  O   UNL     1       0.798   0.673  -0.275  1.00  0.00    -0.269 OA
ATOM      5  C   UNL     1       1.812   0.162   0.194  1.00  0.00     0.275 C 
ATOM      6  H   UNL     1       3.124   0.054   1.775  1.00  0.00     0.163 HD
BRANCH   5   7
ATOM      7  C   UNL     1       2.595  -0.948  -0.514  1.00  0.00     0.363 C 
BRANCH   7   8
ATOM      8  N   UNL     1       3.451  -0.481  -1.629  1.00  0.00    -0.324 N 
ATOM      9  C   UNL     1       3.837   0.953  -1.616  1.00  0.00     0.284 C 
ATOM     10  C   UNL     1       4.686  -1.305  -1.713  1.00  0.00     0.284 C 
ATOM     11  H   UNL     1       2.856  -0.592  -2.449  1.00  0.00     0.348 HD
ATOM     12  C   UNL     1       4.927   1.366  -0.601  1.00  0.00     0.179 C 
ATOM     13  C   UNL     1       5.730  -0.984  -0.621  1.00  0.00     0.179 C 
ATOM     14  N   UNL     1       6.047   0.437  -0.690  1.00  0.00    -0.345 N 
BRANCH  14  15
ATOM     15  C   UNL     1       7.174   0.797   0.029  1.00  0.00     0.133 A 
ATOM     16  C   UNL     1       8.277   1.176  -0.690  1.00  0.00     0.076 A 
ATOM     17  N   UNL     1       7.158   0.756   1.360  1.00  0.00    -0.211 NA
ATOM     18  C   UNL     1       9.411   1.528   0.006  1.00  0.00     0.076 A 
ATOM     19  C   UNL     1       8.300   1.123   1.978  1.00  0.00     0.165 A 
ATOM     20  N   UNL     1       9.435   1.508   1.355  1.00  0.00    -0.228 NA
BRANCH  18  21
ATOM     21  C   UNL     1      10.636   1.889  -0.734  1.00  0.00     0.000 A 
ATOM     22  C   UNL     1      11.906   1.516  -0.275  1.00  0.00     0.010 A 
ATOM     23  C   UNL     1      10.563   2.541  -1.986  1.00  0.00     0.010 A 
ATOM     24  C   UNL     1      13.045   1.725  -1.062  1.00  0.00     0.001 A 
ATOM     25  C   UNL     1      11.696   2.745  -2.776  1.00  0.00     0.001 A 
ATOM     26  C   UNL     1      12.937   2.323  -2.317  1.00  0.00     0.000 A 
ENDBRANCH  18  21
BRANCH  19  27
ATOM     27  C   UNL     1       8.130   1.385   3.402  1.00  0.00     0.055 A 
ATOM     28  C   UNL     1       7.674   0.419   4.317  1.00  0.00     0.015 A 
ATOM     29  C   UNL     1       8.200   2.696   3.844  1.00  0.00     0.134 A 
ATOM     30  C   UNL     1       7.264   0.775   5.612  1.00  0.00     0.001 A 
ATOM     31  C   UNL     1       7.736   3.053   5.105  1.00  0.00     0.040 A 
ATOM     32  F   UNL     1       8.604   3.655   3.003  1.00  0.00    -0.206 F 
ATOM     33  C   UNL     1       7.271   2.105   6.000  1.00  0.00     0.003 A 
ENDBRANCH  19  27
ENDBRANCH  14  15
ENDBRANCH   7   8
ENDBRANCH   5   7
ENDBRANCH   2   3
ENDBRANCH   1   2
BRANCH   1  34
ATOM     34  C   UNL     1       4.025   2.291   3.554  1.00  0.00     0.023 C 
BRANCH  34  35
ATOM     35  C   UNL     1       4.461   3.706   3.137  1.00  0.00     0.116 C 
BRANCH  35  36
ATOM     36  N   UNL     1       3.890   4.765   3.968  1.00  0.00    -0.352 N 
ATOM     37  C   UNL     1       4.447   5.825   4.654  1.00  0.00     0.251 C 
ATOM     38  H   UNL     1       2.910   4.710   4.055  1.00  0.00     0.163 HD
ATOM     39  O   UNL     1       3.704   6.513   5.356  1.00  0.00    -0.269 OA
BRANCH  37  40
ATOM     40  C   UNL     1       5.901   6.150   4.623  1.00  0.00     0.039 A 
ATOM     41  C   UNL     1       6.541   6.555   5.810  1.00  0.00     0.014 A 
ATOM     42  C   UNL     1       6.658   6.073   3.461  1.00  0.00     0.014 A 
ATOM     43  C   UNL     1       7.945   6.715   5.869  1.00  0.00     0.010 A 
ATOM     44  C   UNL     1       8.056   6.195   3.534  1.00  0.00     0.010 A 
ATOM     45  C   UNL     1       8.739   6.446   4.746  1.00  0.00    -0.014 A 
BRANCH  45  46
ATOM     46  C   UNL     1      10.244   6.295   4.796  1.00  0.00     0.031 A 
ATOM     47  C   UNL     1      11.114   7.060   3.824  1.00  0.00     0.074 A 
ATOM     48  C   UNL     1      10.855   5.343   5.551  1.00  0.00     0.049 A 
ATOM     49  N   UNL     1      12.414   7.003   3.659  1.00  0.00    -0.248 NA
ATOM     50  C   UNL     1      10.441   8.006   2.920  1.00  0.00     0.031 C 
ATOM     51  C   UNL     1      10.218   4.468   6.534  1.00  0.00     0.029 A 
ATOM     52  N   UNL     1      12.164   4.891   5.544  1.00  0.00    -0.354 N 
ATOM     53  C   UNL     1      12.708   7.901   2.643  1.00  0.00     0.074 A 
ATOM     54  C   UNL     1      11.444   8.409   2.155  1.00  0.00     0.031 C 
ATOM     55  C   UNL     1      11.077   3.506   6.915  1.00  0.00     0.029 A 
ATOM     56  C   UNL     1      12.367   3.739   6.279  1.00  0.00     0.049 A 
ATOM     57  H   UNL     1      12.886   5.351   5.058  1.00  0.00     0.167 HD
ATOM     58  C   UNL     1      13.912   8.338   2.202  1.00  0.00     0.034 A 
ATOM     59  C   UNL     1      13.461   2.965   6.460  1.00  0.00     0.034 A 
ATOM     60  C   UNL     1      15.181   7.867   2.680  1.00  0.00     0.049 A 
ATOM     61  C   UNL     1      14.794   3.428   5.925  1.00  0.00     0.074 A 
ATOM     62  C   UNL     1      16.444   8.355   2.396  1.00  0.00     0.029 A 
ATOM     63  N   UNL     1      15.353   6.774   3.511  1.00  0.00    -0.354 N 
ATOM     64  N   UNL     1      15.072   4.482   5.202  1.00  0.00    -0.248 NA
ATOM     65  C   UNL     1      15.983   2.652   6.324  1.00  0.00     0.031 C 
ATOM     66  C   UNL     1      17.384   7.532   3.024  1.00  0.00     0.029 A 
ATOM     67  C   UNL     1      16.702   6.555   3.730  1.00  0.00     0.049 A 
ATOM     68  H   UNL     1      14.623   6.233   3.890  1.00  0.00     0.167 HD
ATOM     69  C   UNL     1      16.462   4.550   5.141  1.00  0.00     0.074 A 
ATOM     70  C   UNL     1      16.972   3.421   5.885  1.00  0.00     0.031 C 
ATOM     71  C   UNL     1      17.233   5.483   4.532  1.00  0.00     0.034 A 
BRANCH  58  72
ATOM     72  C   UNL     1      13.896   9.469   1.208  1.00  0.00     0.023 A 
ATOM     73  C   UNL     1      13.452  10.741   1.631  1.00  0.00     0.012 A 
ATOM     74  C   UNL     1      14.325   9.290  -0.119  1.00  0.00     0.148 A 
ATOM     75  C   UNL     1      13.371  11.801   0.733  1.00  0.00     0.002 A 
ATOM     76  C   UNL     1      14.288  10.365  -0.997  1.00  0.00     0.091 A 
ATOM     77  F   UNL     1      14.741   8.074  -0.501  1.00  0.00    -0.205 F 
ATOM     78  C   UNL     1      13.794  11.614  -0.579  1.00  0.00     0.022 A 
BRANCH  76  79
ATOM     79  S   UNL     1      14.874  10.261  -2.690  1.00  0.00     0.127 S 
ATOM     80  O   UNL     1      13.631  10.412  -3.443  1.00  0.00    -0.237 OA
ATOM     81  O   UNL     1      15.780  11.404  -2.771  1.00  0.00    -0.237 OA
ATOM     82  O   UNL     1      15.521   8.959  -2.815  1.00  0.00    -0.744 OA
ENDBRANCH  76  79
ENDBRANCH  58  72
BRANCH  59  83
ATOM     83  C   UNL     1      13.412   1.749   7.332  1.00  0.00     0.023 A 
ATOM     84  C   UNL     1      13.978   1.820   8.622  1.00  0.00     0.012 A 
ATOM     85  C   UNL     1      12.887   0.520   6.882  1.00  0.00     0.148 A 
ATOM     86  C   UNL     1      14.079   0.682   9.424  1.00  0.00     0.002 A 
ATOM     87  C   UNL     1      12.956  -0.604   7.704  1.00  0.00     0.091 A 
ATOM     88  F   UNL     1      12.355   0.467   5.653  1.00  0.00    -0.205 F 
ATOM     89  C   UNL     1      13.570  -0.528   8.965  1.00  0.00     0.022 A 
BRANCH  87  90
ATOM     90  S   UNL     1      12.272  -2.204   7.251  1.00  0.00     0.127 S 
ATOM     91  O   UNL     1      13.470  -3.035   7.173  1.00  0.00    -0.237 OA
ATOM     92  O   UNL     1      11.399  -2.490   8.389  1.00  0.00    -0.237 OA
ATOM     93  O   UNL     1      11.570  -1.996   5.988  1.00  0.00    -0.744 OA
ENDBRANCH  87  90
ENDBRANCH  59  83
BRANCH  71  94
ATOM     94  C   UNL     1      18.731   5.402   4.691  1.00  0.00     0.023 A 
ATOM     95  C   UNL     1      19.463   4.380   4.057  1.00  0.00     0.012 A 
ATOM     96  C   UNL     1      19.424   6.412   5.391  1.00  0.00     0.148 A 
ATOM     97  C   UNL     1      20.857   4.352   4.134  1.00  0.00     0.002 A 
ATOM     98  C   UNL     1      20.814   6.409   5.417  1.00  0.00     0.091 A 
ATOM     99  F   UNL     1      18.712   7.365   6.010  1.00  0.00    -0.205 F 
ATOM    100  C   UNL     1      21.532   5.373   4.799  1.00  0.00     0.022 A 
BRANCH  98 101
ATOM    101  S   UNL     1      21.770   7.742   6.152  1.00  0.00     0.127 S 
ATOM    102  O   UNL     1      22.338   7.088   7.329  1.00  0.00    -0.237 OA
ATOM    103  O   UNL     1      22.738   8.047   5.097  1.00  0.00    -0.237 OA
ATOM    104  O   UNL     1      20.823   8.813   6.431  1.00  0.00    -0.744 OA
ENDBRANCH  98 101
ENDBRANCH  71  94
ENDBRANCH  45  46
ENDBRANCH  37  40
ENDBRANCH  35  36
ENDBRANCH  34  35
ENDBRANCH   1  34
TORSDOF 18
