REMARK SMILES CC1(C)S[C@H](c2ccc(-c3ccccc3)o2)[NH2+][C@H]1C(=O)NCCCCNC(=O)c1ccc(-c2c3nc(c(-c4cccc(S(=O)(=O)[O-])c4F)c4ccc([nH]4)c(-c4cccc(S(=O)(=O)[O-])c4F)c4nc(c(-c5cccc(S(=O)(=O)[O-])c5F)c5ccc2[nH]5)C=C4)C=C3)cc1
REMARK SMILES IDX 24 1 23 2 22 3 21 4 19 5 20 6 18 8 1 9 2 10 3 11 4 12 5 13
REMARK SMILES IDX 17 14 6 17 7 18 16 19 8 20 9 21 10 22 11 23 15 24 12 25
REMARK SMILES IDX 14 26 13 27 25 28 26 29 27 30 28 32 29 33 30 34 91 35 31 36
REMARK SMILES IDX 90 37 32 38 33 39 34 40 84 41 35 42 89 43 83 44 85 45 36 46
REMARK SMILES IDX 88 47 82 48 81 49 37 51 69 52 49 53 68 54 50 55 53 56 67 57
REMARK SMILES IDX 86 58 51 59 52 60 66 62 87 63 54 64 38 65 39 66 47 67 40 68
REMARK SMILES IDX 42 69 48 70 41 71 43 72 44 73 45 74 46 75 70 76 71 77 79 78
REMARK SMILES IDX 72 79 74 80 80 81 73 82 75 83 76 84 77 85 78 86 55 87 56 88
REMARK SMILES IDX 64 89 57 90 59 91 65 92 58 93 60 94 61 95 62 96 63 97
REMARK H PARENT 21 7 17 15 17 16 26 31 85 50 53 61
REMARK Flexibility Score: inf
ROOT
ATOM      1  C   UNL     1       2.144   3.197   3.865  1.00  0.00     0.023 C 
ENDROOT
BRANCH   1   2
ATOM      2  C   UNL     1       1.535   1.963   3.216  1.00  0.00     0.023 C 
BRANCH   2   3
ATOM      3  C   UNL     1       0.314   2.222   2.330  1.00  0.00     0.116 C 
BRANCH   3   4
ATOM      4  N   UNL     1       0.673   2.833   1.063  1.00  0.00    -0.351 N 
ATOM      5  C   UNL     1       0.609   2.420  -0.235  1.00  0.00     0.279 C 
ATOM      6  O   UNL     1       1.112   3.181  -1.071  1.00  0.00    -0.268 OA
ATOM      7  H   UNL     1       1.042   3.740   1.162  1.00  0.00     0.163 HD
BRANCH   5   8
ATOM      8  C   UNL     1       0.008   1.073  -0.699  1.00  0.00     0.289 C 
ATOM      9  C   UNL     1       1.766  -0.270   0.735  1.00  0.00     0.030 C 
ATOM     10  C   UNL     1       0.946  -0.145  -0.543  1.00  0.00     0.078 C 
ATOM     11  C   UNL     1       1.895  -0.259  -1.742  1.00  0.00     0.030 C 
ATOM     12  S   UNL     1      -0.193  -1.565  -0.539  1.00  0.00    -0.078 SA
ATOM     13  C   UNL     1      -1.692  -0.567  -0.332  1.00  0.00     0.311 C 
ATOM     14  N   UNL     1      -1.351   0.842  -0.165  1.00  0.00    -0.317 N 
ATOM     15  H   UNL     1      -1.377   1.086   0.825  1.00  0.00     0.348 HD
ATOM     16  H   UNL     1      -2.023   1.422  -0.669  1.00  0.00     0.348 HD
BRANCH  13  17
ATOM     17  C   UNL     1      -2.637  -0.875  -1.449  1.00  0.00     0.172 A 
ATOM     18  C   UNL     1      -3.420  -1.992  -1.678  1.00  0.00     0.054 A 
ATOM     19  O   UNL     1      -2.784   0.011  -2.484  1.00  0.00    -0.454 OA
ATOM     20  C   UNL     1      -4.089  -1.775  -2.899  1.00  0.00     0.051 A 
ATOM     21  C   UNL     1      -3.686  -0.537  -3.354  1.00  0.00     0.134 A 
BRANCH  21  22
ATOM     22  C   UNL     1      -4.042   0.243  -4.528  1.00  0.00     0.017 A 
ATOM     23  C   UNL     1      -3.074   0.925  -5.273  1.00  0.00     0.012 A 
ATOM     24  C   UNL     1      -5.377   0.273  -4.962  1.00  0.00     0.012 A 
ATOM     25  C   UNL     1      -3.431   1.605  -6.442  1.00  0.00     0.001 A 
ATOM     26  C   UNL     1      -5.735   0.963  -6.122  1.00  0.00     0.001 A 
ATOM     27  C   UNL     1      -4.760   1.622  -6.866  1.00  0.00     0.000 A 
ENDBRANCH  21  22
ENDBRANCH  13  17
ENDBRANCH   5   8
ENDBRANCH   3   4
ENDBRANCH   2   3
ENDBRANCH   1   2
BRANCH   1  28
ATOM     28  C   UNL     1       1.219   3.929   4.821  1.00  0.00     0.116 C 
BRANCH  28  29
ATOM     29  N   UNL     1       0.703   3.074   5.883  1.00  0.00    -0.352 N 
ATOM     30  C   UNL     1       0.672   3.310   7.239  1.00  0.00     0.251 C 
ATOM     31  H   UNL     1       0.326   2.213   5.592  1.00  0.00     0.163 HD
ATOM     32  O   UNL     1       0.325   2.429   8.013  1.00  0.00    -0.269 OA
BRANCH  30  33
ATOM     33  C   UNL     1       1.088   4.636   7.739  1.00  0.00     0.039 A 
ATOM     34  C   UNL     1       1.989   4.715   8.802  1.00  0.00     0.014 A 
ATOM     35  C   UNL     1       0.628   5.793   7.108  1.00  0.00     0.014 A 
ATOM     36  C   UNL     1       2.478   5.963   9.192  1.00  0.00     0.010 A 
ATOM     37  C   UNL     1       1.194   7.017   7.428  1.00  0.00     0.010 A 
ATOM     38  C   UNL     1       2.107   7.119   8.487  1.00  0.00    -0.014 A 
BRANCH  38  39
ATOM     39  C   UNL     1       2.621   8.460   8.857  1.00  0.00     0.031 A 
ATOM     40  C   UNL     1       1.650   9.531   9.278  1.00  0.00     0.074 A 
ATOM     41  C   UNL     1       3.930   8.744   8.714  1.00  0.00     0.049 A 
ATOM     42  N   UNL     1       1.874  10.791   9.542  1.00  0.00    -0.248 NA
ATOM     43  C   UNL     1       0.230   9.146   9.368  1.00  0.00     0.031 C 
ATOM     44  C   UNL     1       4.953   7.817   8.223  1.00  0.00     0.029 A 
ATOM     45  N   UNL     1       4.621   9.907   8.943  1.00  0.00    -0.354 N 
ATOM     46  C   UNL     1       0.625  11.355   9.775  1.00  0.00     0.074 A 
ATOM     47  C   UNL     1      -0.357  10.314   9.576  1.00  0.00     0.031 C 
ATOM     48  C   UNL     1       6.141   8.444   8.198  1.00  0.00     0.029 A 
ATOM     49  C   UNL     1       5.962   9.821   8.648  1.00  0.00     0.049 A 
ATOM     50  H   UNL     1       4.197  10.726   9.287  1.00  0.00     0.167 HD
ATOM     51  C   UNL     1       0.323  12.616  10.162  1.00  0.00     0.034 A 
ATOM     52  C   UNL     1       6.935  10.749   8.736  1.00  0.00     0.034 A 
ATOM     53  C   UNL     1       1.310  13.622  10.437  1.00  0.00     0.049 A 
ATOM     54  C   UNL     1       6.586  12.115   9.264  1.00  0.00     0.074 A 
ATOM     55  C   UNL     1       1.123  14.901  10.930  1.00  0.00     0.029 A 
ATOM     56  N   UNL     1       2.674  13.456  10.254  1.00  0.00    -0.354 N 
ATOM     57  N   UNL     1       5.418  12.585   9.631  1.00  0.00    -0.248 NA
ATOM     58  C   UNL     1       7.694  13.065   9.433  1.00  0.00     0.031 C 
ATOM     59  C   UNL     1       2.378  15.510  11.043  1.00  0.00     0.029 A 
ATOM     60  C   UNL     1       3.345  14.604  10.633  1.00  0.00     0.049 A 
ATOM     61  H   UNL     1       3.102  12.641   9.906  1.00  0.00     0.167 HD
ATOM     62  C   UNL     1       5.655  13.866  10.113  1.00  0.00     0.074 A 
ATOM     63  C   UNL     1       7.083  14.092  10.008  1.00  0.00     0.031 C 
ATOM     64  C   UNL     1       4.773  14.781  10.585  1.00  0.00     0.034 A 
BRANCH  51  65
ATOM     65  C   UNL     1      -1.130  12.948  10.383  1.00  0.00     0.023 A 
ATOM     66  C   UNL     1      -1.808  12.390  11.488  1.00  0.00     0.012 A 
ATOM     67  C   UNL     1      -1.815  13.831   9.527  1.00  0.00     0.148 A 
ATOM     68  C   UNL     1      -3.154  12.671  11.713  1.00  0.00     0.002 A 
ATOM     69  C   UNL     1      -3.145  14.144   9.785  1.00  0.00     0.091 A 
ATOM     70  F   UNL     1      -1.164  14.332   8.468  1.00  0.00    -0.205 F 
ATOM     71  C   UNL     1      -3.819  13.555  10.868  1.00  0.00     0.022 A 
BRANCH  69  72
ATOM     72  S   UNL     1      -4.067  15.332   8.803  1.00  0.00     0.127 S 
ATOM     73  O   UNL     1      -4.969  14.459   8.054  1.00  0.00    -0.237 OA
ATOM     74  O   UNL     1      -4.720  16.143   9.832  1.00  0.00    -0.237 OA
ATOM     75  O   UNL     1      -3.079  16.046   8.007  1.00  0.00    -0.744 OA
ENDBRANCH  69  72
ENDBRANCH  51  65
BRANCH  52  76
ATOM     76  C   UNL     1       8.344  10.386   8.414  1.00  0.00     0.023 A 
ATOM     77  C   UNL     1       9.278  10.269   9.463  1.00  0.00     0.012 A 
ATOM     78  C   UNL     1       8.759  10.125   7.094  1.00  0.00     0.148 A 
ATOM     79  C   UNL     1      10.607   9.934   9.200  1.00  0.00     0.002 A 
ATOM     80  C   UNL     1      10.072   9.741   6.845  1.00  0.00     0.091 A 
ATOM     81  F   UNL     1       7.859  10.250   6.109  1.00  0.00    -0.205 F 
ATOM     82  C   UNL     1      11.002   9.661   7.894  1.00  0.00     0.022 A 
BRANCH  80  83
ATOM     83  S   UNL     1      10.635   9.245   5.213  1.00  0.00     0.127 S 
ATOM     84  O   UNL     1      11.450  10.390   4.816  1.00  0.00    -0.237 OA
ATOM     85  O   UNL     1      11.388   8.025   5.508  1.00  0.00    -0.237 OA
ATOM     86  O   UNL     1       9.424   9.025   4.433  1.00  0.00    -0.744 OA
ENDBRANCH  80  83
ENDBRANCH  52  76
BRANCH  64  87
ATOM     87  C   UNL     1       5.322  16.095  11.071  1.00  0.00     0.023 A 
ATOM     88  C   UNL     1       5.777  17.050  10.142  1.00  0.00     0.012 A 
ATOM     89  C   UNL     1       5.310  16.412  12.443  1.00  0.00     0.148 A 
ATOM     90  C   UNL     1       6.240  18.292  10.574  1.00  0.00     0.002 A 
ATOM     91  C   UNL     1       5.729  17.669  12.862  1.00  0.00     0.091 A 
ATOM     92  F   UNL     1       4.893  15.481  13.314  1.00  0.00    -0.205 F 
ATOM     93  C   UNL     1       6.205  18.606  11.931  1.00  0.00     0.022 A 
BRANCH  91  94
ATOM     94  S   UNL     1       5.621  18.186  14.579  1.00  0.00     0.127 S 
ATOM     95  O   UNL     1       7.009  18.055  15.018  1.00  0.00    -0.237 OA
ATOM     96  O   UNL     1       5.145  19.566  14.463  1.00  0.00    -0.237 OA
ATOM     97  O   UNL     1       4.672  17.277  15.208  1.00  0.00    -0.744 OA
ENDBRANCH  91  94
ENDBRANCH  64  87
ENDBRANCH  38  39
ENDBRANCH  30  33
ENDBRANCH  28  29
ENDBRANCH   1  28
TORSDOF 16
