REMARK SMILES CC1=C([C@H](NC(=O)[C@@H]2[C@H](C)c3cc(F)ccc3N2C)C(=O)NCCCCNC(=O)c2ccc(-c3c4nc(c(-c5cccc(S(=O)(=O)[O-])c5F)c5ccc([nH]5)c(-c5cccc(S(=O)(=O)[O-])c5F)c5nc(c(-c6cccc(S(=O)(=O)[O-])c6F)c6ccc3[nH]6)C=C5)C=C4)cc2)[C@@H](C)N=N1
REMARK SMILES IDX 25 1 24 2 23 3 22 4 20 5 21 6 4 8 3 9 1 10 2 11 96 12 93 13
REMARK SMILES IDX 95 14 94 15 5 16 6 17 7 19 8 20 9 21 18 22 11 23 10 24 17 25
REMARK SMILES IDX 19 26 12 27 16 28 13 29 15 30 14 31 26 32 27 33 28 34 29 36
REMARK SMILES IDX 30 37 31 38 92 39 32 40 91 41 33 42 34 43 35 44 85 45 36 46
REMARK SMILES IDX 90 47 84 48 86 49 37 50 89 51 83 52 82 53 38 55 70 56 50 57
REMARK SMILES IDX 69 58 51 59 54 60 68 61 87 62 52 63 53 64 67 66 88 67 55 68
REMARK SMILES IDX 39 69 40 70 48 71 41 72 43 73 49 74 42 75 44 76 45 77 46 78
REMARK SMILES IDX 47 79 71 80 72 81 80 82 73 83 75 84 81 85 74 86 76 87 77 88
REMARK SMILES IDX 78 89 79 90 56 91 57 92 65 93 58 94 60 95 66 96 59 97 61 98
REMARK SMILES IDX 62 99 63 100 64 101
REMARK H PARENT 22 7 5 18 27 35 86 54 54 65
REMARK Flexibility Score: inf
ROOT
ATOM      1  C   UNL     1       1.603   2.540   7.617  1.00  0.00     0.023 C 
ENDROOT
BRANCH   1   2
ATOM      2  C   UNL     1       1.249   1.650   6.431  1.00  0.00     0.023 C 
BRANCH   2   3
ATOM      3  C   UNL     1       0.569   2.341   5.262  1.00  0.00     0.116 C 
BRANCH   3   4
ATOM      4  N   UNL     1       1.441   2.859   4.255  1.00  0.00    -0.354 N 
ATOM      5  C   UNL     1       1.159   2.920   2.919  1.00  0.00     0.247 C 
ATOM      6  O   UNL     1       1.870   3.659   2.229  1.00  0.00    -0.272 OA
ATOM      7  H   UNL     1       2.317   3.201   4.547  1.00  0.00     0.163 HD
BRANCH   5   8
ATOM      8  C   UNL     1      -0.096   2.197   2.286  1.00  0.00     0.202 C 
BRANCH   8   9
ATOM      9  C   UNL     1      -1.363   2.974   2.215  1.00  0.00     0.011 C 
ATOM     10  C   UNL     1      -2.246   2.211  -0.054  1.00  0.00     0.069 C 
ATOM     11  C   UNL     1      -2.277   2.959   1.235  1.00  0.00     0.064 C 
ATOM     12  N   UNL     1      -3.362   3.745   1.518  1.00  0.00    -0.160 NA
ATOM     13  C   UNL     1      -1.900   3.927   3.234  1.00  0.00     0.156 C 
ATOM     14  N   UNL     1      -3.219   4.297   2.642  1.00  0.00    -0.181 NA
ATOM     15  C   UNL     1      -1.109   5.212   3.452  1.00  0.00     0.040 C 
ENDBRANCH   8   9
BRANCH   8  16
ATOM     16  N   UNL     1      -0.315   0.742   2.456  1.00  0.00    -0.339 N 
ATOM     17  C   UNL     1      -1.328  -0.074   2.891  1.00  0.00     0.244 C 
ATOM     18  H   UNL     1       0.476   0.223   2.185  1.00  0.00     0.164 HD
ATOM     19  O   UNL     1      -1.349  -1.195   2.369  1.00  0.00    -0.273 OA
BRANCH  17  20
ATOM     20  C   UNL     1      -2.305   0.319   4.022  1.00  0.00     0.178 C 
ATOM     21  C   UNL     1      -1.747  -0.044   5.433  1.00  0.00     0.050 C 
ATOM     22  N   UNL     1      -3.644  -0.322   3.970  1.00  0.00    -0.362 N 
ATOM     23  C   UNL     1      -3.001  -0.335   6.186  1.00  0.00    -0.016 A 
ATOM     24  C   UNL     1      -0.747  -1.192   5.490  1.00  0.00     0.015 C 
ATOM     25  C   UNL     1      -4.066  -0.455   5.291  1.00  0.00     0.041 A 
ATOM     26  C   UNL     1      -4.556  -0.164   2.868  1.00  0.00     0.144 C 
ATOM     27  C   UNL     1      -3.151  -0.389   7.564  1.00  0.00     0.045 A 
ATOM     28  C   UNL     1      -5.340  -0.643   5.798  1.00  0.00     0.029 A 
ATOM     29  C   UNL     1      -4.433  -0.552   8.056  1.00  0.00     0.123 A 
ATOM     30  C   UNL     1      -5.523  -0.678   7.191  1.00  0.00     0.041 A 
ATOM     31  F   UNL     1      -4.631  -0.571   9.380  1.00  0.00    -0.207 F 
ENDBRANCH  17  20
ENDBRANCH   8  16
ENDBRANCH   5   8
ENDBRANCH   3   4
ENDBRANCH   2   3
ENDBRANCH   1   2
BRANCH   1  32
ATOM     32  C   UNL     1       0.524   3.526   8.091  1.00  0.00     0.116 C 
BRANCH  32  33
ATOM     33  N   UNL     1      -0.814   2.994   8.287  1.00  0.00    -0.352 N 
ATOM     34  C   UNL     1      -1.483   2.529   9.392  1.00  0.00     0.251 C 
ATOM     35  H   UNL     1      -1.348   2.960   7.461  1.00  0.00     0.163 HD
ATOM     36  O   UNL     1      -2.713   2.568   9.341  1.00  0.00    -0.269 OA
BRANCH  34  37
ATOM     37  C   UNL     1      -0.820   1.877  10.547  1.00  0.00     0.039 A 
ATOM     38  C   UNL     1       0.549   1.927  10.789  1.00  0.00     0.014 A 
ATOM     39  C   UNL     1      -1.628   1.063  11.361  1.00  0.00     0.014 A 
ATOM     40  C   UNL     1       1.132   1.043  11.676  1.00  0.00     0.010 A 
ATOM     41  C   UNL     1      -1.055   0.219  12.303  1.00  0.00     0.010 A 
ATOM     42  C   UNL     1       0.331   0.156  12.393  1.00  0.00    -0.014 A 
BRANCH  42  43
ATOM     43  C   UNL     1       1.021  -0.769  13.281  1.00  0.00     0.031 A 
ATOM     44  C   UNL     1       1.857  -0.112  14.331  1.00  0.00     0.074 A 
ATOM     45  C   UNL     1       0.852  -2.102  13.200  1.00  0.00     0.049 A 
ATOM     46  N   UNL     1       3.138  -0.186  14.515  1.00  0.00    -0.248 NA
ATOM     47  C   UNL     1       1.180   0.870  15.195  1.00  0.00     0.031 C 
ATOM     48  C   UNL     1      -0.139  -2.848  12.419  1.00  0.00     0.029 A 
ATOM     49  N   UNL     1       1.448  -3.071  13.942  1.00  0.00    -0.354 N 
ATOM     50  C   UNL     1       3.398   0.596  15.641  1.00  0.00     0.074 A 
ATOM     51  C   UNL     1       2.194   1.336  15.922  1.00  0.00     0.031 C 
ATOM     52  C   UNL     1      -0.270  -4.085  12.947  1.00  0.00     0.029 A 
ATOM     53  C   UNL     1       0.718  -4.253  13.997  1.00  0.00     0.049 A 
ATOM     54  H   UNL     1       2.313  -2.948  14.396  1.00  0.00     0.167 HD
ATOM     55  C   UNL     1       4.511   0.456  16.411  1.00  0.00     0.034 A 
ATOM     56  C   UNL     1       0.855  -5.220  14.937  1.00  0.00     0.034 A 
ATOM     57  C   UNL     1       5.539  -0.314  15.782  1.00  0.00     0.049 A 
ATOM     58  C   UNL     1       2.184  -5.025  15.569  1.00  0.00     0.074 A 
ATOM     59  C   UNL     1       6.337  -0.157  14.667  1.00  0.00     0.029 A 
ATOM     60  N   UNL     1       5.616  -1.643  16.117  1.00  0.00    -0.354 N 
ATOM     61  N   UNL     1       3.316  -5.171  14.938  1.00  0.00    -0.248 NA
ATOM     62  C   UNL     1       2.246  -4.250  16.798  1.00  0.00     0.031 C 
ATOM     63  C   UNL     1       6.443  -1.464  14.110  1.00  0.00     0.029 A 
ATOM     64  C   UNL     1       5.740  -2.338  14.943  1.00  0.00     0.049 A 
ATOM     65  H   UNL     1       5.586  -2.023  17.024  1.00  0.00     0.167 HD
ATOM     66  C   UNL     1       4.135  -4.174  15.451  1.00  0.00     0.074 A 
ATOM     67  C   UNL     1       3.456  -3.703  16.656  1.00  0.00     0.031 C 
ATOM     68  C   UNL     1       5.136  -3.628  14.703  1.00  0.00     0.034 A 
BRANCH  55  69
ATOM     69  C   UNL     1       4.529   0.758  17.881  1.00  0.00     0.023 A 
ATOM     70  C   UNL     1       5.753   1.043  18.517  1.00  0.00     0.012 A 
ATOM     71  C   UNL     1       3.400   0.537  18.702  1.00  0.00     0.148 A 
ATOM     72  C   UNL     1       5.840   1.125  19.912  1.00  0.00     0.002 A 
ATOM     73  C   UNL     1       3.474   0.695  20.078  1.00  0.00     0.091 A 
ATOM     74  F   UNL     1       2.277   0.054  18.155  1.00  0.00    -0.205 F 
ATOM     75  C   UNL     1       4.697   0.971  20.692  1.00  0.00     0.022 A 
BRANCH  73  76
ATOM     76  S   UNL     1       2.014   0.554  21.112  1.00  0.00     0.127 S 
ATOM     77  O   UNL     1       2.197  -0.769  21.698  1.00  0.00    -0.237 OA
ATOM     78  O   UNL     1       2.190   1.675  22.036  1.00  0.00    -0.237 OA
ATOM     79  O   UNL     1       0.888   0.708  20.199  1.00  0.00    -0.744 OA
ENDBRANCH  73  76
ENDBRANCH  55  69
BRANCH  56  80
ATOM     80  C   UNL     1      -0.191  -6.058  15.575  1.00  0.00     0.023 A 
ATOM     81  C   UNL     1       0.204  -7.188  16.321  1.00  0.00     0.012 A 
ATOM     82  C   UNL     1      -1.523  -5.606  15.712  1.00  0.00     0.148 A 
ATOM     83  C   UNL     1      -0.678  -7.812  17.211  1.00  0.00     0.002 A 
ATOM     84  C   UNL     1      -2.401  -6.240  16.588  1.00  0.00     0.091 A 
ATOM     85  F   UNL     1      -1.905  -4.497  15.067  1.00  0.00    -0.205 F 
ATOM     86  C   UNL     1      -1.976  -7.333  17.352  1.00  0.00     0.022 A 
BRANCH  84  87
ATOM     87  S   UNL     1      -4.090  -5.667  16.827  1.00  0.00     0.127 S 
ATOM     88  O   UNL     1      -4.842  -6.923  16.817  1.00  0.00    -0.237 OA
ATOM     89  O   UNL     1      -4.007  -5.014  18.130  1.00  0.00    -0.237 OA
ATOM     90  O   UNL     1      -4.373  -4.795  15.694  1.00  0.00    -0.744 OA
ENDBRANCH  84  87
ENDBRANCH  56  80
BRANCH  68  91
ATOM     91  C   UNL     1       5.452  -4.270  13.378  1.00  0.00     0.023 A 
ATOM     92  C   UNL     1       4.563  -4.193  12.284  1.00  0.00     0.012 A 
ATOM     93  C   UNL     1       6.740  -4.788  13.177  1.00  0.00     0.148 A 
ATOM     94  C   UNL     1       4.950  -4.636  11.017  1.00  0.00     0.002 A 
ATOM     95  C   UNL     1       7.133  -5.194  11.908  1.00  0.00     0.091 A 
ATOM     96  F   UNL     1       7.573  -4.834  14.227  1.00  0.00    -0.205 F 
ATOM     97  C   UNL     1       6.239  -5.125  10.826  1.00  0.00     0.022 A 
BRANCH  95  98
ATOM     98  S   UNL     1       8.814  -5.722  11.570  1.00  0.00     0.127 S 
ATOM     99  O   UNL     1       8.638  -7.156  11.325  1.00  0.00    -0.237 OA
ATOM    100  O   UNL     1       9.149  -4.940  10.375  1.00  0.00    -0.237 OA
ATOM    101  O   UNL     1       9.592  -5.380  12.745  1.00  0.00    -0.744 OA
ENDBRANCH  95  98
ENDBRANCH  68  91
ENDBRANCH  42  43
ENDBRANCH  34  37
ENDBRANCH  32  33
ENDBRANCH   1  32
TORSDOF 17
