REMARK SMILES Cc1cccc2nc([C@@H]3CCCC[C@@H]3C(=O)NCCCCNC(=O)c3ccc(-c4c5nc(c(-c6cccc(S(=O)(=O)[O-])c6F)c6ccc([nH]6)c(-c6cccc(S(=O)(=O)[O-])c6F)c6nc(c(-c7cccc(S(=O)(=O)[O-])c7F)c7ccc4[nH]7)C=C6)C=C5)cc3)oc12
REMARK SMILES IDX 20 1 19 2 18 3 17 4 15 5 16 6 14 8 9 9 10 10 11 11 13 12
REMARK SMILES IDX 12 13 8 14 1 15 2 16 3 17 89 18 4 19 6 20 88 21 5 22 7 23
REMARK SMILES IDX 21 24 22 25 23 26 24 28 25 29 26 30 87 31 27 32 86 33 28 34
REMARK SMILES IDX 29 35 30 36 80 37 31 38 85 39 79 40 81 41 32 42 84 43 78 44
REMARK SMILES IDX 77 45 33 47 65 48 45 49 64 50 46 51 49 52 63 53 82 54 47 55
REMARK SMILES IDX 48 56 62 58 83 59 50 60 34 61 35 62 43 63 36 64 38 65 44 66
REMARK SMILES IDX 37 67 39 68 40 69 41 70 42 71 66 72 67 73 75 74 68 75 70 76
REMARK SMILES IDX 76 77 69 78 71 79 72 80 73 81 74 82 51 83 52 84 60 85 53 86
REMARK SMILES IDX 55 87 61 88 54 89 56 90 57 91 58 92 59 93
REMARK H PARENT 17 7 22 27 81 46 49 57
REMARK Flexibility Score: inf
ROOT
ATOM      1  C   UNL     1      -3.780   4.454  -6.878  1.00  0.00     0.023 C 
ENDROOT
BRANCH   1   2
ATOM      2  C   UNL     1      -2.985   4.835  -5.627  1.00  0.00     0.023 C 
BRANCH   2   3
ATOM      3  C   UNL     1      -1.770   3.952  -5.369  1.00  0.00     0.116 C 
BRANCH   3   4
ATOM      4  N   UNL     1      -0.550   4.457  -5.966  1.00  0.00    -0.356 N 
ATOM      5  C   UNL     1       0.662   4.801  -5.470  1.00  0.00     0.223 C 
ATOM      6  O   UNL     1       1.554   4.903  -6.331  1.00  0.00    -0.275 OA
ATOM      7  H   UNL     1      -0.617   4.576  -6.941  1.00  0.00     0.163 HD
BRANCH   5   8
ATOM      8  C   UNL     1       1.010   5.273  -4.042  1.00  0.00     0.091 C 
ATOM      9  C   UNL     1       0.353   4.757  -2.745  1.00  0.00     0.088 C 
ATOM     10  C   UNL     1      -0.965   5.465  -2.362  1.00  0.00     0.014 C 
ATOM     11  C   UNL     1      -0.986   6.977  -2.620  1.00  0.00     0.001 C 
ATOM     12  C   UNL     1       1.053   6.809  -4.057  1.00  0.00     0.014 C 
ATOM     13  C   UNL     1      -0.343   7.395  -3.934  1.00  0.00     0.001 C 
BRANCH   9  14
ATOM     14  C   UNL     1       0.277   3.258  -2.740  1.00  0.00     0.199 A 
ATOM     15  C   UNL     1       1.062   0.097   0.249  1.00  0.00     0.048 C 
ATOM     16  C   UNL     1       0.602   0.102  -1.170  1.00  0.00    -0.006 A 
ATOM     17  C   UNL     1       0.434  -1.112  -1.869  1.00  0.00     0.007 A 
ATOM     18  C   UNL     1       0.419   1.249  -1.946  1.00  0.00     0.157 A 
ATOM     19  C   UNL     1       0.096  -1.155  -3.226  1.00  0.00     0.003 A 
ATOM     20  C   UNL     1       0.110   1.224  -3.297  1.00  0.00     0.110 A 
ATOM     21  O   UNL     1       0.520   2.574  -1.573  1.00  0.00    -0.440 OA
ATOM     22  C   UNL     1      -0.068   0.013  -3.964  1.00  0.00     0.032 A 
ATOM     23  N   UNL     1       0.047   2.490  -3.781  1.00  0.00    -0.213 NA
ENDBRANCH   9  14
ENDBRANCH   5   8
ENDBRANCH   3   4
ENDBRANCH   2   3
ENDBRANCH   1   2
BRANCH   1  24
ATOM     24  C   UNL     1      -4.478   3.099  -6.786  1.00  0.00     0.116 C 
BRANCH  24  25
ATOM     25  N   UNL     1      -5.472   3.054  -5.718  1.00  0.00    -0.352 N 
ATOM     26  C   UNL     1      -6.193   1.958  -5.290  1.00  0.00     0.251 C 
ATOM     27  H   UNL     1      -5.648   3.902  -5.250  1.00  0.00     0.163 HD
ATOM     28  O   UNL     1      -7.243   2.095  -4.684  1.00  0.00    -0.269 OA
BRANCH  26  29
ATOM     29  C   UNL     1      -5.659   0.614  -5.571  1.00  0.00     0.039 A 
ATOM     30  C   UNL     1      -6.493  -0.383  -6.085  1.00  0.00     0.014 A 
ATOM     31  C   UNL     1      -4.310   0.367  -5.306  1.00  0.00     0.014 A 
ATOM     32  C   UNL     1      -5.944  -1.624  -6.386  1.00  0.00     0.010 A 
ATOM     33  C   UNL     1      -3.752  -0.834  -5.678  1.00  0.00     0.010 A 
ATOM     34  C   UNL     1      -4.573  -1.838  -6.185  1.00  0.00    -0.014 A 
BRANCH  34  35
ATOM     35  C   UNL     1      -3.966  -3.092  -6.603  1.00  0.00     0.031 A 
ATOM     36  C   UNL     1      -4.032  -3.365  -8.064  1.00  0.00     0.074 A 
ATOM     37  C   UNL     1      -3.234  -3.857  -5.768  1.00  0.00     0.049 A 
ATOM     38  N   UNL     1      -4.747  -4.259  -8.666  1.00  0.00    -0.248 NA
ATOM     39  C   UNL     1      -3.320  -2.457  -8.976  1.00  0.00     0.031 C 
ATOM     40  C   UNL     1      -2.818  -3.562  -4.392  1.00  0.00     0.029 A 
ATOM     41  N   UNL     1      -2.594  -5.026  -6.032  1.00  0.00    -0.354 N 
ATOM     42  C   UNL     1      -4.393  -4.179 -10.011  1.00  0.00     0.074 A 
ATOM     43  C   UNL     1      -3.666  -2.946 -10.169  1.00  0.00     0.031 C 
ATOM     44  C   UNL     1      -1.819  -4.401  -4.037  1.00  0.00     0.029 A 
ATOM     45  C   UNL     1      -1.633  -5.380  -5.089  1.00  0.00     0.049 A 
ATOM     46  H   UNL     1      -2.793  -5.577  -6.823  1.00  0.00     0.167 HD
ATOM     47  C   UNL     1      -4.504  -5.249 -10.847  1.00  0.00     0.034 A 
ATOM     48  C   UNL     1      -0.722  -6.377  -5.218  1.00  0.00     0.034 A 
ATOM     49  C   UNL     1      -5.285  -6.307 -10.269  1.00  0.00     0.049 A 
ATOM     50  C   UNL     1      -1.283  -7.323  -6.212  1.00  0.00     0.074 A 
ATOM     51  C   UNL     1      -6.577  -6.426  -9.799  1.00  0.00     0.029 A 
ATOM     52  N   UNL     1      -4.588  -7.364  -9.736  1.00  0.00    -0.354 N 
ATOM     53  N   UNL     1      -2.377  -8.006  -6.019  1.00  0.00    -0.248 NA
ATOM     54  C   UNL     1      -0.852  -7.198  -7.594  1.00  0.00     0.031 C 
ATOM     55  C   UNL     1      -6.465  -7.244  -8.637  1.00  0.00     0.029 A 
ATOM     56  C   UNL     1      -5.126  -7.622  -8.505  1.00  0.00     0.049 A 
ATOM     57  H   UNL     1      -3.841  -7.846 -10.161  1.00  0.00     0.167 HD
ATOM     58  C   UNL     1      -3.001  -8.012  -7.259  1.00  0.00     0.074 A 
ATOM     59  C   UNL     1      -1.969  -7.599  -8.207  1.00  0.00     0.031 C 
ATOM     60  C   UNL     1      -4.359  -8.068  -7.363  1.00  0.00     0.034 A 
BRANCH  47  61
ATOM     61  C   UNL     1      -3.610  -5.504 -12.032  1.00  0.00     0.023 A 
ATOM     62  C   UNL     1      -4.021  -6.467 -12.979  1.00  0.00     0.012 A 
ATOM     63  C   UNL     1      -2.276  -5.049 -12.109  1.00  0.00     0.148 A 
ATOM     64  C   UNL     1      -3.140  -6.960 -13.948  1.00  0.00     0.002 A 
ATOM     65  C   UNL     1      -1.428  -5.483 -13.121  1.00  0.00     0.091 A 
ATOM     66  F   UNL     1      -1.772  -4.301 -11.121  1.00  0.00    -0.205 F 
ATOM     67  C   UNL     1      -1.847  -6.457 -14.029  1.00  0.00     0.022 A 
BRANCH  65  68
ATOM     68  S   UNL     1       0.238  -4.836 -13.287  1.00  0.00     0.127 S 
ATOM     69  O   UNL     1       1.035  -5.951 -12.784  1.00  0.00    -0.237 OA
ATOM     70  O   UNL     1       0.328  -4.606 -14.729  1.00  0.00    -0.237 OA
ATOM     71  O   UNL     1       0.256  -3.617 -12.488  1.00  0.00    -0.744 OA
ENDBRANCH  65  68
ENDBRANCH  47  61
BRANCH  48  72
ATOM     72  C   UNL     1       0.698  -6.447  -4.785  1.00  0.00     0.023 A 
ATOM     73  C   UNL     1       1.381  -7.679  -4.873  1.00  0.00     0.012 A 
ATOM     74  C   UNL     1       1.470  -5.282  -4.591  1.00  0.00     0.148 A 
ATOM     75  C   UNL     1       2.780  -7.738  -4.841  1.00  0.00     0.002 A 
ATOM     76  C   UNL     1       2.861  -5.348  -4.543  1.00  0.00     0.091 A 
ATOM     77  F   UNL     1       0.853  -4.096  -4.558  1.00  0.00    -0.205 F 
ATOM     78  C   UNL     1       3.522  -6.572  -4.689  1.00  0.00     0.022 A 
BRANCH  76  79
ATOM     79  S   UNL     1       3.876  -3.876  -4.346  1.00  0.00     0.127 S 
ATOM     80  O   UNL     1       4.875  -4.320  -3.374  1.00  0.00    -0.237 OA
ATOM     81  O   UNL     1       4.382  -3.673  -5.700  1.00  0.00    -0.237 OA
ATOM     82  O   UNL     1       2.971  -2.851  -3.842  1.00  0.00    -0.744 OA
ENDBRANCH  76  79
ENDBRANCH  48  72
BRANCH  60  83
ATOM     83  C   UNL     1      -5.162  -8.361  -6.123  1.00  0.00     0.023 A 
ATOM     84  C   UNL     1      -5.323  -7.407  -5.096  1.00  0.00     0.012 A 
ATOM     85  C   UNL     1      -5.967  -9.511  -6.124  1.00  0.00     0.148 A 
ATOM     86  C   UNL     1      -6.281  -7.594  -4.095  1.00  0.00     0.002 A 
ATOM     87  C   UNL     1      -6.945  -9.672  -5.152  1.00  0.00     0.091 A 
ATOM     88  F   UNL     1      -5.804 -10.391  -7.122  1.00  0.00    -0.205 F 
ATOM     89  C   UNL     1      -7.104  -8.718  -4.133  1.00  0.00     0.022 A 
BRANCH  87  90
ATOM     90  S   UNL     1      -8.122 -11.025  -5.210  1.00  0.00     0.127 S 
ATOM     91  O   UNL     1      -7.830 -11.738  -3.968  1.00  0.00    -0.237 OA
ATOM     92  O   UNL     1      -9.403 -10.316  -5.223  1.00  0.00    -0.237 OA
ATOM     93  O   UNL     1      -7.831 -11.768  -6.430  1.00  0.00    -0.744 OA
ENDBRANCH  87  90
ENDBRANCH  60  83
ENDBRANCH  34  35
ENDBRANCH  26  29
ENDBRANCH  24  25
ENDBRANCH   1  24
TORSDOF 15
