REMARK SMILES C[NH2+][C@@]1(C(=O)NCCCCNC(=O)c2ccc(-c3c4nc(c(-c5cccc(S(=O)(=O)[O-])c5F)c5ccc([nH]5)c(-c5cccc(S(=O)(=O)[O-])c5F)c5nc(c(-c6cccc(S(=O)(=O)[O-])c6F)c6ccc3[nH]6)C=C5)C=C4)cc2)CC[C@H](Sc2ccc(C)c(C)c2)C1
REMARK SMILES IDX 9 1 8 2 7 3 6 4 4 5 5 6 3 8 77 9 89 10 78 11 79 12 2 13 1 14
REMARK SMILES IDX 80 17 81 18 82 19 88 20 83 21 86 22 84 23 87 24 85 25 10 26
REMARK SMILES IDX 11 27 12 28 13 30 14 31 15 32 76 33 16 34 75 35 17 36 18 37
REMARK SMILES IDX 19 38 69 39 20 40 74 41 68 42 70 43 21 44 73 45 67 46 66 47
REMARK SMILES IDX 22 49 54 50 34 51 53 52 35 53 38 54 52 55 71 56 36 57 37 58
REMARK SMILES IDX 51 60 72 61 39 62 23 63 24 64 32 65 25 66 27 67 33 68 26 69
REMARK SMILES IDX 28 70 29 71 30 72 31 73 55 74 56 75 64 76 57 77 59 78 65 79
REMARK SMILES IDX 58 80 60 81 61 82 62 83 63 84 40 85 41 86 49 87 42 88 44 89
REMARK SMILES IDX 50 90 43 91 45 92 46 93 47 94 48 95
REMARK H PARENT 6 7 2 15 2 16 11 29 70 48 38 59
REMARK Flexibility Score: inf
ROOT
ATOM      1  C   UNL     1      -5.351  -2.767   2.581  1.00  0.00     0.023 C 
ENDROOT
BRANCH   1   2
ATOM      2  C   UNL     1      -4.593  -2.859   1.271  1.00  0.00     0.023 C 
BRANCH   2   3
ATOM      3  C   UNL     1      -3.874  -1.590   0.844  1.00  0.00     0.116 C 
BRANCH   3   4
ATOM      4  N   UNL     1      -2.555  -1.477   1.401  1.00  0.00    -0.351 N 
ATOM      5  C   UNL     1      -1.335  -1.436   0.796  1.00  0.00     0.281 C 
ATOM      6  O   UNL     1      -0.381  -1.525   1.579  1.00  0.00    -0.268 OA
ATOM      7  H   UNL     1      -2.528  -1.419   2.383  1.00  0.00     0.163 HD
BRANCH   5   8
ATOM      8  C   UNL     1      -1.146  -1.298  -0.781  1.00  0.00     0.176 C 
ATOM      9  C   UNL     1      -1.843  -0.078  -1.421  1.00  0.00     0.080 C 
ATOM     10  C   UNL     1      -1.743  -2.532  -1.504  1.00  0.00     0.094 C 
ATOM     11  C   UNL     1      -3.042  -0.571  -2.232  1.00  0.00     0.022 C 
ATOM     12  C   UNL     1      -2.739  -2.026  -2.570  1.00  0.00     0.058 C 
BRANCH   8  13
ATOM     13  N   UNL     1       0.319  -1.255  -1.088  1.00  0.00    -0.336 N 
ATOM     14  C   UNL     1       1.031  -0.087  -0.573  1.00  0.00     0.331 C 
ATOM     15  H   UNL     1       0.749  -2.088  -0.688  1.00  0.00     0.346 HD
ATOM     16  H   UNL     1       0.393  -1.205  -2.104  1.00  0.00     0.346 HD
ENDBRANCH   8  13
BRANCH  12  17
ATOM     17  S   UNL     1      -4.088  -3.280  -2.796  1.00  0.00    -0.122 SA
BRANCH  17  18
ATOM     18  C   UNL     1      -5.676  -2.496  -2.550  1.00  0.00     0.008 A 
ATOM     19  C   UNL     1      -6.053  -1.312  -3.174  1.00  0.00     0.015 A 
ATOM     20  C   UNL     1      -6.651  -3.194  -1.814  1.00  0.00     0.018 A 
ATOM     21  C   UNL     1      -7.359  -0.826  -3.042  1.00  0.00     0.005 A 
ATOM     22  C   UNL     1      -7.968  -2.712  -1.654  1.00  0.00    -0.047 A 
ATOM     23  C   UNL     1      -8.332  -1.519  -2.300  1.00  0.00    -0.048 A 
ATOM     24  C   UNL     1      -8.947  -3.519  -0.841  1.00  0.00     0.044 C 
ATOM     25  C   UNL     1      -9.732  -0.961  -2.285  1.00  0.00     0.044 C 
ENDBRANCH  17  18
ENDBRANCH  12  17
ENDBRANCH   5   8
ENDBRANCH   3   4
ENDBRANCH   2   3
ENDBRANCH   1   2
BRANCH   1  26
ATOM     26  C   UNL     1      -6.218  -1.528   2.754  1.00  0.00     0.116 C 
BRANCH  26  27
ATOM     27  N   UNL     1      -7.090  -1.205   1.626  1.00  0.00    -0.352 N 
ATOM     28  C   UNL     1      -8.385  -0.726   1.673  1.00  0.00     0.251 C 
ATOM     29  H   UNL     1      -6.710  -1.346   0.729  1.00  0.00     0.163 HD
ATOM     30  O   UNL     1      -8.989  -0.371   0.684  1.00  0.00    -0.269 OA
BRANCH  28  31
ATOM     31  C   UNL     1      -9.051  -0.707   2.983  1.00  0.00     0.039 A 
ATOM     32  C   UNL     1     -10.142  -1.554   3.189  1.00  0.00     0.014 A 
ATOM     33  C   UNL     1      -8.493   0.037   4.021  1.00  0.00     0.014 A 
ATOM     34  C   UNL     1     -10.641  -1.711   4.479  1.00  0.00     0.010 A 
ATOM     35  C   UNL     1      -8.931  -0.195   5.312  1.00  0.00     0.010 A 
ATOM     36  C   UNL     1     -10.012  -1.062   5.551  1.00  0.00    -0.014 A 
BRANCH  36  37
ATOM     37  C   UNL     1     -10.476  -1.223   6.947  1.00  0.00     0.031 A 
ATOM     38  C   UNL     1     -10.947  -0.004   7.688  1.00  0.00     0.074 A 
ATOM     39  C   UNL     1     -10.340  -2.406   7.575  1.00  0.00     0.049 A 
ATOM     40  N   UNL     1     -11.193   0.146   8.960  1.00  0.00    -0.248 NA
ATOM     41  C   UNL     1     -11.107   1.228   6.894  1.00  0.00     0.031 C 
ATOM     42  C   UNL     1      -9.824  -3.637   6.971  1.00  0.00     0.029 A 
ATOM     43  N   UNL     1     -10.585  -2.755   8.879  1.00  0.00    -0.354 N 
ATOM     44  C   UNL     1     -11.462   1.498   9.131  1.00  0.00     0.074 A 
ATOM     45  C   UNL     1     -11.323   2.130   7.839  1.00  0.00     0.031 C 
ATOM     46  C   UNL     1      -9.783  -4.602   7.905  1.00  0.00     0.029 A 
ATOM     47  C   UNL     1     -10.235  -4.051   9.178  1.00  0.00     0.049 A 
ATOM     48  H   UNL     1     -10.976  -2.136   9.538  1.00  0.00     0.167 HD
ATOM     49  C   UNL     1     -11.823   2.149  10.260  1.00  0.00     0.034 A 
ATOM     50  C   UNL     1     -10.262  -4.710  10.353  1.00  0.00     0.034 A 
ATOM     51  C   UNL     1     -12.044   1.491  11.516  1.00  0.00     0.049 A 
ATOM     52  C   UNL     1     -10.762  -3.985  11.575  1.00  0.00     0.074 A 
ATOM     53  C   UNL     1     -12.522   2.028  12.697  1.00  0.00     0.029 A 
ATOM     54  N   UNL     1     -11.815   0.143  11.748  1.00  0.00    -0.354 N 
ATOM     55  N   UNL     1     -11.151  -2.738  11.691  1.00  0.00    -0.248 NA
ATOM     56  C   UNL     1     -10.863  -4.764  12.817  1.00  0.00     0.031 C 
ATOM     57  C   UNL     1     -12.576   1.003  13.647  1.00  0.00     0.029 A 
ATOM     58  C   UNL     1     -12.146  -0.174  13.053  1.00  0.00     0.049 A 
ATOM     59  H   UNL     1     -11.467  -0.494  11.083  1.00  0.00     0.167 HD
ATOM     60  C   UNL     1     -11.573  -2.590  13.007  1.00  0.00     0.074 A 
ATOM     61  C   UNL     1     -11.412  -3.883  13.643  1.00  0.00     0.031 C 
ATOM     62  C   UNL     1     -12.035  -1.484  13.640  1.00  0.00     0.034 A 
BRANCH  49  63
ATOM     63  C   UNL     1     -12.059   3.632  10.165  1.00  0.00     0.023 A 
ATOM     64  C   UNL     1     -13.187   4.116   9.470  1.00  0.00     0.012 A 
ATOM     65  C   UNL     1     -11.187   4.546  10.787  1.00  0.00     0.148 A 
ATOM     66  C   UNL     1     -13.422   5.485   9.361  1.00  0.00     0.002 A 
ATOM     67  C   UNL     1     -11.454   5.908  10.714  1.00  0.00     0.091 A 
ATOM     68  F   UNL     1     -10.105   4.070  11.419  1.00  0.00    -0.205 F 
ATOM     69  C   UNL     1     -12.562   6.380   9.991  1.00  0.00     0.022 A 
BRANCH  67  70
ATOM     70  S   UNL     1     -10.452   7.137  11.558  1.00  0.00     0.127 S 
ATOM     71  O   UNL     1      -9.766   7.779  10.438  1.00  0.00    -0.237 OA
ATOM     72  O   UNL     1     -11.467   7.968  12.207  1.00  0.00    -0.237 OA
ATOM     73  O   UNL     1      -9.597   6.397  12.475  1.00  0.00    -0.744 OA
ENDBRANCH  67  70
ENDBRANCH  49  63
BRANCH  50  74
ATOM     74  C   UNL     1      -9.874  -6.148  10.412  1.00  0.00     0.023 A 
ATOM     75  C   UNL     1     -10.875  -7.120  10.606  1.00  0.00     0.012 A 
ATOM     76  C   UNL     1      -8.540  -6.563  10.237  1.00  0.00     0.148 A 
ATOM     77  C   UNL     1     -10.551  -8.477  10.655  1.00  0.00     0.002 A 
ATOM     78  C   UNL     1      -8.232  -7.919  10.234  1.00  0.00     0.091 A 
ATOM     79  F   UNL     1      -7.600  -5.623  10.064  1.00  0.00    -0.205 F 
ATOM     80  C   UNL     1      -9.233  -8.877  10.458  1.00  0.00     0.022 A 
BRANCH  78  81
ATOM     81  S   UNL     1      -6.585  -8.532   9.857  1.00  0.00     0.127 S 
ATOM     82  O   UNL     1      -6.129  -8.990  11.166  1.00  0.00    -0.237 OA
ATOM     83  O   UNL     1      -6.870  -9.598   8.896  1.00  0.00    -0.237 OA
ATOM     84  O   UNL     1      -5.866  -7.397   9.294  1.00  0.00    -0.744 OA
ENDBRANCH  78  81
ENDBRANCH  50  74
BRANCH  62  85
ATOM     85  C   UNL     1     -12.438  -1.623  15.083  1.00  0.00     0.023 A 
ATOM     86  C   UNL     1     -11.447  -1.729  16.077  1.00  0.00     0.012 A 
ATOM     87  C   UNL     1     -13.794  -1.552  15.457  1.00  0.00     0.148 A 
ATOM     88  C   UNL     1     -11.801  -1.787  17.424  1.00  0.00     0.002 A 
ATOM     89  C   UNL     1     -14.137  -1.563  16.803  1.00  0.00     0.091 A 
ATOM     90  F   UNL     1     -14.722  -1.471  14.492  1.00  0.00    -0.205 F 
ATOM     91  C   UNL     1     -13.143  -1.690  17.787  1.00  0.00     0.022 A 
BRANCH  89  92
ATOM     92  S   UNL     1     -15.830  -1.344  17.362  1.00  0.00     0.127 S 
ATOM     93  O   UNL     1     -16.191  -2.703  17.758  1.00  0.00    -0.237 OA
ATOM     94  O   UNL     1     -15.673  -0.405  18.473  1.00  0.00    -0.237 OA
ATOM     95  O   UNL     1     -16.560  -0.807  16.221  1.00  0.00    -0.744 OA
ENDBRANCH  89  92
ENDBRANCH  62  85
ENDBRANCH  36  37
ENDBRANCH  28  31
ENDBRANCH  26  27
ENDBRANCH   1  26
TORSDOF 17
