REMARK SMILES CSC[C@H](C(=O)NCCCCNC(=O)c1ccc(-c2c3nc(c(-c4cccc(S(=O)(=O)[O-])c4F)c4ccc([nH]4)c(-c4cccc(S(=O)(=O)[O-])c4F)c4nc(c(-c5cccc(S(=O)(=O)[O-])c5F)c5ccc2[nH]5)C=C4)C=C3)cc1)c1ccccc1
REMARK SMILES IDX 10 1 9 2 8 3 7 4 5 5 6 6 4 8 3 9 2 10 1 11 78 12 79 13 83 14
REMARK SMILES IDX 80 15 82 16 81 17 11 18 12 19 13 20 14 22 15 23 16 24 77 25
REMARK SMILES IDX 17 26 76 27 18 28 19 29 20 30 70 31 21 32 75 33 69 34 71 35
REMARK SMILES IDX 22 36 74 37 68 38 67 39 23 41 55 42 35 43 54 44 36 45 39 46
REMARK SMILES IDX 53 47 72 48 37 49 38 50 52 52 73 53 40 54 24 55 25 56 33 57
REMARK SMILES IDX 26 58 28 59 34 60 27 61 29 62 30 63 31 64 32 65 56 66 57 67
REMARK SMILES IDX 65 68 58 69 60 70 66 71 59 72 61 73 62 74 63 75 64 76 41 77
REMARK SMILES IDX 42 78 50 79 43 80 45 81 51 82 44 83 46 84 47 85 48 86 49 87
REMARK H PARENT 7 7 12 21 71 40 39 51
REMARK Flexibility Score: inf
ROOT
ATOM      1  C   UNL     1      -0.787  -1.188  -2.279  1.00  0.00     0.023 C 
ENDROOT
BRANCH   1   2
ATOM      2  C   UNL     1      -1.448  -0.383  -1.153  1.00  0.00     0.023 C 
BRANCH   2   3
ATOM      3  C   UNL     1      -0.585   0.644  -0.418  1.00  0.00     0.116 C 
BRANCH   3   4
ATOM      4  N   UNL     1       0.096   1.597  -1.271  1.00  0.00    -0.356 N 
ATOM      5  C   UNL     1       0.836   2.704  -0.930  1.00  0.00     0.228 C 
ATOM      6  O   UNL     1       1.406   3.289  -1.853  1.00  0.00    -0.274 OA
ATOM      7  H   UNL     1       0.016   1.428  -2.238  1.00  0.00     0.163 HD
BRANCH   5   8
ATOM      8  C   UNL     1       0.879   3.196   0.530  1.00  0.00     0.118 C 
BRANCH   8   9
ATOM      9  C   UNL     1       1.607   2.230   1.492  1.00  0.00     0.087 C 
BRANCH   9  10
ATOM     10  S   UNL     1       3.312   1.703   1.071  1.00  0.00    -0.164 SA
ATOM     11  C   UNL     1       2.969   0.186   0.147  1.00  0.00     0.085 C 
ENDBRANCH   9  10
ENDBRANCH   8   9
BRANCH   8  12
ATOM     12  C   UNL     1       1.265   4.684   0.667  1.00  0.00    -0.035 A 
ATOM     13  C   UNL     1       2.355   5.137   1.429  1.00  0.00     0.004 A 
ATOM     14  C   UNL     1       0.454   5.661   0.056  1.00  0.00     0.004 A 
ATOM     15  C   UNL     1       2.609   6.503   1.597  1.00  0.00     0.000 A 
ATOM     16  C   UNL     1       0.713   7.027   0.218  1.00  0.00     0.000 A 
ATOM     17  C   UNL     1       1.785   7.448   0.997  1.00  0.00     0.000 A 
ENDBRANCH   8  12
ENDBRANCH   5   8
ENDBRANCH   3   4
ENDBRANCH   2   3
ENDBRANCH   1   2
BRANCH   1  18
ATOM     18  C   UNL     1       0.455  -2.013  -1.943  1.00  0.00     0.116 C 
BRANCH  18  19
ATOM     19  N   UNL     1       0.248  -3.002  -0.899  1.00  0.00    -0.352 N 
ATOM     20  C   UNL     1       0.495  -4.357  -0.884  1.00  0.00     0.251 C 
ATOM     21  H   UNL     1      -0.131  -2.644  -0.065  1.00  0.00     0.163 HD
ATOM     22  O   UNL     1       0.165  -5.002   0.108  1.00  0.00    -0.269 OA
BRANCH  20  23
ATOM     23  C   UNL     1       1.114  -5.059  -2.039  1.00  0.00     0.039 A 
ATOM     24  C   UNL     1       0.594  -6.305  -2.408  1.00  0.00     0.014 A 
ATOM     25  C   UNL     1       2.213  -4.546  -2.733  1.00  0.00     0.014 A 
ATOM     26  C   UNL     1       1.127  -6.996  -3.502  1.00  0.00     0.010 A 
ATOM     27  C   UNL     1       2.700  -5.206  -3.869  1.00  0.00     0.010 A 
ATOM     28  C   UNL     1       2.163  -6.439  -4.270  1.00  0.00    -0.014 A 
BRANCH  28  29
ATOM     29  C   UNL     1       2.640  -7.130  -5.503  1.00  0.00     0.031 A 
ATOM     30  C   UNL     1       4.053  -7.643  -5.625  1.00  0.00     0.074 A 
ATOM     31  C   UNL     1       1.798  -7.272  -6.548  1.00  0.00     0.049 A 
ATOM     32  N   UNL     1       4.599  -8.329  -6.598  1.00  0.00    -0.248 NA
ATOM     33  C   UNL     1       4.978  -7.331  -4.525  1.00  0.00     0.031 C 
ATOM     34  C   UNL     1       0.433  -6.744  -6.608  1.00  0.00     0.029 A 
ATOM     35  N   UNL     1       1.964  -7.893  -7.763  1.00  0.00    -0.354 N 
ATOM     36  C   UNL     1       5.930  -8.514  -6.241  1.00  0.00     0.074 A 
ATOM     37  C   UNL     1       6.119  -7.833  -4.977  1.00  0.00     0.031 C 
ATOM     38  C   UNL     1      -0.120  -7.082  -7.783  1.00  0.00     0.029 A 
ATOM     39  C   UNL     1       0.853  -7.830  -8.573  1.00  0.00     0.049 A 
ATOM     40  H   UNL     1       2.799  -8.341  -8.029  1.00  0.00     0.167 HD
ATOM     41  C   UNL     1       6.901  -9.207  -6.886  1.00  0.00     0.034 A 
ATOM     42  C   UNL     1       0.634  -8.322  -9.809  1.00  0.00     0.034 A 
ATOM     43  C   UNL     1       6.711  -9.902  -8.134  1.00  0.00     0.049 A 
ATOM     44  C   UNL     1       1.712  -9.128 -10.482  1.00  0.00     0.074 A 
ATOM     45  C   UNL     1       7.612 -10.696  -8.823  1.00  0.00     0.029 A 
ATOM     46  N   UNL     1       5.549  -9.874  -8.890  1.00  0.00    -0.354 N 
ATOM     47  N   UNL     1       2.909  -9.434 -10.046  1.00  0.00    -0.248 NA
ATOM     48  C   UNL     1       1.389  -9.696 -11.799  1.00  0.00     0.031 C 
ATOM     49  C   UNL     1       7.006 -11.120 -10.011  1.00  0.00     0.029 A 
ATOM     50  C   UNL     1       5.712 -10.628 -10.041  1.00  0.00     0.049 A 
ATOM     51  H   UNL     1       4.728  -9.389  -8.645  1.00  0.00     0.167 HD
ATOM     52  C   UNL     1       3.466 -10.264 -11.014  1.00  0.00     0.074 A 
ATOM     53  C   UNL     1       2.465 -10.430 -12.047  1.00  0.00     0.031 C 
ATOM     54  C   UNL     1       4.699 -10.828 -11.046  1.00  0.00     0.034 A 
BRANCH  41  55
ATOM     55  C   UNL     1       8.258  -9.292  -6.229  1.00  0.00     0.023 A 
ATOM     56  C   UNL     1       8.416 -10.056  -5.054  1.00  0.00     0.012 A 
ATOM     57  C   UNL     1       9.386  -8.677  -6.807  1.00  0.00     0.148 A 
ATOM     58  C   UNL     1       9.664 -10.172  -4.442  1.00  0.00     0.002 A 
ATOM     59  C   UNL     1      10.636  -8.838  -6.219  1.00  0.00     0.091 A 
ATOM     60  F   UNL     1       9.217  -7.943  -7.916  1.00  0.00    -0.205 F 
ATOM     61  C   UNL     1      10.774  -9.573  -5.030  1.00  0.00     0.022 A 
BRANCH  59  62
ATOM     62  S   UNL     1      12.143  -8.179  -6.942  1.00  0.00     0.127 S 
ATOM     63  O   UNL     1      12.485  -7.119  -5.995  1.00  0.00    -0.237 OA
ATOM     64  O   UNL     1      13.034  -9.339  -6.907  1.00  0.00    -0.237 OA
ATOM     65  O   UNL     1      11.784  -7.728  -8.280  1.00  0.00    -0.744 OA
ENDBRANCH  59  62
ENDBRANCH  41  55
BRANCH  42  66
ATOM     66  C   UNL     1      -0.692  -8.130 -10.463  1.00  0.00     0.023 A 
ATOM     67  C   UNL     1      -1.544  -9.237 -10.649  1.00  0.00     0.012 A 
ATOM     68  C   UNL     1      -1.121  -6.857 -10.883  1.00  0.00     0.148 A 
ATOM     69  C   UNL     1      -2.781  -9.086 -11.277  1.00  0.00     0.002 A 
ATOM     70  C   UNL     1      -2.379  -6.703 -11.452  1.00  0.00     0.091 A 
ATOM     71  F   UNL     1      -0.292  -5.818 -10.706  1.00  0.00    -0.205 F 
ATOM     72  C   UNL     1      -3.203  -7.818 -11.669  1.00  0.00     0.022 A 
BRANCH  70  73
ATOM     73  S   UNL     1      -3.060  -5.093 -11.862  1.00  0.00     0.127 S 
ATOM     74  O   UNL     1      -3.081  -5.138 -13.321  1.00  0.00    -0.237 OA
ATOM     75  O   UNL     1      -4.375  -5.151 -11.224  1.00  0.00    -0.237 OA
ATOM     76  O   UNL     1      -2.150  -4.119 -11.273  1.00  0.00    -0.744 OA
ENDBRANCH  70  73
ENDBRANCH  42  66
BRANCH  54  77
ATOM     77  C   UNL     1       5.024 -11.725 -12.215  1.00  0.00     0.023 A 
ATOM     78  C   UNL     1       5.185 -11.181 -13.505  1.00  0.00     0.012 A 
ATOM     79  C   UNL     1       5.207 -13.110 -12.025  1.00  0.00     0.148 A 
ATOM     80  C   UNL     1       5.470 -12.006 -14.594  1.00  0.00     0.002 A 
ATOM     81  C   UNL     1       5.545 -13.918 -13.104  1.00  0.00     0.091 A 
ATOM     82  F   UNL     1       5.032 -13.617 -10.796  1.00  0.00    -0.205 F 
ATOM     83  C   UNL     1       5.659 -13.371 -14.392  1.00  0.00     0.022 A 
BRANCH  81  84
ATOM     84  S   UNL     1       5.904 -15.668 -12.918  1.00  0.00     0.127 S 
ATOM     85  O   UNL     1       4.694 -16.281 -13.465  1.00  0.00    -0.237 OA
ATOM     86  O   UNL     1       7.098 -15.831 -13.747  1.00  0.00    -0.237 OA
ATOM     87  O   UNL     1       6.126 -15.880 -11.494  1.00  0.00    -0.744 OA
ENDBRANCH  81  84
ENDBRANCH  54  77
ENDBRANCH  28  29
ENDBRANCH  20  23
ENDBRANCH  18  19
ENDBRANCH   1  18
TORSDOF 17
