REMARK SMILES O=C(Cn1c(=O)c2c3c(sc2n(Cc2ccc(Cl)cc2Cl)c1=O)CCCC3)NCCCCNC(=O)c1ccc(-c2c3nc(c(-c4cccc(S(=O)(=O)[O-])c4F)c4ccc([nH]4)c(-c4cccc(S(=O)(=O)[O-])c4F)c4nc(c(-c5cccc(S(=O)(=O)[O-])c5F)c5ccc2[nH]5)C=C4)C=C3)cc1
REMARK SMILES IDX 30 1 29 2 28 3 1 4 2 5 3 7 4 8 5 9 22 10 6 11 7 12 12 13
REMARK SMILES IDX 23 14 8 15 11 16 9 17 27 18 10 19 24 20 26 21 25 22 13 23
REMARK SMILES IDX 14 24 15 25 20 26 16 27 19 28 21 29 17 30 18 31 31 32 32 33
REMARK SMILES IDX 33 34 34 35 35 37 36 38 37 39 98 40 38 41 97 42 39 43 40 44
REMARK SMILES IDX 41 45 91 46 42 47 96 48 90 49 92 50 43 51 95 52 89 53 88 54
REMARK SMILES IDX 44 56 76 57 56 58 75 59 57 60 60 61 74 62 93 63 58 64 59 65
REMARK SMILES IDX 73 67 94 68 61 69 45 70 46 71 54 72 47 73 49 74 55 75 48 76
REMARK SMILES IDX 50 77 51 78 52 79 53 80 77 81 78 82 86 83 79 84 81 85 87 86
REMARK SMILES IDX 80 87 82 88 83 89 84 90 85 91 62 92 63 93 71 94 64 95 66 96
REMARK SMILES IDX 72 97 65 98 67 99 68 100 69 101 70 102
REMARK H PARENT 28 6 33 36 92 55 60 66
REMARK Flexibility Score: inf
ROOT
ATOM      1  C   UNL     1       3.025   2.529   2.817  1.00  0.00     0.023 C 
ENDROOT
BRANCH   1   2
ATOM      2  C   UNL     1       2.461   2.232   1.433  1.00  0.00     0.116 C 
BRANCH   2   3
ATOM      3  N   UNL     1       3.079   1.083   0.801  1.00  0.00    -0.355 N 
ATOM      4  O   UNL     1       1.130  -0.083   0.459  1.00  0.00    -0.273 OA
ATOM      5  C   UNL     1       2.319   0.105   0.197  1.00  0.00     0.240 C 
ATOM      6  H   UNL     1       4.060   1.000   0.805  1.00  0.00     0.163 HD
BRANCH   5   7
ATOM      7  C   UNL     1       3.083  -0.862  -0.713  1.00  0.00     0.230 C 
BRANCH   7   8
ATOM      8  N   UNL     1       3.921  -0.404  -1.829  1.00  0.00    -0.250 N 
ATOM      9  C   UNL     1       4.684  -1.429  -2.412  1.00  0.00     0.265 A 
ATOM     10  C   UNL     1       3.758   0.887  -2.364  1.00  0.00     0.332 A 
ATOM     11  O   UNL     1       4.777  -2.563  -1.929  1.00  0.00    -0.268 OA
ATOM     12  C   UNL     1       5.303  -1.092  -3.668  1.00  0.00     0.079 A 
ATOM     13  N   UNL     1       4.437   1.204  -3.543  1.00  0.00    -0.280 N 
ATOM     14  O   UNL     1       3.046   1.730  -1.818  1.00  0.00    -0.247 OA
ATOM     15  C   UNL     1       6.161  -1.867  -4.532  1.00  0.00    -0.019 A 
ATOM     16  C   UNL     1       5.108   0.168  -4.171  1.00  0.00     0.113 A 
ATOM     17  C   UNL     1       6.582  -1.104  -5.606  1.00  0.00     0.011 A 
ATOM     18  C   UNL     1       6.667  -3.267  -4.346  1.00  0.00     0.037 C 
ATOM     19  S   UNL     1       5.713   0.333  -5.732  1.00  0.00    -0.122 S 
ATOM     20  C   UNL     1       7.621  -1.468  -6.614  1.00  0.00     0.047 C 
ATOM     21  C   UNL     1       7.337  -3.790  -5.635  1.00  0.00     0.005 C 
ATOM     22  C   UNL     1       8.327  -2.766  -6.210  1.00  0.00     0.006 C 
BRANCH  13  23
ATOM     23  C   UNL     1       4.439   2.618  -4.020  1.00  0.00     0.165 C 
BRANCH  23  24
ATOM     24  C   UNL     1       5.752   3.322  -3.714  1.00  0.00    -0.009 A 
ATOM     25  C   UNL     1       5.971   3.787  -2.404  1.00  0.00     0.008 A 
ATOM     26  C   UNL     1       6.802   3.453  -4.644  1.00  0.00     0.047 A 
ATOM     27  C   UNL     1       7.234   4.220  -2.009  1.00  0.00     0.021 A 
ATOM     28  C   UNL     1       8.090   3.764  -4.221  1.00  0.00     0.041 A 
ATOM     29  Cl  UNL     1       6.556   3.394  -6.355  1.00  0.00    -0.084 Cl
ATOM     30  C   UNL     1       8.296   4.122  -2.898  1.00  0.00     0.042 A 
ATOM     31  Cl  UNL     1       9.871   4.453  -2.356  1.00  0.00    -0.084 Cl
ENDBRANCH  23  24
ENDBRANCH  13  23
ENDBRANCH   7   8
ENDBRANCH   5   7
ENDBRANCH   2   3
ENDBRANCH   1   2
BRANCH   1  32
ATOM     32  C   UNL     1       4.531   2.845   2.865  1.00  0.00     0.023 C 
BRANCH  32  33
ATOM     33  C   UNL     1       4.971   4.152   2.180  1.00  0.00     0.116 C 
BRANCH  33  34
ATOM     34  N   UNL     1       4.359   5.297   2.827  1.00  0.00    -0.352 N 
ATOM     35  C   UNL     1       4.900   6.395   3.440  1.00  0.00     0.251 C 
ATOM     36  H   UNL     1       3.374   5.282   2.825  1.00  0.00     0.163 HD
ATOM     37  O   UNL     1       4.201   6.974   4.275  1.00  0.00    -0.269 OA
BRANCH  35  38
ATOM     38  C   UNL     1       6.250   6.934   3.134  1.00  0.00     0.039 A 
ATOM     39  C   UNL     1       6.899   7.633   4.163  1.00  0.00     0.014 A 
ATOM     40  C   UNL     1       6.802   6.946   1.849  1.00  0.00     0.014 A 
ATOM     41  C   UNL     1       8.085   8.327   3.915  1.00  0.00     0.010 A 
ATOM     42  C   UNL     1       8.001   7.639   1.604  1.00  0.00     0.010 A 
ATOM     43  C   UNL     1       8.651   8.334   2.634  1.00  0.00    -0.014 A 
BRANCH  43  44
ATOM     44  C   UNL     1       9.978   8.978   2.483  1.00  0.00     0.031 A 
ATOM     45  C   UNL     1      11.001   8.177   1.730  1.00  0.00     0.074 A 
ATOM     46  C   UNL     1      10.116  10.322   2.566  1.00  0.00     0.049 A 
ATOM     47  N   UNL     1      11.101   8.158   0.432  1.00  0.00    -0.248 NA
ATOM     48  C   UNL     1      11.809   7.150   2.389  1.00  0.00     0.031 C 
ATOM     49  C   UNL     1       9.209  11.266   1.898  1.00  0.00     0.029 A 
ATOM     50  N   UNL     1      11.169  11.108   2.992  1.00  0.00    -0.354 N 
ATOM     51  C   UNL     1      11.956   7.115   0.089  1.00  0.00     0.074 A 
ATOM     52  C   UNL     1      12.358   6.514   1.341  1.00  0.00     0.031 C 
ATOM     53  C   UNL     1       9.819  12.467   1.814  1.00  0.00     0.029 A 
ATOM     54  C   UNL     1      11.098  12.423   2.525  1.00  0.00     0.049 A 
ATOM     55  H   UNL     1      11.896  10.775   3.565  1.00  0.00     0.167 HD
ATOM     56  C   UNL     1      12.304   6.832  -1.200  1.00  0.00     0.034 A 
ATOM     57  C   UNL     1      12.186  13.199   2.238  1.00  0.00     0.034 A 
ATOM     58  C   UNL     1      11.747   7.742  -2.177  1.00  0.00     0.049 A 
ATOM     59  C   UNL     1      12.588  12.613   0.908  1.00  0.00     0.074 A 
ATOM     60  C   UNL     1      10.743   7.775  -3.123  1.00  0.00     0.029 A 
ATOM     61  N   UNL     1      12.313   8.990  -2.274  1.00  0.00    -0.354 N 
ATOM     62  N   UNL     1      11.970  12.807  -0.229  1.00  0.00    -0.248 NA
ATOM     63  C   UNL     1      13.445  11.429   0.946  1.00  0.00     0.031 C 
ATOM     64  C   UNL     1      10.462   9.161  -3.350  1.00  0.00     0.029 A 
ATOM     65  C   UNL     1      11.316   9.893  -2.532  1.00  0.00     0.049 A 
ATOM     66  H   UNL     1      13.270   9.199  -2.175  1.00  0.00     0.167 HD
ATOM     67  C   UNL     1      12.098  11.601  -0.923  1.00  0.00     0.074 A 
ATOM     68  C   UNL     1      13.028  10.805  -0.144  1.00  0.00     0.031 C 
ATOM     69  C   UNL     1      11.319  11.232  -1.984  1.00  0.00     0.034 A 
BRANCH  56  70
ATOM     70  C   UNL     1      13.323   5.828  -1.651  1.00  0.00     0.023 A 
ATOM     71  C   UNL     1      14.431   6.360  -2.347  1.00  0.00     0.012 A 
ATOM     72  C   UNL     1      13.159   4.430  -1.633  1.00  0.00     0.148 A 
ATOM     73  C   UNL     1      15.291   5.554  -3.086  1.00  0.00     0.002 A 
ATOM     74  C   UNL     1      13.985   3.629  -2.430  1.00  0.00     0.091 A 
ATOM     75  F   UNL     1      12.213   3.896  -0.849  1.00  0.00    -0.205 F 
ATOM     76  C   UNL     1      15.046   4.192  -3.158  1.00  0.00     0.022 A 
BRANCH  74  77
ATOM     77  S   UNL     1      13.705   1.870  -2.703  1.00  0.00     0.127 S 
ATOM     78  O   UNL     1      13.593   1.799  -4.161  1.00  0.00    -0.237 OA
ATOM     79  O   UNL     1      14.929   1.281  -2.160  1.00  0.00    -0.237 OA
ATOM     80  O   UNL     1      12.485   1.534  -1.983  1.00  0.00    -0.744 OA
ENDBRANCH  74  77
ENDBRANCH  56  70
BRANCH  57  81
ATOM     81  C   UNL     1      13.140  13.433   3.378  1.00  0.00     0.023 A 
ATOM     82  C   UNL     1      12.569  13.927   4.575  1.00  0.00     0.012 A 
ATOM     83  C   UNL     1      14.526  13.184   3.382  1.00  0.00     0.148 A 
ATOM     84  C   UNL     1      13.305  14.029   5.758  1.00  0.00     0.002 A 
ATOM     85  C   UNL     1      15.241  13.210   4.580  1.00  0.00     0.091 A 
ATOM     86  F   UNL     1      15.150  12.929   2.227  1.00  0.00    -0.205 F 
ATOM     87  C   UNL     1      14.632  13.627   5.771  1.00  0.00     0.022 A 
BRANCH  85  88
ATOM     88  S   UNL     1      16.932  12.608   4.715  1.00  0.00     0.127 S 
ATOM     89  O   UNL     1      17.614  13.748   5.324  1.00  0.00    -0.237 OA
ATOM     90  O   UNL     1      16.756  11.453   5.595  1.00  0.00    -0.237 OA
ATOM     91  O   UNL     1      17.347  12.289   3.357  1.00  0.00    -0.744 OA
ENDBRANCH  85  88
ENDBRANCH  57  81
BRANCH  69  92
ATOM     92  C   UNL     1      10.313  12.236  -2.475  1.00  0.00     0.023 A 
ATOM     93  C   UNL     1      10.775  13.444  -3.026  1.00  0.00     0.012 A 
ATOM     94  C   UNL     1       8.924  11.975  -2.472  1.00  0.00     0.148 A 
ATOM     95  C   UNL     1       9.887  14.365  -3.581  1.00  0.00     0.002 A 
ATOM     96  C   UNL     1       8.046  12.876  -3.068  1.00  0.00     0.091 A 
ATOM     97  F   UNL     1       8.476  10.848  -1.898  1.00  0.00    -0.205 F 
ATOM     98  C   UNL     1       8.527  14.074  -3.618  1.00  0.00     0.022 A 
BRANCH  96  99
ATOM     99  S   UNL     1       6.284  12.565  -3.245  1.00  0.00     0.127 S 
ATOM    100  O   UNL     1       5.699  13.689  -2.514  1.00  0.00    -0.237 OA
ATOM    101  O   UNL     1       6.110  12.629  -4.697  1.00  0.00    -0.237 OA
ATOM    102  O   UNL     1       6.035  11.254  -2.660  1.00  0.00    -0.744 OA
ENDBRANCH  96  99
ENDBRANCH  69  92
ENDBRANCH  43  44
ENDBRANCH  35  38
ENDBRANCH  33  34
ENDBRANCH  32  33
ENDBRANCH   1  32
TORSDOF 17
