REMARK SMILES C/C(=C/C[N@H+]1C[C@H]2CCC[N@H+]2C[C@@H]1C)C(=O)NCCCCNC(=O)c1ccc(-c2c3nc(c(-c4cccc(S(=O)(=O)[O-])c4F)c4ccc([nH]4)c(-c4cccc(S(=O)(=O)[O-])c4F)c4nc(c(-c5cccc(S(=O)(=O)[O-])c5F)c5ccc2[nH]5)C=C4)C=C3)cc1
REMARK SMILES IDX 20 1 19 2 18 3 17 4 15 5 16 6 2 8 1 9 3 10 4 11 5 12 6 13
REMARK SMILES IDX 13 14 7 16 12 17 14 18 8 19 11 20 9 21 10 22 21 24 22 25
REMARK SMILES IDX 23 26 24 28 25 29 26 30 87 31 27 32 86 33 28 34 29 35 30 36
REMARK SMILES IDX 80 37 31 38 85 39 79 40 81 41 32 42 84 43 78 44 77 45 33 47
REMARK SMILES IDX 65 48 45 49 64 50 46 51 49 52 63 53 82 54 47 55 48 56 62 58
REMARK SMILES IDX 83 59 50 60 34 61 35 62 43 63 36 64 38 65 44 66 37 67 39 68
REMARK SMILES IDX 40 69 41 70 42 71 66 72 67 73 75 74 68 75 70 76 76 77 69 78
REMARK SMILES IDX 71 79 72 80 73 81 74 82 51 83 52 84 60 85 53 86 55 87 61 88
REMARK SMILES IDX 54 89 56 90 57 91 58 92 59 93
REMARK H PARENT 17 7 5 15 11 23 22 27 81 46 49 57
REMARK Flexibility Score: inf
ROOT
ATOM      1  C   UNL     1      -1.887  -3.781   4.983  1.00  0.00     0.023 C 
ENDROOT
BRANCH   1   2
ATOM      2  C   UNL     1      -1.584  -2.551   4.129  1.00  0.00     0.023 C 
BRANCH   2   3
ATOM      3  C   UNL     1      -0.093  -2.259   3.907  1.00  0.00     0.116 C 
BRANCH   3   4
ATOM      4  N   UNL     1       0.289  -2.616   2.563  1.00  0.00    -0.352 N 
ATOM      5  C   UNL     1       0.437  -1.936   1.408  1.00  0.00     0.246 C 
ATOM      6  O   UNL     1       0.754  -2.634   0.436  1.00  0.00    -0.270 OA
ATOM      7  H   UNL     1       0.487  -3.575   2.467  1.00  0.00     0.163 HD
BRANCH   5   8
ATOM      8  C   UNL     1       0.346  -0.438   1.207  1.00  0.00     0.015 C 
ATOM      9  C   UNL     1       1.133  -0.060  -0.046  1.00  0.00     0.050 C 
ATOM     10  C   UNL     1      -0.289   0.584   1.822  1.00  0.00     0.042 C 
BRANCH  10  11
ATOM     11  C   UNL     1      -1.219   0.725   2.987  1.00  0.00     0.292 C 
BRANCH  11  12
ATOM     12  N   UNL     1      -0.594   1.479   4.089  1.00  0.00    -0.320 N 
ATOM     13  C   UNL     1      -0.545   2.926   3.779  1.00  0.00     0.328 C 
ATOM     14  C   UNL     1      -1.223   1.225   5.417  1.00  0.00     0.237 C 
ATOM     15  H   UNL     1       0.361   1.131   4.168  1.00  0.00     0.348 HD
ATOM     16  C   UNL     1      -0.158   3.820   4.978  1.00  0.00     0.240 C 
ATOM     17  C   UNL     1      -1.869   2.476   6.087  1.00  0.00     0.328 C 
ATOM     18  C   UNL     1      -0.154   0.644   6.360  1.00  0.00     0.081 C 
ATOM     19  C   UNL     1      -0.326   5.307   4.670  1.00  0.00     0.077 C 
ATOM     20  N   UNL     1      -0.925   3.589   6.217  1.00  0.00    -0.323 N 
ATOM     21  C   UNL     1      -0.670   5.909   6.019  1.00  0.00     0.068 C 
ATOM     22  C   UNL     1      -1.549   4.839   6.640  1.00  0.00     0.263 C 
ATOM     23  H   UNL     1      -0.287   3.295   6.956  1.00  0.00     0.348 HD
ENDBRANCH  11  12
ENDBRANCH  10  11
ENDBRANCH   5   8
ENDBRANCH   3   4
ENDBRANCH   2   3
ENDBRANCH   1   2
BRANCH   1  24
ATOM     24  C   UNL     1      -1.476  -3.641   6.446  1.00  0.00     0.116 C 
BRANCH  24  25
ATOM     25  N   UNL     1      -2.104  -2.521   7.136  1.00  0.00    -0.352 N 
ATOM     26  C   UNL     1      -2.303  -2.352   8.487  1.00  0.00     0.251 C 
ATOM     27  H   UNL     1      -2.429  -1.790   6.561  1.00  0.00     0.163 HD
ATOM     28  O   UNL     1      -2.901  -1.363   8.903  1.00  0.00    -0.269 OA
BRANCH  26  29
ATOM     29  C   UNL     1      -1.854  -3.409   9.419  1.00  0.00     0.039 A 
ATOM     30  C   UNL     1      -2.767  -3.911  10.349  1.00  0.00     0.014 A 
ATOM     31  C   UNL     1      -0.576  -3.964   9.316  1.00  0.00     0.014 A 
ATOM     32  C   UNL     1      -2.430  -5.036  11.105  1.00  0.00     0.010 A 
ATOM     33  C   UNL     1      -0.273  -5.132  10.009  1.00  0.00     0.010 A 
ATOM     34  C   UNL     1      -1.201  -5.688  10.900  1.00  0.00    -0.014 A 
BRANCH  34  35
ATOM     35  C   UNL     1      -0.914  -6.987  11.558  1.00  0.00     0.031 A 
ATOM     36  C   UNL     1       0.223  -7.129  12.530  1.00  0.00     0.074 A 
ATOM     37  C   UNL     1      -1.634  -8.071  11.205  1.00  0.00     0.049 A 
ATOM     38  N   UNL     1       0.578  -8.177  13.228  1.00  0.00    -0.248 NA
ATOM     39  C   UNL     1       1.093  -5.958  12.722  1.00  0.00     0.031 C 
ATOM     40  C   UNL     1      -2.675  -8.096  10.173  1.00  0.00     0.029 A 
ATOM     41  N   UNL     1      -1.590  -9.366  11.659  1.00  0.00    -0.354 N 
ATOM     42  C   UNL     1       1.724  -7.804  13.918  1.00  0.00     0.074 A 
ATOM     43  C   UNL     1       2.030  -6.446  13.524  1.00  0.00     0.031 C 
ATOM     44  C   UNL     1      -3.182  -9.336  10.088  1.00  0.00     0.029 A 
ATOM     45  C   UNL     1      -2.502 -10.196  11.051  1.00  0.00     0.049 A 
ATOM     46  H   UNL     1      -0.964  -9.671  12.355  1.00  0.00     0.167 HD
ATOM     47  C   UNL     1       2.436  -8.512  14.826  1.00  0.00     0.034 A 
ATOM     48  C   UNL     1      -2.779 -11.498  11.262  1.00  0.00     0.034 A 
ATOM     49  C   UNL     1       2.096  -9.843  15.254  1.00  0.00     0.049 A 
ATOM     50  C   UNL     1      -2.053 -12.227  12.359  1.00  0.00     0.074 A 
ATOM     51  C   UNL     1       2.684 -10.605  16.247  1.00  0.00     0.029 A 
ATOM     52  N   UNL     1       1.078 -10.610  14.711  1.00  0.00    -0.354 N 
ATOM     53  N   UNL     1      -1.109 -11.787  13.157  1.00  0.00    -0.248 NA
ATOM     54  C   UNL     1      -2.464 -13.614  12.622  1.00  0.00     0.031 C 
ATOM     55  C   UNL     1       2.023 -11.838  16.302  1.00  0.00     0.029 A 
ATOM     56  C   UNL     1       1.018 -11.838  15.348  1.00  0.00     0.049 A 
ATOM     57  H   UNL     1       0.484 -10.324  13.980  1.00  0.00     0.167 HD
ATOM     58  C   UNL     1      -0.839 -12.828  14.038  1.00  0.00     0.074 A 
ATOM     59  C   UNL     1      -1.735 -13.912  13.690  1.00  0.00     0.031 C 
ATOM     60  C   UNL     1       0.081 -12.886  15.032  1.00  0.00     0.034 A 
BRANCH  47  61
ATOM     61  C   UNL     1       3.606  -7.827  15.480  1.00  0.00     0.023 A 
ATOM     62  C   UNL     1       3.366  -6.809  16.425  1.00  0.00     0.012 A 
ATOM     63  C   UNL     1       4.931  -8.213  15.203  1.00  0.00     0.148 A 
ATOM     64  C   UNL     1       4.425  -6.162  17.060  1.00  0.00     0.002 A 
ATOM     65  C   UNL     1       5.982  -7.591  15.870  1.00  0.00     0.091 A 
ATOM     66  F   UNL     1       5.144  -9.164  14.282  1.00  0.00    -0.205 F 
ATOM     67  C   UNL     1       5.731  -6.559  16.790  1.00  0.00     0.022 A 
BRANCH  65  68
ATOM     68  S   UNL     1       7.693  -8.086  15.642  1.00  0.00     0.127 S 
ATOM     69  O   UNL     1       8.196  -7.024  14.772  1.00  0.00    -0.237 OA
ATOM     70  O   UNL     1       8.214  -8.051  17.009  1.00  0.00    -0.237 OA
ATOM     71  O   UNL     1       7.644  -9.417  15.051  1.00  0.00    -0.744 OA
ENDBRANCH  65  68
ENDBRANCH  47  61
BRANCH  48  72
ATOM     72  C   UNL     1      -3.880 -12.150  10.500  1.00  0.00     0.023 A 
ATOM     73  C   UNL     1      -5.093 -12.436  11.156  1.00  0.00     0.012 A 
ATOM     74  C   UNL     1      -3.759 -12.435   9.127  1.00  0.00     0.148 A 
ATOM     75  C   UNL     1      -6.156 -13.020  10.467  1.00  0.00     0.002 A 
ATOM     76  C   UNL     1      -4.840 -12.969   8.433  1.00  0.00     0.091 A 
ATOM     77  F   UNL     1      -2.593 -12.166   8.522  1.00  0.00    -0.205 F 
ATOM     78  C   UNL     1      -6.034 -13.275   9.104  1.00  0.00     0.022 A 
BRANCH  76  79
ATOM     79  S   UNL     1      -4.813 -13.200   6.651  1.00  0.00     0.127 S 
ATOM     80  O   UNL     1      -4.651 -14.647   6.539  1.00  0.00    -0.237 OA
ATOM     81  O   UNL     1      -6.130 -12.695   6.258  1.00  0.00    -0.237 OA
ATOM     82  O   UNL     1      -3.699 -12.393   6.173  1.00  0.00    -0.744 OA
ENDBRANCH  76  79
ENDBRANCH  48  72
BRANCH  60  83
ATOM     83  C   UNL     1       0.155 -14.154  15.839  1.00  0.00     0.023 A 
ATOM     84  C   UNL     1       0.729 -15.308  15.269  1.00  0.00     0.012 A 
ATOM     85  C   UNL     1      -0.276 -14.186  17.179  1.00  0.00     0.148 A 
ATOM     86  C   UNL     1       0.846 -16.482  16.012  1.00  0.00     0.002 A 
ATOM     87  C   UNL     1      -0.117 -15.348  17.927  1.00  0.00     0.091 A 
ATOM     88  F   UNL     1      -0.843 -13.087  17.699  1.00  0.00    -0.205 F 
ATOM     89  C   UNL     1       0.434 -16.499  17.343  1.00  0.00     0.022 A 
BRANCH  87  90
ATOM     90  S   UNL     1      -0.541 -15.415  19.672  1.00  0.00     0.127 S 
ATOM     91  O   UNL     1      -1.870 -16.021  19.635  1.00  0.00    -0.237 OA
ATOM     92  O   UNL     1       0.507 -16.277  20.221  1.00  0.00    -0.237 OA
ATOM     93  O   UNL     1      -0.484 -14.036  20.140  1.00  0.00    -0.744 OA
ENDBRANCH  87  90
ENDBRANCH  60  83
ENDBRANCH  34  35
ENDBRANCH  26  29
ENDBRANCH  24  25
ENDBRANCH   1  24
TORSDOF 16
