REMARK SMILES Cc1nc(-c2ccccc2Cl)nc2sc(C(=O)NCCCCNC(=O)c3ccc(-c4c5nc(c(-c6cccc(S(=O)(=O)[O-])c6F)c6ccc([nH]6)c(-c6cccc(S(=O)(=O)[O-])c6F)c6nc(c(-c7cccc(S(=O)(=O)[O-])c7F)c7ccc4[nH]7)C=C6)C=C5)cc3)c(N)c12
REMARK SMILES IDX 21 1 20 2 19 3 18 4 16 5 17 6 15 8 1 9 2 10 3 11 91 12 4 13
REMARK SMILES IDX 13 14 89 15 12 16 14 17 5 18 6 19 10 20 7 21 9 22 11 23 8 24
REMARK SMILES IDX 90 25 22 28 23 29 24 30 25 32 26 33 27 34 88 35 28 36 87 37
REMARK SMILES IDX 29 38 30 39 31 40 81 41 32 42 86 43 80 44 82 45 33 46 85 47
REMARK SMILES IDX 79 48 78 49 34 51 66 52 46 53 65 54 47 55 50 56 64 57 83 58
REMARK SMILES IDX 48 59 49 60 63 62 84 63 51 64 35 65 36 66 44 67 37 68 39 69
REMARK SMILES IDX 45 70 38 71 40 72 41 73 42 74 43 75 67 76 68 77 76 78 69 79
REMARK SMILES IDX 71 80 77 81 70 82 72 83 73 84 74 85 75 86 52 87 53 88 61 89
REMARK SMILES IDX 54 90 56 91 62 92 55 93 57 94 58 95 59 96 60 97
REMARK H PARENT 18 7 90 26 90 27 23 31 82 50 50 61
REMARK Flexibility Score: inf
ROOT
ATOM      1  C   UNL     1      -6.381  -5.308   3.201  1.00  0.00     0.023 C 
ENDROOT
BRANCH   1   2
ATOM      2  C   UNL     1      -5.110  -4.969   2.412  1.00  0.00     0.023 C 
BRANCH   2   3
ATOM      3  C   UNL     1      -5.320  -4.204   1.090  1.00  0.00     0.116 C 
BRANCH   3   4
ATOM      4  N   UNL     1      -5.398  -2.760   1.287  1.00  0.00    -0.351 N 
ATOM      5  C   UNL     1      -4.445  -1.757   1.284  1.00  0.00     0.263 C 
ATOM      6  O   UNL     1      -4.882  -0.609   1.422  1.00  0.00    -0.268 OA
ATOM      7  H   UNL     1      -6.312  -2.435   1.455  1.00  0.00     0.163 HD
BRANCH   5   8
ATOM      8  C   UNL     1      -3.014  -2.006   1.109  1.00  0.00     0.118 A 
ATOM      9  C   UNL     1       0.976   0.130  -0.043  1.00  0.00     0.067 C 
ATOM     10  C   UNL     1       0.560  -1.299   0.129  1.00  0.00     0.052 A 
ATOM     11  N   UNL     1       1.521  -2.250  -0.108  1.00  0.00    -0.233 NA
ATOM     12  C   UNL     1      -0.730  -1.720   0.524  1.00  0.00     0.056 A 
ATOM     13  C   UNL     1       1.222  -3.545   0.102  1.00  0.00     0.162 A 
ATOM     14  C   UNL     1      -0.842  -3.074   0.767  1.00  0.00     0.130 A 
ATOM     15  C   UNL     1      -2.016  -1.096   0.749  1.00  0.00     0.067 A 
ATOM     16  N   UNL     1       0.074  -4.019   0.573  1.00  0.00    -0.217 NA
ATOM     17  S   UNL     1      -2.304  -3.512   1.454  1.00  0.00    -0.108 S 
BRANCH  13  18
ATOM     18  C   UNL     1       2.205  -4.590  -0.158  1.00  0.00     0.038 A 
ATOM     19  C   UNL     1       1.945  -5.531  -1.179  1.00  0.00     0.013 A 
ATOM     20  C   UNL     1       3.289  -4.827   0.697  1.00  0.00     0.052 A 
ATOM     21  C   UNL     1       2.726  -6.678  -1.326  1.00  0.00     0.001 A 
ATOM     22  C   UNL     1       4.072  -5.979   0.548  1.00  0.00     0.021 A 
ATOM     23  Cl  UNL     1       3.661  -3.780   2.026  1.00  0.00    -0.084 Cl
ATOM     24  C   UNL     1       3.786  -6.905  -0.455  1.00  0.00     0.002 A 
ENDBRANCH  13  18
BRANCH  15  25
ATOM     25  N   UNL     1      -2.269   0.220   0.568  1.00  0.00    -0.397 N 
ATOM     26  H   UNL     1      -3.171   0.576   0.741  1.00  0.00     0.156 HD
ATOM     27  H   UNL     1      -1.552   0.822   0.263  1.00  0.00     0.156 HD
ENDBRANCH  15  25
ENDBRANCH   5   8
ENDBRANCH   3   4
ENDBRANCH   2   3
ENDBRANCH   1   2
BRANCH   1  28
ATOM     28  C   UNL     1      -7.270  -6.346   2.535  1.00  0.00     0.116 C 
BRANCH  28  29
ATOM     29  N   UNL     1      -6.651  -7.676   2.412  1.00  0.00    -0.352 N 
ATOM     30  C   UNL     1      -7.166  -8.792   1.753  1.00  0.00     0.251 C 
ATOM     31  H   UNL     1      -5.774  -7.791   2.845  1.00  0.00     0.163 HD
ATOM     32  O   UNL     1      -6.789  -9.922   1.999  1.00  0.00    -0.269 OA
BRANCH  30  33
ATOM     33  C   UNL     1      -8.160  -8.533   0.697  1.00  0.00     0.039 A 
ATOM     34  C   UNL     1      -9.350  -9.251   0.542  1.00  0.00     0.014 A 
ATOM     35  C   UNL     1      -7.882  -7.425  -0.087  1.00  0.00     0.014 A 
ATOM     36  C   UNL     1     -10.277  -8.784  -0.390  1.00  0.00     0.010 A 
ATOM     37  C   UNL     1      -8.910  -6.807  -0.722  1.00  0.00     0.010 A 
ATOM     38  C   UNL     1     -10.037  -7.551  -1.014  1.00  0.00    -0.014 A 
BRANCH  38  39
ATOM     39  C   UNL     1     -10.919  -6.950  -1.994  1.00  0.00     0.031 A 
ATOM     40  C   UNL     1     -12.290  -6.672  -1.512  1.00  0.00     0.074 A 
ATOM     41  C   UNL     1     -10.434  -6.463  -3.162  1.00  0.00     0.049 A 
ATOM     42  N   UNL     1     -13.361  -7.312  -1.834  1.00  0.00    -0.248 NA
ATOM     43  C   UNL     1     -12.484  -5.687  -0.438  1.00  0.00     0.031 C 
ATOM     44  C   UNL     1      -9.037  -6.363  -3.625  1.00  0.00     0.029 A 
ATOM     45  N   UNL     1     -11.103  -5.808  -4.139  1.00  0.00    -0.354 N 
ATOM     46  C   UNL     1     -14.404  -6.654  -1.192  1.00  0.00     0.074 A 
ATOM     47  C   UNL     1     -13.791  -5.816  -0.195  1.00  0.00     0.031 C 
ATOM     48  C   UNL     1      -8.956  -5.469  -4.637  1.00  0.00     0.029 A 
ATOM     49  C   UNL     1     -10.300  -5.090  -5.019  1.00  0.00     0.049 A 
ATOM     50  H   UNL     1     -12.083  -5.836  -4.220  1.00  0.00     0.167 HD
ATOM     51  C   UNL     1     -15.667  -6.678  -1.702  1.00  0.00     0.034 A 
ATOM     52  C   UNL     1     -10.733  -4.224  -5.968  1.00  0.00     0.034 A 
ATOM     53  C   UNL     1     -15.771  -7.627  -2.785  1.00  0.00     0.049 A 
ATOM     54  C   UNL     1     -12.152  -4.568  -6.234  1.00  0.00     0.074 A 
ATOM     55  C   UNL     1     -15.584  -8.989  -2.903  1.00  0.00     0.029 A 
ATOM     56  N   UNL     1     -15.674  -7.119  -4.061  1.00  0.00    -0.354 N 
ATOM     57  N   UNL     1     -12.518  -5.704  -6.761  1.00  0.00    -0.248 NA
ATOM     58  C   UNL     1     -13.171  -3.873  -5.465  1.00  0.00     0.031 C 
ATOM     59  C   UNL     1     -14.893  -9.153  -4.140  1.00  0.00     0.029 A 
ATOM     60  C   UNL     1     -14.780  -7.900  -4.747  1.00  0.00     0.049 A 
ATOM     61  H   UNL     1     -16.159  -6.339  -4.415  1.00  0.00     0.167 HD
ATOM     62  C   UNL     1     -13.625  -6.087  -6.014  1.00  0.00     0.074 A 
ATOM     63  C   UNL     1     -14.040  -4.876  -5.300  1.00  0.00     0.031 C 
ATOM     64  C   UNL     1     -13.918  -7.405  -5.800  1.00  0.00     0.034 A 
BRANCH  51  65
ATOM     65  C   UNL     1     -16.731  -5.633  -1.486  1.00  0.00     0.023 A 
ATOM     66  C   UNL     1     -18.042  -5.952  -1.907  1.00  0.00     0.012 A 
ATOM     67  C   UNL     1     -16.476  -4.288  -1.139  1.00  0.00     0.148 A 
ATOM     68  C   UNL     1     -19.035  -4.975  -2.022  1.00  0.00     0.002 A 
ATOM     69  C   UNL     1     -17.487  -3.333  -1.183  1.00  0.00     0.091 A 
ATOM     70  F   UNL     1     -15.226  -3.888  -0.889  1.00  0.00    -0.205 F 
ATOM     71  C   UNL     1     -18.760  -3.665  -1.653  1.00  0.00     0.022 A 
BRANCH  69  72
ATOM     72  S   UNL     1     -17.206  -1.633  -0.674  1.00  0.00     0.127 S 
ATOM     73  O   UNL     1     -17.222  -0.937  -1.957  1.00  0.00    -0.237 OA
ATOM     74  O   UNL     1     -18.366  -1.383   0.183  1.00  0.00    -0.237 OA
ATOM     75  O   UNL     1     -15.932  -1.644   0.034  1.00  0.00    -0.744 OA
ENDBRANCH  69  72
ENDBRANCH  51  65
BRANCH  52  76
ATOM     76  C   UNL     1     -10.139  -2.951  -6.436  1.00  0.00     0.023 A 
ATOM     77  C   UNL     1     -10.534  -2.412  -7.677  1.00  0.00     0.012 A 
ATOM     78  C   UNL     1      -9.446  -2.113  -5.534  1.00  0.00     0.148 A 
ATOM     79  C   UNL     1     -10.292  -1.068  -7.990  1.00  0.00     0.002 A 
ATOM     80  C   UNL     1      -9.219  -0.775  -5.845  1.00  0.00     0.091 A 
ATOM     81  F   UNL     1      -9.099  -2.606  -4.338  1.00  0.00    -0.205 F 
ATOM     82  C   UNL     1      -9.650  -0.245  -7.068  1.00  0.00     0.022 A 
BRANCH  80  83
ATOM     83  S   UNL     1      -8.459   0.367  -4.680  1.00  0.00     0.127 S 
ATOM     84  O   UNL     1      -7.407   0.975  -5.495  1.00  0.00    -0.237 OA
ATOM     85  O   UNL     1      -9.575   1.252  -4.358  1.00  0.00    -0.237 OA
ATOM     86  O   UNL     1      -7.970  -0.456  -3.580  1.00  0.00    -0.744 OA
ENDBRANCH  80  83
ENDBRANCH  52  76
BRANCH  64  87
ATOM     87  C   UNL     1     -13.112  -8.445  -6.547  1.00  0.00     0.023 A 
ATOM     88  C   UNL     1     -11.720  -8.607  -6.366  1.00  0.00     0.012 A 
ATOM     89  C   UNL     1     -13.804  -9.400  -7.307  1.00  0.00     0.148 A 
ATOM     90  C   UNL     1     -11.036  -9.681  -6.944  1.00  0.00     0.002 A 
ATOM     91  C   UNL     1     -13.131 -10.493  -7.840  1.00  0.00     0.091 A 
ATOM     92  F   UNL     1     -15.126  -9.240  -7.472  1.00  0.00    -0.205 F 
ATOM     93  C   UNL     1     -11.745 -10.633  -7.670  1.00  0.00     0.022 A 
BRANCH  91  94
ATOM     94  S   UNL     1     -14.016 -11.816  -8.667  1.00  0.00     0.127 S 
ATOM     95  O   UNL     1     -13.746 -11.530 -10.074  1.00  0.00    -0.237 OA
ATOM     96  O   UNL     1     -13.353 -13.014  -8.148  1.00  0.00    -0.237 OA
ATOM     97  O   UNL     1     -15.407 -11.683  -8.252  1.00  0.00    -0.744 OA
ENDBRANCH  91  94
ENDBRANCH  64  87
ENDBRANCH  38  39
ENDBRANCH  30  33
ENDBRANCH  28  29
ENDBRANCH   1  28
TORSDOF 16
