REMARK SMILES O=C(NCCCCNC(=O)[C@@H]1CC=CC[C@H]1C(=O)N1CC[NH+](Cc2ccc3c(c2)OCO3)CC1)c1ccc(-c2c3nc(c(-c4cccc(S(=O)(=O)[O-])c4F)c4ccc([nH]4)c(-c4cccc(S(=O)(=O)[O-])c4F)c4nc(c(-c5cccc(S(=O)(=O)[O-])c5F)c5ccc2[nH]5)C=C4)C=C3)cc1
REMARK SMILES IDX 5 1 4 2 3 3 1 4 2 5 35 7 36 8 97 9 37 10 96 11 38 12 39 13
REMARK SMILES IDX 40 14 90 15 41 16 95 17 89 18 91 19 42 20 94 21 88 22 87 23
REMARK SMILES IDX 43 25 75 26 55 27 74 28 56 29 59 30 73 31 92 32 57 33 58 34
REMARK SMILES IDX 72 36 93 37 60 38 44 39 45 40 53 41 46 42 48 43 54 44 47 45
REMARK SMILES IDX 49 46 50 47 51 48 52 49 76 50 77 51 85 52 78 53 80 54 86 55
REMARK SMILES IDX 79 56 81 57 82 58 83 59 84 60 61 61 62 62 70 63 63 64 65 65
REMARK SMILES IDX 71 66 64 67 66 68 67 69 68 70 69 71 6 72 7 73 8 74 9 75
REMARK SMILES IDX 10 77 11 78 12 79 16 80 13 81 15 82 14 83 17 84 18 85 19 86
REMARK SMILES IDX 20 87 34 88 21 89 33 90 22 91 23 93 24 94 25 95 29 96 26 97
REMARK SMILES IDX 28 98 27 99 30 100 32 101 31 102
REMARK H PARENT 3 6 91 24 59 35 8 76 22 92
REMARK Flexibility Score: inf
ROOT
ATOM      1  C   UNL     1       3.011   8.451  -3.639  1.00  0.00     0.023 C 
ENDROOT
BRANCH   1   2
ATOM      2  C   UNL     1       2.447   8.711  -2.255  1.00  0.00     0.116 C 
BRANCH   2   3
ATOM      3  N   UNL     1       3.144   9.759  -1.525  1.00  0.00    -0.352 N 
ATOM      4  O   UNL     1       3.300  11.497  -0.084  1.00  0.00    -0.269 OA
ATOM      5  C   UNL     1       2.622  10.595  -0.563  1.00  0.00     0.251 C 
ATOM      6  H   UNL     1       4.095   9.886  -1.743  1.00  0.00     0.163 HD
BRANCH   5   7
ATOM      7  C   UNL     1       1.214  10.401  -0.168  1.00  0.00     0.039 A 
ATOM      8  C   UNL     1       0.761   9.122   0.160  1.00  0.00     0.014 A 
ATOM      9  C   UNL     1       0.327  11.477  -0.232  1.00  0.00     0.014 A 
ATOM     10  C   UNL     1      -0.601   8.888   0.257  1.00  0.00     0.010 A 
ATOM     11  C   UNL     1      -1.037  11.255  -0.029  1.00  0.00     0.010 A 
ATOM     12  C   UNL     1      -1.515   9.953   0.179  1.00  0.00    -0.014 A 
BRANCH  12  13
ATOM     13  C   UNL     1      -2.952   9.664   0.405  1.00  0.00     0.031 A 
ATOM     14  C   UNL     1      -3.983   9.870  -0.668  1.00  0.00     0.074 A 
ATOM     15  C   UNL     1      -3.306   9.156   1.603  1.00  0.00     0.049 A 
ATOM     16  N   UNL     1      -5.259   9.584  -0.639  1.00  0.00    -0.248 NA
ATOM     17  C   UNL     1      -3.537  10.480  -1.931  1.00  0.00     0.031 C 
ATOM     18  C   UNL     1      -2.392   8.971   2.734  1.00  0.00     0.029 A 
ATOM     19  N   UNL     1      -4.505   8.685   2.065  1.00  0.00    -0.354 N 
ATOM     20  C   UNL     1      -5.777  10.009  -1.856  1.00  0.00     0.074 A 
ATOM     21  C   UNL     1      -4.677  10.581  -2.603  1.00  0.00     0.031 C 
ATOM     22  C   UNL     1      -3.049   8.377   3.738  1.00  0.00     0.029 A 
ATOM     23  C   UNL     1      -4.440   8.190   3.346  1.00  0.00     0.049 A 
ATOM     24  H   UNL     1      -5.333   8.699   1.532  1.00  0.00     0.167 HD
ATOM     25  C   UNL     1      -7.050   9.916  -2.312  1.00  0.00     0.034 A 
ATOM     26  C   UNL     1      -5.394   7.647   4.125  1.00  0.00     0.034 A 
ATOM     27  C   UNL     1      -8.129   9.310  -1.574  1.00  0.00     0.049 A 
ATOM     28  C   UNL     1      -6.775   7.492   3.563  1.00  0.00     0.074 A 
ATOM     29  C   UNL     1      -9.447   9.139  -1.959  1.00  0.00     0.029 A 
ATOM     30  N   UNL     1      -8.013   8.767  -0.302  1.00  0.00    -0.354 N 
ATOM     31  N   UNL     1      -7.218   7.807   2.370  1.00  0.00    -0.248 NA
ATOM     32  C   UNL     1      -7.782   6.884   4.441  1.00  0.00     0.031 C 
ATOM     33  C   UNL     1     -10.129   8.495  -0.920  1.00  0.00     0.029 A 
ATOM     34  C   UNL     1      -9.233   8.257   0.110  1.00  0.00     0.049 A 
ATOM     35  H   UNL     1      -7.185   8.748   0.230  1.00  0.00     0.167 HD
ATOM     36  C   UNL     1      -8.555   7.439   2.353  1.00  0.00     0.074 A 
ATOM     37  C   UNL     1      -8.836   6.828   3.638  1.00  0.00     0.031 C 
ATOM     38  C   UNL     1      -9.479   7.622   1.378  1.00  0.00     0.034 A 
BRANCH  25  39
ATOM     39  C   UNL     1      -7.345  10.429  -3.697  1.00  0.00     0.023 A 
ATOM     40  C   UNL     1      -6.948   9.665  -4.813  1.00  0.00     0.012 A 
ATOM     41  C   UNL     1      -8.084  11.612  -3.898  1.00  0.00     0.148 A 
ATOM     42  C   UNL     1      -7.267  10.076  -6.107  1.00  0.00     0.002 A 
ATOM     43  C   UNL     1      -8.427  11.999  -5.190  1.00  0.00     0.091 A 
ATOM     44  F   UNL     1      -8.433  12.337  -2.826  1.00  0.00    -0.205 F 
ATOM     45  C   UNL     1      -8.015  11.236  -6.294  1.00  0.00     0.022 A 
BRANCH  43  46
ATOM     46  S   UNL     1      -9.446  13.439  -5.533  1.00  0.00     0.127 S 
ATOM     47  O   UNL     1      -8.466  14.366  -6.098  1.00  0.00    -0.237 OA
ATOM     48  O   UNL     1     -10.412  12.913  -6.497  1.00  0.00    -0.237 OA
ATOM     49  O   UNL     1     -10.020  13.837  -4.255  1.00  0.00    -0.744 OA
ENDBRANCH  43  46
ENDBRANCH  25  39
BRANCH  26  50
ATOM     50  C   UNL     1      -5.041   7.173   5.491  1.00  0.00     0.023 A 
ATOM     51  C   UNL     1      -5.025   5.793   5.767  1.00  0.00     0.012 A 
ATOM     52  C   UNL     1      -4.640   8.077   6.493  1.00  0.00     0.148 A 
ATOM     53  C   UNL     1      -4.632   5.324   7.021  1.00  0.00     0.002 A 
ATOM     54  C   UNL     1      -4.185   7.600   7.716  1.00  0.00     0.091 A 
ATOM     55  F   UNL     1      -4.681   9.390   6.224  1.00  0.00    -0.205 F 
ATOM     56  C   UNL     1      -4.196   6.226   7.990  1.00  0.00     0.022 A 
BRANCH  54  57
ATOM     57  S   UNL     1      -3.444   8.705   8.924  1.00  0.00     0.127 S 
ATOM     58  O   UNL     1      -4.585   9.035   9.772  1.00  0.00    -0.237 OA
ATOM     59  O   UNL     1      -2.433   7.854   9.553  1.00  0.00    -0.237 OA
ATOM     60  O   UNL     1      -2.886   9.796   8.134  1.00  0.00    -0.744 OA
ENDBRANCH  54  57
ENDBRANCH  26  50
BRANCH  38  61
ATOM     61  C   UNL     1     -10.881   7.167   1.680  1.00  0.00     0.023 A 
ATOM     62  C   UNL     1     -11.674   7.927   2.563  1.00  0.00     0.012 A 
ATOM     63  C   UNL     1     -11.423   6.020   1.073  1.00  0.00     0.148 A 
ATOM     64  C   UNL     1     -12.975   7.532   2.866  1.00  0.00     0.002 A 
ATOM     65  C   UNL     1     -12.736   5.653   1.349  1.00  0.00     0.091 A 
ATOM     66  F   UNL     1     -10.645   5.295   0.256  1.00  0.00    -0.205 F 
ATOM     67  C   UNL     1     -13.509   6.401   2.252  1.00  0.00     0.022 A 
BRANCH  65  68
ATOM     68  S   UNL     1     -13.517   4.253   0.540  1.00  0.00     0.127 S 
ATOM     69  O   UNL     1     -13.368   3.204   1.547  1.00  0.00    -0.237 OA
ATOM     70  O   UNL     1     -14.890   4.723   0.348  1.00  0.00    -0.237 OA
ATOM     71  O   UNL     1     -12.775   4.055  -0.698  1.00  0.00    -0.744 OA
ENDBRANCH  65  68
ENDBRANCH  38  61
ENDBRANCH  12  13
ENDBRANCH   5   7
ENDBRANCH   2   3
ENDBRANCH   1   2
BRANCH   1  72
ATOM     72  C   UNL     1       4.511   8.171  -3.677  1.00  0.00     0.023 C 
BRANCH  72  73
ATOM     73  C   UNL     1       4.966   6.954  -2.870  1.00  0.00     0.116 C 
BRANCH  73  74
ATOM     74  N   UNL     1       4.658   5.718  -3.556  1.00  0.00    -0.356 N 
ATOM     75  C   UNL     1       5.294   5.002  -4.514  1.00  0.00     0.224 C 
ATOM     76  H   UNL     1       3.809   5.314  -3.266  1.00  0.00     0.163 HD
ATOM     77  O   UNL     1       4.659   4.018  -4.910  1.00  0.00    -0.275 OA
BRANCH  75  78
ATOM     78  C   UNL     1       6.739   5.254  -5.004  1.00  0.00     0.095 C 
ATOM     79  C   UNL     1       7.162   6.730  -5.085  1.00  0.00     0.041 C 
ATOM     80  C   UNL     1       6.905   4.599  -6.398  1.00  0.00     0.095 C 
ATOM     81  C   UNL     1       8.395   7.028  -5.875  1.00  0.00    -0.030 C 
ATOM     82  C   UNL     1       8.292   4.843  -7.037  1.00  0.00     0.041 C 
ATOM     83  C   UNL     1       8.907   6.172  -6.760  1.00  0.00    -0.030 C 
BRANCH  80  84
ATOM     84  C   UNL     1       6.674   3.090  -6.552  1.00  0.00     0.227 C 
ATOM     85  O   UNL     1       6.079   2.665  -7.548  1.00  0.00    -0.275 OA
ATOM     86  N   UNL     1       7.478   2.257  -5.785  1.00  0.00    -0.331 N 
ATOM     87  C   UNL     1       8.079   1.127  -6.479  1.00  0.00     0.181 C 
ATOM     88  C   UNL     1       7.191   1.989  -4.380  1.00  0.00     0.181 C 
ATOM     89  C   UNL     1       9.311   0.582  -5.734  1.00  0.00     0.284 C 
ATOM     90  C   UNL     1       8.437   1.464  -3.635  1.00  0.00     0.284 C 
ATOM     91  N   UNL     1       9.162   0.360  -4.287  1.00  0.00    -0.328 N 
ATOM     92  H   UNL     1      10.107   0.390  -3.904  1.00  0.00     0.348 HD
BRANCH  91  93
ATOM     93  C   UNL     1       8.754  -0.993  -3.892  1.00  0.00     0.299 C 
BRANCH  93  94
ATOM     94  C   UNL     1       7.309  -1.368  -4.128  1.00  0.00     0.010 A 
ATOM     95  C   UNL     1       6.893  -1.883  -5.378  1.00  0.00     0.013 A 
ATOM     96  C   UNL     1       6.353  -1.136  -3.125  1.00  0.00     0.060 A 
ATOM     97  C   UNL     1       5.538  -2.074  -5.663  1.00  0.00     0.051 A 
ATOM     98  C   UNL     1       5.024  -1.322  -3.439  1.00  0.00     0.166 A 
ATOM     99  C   UNL     1       4.627  -1.763  -4.678  1.00  0.00     0.165 A 
ATOM    100  O   UNL     1       3.973  -1.055  -2.620  1.00  0.00    -0.454 OA
ATOM    101  O   UNL     1       3.274  -1.826  -4.795  1.00  0.00    -0.454 OA
ATOM    102  C   UNL     1       2.870  -1.270  -3.526  1.00  0.00     0.468 C 
ENDBRANCH  93  94
ENDBRANCH  91  93
ENDBRANCH  80  84
ENDBRANCH  75  78
ENDBRANCH  73  74
ENDBRANCH  72  73
ENDBRANCH   1  72
TORSDOF 17
