REMARK SMILES C[C@@H]1CCC[C@](CCSc2ccccc2)(C(=O)NCCCCNC(=O)c2ccc(-c3c4nc(c(-c5cccc(S(=O)(=O)[O-])c5F)c5ccc([nH]5)c(-c5cccc(S(=O)(=O)[O-])c5F)c5nc(c(-c6cccc(S(=O)(=O)[O-])c6F)c6ccc3[nH]6)C=C5)C=C4)cc2)C1
REMARK SMILES IDX 20 1 19 2 18 3 16 4 17 5 6 7 1 8 2 9 3 10 89 11 4 12 5 13
REMARK SMILES IDX 7 14 8 15 9 16 10 17 11 18 15 19 12 20 14 21 13 22 21 23
REMARK SMILES IDX 22 24 23 25 24 26 25 28 26 29 27 30 88 31 28 32 87 33 29 34
REMARK SMILES IDX 30 35 31 36 81 37 32 38 86 39 80 40 82 41 33 42 85 43 79 44
REMARK SMILES IDX 78 45 34 47 66 48 46 49 65 50 47 51 50 52 64 53 83 54 48 55
REMARK SMILES IDX 49 56 63 58 84 59 51 60 35 61 36 62 44 63 37 64 39 65 45 66
REMARK SMILES IDX 38 67 40 68 41 69 42 70 43 71 67 72 68 73 76 74 69 75 71 76
REMARK SMILES IDX 77 77 70 78 72 79 73 80 74 81 75 82 52 83 53 84 61 85 54 86
REMARK SMILES IDX 56 87 62 88 55 89 57 90 58 91 59 92 60 93
REMARK H PARENT 18 6 23 27 82 46 50 57
REMARK Flexibility Score: inf
ROOT
ATOM      1  C   UNL     1      -1.400   2.682   2.400  1.00  0.00     0.023 C 
ENDROOT
BRANCH   1   2
ATOM      2  C   UNL     1      -0.756   1.310   2.213  1.00  0.00     0.116 C 
BRANCH   2   3
ATOM      3  N   UNL     1      -1.750   0.273   2.292  1.00  0.00    -0.356 N 
ATOM      4  C   UNL     1      -2.174  -0.668   1.421  1.00  0.00     0.226 C 
ATOM      5  O   UNL     1      -3.256  -1.182   1.736  1.00  0.00    -0.274 OA
ATOM      6  H   UNL     1      -2.216   0.243   3.159  1.00  0.00     0.163 HD
BRANCH   4   7
ATOM      7  C   UNL     1      -1.475  -1.052   0.079  1.00  0.00     0.050 C 
ATOM      8  C   UNL     1       2.099   0.397   0.244  1.00  0.00     0.007 C 
ATOM      9  C   UNL     1       0.901  -0.012  -0.635  1.00  0.00    -0.013 C 
ATOM     10  C   UNL     1       0.175   1.195  -1.241  1.00  0.00     0.003 C 
ATOM     11  C   UNL     1       0.066  -1.091   0.081  1.00  0.00     0.020 C 
ATOM     12  C   UNL     1      -1.345   1.232  -1.136  1.00  0.00     0.001 C 
ATOM     13  C   UNL     1      -2.010  -0.131  -1.043  1.00  0.00     0.017 C 
BRANCH   7  14
ATOM     14  C   UNL     1      -2.003  -2.517  -0.247  1.00  0.00     0.028 C 
BRANCH  14  15
ATOM     15  C   UNL     1      -1.369  -3.742   0.454  1.00  0.00     0.076 C 
BRANCH  15  16
ATOM     16  S   UNL     1      -1.648  -3.989   2.243  1.00  0.00    -0.126 SA
BRANCH  16  17
ATOM     17  C   UNL     1      -0.254  -3.163   2.991  1.00  0.00     0.007 A 
ATOM     18  C   UNL     1      -0.500  -2.269   4.041  1.00  0.00     0.015 A 
ATOM     19  C   UNL     1       1.068  -3.393   2.599  1.00  0.00     0.015 A 
ATOM     20  C   UNL     1       0.547  -1.561   4.636  1.00  0.00     0.001 A 
ATOM     21  C   UNL     1       2.118  -2.680   3.190  1.00  0.00     0.001 A 
ATOM     22  C   UNL     1       1.855  -1.756   4.199  1.00  0.00     0.000 A 
ENDBRANCH  16  17
ENDBRANCH  15  16
ENDBRANCH  14  15
ENDBRANCH   7  14
ENDBRANCH   4   7
ENDBRANCH   2   3
ENDBRANCH   1   2
BRANCH   1  23
ATOM     23  C   UNL     1      -1.443   3.146   3.853  1.00  0.00     0.023 C 
BRANCH  23  24
ATOM     24  C   UNL     1      -0.074   3.335   4.495  1.00  0.00     0.116 C 
BRANCH  24  25
ATOM     25  N   UNL     1       0.790   4.256   3.763  1.00  0.00    -0.352 N 
ATOM     26  C   UNL     1       1.685   5.156   4.291  1.00  0.00     0.251 C 
ATOM     27  H   UNL     1       0.724   4.231   2.781  1.00  0.00     0.163 HD
ATOM     28  O   UNL     1       2.305   5.938   3.578  1.00  0.00    -0.269 OA
BRANCH  26  29
ATOM     29  C   UNL     1       1.851   5.168   5.754  1.00  0.00     0.039 A 
ATOM     30  C   UNL     1       1.489   6.310   6.471  1.00  0.00     0.014 A 
ATOM     31  C   UNL     1       2.216   3.987   6.404  1.00  0.00     0.014 A 
ATOM     32  C   UNL     1       1.427   6.246   7.863  1.00  0.00     0.010 A 
ATOM     33  C   UNL     1       2.085   3.909   7.783  1.00  0.00     0.010 A 
ATOM     34  C   UNL     1       1.689   5.035   8.524  1.00  0.00    -0.014 A 
BRANCH  34  35
ATOM     35  C   UNL     1       1.575   4.904   9.996  1.00  0.00     0.031 A 
ATOM     36  C   UNL     1       2.801   4.559  10.794  1.00  0.00     0.074 A 
ATOM     37  C   UNL     1       0.367   4.963  10.590  1.00  0.00     0.049 A 
ATOM     38  N   UNL     1       2.902   4.229  12.053  1.00  0.00    -0.248 NA
ATOM     39  C   UNL     1       4.081   4.541  10.062  1.00  0.00     0.031 C 
ATOM     40  C   UNL     1      -0.904   5.217   9.908  1.00  0.00     0.029 A 
ATOM     41  N   UNL     1       0.007   4.771  11.900  1.00  0.00    -0.354 N 
ATOM     42  C   UNL     1       4.239   3.911  12.252  1.00  0.00     0.074 A 
ATOM     43  C   UNL     1       4.907   4.058  10.977  1.00  0.00     0.031 C 
ATOM     44  C   UNL     1      -1.903   5.160  10.803  1.00  0.00     0.029 A 
ATOM     45  C   UNL     1      -1.351   4.836  12.115  1.00  0.00     0.049 A 
ATOM     46  H   UNL     1       0.658   4.604  12.619  1.00  0.00     0.167 HD
ATOM     47  C   UNL     1       4.863   3.558  13.399  1.00  0.00     0.034 A 
ATOM     48  C   UNL     1      -2.066   4.646  13.242  1.00  0.00     0.034 A 
ATOM     49  C   UNL     1       4.207   3.486  14.674  1.00  0.00     0.049 A 
ATOM     50  C   UNL     1      -1.337   4.331  14.522  1.00  0.00     0.074 A 
ATOM     51  C   UNL     1       4.761   3.221  15.913  1.00  0.00     0.029 A 
ATOM     52  N   UNL     1       2.852   3.694  14.875  1.00  0.00    -0.354 N 
ATOM     53  N   UNL     1      -0.051   4.168  14.718  1.00  0.00    -0.248 NA
ATOM     54  C   UNL     1      -2.149   4.213  15.742  1.00  0.00     0.031 C 
ATOM     55  C   UNL     1       3.738   3.271  16.866  1.00  0.00     0.029 A 
ATOM     56  C   UNL     1       2.551   3.577  16.219  1.00  0.00     0.049 A 
ATOM     57  H   UNL     1       2.200   3.896  14.166  1.00  0.00     0.167 HD
ATOM     58  C   UNL     1       0.105   3.973  16.086  1.00  0.00     0.074 A 
ATOM     59  C   UNL     1      -1.217   4.048  16.672  1.00  0.00     0.031 C 
ATOM     60  C   UNL     1       1.239   3.739  16.791  1.00  0.00     0.034 A 
BRANCH  47  61
ATOM     61  C   UNL     1       6.342   3.292  13.332  1.00  0.00     0.023 A 
ATOM     62  C   UNL     1       7.230   4.372  13.145  1.00  0.00     0.012 A 
ATOM     63  C   UNL     1       6.858   1.992  13.489  1.00  0.00     0.148 A 
ATOM     64  C   UNL     1       8.605   4.157  13.075  1.00  0.00     0.002 A 
ATOM     65  C   UNL     1       8.233   1.791  13.461  1.00  0.00     0.091 A 
ATOM     66  F   UNL     1       5.997   0.975  13.639  1.00  0.00    -0.205 F 
ATOM     67  C   UNL     1       9.107   2.869  13.243  1.00  0.00     0.022 A 
BRANCH  65  68
ATOM     68  S   UNL     1       8.978   0.181  13.744  1.00  0.00     0.127 S 
ATOM     69  O   UNL     1       9.384  -0.198  12.392  1.00  0.00    -0.237 OA
ATOM     70  O   UNL     1      10.085   0.505  14.645  1.00  0.00    -0.237 OA
ATOM     71  O   UNL     1       7.934  -0.640  14.341  1.00  0.00    -0.744 OA
ENDBRANCH  65  68
ENDBRANCH  47  61
BRANCH  48  72
ATOM     72  C   UNL     1      -3.545   4.831  13.228  1.00  0.00     0.023 A 
ATOM     73  C   UNL     1      -4.100   5.960  13.861  1.00  0.00     0.012 A 
ATOM     74  C   UNL     1      -4.399   3.924  12.572  1.00  0.00     0.148 A 
ATOM     75  C   UNL     1      -5.480   6.167  13.870  1.00  0.00     0.002 A 
ATOM     76  C   UNL     1      -5.769   4.163  12.541  1.00  0.00     0.091 A 
ATOM     77  F   UNL     1      -3.855   2.848  11.986  1.00  0.00    -0.205 F 
ATOM     78  C   UNL     1      -6.313   5.275  13.202  1.00  0.00     0.022 A 
BRANCH  76  79
ATOM     79  S   UNL     1      -6.902   3.136  11.596  1.00  0.00     0.127 S 
ATOM     80  O   UNL     1      -7.572   2.381  12.652  1.00  0.00    -0.237 OA
ATOM     81  O   UNL     1      -7.736   4.137  10.928  1.00  0.00    -0.237 OA
ATOM     82  O   UNL     1      -6.061   2.361  10.694  1.00  0.00    -0.744 OA
ENDBRANCH  76  79
ENDBRANCH  48  72
BRANCH  60  83
ATOM     83  C   UNL     1       1.125   3.605  18.285  1.00  0.00     0.023 A 
ATOM     84  C   UNL     1       0.622   2.416  18.845  1.00  0.00     0.012 A 
ATOM     85  C   UNL     1       1.629   4.614  19.130  1.00  0.00     0.148 A 
ATOM     86  C   UNL     1       0.606   2.238  20.227  1.00  0.00     0.002 A 
ATOM     87  C   UNL     1       1.650   4.412  20.505  1.00  0.00     0.091 A 
ATOM     88  F   UNL     1       2.085   5.745  18.574  1.00  0.00    -0.205 F 
ATOM     89  C   UNL     1       1.132   3.228  21.055  1.00  0.00     0.022 A 
BRANCH  87  90
ATOM     90  S   UNL     1       2.398   5.589  21.637  1.00  0.00     0.127 S 
ATOM     91  O   UNL     1       1.221   6.183  22.269  1.00  0.00    -0.237 OA
ATOM     92  O   UNL     1       3.188   4.722  22.511  1.00  0.00    -0.237 OA
ATOM     93  O   UNL     1       3.188   6.492  20.811  1.00  0.00    -0.744 OA
ENDBRANCH  87  90
ENDBRANCH  60  83
ENDBRANCH  34  35
ENDBRANCH  26  29
ENDBRANCH  24  25
ENDBRANCH  23  24
ENDBRANCH   1  23
TORSDOF 18
