REMARK SMILES C#CCN(CC(=O)NCCCCNC(=O)c1ccc(-c2c3nc(c(-c4cccc(S(=O)(=O)[O-])c4F)c4ccc([nH]4)c(-c4cccc(S(=O)(=O)[O-])c4F)c4nc(c(-c5cccc(S(=O)(=O)[O-])c5F)c5ccc2[nH]5)C=C4)C=C3)cc1)C(=O)[C@H](c1ccc(Cl)cc1)C(C)C
REMARK SMILES IDX 10 1 9 2 8 3 6 4 7 5 5 7 4 8 3 9 2 10 1 11 79 12 80 13 81 14
REMARK SMILES IDX 89 15 90 16 91 17 82 18 83 19 88 20 84 21 87 22 85 23 86 24
REMARK SMILES IDX 11 25 12 26 13 27 14 28 15 30 16 31 17 32 78 33 18 34 77 35
REMARK SMILES IDX 19 36 20 37 21 38 71 39 22 40 76 41 70 42 72 43 23 44 75 45
REMARK SMILES IDX 69 46 68 47 24 49 56 50 36 51 55 52 37 53 40 54 54 55 73 56
REMARK SMILES IDX 38 57 39 58 53 60 74 61 41 62 25 63 26 64 34 65 27 66 29 67
REMARK SMILES IDX 35 68 28 69 30 70 31 71 32 72 33 73 57 74 58 75 66 76 59 77
REMARK SMILES IDX 61 78 67 79 60 80 62 81 63 82 64 83 65 84 42 85 43 86 51 87
REMARK SMILES IDX 44 88 46 89 52 90 45 91 47 92 48 93 49 94 50 95
REMARK H PARENT 8 6 13 29 72 48 40 59
REMARK Flexibility Score: inf
ROOT
ATOM      1  C   UNL     1      -0.638  -1.096   3.268  1.00  0.00     0.023 C 
ENDROOT
BRANCH   1   2
ATOM      2  C   UNL     1      -2.066  -0.702   3.631  1.00  0.00     0.116 C 
BRANCH   2   3
ATOM      3  N   UNL     1      -2.908  -0.513   2.473  1.00  0.00    -0.355 N 
ATOM      4  C   UNL     1      -3.874  -1.333   1.974  1.00  0.00     0.239 C 
ATOM      5  O   UNL     1      -4.676  -0.857   1.167  1.00  0.00    -0.273 OA
ATOM      6  H   UNL     1      -2.764   0.324   1.976  1.00  0.00     0.163 HD
BRANCH   4   7
ATOM      7  C   UNL     1      -4.069  -2.756   2.510  1.00  0.00     0.220 C 
BRANCH   7   8
ATOM      8  N   UNL     1      -2.903  -3.644   2.512  1.00  0.00    -0.322 N 
BRANCH   8   9
ATOM      9  C   UNL     1      -2.384  -4.044   3.823  1.00  0.00     0.209 C 
BRANCH   9  10
ATOM     10  C   UNL     1      -2.397  -5.554   3.996  1.00  0.00    -0.085 C 
ATOM     11  C   UNL     1      -2.407  -6.849   4.144  1.00  0.00     0.006 C 
ENDBRANCH   9  10
ENDBRANCH   8   9
BRANCH   8  12
ATOM     12  C   UNL     1      -2.266  -4.184   1.398  1.00  0.00     0.231 C 
ATOM     13  O   UNL     1      -1.287  -4.932   1.557  1.00  0.00    -0.274 OA
BRANCH  12  14
ATOM     14  C   UNL     1      -2.633  -3.844  -0.077  1.00  0.00     0.111 C 
BRANCH  14  15
ATOM     15  C   UNL     1      -4.129  -3.926  -0.492  1.00  0.00    -0.000 C 
ATOM     16  C   UNL     1      -4.326  -3.885  -2.018  1.00  0.00     0.008 C 
ATOM     17  C   UNL     1      -4.774  -5.231   0.011  1.00  0.00     0.008 C 
ENDBRANCH  14  15
BRANCH  14  18
ATOM     18  C   UNL     1      -1.775  -2.663  -0.540  1.00  0.00    -0.035 A 
ATOM     19  C   UNL     1      -2.289  -1.433  -0.964  1.00  0.00     0.006 A 
ATOM     20  C   UNL     1      -0.371  -2.821  -0.529  1.00  0.00     0.006 A 
ATOM     21  C   UNL     1      -1.431  -0.396  -1.354  1.00  0.00     0.021 A 
ATOM     22  C   UNL     1       0.486  -1.785  -0.901  1.00  0.00     0.021 A 
ATOM     23  C   UNL     1      -0.051  -0.574  -1.313  1.00  0.00     0.041 A 
ATOM     24  Cl  UNL     1       0.995   0.717  -1.746  1.00  0.00    -0.084 Cl
ENDBRANCH  14  18
ENDBRANCH  12  14
ENDBRANCH   8  12
ENDBRANCH   7   8
ENDBRANCH   4   7
ENDBRANCH   2   3
ENDBRANCH   1   2
BRANCH   1  25
ATOM     25  C   UNL     1       0.200   0.015   2.639  1.00  0.00     0.023 C 
BRANCH  25  26
ATOM     26  C   UNL     1       0.229   1.328   3.409  1.00  0.00     0.116 C 
BRANCH  26  27
ATOM     27  N   UNL     1       0.609   1.180   4.807  1.00  0.00    -0.352 N 
ATOM     28  C   UNL     1       1.274   2.083   5.603  1.00  0.00     0.251 C 
ATOM     29  H   UNL     1       0.359   0.329   5.235  1.00  0.00     0.163 HD
ATOM     30  O   UNL     1       1.592   1.784   6.750  1.00  0.00    -0.269 OA
BRANCH  28  31
ATOM     31  C   UNL     1       1.637   3.398   5.039  1.00  0.00     0.039 A 
ATOM     32  C   UNL     1       2.965   3.824   5.121  1.00  0.00     0.014 A 
ATOM     33  C   UNL     1       0.683   4.172   4.374  1.00  0.00     0.014 A 
ATOM     34  C   UNL     1       3.351   4.998   4.473  1.00  0.00     0.010 A 
ATOM     35  C   UNL     1       1.084   5.300   3.669  1.00  0.00     0.010 A 
ATOM     36  C   UNL     1       2.421   5.725   3.712  1.00  0.00    -0.014 A 
BRANCH  36  37
ATOM     37  C   UNL     1       2.820   6.930   2.945  1.00  0.00     0.031 A 
ATOM     38  C   UNL     1       2.236   8.270   3.294  1.00  0.00     0.074 A 
ATOM     39  C   UNL     1       3.632   6.801   1.878  1.00  0.00     0.049 A 
ATOM     40  N   UNL     1       2.410   9.425   2.706  1.00  0.00    -0.248 NA
ATOM     41  C   UNL     1       1.309   8.312   4.438  1.00  0.00     0.031 C 
ATOM     42  C   UNL     1       4.201   5.542   1.393  1.00  0.00     0.029 A 
ATOM     43  N   UNL     1       4.100   7.739   0.993  1.00  0.00    -0.354 N 
ATOM     44  C   UNL     1       1.591  10.320   3.382  1.00  0.00     0.074 A 
ATOM     45  C   UNL     1       0.887   9.567   4.397  1.00  0.00     0.031 C 
ATOM     46  C   UNL     1       4.955   5.788   0.309  1.00  0.00     0.029 A 
ATOM     47  C   UNL     1       4.902   7.215   0.006  1.00  0.00     0.049 A 
ATOM     48  H   UNL     1       3.883   8.697   1.058  1.00  0.00     0.167 HD
ATOM     49  C   UNL     1       1.462  11.656   3.200  1.00  0.00     0.034 A 
ATOM     50  C   UNL     1       5.527   7.819  -1.024  1.00  0.00     0.034 A 
ATOM     51  C   UNL     1       2.199  12.408   2.221  1.00  0.00     0.049 A 
ATOM     52  C   UNL     1       5.394   9.309  -1.185  1.00  0.00     0.074 A 
ATOM     53  C   UNL     1       2.205  13.775   2.010  1.00  0.00     0.029 A 
ATOM     54  N   UNL     1       3.061  11.854   1.286  1.00  0.00    -0.354 N 
ATOM     55  N   UNL     1       4.736  10.165  -0.441  1.00  0.00    -0.248 NA
ATOM     56  C   UNL     1       6.117   9.921  -2.309  1.00  0.00     0.031 C 
ATOM     57  C   UNL     1       3.064  14.046   0.938  1.00  0.00     0.029 A 
ATOM     58  C   UNL     1       3.603  12.849   0.492  1.00  0.00     0.049 A 
ATOM     59  H   UNL     1       3.258  10.893   1.200  1.00  0.00     0.167 HD
ATOM     60  C   UNL     1       4.995  11.419  -0.982  1.00  0.00     0.074 A 
ATOM     61  C   UNL     1       5.884  11.211  -2.108  1.00  0.00     0.031 C 
ATOM     62  C   UNL     1       4.530  12.631  -0.589  1.00  0.00     0.034 A 
BRANCH  49  63
ATOM     63  C   UNL     1       0.531  12.391   4.129  1.00  0.00     0.023 A 
ATOM     64  C   UNL     1       0.894  12.555   5.483  1.00  0.00     0.012 A 
ATOM     65  C   UNL     1      -0.686  12.932   3.672  1.00  0.00     0.148 A 
ATOM     66  C   UNL     1       0.042  13.202   6.376  1.00  0.00     0.002 A 
ATOM     67  C   UNL     1      -1.510  13.616   4.560  1.00  0.00     0.091 A 
ATOM     68  F   UNL     1      -1.031  12.746   2.390  1.00  0.00    -0.205 F 
ATOM     69  C   UNL     1      -1.155  13.740   5.913  1.00  0.00     0.022 A 
BRANCH  67  70
ATOM     70  S   UNL     1      -3.036  14.405   4.035  1.00  0.00     0.127 S 
ATOM     71  O   UNL     1      -4.038  13.436   4.476  1.00  0.00    -0.237 OA
ATOM     72  O   UNL     1      -3.021  15.654   4.798  1.00  0.00    -0.237 OA
ATOM     73  O   UNL     1      -2.913  14.580   2.595  1.00  0.00    -0.744 OA
ENDBRANCH  67  70
ENDBRANCH  49  63
BRANCH  50  74
ATOM     74  C   UNL     1       6.420   7.027  -1.916  1.00  0.00     0.023 A 
ATOM     75  C   UNL     1       7.814   7.202  -1.810  1.00  0.00     0.012 A 
ATOM     76  C   UNL     1       5.912   6.081  -2.827  1.00  0.00     0.148 A 
ATOM     77  C   UNL     1       8.687   6.466  -2.611  1.00  0.00     0.002 A 
ATOM     78  C   UNL     1       6.790   5.316  -3.588  1.00  0.00     0.091 A 
ATOM     79  F   UNL     1       4.583   5.936  -2.916  1.00  0.00    -0.205 F 
ATOM     80  C   UNL     1       8.176   5.517  -3.492  1.00  0.00     0.022 A 
BRANCH  78  81
ATOM     81  S   UNL     1       6.238   3.991  -4.669  1.00  0.00     0.127 S 
ATOM     82  O   UNL     1       6.580   4.519  -5.987  1.00  0.00    -0.237 OA
ATOM     83  O   UNL     1       7.068   2.873  -4.218  1.00  0.00    -0.237 OA
ATOM     84  O   UNL     1       4.815   3.834  -4.404  1.00  0.00    -0.744 OA
ENDBRANCH  78  81
ENDBRANCH  50  74
BRANCH  62  85
ATOM     85  C   UNL     1       4.995  13.839  -1.360  1.00  0.00     0.023 A 
ATOM     86  C   UNL     1       4.478  14.087  -2.646  1.00  0.00     0.012 A 
ATOM     87  C   UNL     1       5.879  14.768  -0.777  1.00  0.00     0.148 A 
ATOM     88  C   UNL     1       4.856  15.229  -3.353  1.00  0.00     0.002 A 
ATOM     89  C   UNL     1       6.214  15.926  -1.468  1.00  0.00     0.091 A 
ATOM     90  F   UNL     1       6.375  14.503   0.440  1.00  0.00    -0.205 F 
ATOM     91  C   UNL     1       5.712  16.153  -2.760  1.00  0.00     0.022 A 
BRANCH  89  92
ATOM     92  S   UNL     1       7.235  17.215  -0.743  1.00  0.00     0.127 S 
ATOM     93  O   UNL     1       8.502  17.023  -1.446  1.00  0.00    -0.237 OA
ATOM     94  O   UNL     1       6.511  18.432  -1.114  1.00  0.00    -0.237 OA
ATOM     95  O   UNL     1       7.263  16.945   0.688  1.00  0.00    -0.744 OA
ENDBRANCH  89  92
ENDBRANCH  62  85
ENDBRANCH  36  37
ENDBRANCH  28  31
ENDBRANCH  26  27
ENDBRANCH  25  26
ENDBRANCH   1  25
TORSDOF 21
