REMARK SMILES Cc1ccccc1C(=O)Nc1ccc(OCC(=O)NCCCCNC(=O)c2ccc(-c3c4nc(c(-c5cccc(S(=O)(=O)[O-])c5F)c5ccc([nH]5)c(-c5cccc(S(=O)(=O)[O-])c5F)c5nc(c(-c6cccc(S(=O)(=O)[O-])c6F)c6ccc3[nH]6)C=C5)C=C4)cc2)c(-c2nc3ccccc3s2)c1
REMARK SMILES IDX 21 1 20 2 19 3 17 4 18 5 16 7 15 8 14 9 11 10 12 11 100 12
REMARK SMILES IDX 13 13 90 14 10 15 8 16 9 17 7 19 1 20 2 21 3 22 4 23 6 24
REMARK SMILES IDX 5 25 91 26 92 27 99 28 93 29 98 30 94 31 97 32 95 33 96 34
REMARK SMILES IDX 22 35 23 36 24 37 25 38 26 40 27 41 28 42 89 43 29 44 88 45
REMARK SMILES IDX 30 46 31 47 32 48 82 49 33 50 87 51 81 52 83 53 34 54 86 55
REMARK SMILES IDX 80 56 79 57 35 59 67 60 47 61 66 62 48 63 51 64 65 65 84 66
REMARK SMILES IDX 49 67 50 68 64 70 85 71 52 72 36 73 37 74 45 75 38 76 40 77
REMARK SMILES IDX 46 78 39 79 41 80 42 81 43 82 44 83 68 84 69 85 77 86 70 87
REMARK SMILES IDX 72 88 78 89 71 90 73 91 74 92 75 93 76 94 53 95 54 96 62 97
REMARK SMILES IDX 55 98 57 99 63 100 56 101 58 102 59 103 60 104 61 105
REMARK H PARENT 19 6 10 18 24 39 83 58 51 69
REMARK Flexibility Score: inf
ROOT
ATOM      1  C   UNL     1       4.260  -2.879   3.038  1.00  0.00     0.023 C 
ENDROOT
BRANCH   1   2
ATOM      2  C   UNL     1       4.638  -4.137   2.256  1.00  0.00     0.116 C 
BRANCH   2   3
ATOM      3  N   UNL     1       3.779  -4.314   1.106  1.00  0.00    -0.353 N 
ATOM      4  C   UNL     1       3.905  -3.779  -0.142  1.00  0.00     0.257 C 
ATOM      5  O   UNL     1       2.884  -3.735  -0.830  1.00  0.00    -0.271 OA
ATOM      6  H   UNL     1       2.998  -4.898   1.243  1.00  0.00     0.163 HD
BRANCH   4   7
ATOM      7  C   UNL     1       5.306  -3.354  -0.665  1.00  0.00     0.329 C 
BRANCH   7   8
ATOM      8  O   UNL     1       5.710  -2.112  -1.229  1.00  0.00    -0.483 OA
BRANCH   8   9
ATOM      9  C   UNL     1       4.886  -1.036  -1.070  1.00  0.00     0.130 A 
ATOM     10  C   UNL     1       3.380   1.279  -0.570  1.00  0.00     0.042 A 
ATOM     11  C   UNL     1       4.582   1.081   0.105  1.00  0.00     0.030 A 
ATOM     12  C   UNL     1       3.029   0.409  -1.601  1.00  0.00     0.041 A 
ATOM     13  C   UNL     1       5.305  -0.096  -0.112  1.00  0.00     0.049 A 
ATOM     14  C   UNL     1       3.799  -0.740  -1.914  1.00  0.00     0.055 A 
BRANCH  10  15
ATOM     15  N   UNL     1       2.536   2.305  -0.119  1.00  0.00    -0.322 N 
ATOM     16  C   UNL     1       1.160   2.342   0.036  1.00  0.00     0.255 C 
ATOM     17  O   UNL     1       0.642   3.432   0.292  1.00  0.00    -0.269 OA
ATOM     18  H   UNL     1       2.999   3.138   0.128  1.00  0.00     0.170 HD
BRANCH  16  19
ATOM     19  C   UNL     1       0.278   1.128  -0.001  1.00  0.00     0.043 A 
ATOM     20  C   UNL     1       1.802  -0.433   1.348  1.00  0.00     0.045 C 
ATOM     21  C   UNL     1       0.612  -0.145   0.492  1.00  0.00    -0.038 A 
ATOM     22  C   UNL     1      -0.282  -1.222   0.316  1.00  0.00     0.004 A 
ATOM     23  C   UNL     1      -1.565  -1.010  -0.169  1.00  0.00     0.000 A 
ATOM     24  C   UNL     1      -1.042   1.331  -0.444  1.00  0.00     0.014 A 
ATOM     25  C   UNL     1      -1.962   0.279  -0.501  1.00  0.00     0.001 A 
ENDBRANCH  16  19
ENDBRANCH  10  15
BRANCH  14  26
ATOM     26  C   UNL     1       3.338  -1.522  -3.085  1.00  0.00     0.128 A 
ATOM     27  N   UNL     1       2.345  -1.133  -3.870  1.00  0.00    -0.236 NA
ATOM     28  S   UNL     1       4.031  -3.009  -3.601  1.00  0.00    -0.114 S 
ATOM     29  C   UNL     1       1.870  -2.212  -4.594  1.00  0.00     0.082 A 
ATOM     30  C   UNL     1       2.577  -3.396  -4.412  1.00  0.00     0.055 A 
ATOM     31  C   UNL     1       0.740  -2.224  -5.430  1.00  0.00     0.030 A 
ATOM     32  C   UNL     1       2.114  -4.630  -4.887  1.00  0.00     0.021 A 
ATOM     33  C   UNL     1       0.293  -3.439  -5.959  1.00  0.00     0.002 A 
ATOM     34  C   UNL     1       0.946  -4.631  -5.652  1.00  0.00     0.002 A 
ENDBRANCH  14  26
ENDBRANCH   8   9
ENDBRANCH   7   8
ENDBRANCH   4   7
ENDBRANCH   2   3
ENDBRANCH   1   2
BRANCH   1  35
ATOM     35  C   UNL     1       2.785  -2.749   3.448  1.00  0.00     0.023 C 
BRANCH  35  36
ATOM     36  C   UNL     1       2.196  -3.829   4.328  1.00  0.00     0.116 C 
BRANCH  36  37
ATOM     37  N   UNL     1       2.925  -3.994   5.578  1.00  0.00    -0.352 N 
ATOM     38  C   UNL     1       2.869  -5.030   6.502  1.00  0.00     0.251 C 
ATOM     39  H   UNL     1       3.548  -3.265   5.801  1.00  0.00     0.163 HD
ATOM     40  O   UNL     1       3.027  -4.744   7.681  1.00  0.00    -0.269 OA
BRANCH  38  41
ATOM     41  C   UNL     1       2.626  -6.417   6.041  1.00  0.00     0.039 A 
ATOM     42  C   UNL     1       2.417  -7.516   6.871  1.00  0.00     0.014 A 
ATOM     43  C   UNL     1       2.718  -6.642   4.682  1.00  0.00     0.014 A 
ATOM     44  C   UNL     1       2.415  -8.789   6.289  1.00  0.00     0.010 A 
ATOM     45  C   UNL     1       2.240  -7.765   4.107  1.00  0.00     0.010 A 
ATOM     46  C   UNL     1       2.372  -8.881   4.895  1.00  0.00    -0.014 A 
BRANCH  46  47
ATOM     47  C   UNL     1       2.608 -10.055   4.082  1.00  0.00     0.031 A 
ATOM     48  C   UNL     1       1.632 -11.127   4.138  1.00  0.00     0.074 A 
ATOM     49  C   UNL     1       3.655 -10.014   3.220  1.00  0.00     0.049 A 
ATOM     50  N   UNL     1       1.928 -12.364   3.999  1.00  0.00    -0.248 NA
ATOM     51  C   UNL     1       0.222 -10.867   4.411  1.00  0.00     0.031 C 
ATOM     52  C   UNL     1       3.999 -10.887   2.108  1.00  0.00     0.029 A 
ATOM     53  N   UNL     1       4.752  -9.137   3.298  1.00  0.00    -0.354 N 
ATOM     54  C   UNL     1       0.732 -13.031   3.878  1.00  0.00     0.074 A 
ATOM     55  C   UNL     1      -0.290 -12.094   4.283  1.00  0.00     0.031 C 
ATOM     56  C   UNL     1       5.310 -10.728   1.828  1.00  0.00     0.029 A 
ATOM     57  C   UNL     1       5.866  -9.858   2.857  1.00  0.00     0.049 A 
ATOM     58  H   UNL     1       4.738  -8.201   3.603  1.00  0.00     0.167 HD
ATOM     59  C   UNL     1       0.713 -14.220   3.223  1.00  0.00     0.034 A 
ATOM     60  C   UNL     1       6.827 -10.204   3.767  1.00  0.00     0.034 A 
ATOM     61  C   UNL     1       2.054 -14.530   2.712  1.00  0.00     0.049 A 
ATOM     62  C   UNL     1       6.932 -11.704   3.935  1.00  0.00     0.074 A 
ATOM     63  C   UNL     1       2.660 -14.246   1.497  1.00  0.00     0.029 A 
ATOM     64  N   UNL     1       3.079 -14.822   3.603  1.00  0.00    -0.354 N 
ATOM     65  N   UNL     1       5.985 -12.544   3.618  1.00  0.00    -0.248 NA
ATOM     66  C   UNL     1       8.132 -12.375   4.419  1.00  0.00     0.031 C 
ATOM     67  C   UNL     1       4.066 -14.306   1.682  1.00  0.00     0.029 A 
ATOM     68  C   UNL     1       4.316 -14.643   3.001  1.00  0.00     0.049 A 
ATOM     69  H   UNL     1       2.945 -15.116   4.533  1.00  0.00     0.167 HD
ATOM     70  C   UNL     1       6.385 -13.825   3.892  1.00  0.00     0.074 A 
ATOM     71  C   UNL     1       7.758 -13.665   4.344  1.00  0.00     0.031 C 
ATOM     72  C   UNL     1       5.544 -14.897   3.745  1.00  0.00     0.034 A 
BRANCH  59  73
ATOM     73  C   UNL     1      -0.561 -14.838   2.702  1.00  0.00     0.023 A 
ATOM     74  C   UNL     1      -0.498 -15.488   1.452  1.00  0.00     0.012 A 
ATOM     75  C   UNL     1      -1.827 -14.790   3.332  1.00  0.00     0.148 A 
ATOM     76  C   UNL     1      -1.630 -15.995   0.814  1.00  0.00     0.002 A 
ATOM     77  C   UNL     1      -2.970 -15.250   2.671  1.00  0.00     0.091 A 
ATOM     78  F   UNL     1      -1.919 -14.338   4.590  1.00  0.00    -0.205 F 
ATOM     79  C   UNL     1      -2.872 -15.852   1.411  1.00  0.00     0.022 A 
BRANCH  77  80
ATOM     80  S   UNL     1      -4.635 -15.031   3.324  1.00  0.00     0.127 S 
ATOM     81  O   UNL     1      -5.359 -14.514   2.159  1.00  0.00    -0.237 OA
ATOM     82  O   UNL     1      -5.003 -16.391   3.709  1.00  0.00    -0.237 OA
ATOM     83  O   UNL     1      -4.512 -14.072   4.414  1.00  0.00    -0.744 OA
ENDBRANCH  77  80
ENDBRANCH  59  73
BRANCH  60  84
ATOM     84  C   UNL     1       6.987  -9.183   4.862  1.00  0.00     0.023 A 
ATOM     85  C   UNL     1       7.313  -7.857   4.470  1.00  0.00     0.012 A 
ATOM     86  C   UNL     1       6.501  -9.390   6.165  1.00  0.00     0.148 A 
ATOM     87  C   UNL     1       7.003  -6.762   5.282  1.00  0.00     0.002 A 
ATOM     88  C   UNL     1       6.234  -8.292   6.988  1.00  0.00     0.091 A 
ATOM     89  F   UNL     1       6.276 -10.645   6.577  1.00  0.00    -0.205 F 
ATOM     90  C   UNL     1       6.427  -6.979   6.528  1.00  0.00     0.022 A 
BRANCH  88  91
ATOM     91  S   UNL     1       5.613  -8.504   8.664  1.00  0.00     0.127 S 
ATOM     92  O   UNL     1       6.857  -8.563   9.425  1.00  0.00    -0.237 OA
ATOM     93  O   UNL     1       4.829  -7.293   8.884  1.00  0.00    -0.237 OA
ATOM     94  O   UNL     1       4.822  -9.730   8.622  1.00  0.00    -0.744 OA
ENDBRANCH  88  91
ENDBRANCH  60  84
BRANCH  72  95
ATOM     95  C   UNL     1       5.787 -16.303   4.269  1.00  0.00     0.023 A 
ATOM     96  C   UNL     1       6.764 -16.591   5.238  1.00  0.00     0.012 A 
ATOM     97  C   UNL     1       4.918 -17.372   3.913  1.00  0.00     0.148 A 
ATOM     98  C   UNL     1       6.913 -17.870   5.785  1.00  0.00     0.002 A 
ATOM     99  C   UNL     1       4.980 -18.599   4.563  1.00  0.00     0.091 A 
ATOM    100  F   UNL     1       4.034 -17.222   2.917  1.00  0.00    -0.205 F 
ATOM    101  C   UNL     1       6.000 -18.866   5.473  1.00  0.00     0.022 A 
BRANCH  99 102
ATOM    102  S   UNL     1       3.660 -19.810   4.391  1.00  0.00     0.127 S 
ATOM    103  O   UNL     1       4.222 -20.730   3.406  1.00  0.00    -0.237 OA
ATOM    104  O   UNL     1       3.562 -20.354   5.748  1.00  0.00    -0.237 OA
ATOM    105  O   UNL     1       2.492 -19.050   3.968  1.00  0.00    -0.744 OA
ENDBRANCH  99 102
ENDBRANCH  72  95
ENDBRANCH  46  47
ENDBRANCH  38  41
ENDBRANCH  36  37
ENDBRANCH  35  36
ENDBRANCH   1  35
TORSDOF 19
