REMARK SMILES COc1ccc2c(c1)c(CC(=O)NCCCCNC(=O)c1ccc(-c3c4nc(c(-c5cccc(S(=O)(=O)[O-])c5F)c5ccc([nH]5)c(-c5cccc(S(=O)(=O)[O-])c5F)c5nc(c(-c6cccc(S(=O)(=O)[O-])c6F)c6ccc3[nH]6)C=C5)C=C4)cc1)c(C)n2C(=O)c1ccc(Cl)cc1
REMARK SMILES IDX 15 1 14 2 13 3 11 4 12 5 10 7 9 8 3 9 4 10 8 11 5 12 7 13
REMARK SMILES IDX 6 14 86 15 84 16 85 17 2 18 1 19 87 20 88 21 89 22 90 23
REMARK SMILES IDX 95 24 91 25 94 26 92 27 93 28 16 29 17 30 18 31 19 32 20 34
REMARK SMILES IDX 21 35 22 36 83 37 23 38 82 39 24 40 25 41 26 42 76 43 27 44
REMARK SMILES IDX 81 45 75 46 77 47 28 48 80 49 74 50 73 51 29 53 61 54 41 55
REMARK SMILES IDX 60 56 42 57 45 58 59 59 78 60 43 61 44 62 58 64 79 65 46 66
REMARK SMILES IDX 30 67 31 68 39 69 32 70 34 71 40 72 33 73 35 74 36 75 37 76
REMARK SMILES IDX 38 77 62 78 63 79 71 80 64 81 66 82 72 83 65 84 67 85 68 86
REMARK SMILES IDX 69 87 70 88 47 89 48 90 56 91 49 92 51 93 57 94 50 95 52 96
REMARK SMILES IDX 53 97 54 98 55 99
REMARK H PARENT 13 6 18 33 77 52 45 63
REMARK Flexibility Score: inf
ROOT
ATOM      1  C   UNL     1       0.797  -0.438   7.731  1.00  0.00     0.023 C 
ENDROOT
BRANCH   1   2
ATOM      2  C   UNL     1      -0.587  -1.074   7.828  1.00  0.00     0.116 C 
BRANCH   2   3
ATOM      3  N   UNL     1      -1.520  -0.513   6.874  1.00  0.00    -0.356 N 
ATOM      4  C   UNL     1      -2.119  -1.141   5.819  1.00  0.00     0.224 C 
ATOM      5  O   UNL     1      -2.931  -0.507   5.141  1.00  0.00    -0.275 OA
ATOM      6  H   UNL     1      -1.750   0.435   7.001  1.00  0.00     0.163 HD
BRANCH   4   7
ATOM      7  C   UNL     1      -1.831  -2.611   5.545  1.00  0.00     0.138 C 
BRANCH   7   8
ATOM      8  C   UNL     1      -0.398  -2.888   5.181  1.00  0.00    -0.009 A 
ATOM      9  C   UNL     1       0.866  -0.922   2.160  1.00  0.00     0.119 A 
ATOM     10  C   UNL     1       2.113  -1.521   2.108  1.00  0.00     0.048 A 
ATOM     11  C   UNL     1      -0.032  -1.297   3.161  1.00  0.00     0.057 A 
ATOM     12  C   UNL     1       2.483  -2.493   3.046  1.00  0.00     0.031 A 
ATOM     13  C   UNL     1       0.321  -2.273   4.122  1.00  0.00     0.008 A 
ATOM     14  C   UNL     1       1.600  -2.835   4.090  1.00  0.00     0.057 A 
ATOM     15  N   UNL     1       1.735  -3.665   5.220  1.00  0.00    -0.280 N 
ATOM     16  C   UNL     1       0.453  -3.815   5.776  1.00  0.00     0.028 A 
ATOM     17  C   UNL     1       0.096  -4.779   6.868  1.00  0.00     0.065 C 
BRANCH   9  18
ATOM     18  O   UNL     1       0.410   0.044   1.306  1.00  0.00    -0.497 OA
ATOM     19  C   UNL     1       1.039   0.096   0.032  1.00  0.00     0.278 C 
ENDBRANCH   9  18
BRANCH  15  20
ATOM     20  C   UNL     1       2.944  -4.245   5.706  1.00  0.00     0.262 C 
ATOM     21  O   UNL     1       2.902  -4.974   6.701  1.00  0.00    -0.268 OA
BRANCH  20  22
ATOM     22  C   UNL     1       4.276  -4.080   5.103  1.00  0.00     0.040 A 
ATOM     23  C   UNL     1       4.920  -2.838   5.086  1.00  0.00     0.015 A 
ATOM     24  C   UNL     1       4.867  -5.201   4.508  1.00  0.00     0.015 A 
ATOM     25  C   UNL     1       6.117  -2.700   4.378  1.00  0.00     0.021 A 
ATOM     26  C   UNL     1       6.068  -5.059   3.813  1.00  0.00     0.021 A 
ATOM     27  C   UNL     1       6.675  -3.805   3.731  1.00  0.00     0.041 A 
ATOM     28  Cl  UNL     1       8.107  -3.620   2.797  1.00  0.00    -0.084 Cl
ENDBRANCH  20  22
ENDBRANCH  15  20
ENDBRANCH   7   8
ENDBRANCH   4   7
ENDBRANCH   2   3
ENDBRANCH   1   2
BRANCH   1  29
ATOM     29  C   UNL     1       0.864   0.998   8.270  1.00  0.00     0.023 C 
BRANCH  29  30
ATOM     30  C   UNL     1       0.217   1.175   9.646  1.00  0.00     0.116 C 
BRANCH  30  31
ATOM     31  N   UNL     1       0.757   0.279  10.649  1.00  0.00    -0.352 N 
ATOM     32  C   UNL     1       1.687   0.395  11.642  1.00  0.00     0.251 C 
ATOM     33  H   UNL     1       0.362  -0.622  10.603  1.00  0.00     0.163 HD
ATOM     34  O   UNL     1       1.762  -0.561  12.418  1.00  0.00    -0.269 OA
BRANCH  32  35
ATOM     35  C   UNL     1       2.644   1.521  11.783  1.00  0.00     0.039 A 
ATOM     36  C   UNL     1       2.704   2.633  10.943  1.00  0.00     0.014 A 
ATOM     37  C   UNL     1       3.635   1.362  12.771  1.00  0.00     0.014 A 
ATOM     38  C   UNL     1       3.804   3.472  10.977  1.00  0.00     0.010 A 
ATOM     39  C   UNL     1       4.727   2.214  12.825  1.00  0.00     0.010 A 
ATOM     40  C   UNL     1       4.844   3.211  11.867  1.00  0.00    -0.014 A 
BRANCH  40  41
ATOM     41  C   UNL     1       6.040   4.028  11.742  1.00  0.00     0.031 A 
ATOM     42  C   UNL     1       5.818   5.487  11.943  1.00  0.00     0.074 A 
ATOM     43  C   UNL     1       7.250   3.488  11.494  1.00  0.00     0.049 A 
ATOM     44  N   UNL     1       5.932   6.440  11.074  1.00  0.00    -0.248 NA
ATOM     45  C   UNL     1       5.253   5.911  13.233  1.00  0.00     0.031 C 
ATOM     46  C   UNL     1       7.645   2.076  11.524  1.00  0.00     0.029 A 
ATOM     47  N   UNL     1       8.431   4.126  11.286  1.00  0.00    -0.354 N 
ATOM     48  C   UNL     1       5.648   7.614  11.769  1.00  0.00     0.074 A 
ATOM     49  C   UNL     1       5.099   7.222  13.042  1.00  0.00     0.031 C 
ATOM     50  C   UNL     1       8.991   1.995  11.627  1.00  0.00     0.029 A 
ATOM     51  C   UNL     1       9.550   3.329  11.510  1.00  0.00     0.049 A 
ATOM     52  H   UNL     1       8.491   5.067  11.003  1.00  0.00     0.167 HD
ATOM     53  C   UNL     1       6.067   8.838  11.347  1.00  0.00     0.034 A 
ATOM     54  C   UNL     1      10.818   3.777  11.685  1.00  0.00     0.034 A 
ATOM     55  C   UNL     1       6.516   8.832   9.986  1.00  0.00     0.049 A 
ATOM     56  C   UNL     1      10.873   5.134  11.087  1.00  0.00     0.074 A 
ATOM     57  C   UNL     1       5.921   8.626   8.759  1.00  0.00     0.029 A 
ATOM     58  N   UNL     1       7.866   8.694   9.783  1.00  0.00    -0.354 N 
ATOM     59  N   UNL     1      10.707   5.372   9.817  1.00  0.00    -0.248 NA
ATOM     60  C   UNL     1      10.685   6.271  11.973  1.00  0.00     0.031 C 
ATOM     61  C   UNL     1       6.891   7.907   8.001  1.00  0.00     0.029 A 
ATOM     62  C   UNL     1       8.033   7.764   8.792  1.00  0.00     0.049 A 
ATOM     63  H   UNL     1       8.581   9.174  10.261  1.00  0.00     0.167 HD
ATOM     64  C   UNL     1       9.977   6.553   9.779  1.00  0.00     0.074 A 
ATOM     65  C   UNL     1      10.075   7.106  11.128  1.00  0.00     0.031 C 
ATOM     66  C   UNL     1       9.132   6.827   8.744  1.00  0.00     0.034 A 
BRANCH  53  67
ATOM     67  C   UNL     1       6.384   9.970  12.280  1.00  0.00     0.023 A 
ATOM     68  C   UNL     1       6.388  11.288  11.782  1.00  0.00     0.012 A 
ATOM     69  C   UNL     1       6.926   9.754  13.568  1.00  0.00     0.148 A 
ATOM     70  C   UNL     1       6.902  12.347  12.540  1.00  0.00     0.002 A 
ATOM     71  C   UNL     1       7.377  10.815  14.341  1.00  0.00     0.091 A 
ATOM     72  F   UNL     1       7.116   8.499  13.995  1.00  0.00    -0.205 F 
ATOM     73  C   UNL     1       7.383  12.113  13.825  1.00  0.00     0.022 A 
BRANCH  71  74
ATOM     74  S   UNL     1       7.993  10.573  16.010  1.00  0.00     0.127 S 
ATOM     75  O   UNL     1       9.422  10.815  15.831  1.00  0.00    -0.237 OA
ATOM     76  O   UNL     1       7.274  11.614  16.745  1.00  0.00    -0.237 OA
ATOM     77  O   UNL     1       7.613   9.214  16.371  1.00  0.00    -0.744 OA
ENDBRANCH  71  74
ENDBRANCH  53  67
BRANCH  54  78
ATOM     78  C   UNL     1      11.854   3.318  12.647  1.00  0.00     0.023 A 
ATOM     79  C   UNL     1      13.174   3.799  12.503  1.00  0.00     0.012 A 
ATOM     80  C   UNL     1      11.507   2.695  13.867  1.00  0.00     0.148 A 
ATOM     81  C   UNL     1      14.092   3.724  13.557  1.00  0.00     0.002 A 
ATOM     82  C   UNL     1      12.428   2.613  14.909  1.00  0.00     0.091 A 
ATOM     83  F   UNL     1      10.249   2.272  14.045  1.00  0.00    -0.205 F 
ATOM     84  C   UNL     1      13.715   3.145  14.765  1.00  0.00     0.022 A 
BRANCH  82  85
ATOM     85  S   UNL     1      12.011   1.890  16.503  1.00  0.00     0.127 S 
ATOM     86  O   UNL     1      13.163   1.022  16.752  1.00  0.00    -0.237 OA
ATOM     87  O   UNL     1      11.936   3.068  17.361  1.00  0.00    -0.237 OA
ATOM     88  O   UNL     1      10.758   1.173  16.297  1.00  0.00    -0.744 OA
ENDBRANCH  82  85
ENDBRANCH  54  78
BRANCH  66  89
ATOM     89  C   UNL     1       9.181   5.924   7.539  1.00  0.00     0.023 A 
ATOM     90  C   UNL     1       8.695   4.599   7.569  1.00  0.00     0.012 A 
ATOM     91  C   UNL     1       9.547   6.490   6.309  1.00  0.00     0.148 A 
ATOM     92  C   UNL     1       8.581   3.854   6.391  1.00  0.00     0.002 A 
ATOM     93  C   UNL     1       9.401   5.761   5.138  1.00  0.00     0.091 A 
ATOM     94  F   UNL     1       9.990   7.756   6.307  1.00  0.00    -0.205 F 
ATOM     95  C   UNL     1       8.922   4.440   5.173  1.00  0.00     0.022 A 
BRANCH  93  96
ATOM     96  S   UNL     1       9.721   6.484   3.529  1.00  0.00     0.127 S 
ATOM     97  O   UNL     1      10.888   5.728   3.080  1.00  0.00    -0.237 OA
ATOM     98  O   UNL     1       8.484   6.187   2.805  1.00  0.00    -0.237 OA
ATOM     99  O   UNL     1       9.953   7.905   3.760  1.00  0.00    -0.744 OA
ENDBRANCH  93  96
ENDBRANCH  66  89
ENDBRANCH  40  41
ENDBRANCH  32  35
ENDBRANCH  30  31
ENDBRANCH  29  30
ENDBRANCH   1  29
TORSDOF 18
