REMARK SMILES CCN(C(=O)Cc1c(C(=O)NCCCCNC(=O)c2ccc(-c3c4nc(c(-c5cccc(S(=O)(=O)[O-])c5F)c5ccc([nH]5)c(-c5cccc(S(=O)(=O)[O-])c5F)c5nc(c(-c6cccc(S(=O)(=O)[O-])c6F)c6ccc3[nH]6)C=C5)C=C4)cc2)[nH]c2ccc(Cl)cc12)c1ccc(C)c(C)c1
REMARK SMILES IDX 13 1 12 2 11 3 9 4 10 5 8 7 7 8 89 9 82 10 83 11 88 12 84 14
REMARK SMILES IDX 86 15 85 16 87 17 6 18 4 19 5 20 3 21 2 22 1 23 90 24 91 25
REMARK SMILES IDX 97 26 92 27 95 28 93 29 96 30 94 31 14 32 15 33 16 34 17 35
REMARK SMILES IDX 18 37 19 38 20 39 81 40 21 41 80 42 22 43 23 44 24 45 74 46
REMARK SMILES IDX 25 47 79 48 73 49 75 50 26 51 78 52 72 53 71 54 27 56 59 57
REMARK SMILES IDX 39 58 58 59 40 60 43 61 57 62 76 63 41 64 42 65 56 67 77 68
REMARK SMILES IDX 44 69 28 70 29 71 37 72 30 73 32 74 38 75 31 76 33 77 34 78
REMARK SMILES IDX 35 79 36 80 60 81 61 82 69 83 62 84 64 85 70 86 63 87 65 88
REMARK SMILES IDX 66 89 67 90 68 91 45 92 46 93 54 94 47 95 49 96 55 97 48 98
REMARK SMILES IDX 50 99 51 100 52 101 53 102
REMARK H PARENT 11 6 82 13 16 36 75 55 43 66
REMARK Flexibility Score: inf
ROOT
ATOM      1  C   UNL     1      -2.796   0.175  -4.228  1.00  0.00     0.023 C 
ENDROOT
BRANCH   1   2
ATOM      2  C   UNL     1      -1.833   0.723  -3.176  1.00  0.00     0.116 C 
BRANCH   2   3
ATOM      3  N   UNL     1      -2.476   1.012  -1.912  1.00  0.00    -0.351 N 
ATOM      4  C   UNL     1      -2.691   0.426  -0.706  1.00  0.00     0.268 C 
ATOM      5  O   UNL     1      -3.219   1.188   0.116  1.00  0.00    -0.268 OA
ATOM      6  H   UNL     1      -2.881   1.909  -1.933  1.00  0.00     0.163 HD
BRANCH   4   7
ATOM      7  C   UNL     1      -2.391  -0.935  -0.283  1.00  0.00     0.109 A 
ATOM      8  C   UNL     1      -1.831  -2.130  -0.753  1.00  0.00    -0.000 A 
ATOM      9  C   UNL     1      -2.053  -3.141   0.262  1.00  0.00     0.005 A 
ATOM     10  N   UNL     1      -2.731  -1.200   1.041  1.00  0.00    -0.350 N 
ATOM     11  C   UNL     1      -2.589  -2.514   1.375  1.00  0.00     0.046 A 
ATOM     12  C   UNL     1      -1.848  -4.538   0.323  1.00  0.00     0.031 A 
ATOM     13  H   UNL     1      -3.042  -0.510   1.670  1.00  0.00     0.167 HD
ATOM     14  C   UNL     1      -2.907  -3.180   2.564  1.00  0.00     0.028 A 
ATOM     15  C   UNL     1      -2.204  -5.230   1.486  1.00  0.00     0.041 A 
ATOM     16  C   UNL     1      -2.713  -4.562   2.596  1.00  0.00     0.022 A 
ATOM     17  Cl  UNL     1      -2.029  -6.944   1.542  1.00  0.00    -0.084 Cl
BRANCH   8  18
ATOM     18  C   UNL     1      -1.183  -2.470  -2.055  1.00  0.00     0.139 C 
BRANCH  18  19
ATOM     19  C   UNL     1       0.314  -2.792  -1.996  1.00  0.00     0.231 C 
ATOM     20  O   UNL     1       0.660  -3.914  -2.395  1.00  0.00    -0.274 OA
BRANCH  19  21
ATOM     21  N   UNL     1       1.244  -1.833  -1.571  1.00  0.00    -0.312 N 
BRANCH  21  22
ATOM     22  C   UNL     1       0.919  -0.499  -1.037  1.00  0.00     0.122 C 
ATOM     23  C   UNL     1       0.978  -0.343   0.475  1.00  0.00     0.028 C 
ENDBRANCH  21  22
BRANCH  21  24
ATOM     24  C   UNL     1       2.641  -2.066  -1.802  1.00  0.00     0.044 A 
ATOM     25  C   UNL     1       3.103  -2.450  -3.061  1.00  0.00     0.026 A 
ATOM     26  C   UNL     1       3.578  -1.836  -0.790  1.00  0.00     0.030 A 
ATOM     27  C   UNL     1       4.475  -2.570  -3.302  1.00  0.00     0.006 A 
ATOM     28  C   UNL     1       4.960  -1.954  -1.013  1.00  0.00    -0.046 A 
ATOM     29  C   UNL     1       5.416  -2.321  -2.289  1.00  0.00    -0.048 A 
ATOM     30  C   UNL     1       5.892  -1.698   0.139  1.00  0.00     0.044 C 
ATOM     31  C   UNL     1       6.872  -2.497  -2.620  1.00  0.00     0.044 C 
ENDBRANCH  21  24
ENDBRANCH  19  21
ENDBRANCH  18  19
ENDBRANCH   8  18
ENDBRANCH   4   7
ENDBRANCH   2   3
ENDBRANCH   1   2
BRANCH   1  32
ATOM     32  C   UNL     1      -2.858   1.053  -5.479  1.00  0.00     0.023 C 
BRANCH  32  33
ATOM     33  C   UNL     1      -1.528   1.233  -6.205  1.00  0.00     0.116 C 
BRANCH  33  34
ATOM     34  N   UNL     1      -1.044   0.028  -6.862  1.00  0.00    -0.352 N 
ATOM     35  C   UNL     1      -0.312  -0.032  -8.030  1.00  0.00     0.251 C 
ATOM     36  H   UNL     1      -1.261  -0.830  -6.430  1.00  0.00     0.163 HD
ATOM     37  O   UNL     1      -0.015  -1.107  -8.541  1.00  0.00    -0.269 OA
BRANCH  35  38
ATOM     38  C   UNL     1       0.063   1.242  -8.678  1.00  0.00     0.039 A 
ATOM     39  C   UNL     1      -0.428   1.524  -9.955  1.00  0.00     0.014 A 
ATOM     40  C   UNL     1       0.776   2.204  -7.958  1.00  0.00     0.014 A 
ATOM     41  C   UNL     1      -0.274   2.809 -10.481  1.00  0.00     0.010 A 
ATOM     42  C   UNL     1       0.869   3.498  -8.457  1.00  0.00     0.010 A 
ATOM     43  C   UNL     1       0.336   3.818  -9.717  1.00  0.00    -0.014 A 
BRANCH  43  44
ATOM     44  C   UNL     1       0.411   5.223 -10.196  1.00  0.00     0.031 A 
ATOM     45  C   UNL     1       1.751   5.864 -10.423  1.00  0.00     0.074 A 
ATOM     46  C   UNL     1      -0.716   5.956 -10.309  1.00  0.00     0.049 A 
ATOM     47  N   UNL     1       2.032   7.106 -10.721  1.00  0.00    -0.248 NA
ATOM     48  C   UNL     1       2.935   5.003 -10.260  1.00  0.00     0.031 C 
ATOM     49  C   UNL     1      -2.072   5.475 -10.037  1.00  0.00     0.029 A 
ATOM     50  N   UNL     1      -0.896   7.274 -10.649  1.00  0.00    -0.354 N 
ATOM     51  C   UNL     1       3.419   7.187 -10.733  1.00  0.00     0.074 A 
ATOM     52  C   UNL     1       3.923   5.877 -10.386  1.00  0.00     0.031 C 
ATOM     53  C   UNL     1      -2.942   6.482 -10.218  1.00  0.00     0.029 A 
ATOM     54  C   UNL     1      -2.208   7.687 -10.594  1.00  0.00     0.049 A 
ATOM     55  H   UNL     1      -0.156   7.869 -10.909  1.00  0.00     0.167 HD
ATOM     56  C   UNL     1       4.204   8.248 -11.037  1.00  0.00     0.034 A 
ATOM     57  C   UNL     1      -2.756   8.898 -10.815  1.00  0.00     0.034 A 
ATOM     58  C   UNL     1       3.701   9.529 -11.448  1.00  0.00     0.049 A 
ATOM     59  C   UNL     1      -1.866  10.041 -11.224  1.00  0.00     0.074 A 
ATOM     60  C   UNL     1       4.414  10.639 -11.866  1.00  0.00     0.029 A 
ATOM     61  N   UNL     1       2.360   9.871 -11.501  1.00  0.00    -0.354 N 
ATOM     62  N   UNL     1      -0.564  10.056 -11.380  1.00  0.00    -0.248 NA
ATOM     63  C   UNL     1      -2.520  11.324 -11.523  1.00  0.00     0.031 C 
ATOM     64  C   UNL     1       3.502  11.654 -12.170  1.00  0.00     0.029 A 
ATOM     65  C   UNL     1       2.221  11.173 -11.950  1.00  0.00     0.049 A 
ATOM     66  H   UNL     1       1.615   9.277 -11.255  1.00  0.00     0.167 HD
ATOM     67  C   UNL     1      -0.249  11.332 -11.835  1.00  0.00     0.074 A 
ATOM     68  C   UNL     1      -1.497  12.058 -11.942  1.00  0.00     0.031 C 
ATOM     69  C   UNL     1       0.967  11.858 -12.123  1.00  0.00     0.034 A 
BRANCH  56  70
ATOM     70  C   UNL     1       5.694   8.043 -11.003  1.00  0.00     0.023 A 
ATOM     71  C   UNL     1       6.310   7.281 -12.017  1.00  0.00     0.012 A 
ATOM     72  C   UNL     1       6.490   8.639 -10.006  1.00  0.00     0.148 A 
ATOM     73  C   UNL     1       7.690   7.086 -12.021  1.00  0.00     0.002 A 
ATOM     74  C   UNL     1       7.870   8.474 -10.040  1.00  0.00     0.091 A 
ATOM     75  F   UNL     1       5.885   9.338  -9.035  1.00  0.00    -0.205 F 
ATOM     76  C   UNL     1       8.470   7.690 -11.039  1.00  0.00     0.022 A 
BRANCH  74  77
ATOM     77  S   UNL     1       8.965   9.276  -8.862  1.00  0.00     0.127 S 
ATOM     78  O   UNL     1       9.338   8.157  -7.997  1.00  0.00    -0.237 OA
ATOM     79  O   UNL     1      10.043   9.765  -9.723  1.00  0.00    -0.237 OA
ATOM     80  O   UNL     1       8.173  10.322  -8.232  1.00  0.00    -0.744 OA
ENDBRANCH  74  77
ENDBRANCH  56  70
BRANCH  57  81
ATOM     81  C   UNL     1      -4.235   9.072 -10.739  1.00  0.00     0.023 A 
ATOM     82  C   UNL     1      -4.966   9.263 -11.928  1.00  0.00     0.012 A 
ATOM     83  C   UNL     1      -4.924   9.018  -9.512  1.00  0.00     0.148 A 
ATOM     84  C   UNL     1      -6.351   9.426 -11.895  1.00  0.00     0.002 A 
ATOM     85  C   UNL     1      -6.311   9.130  -9.491  1.00  0.00     0.091 A 
ATOM     86  F   UNL     1      -4.212   8.851  -8.389  1.00  0.00    -0.205 F 
ATOM     87  C   UNL     1      -7.024   9.350 -10.679  1.00  0.00     0.022 A 
BRANCH  85  88
ATOM     88  S   UNL     1      -7.266   8.911  -7.985  1.00  0.00     0.127 S 
ATOM     89  O   UNL     1      -7.640  10.285  -7.665  1.00  0.00    -0.237 OA
ATOM     90  O   UNL     1      -8.367   8.062  -8.442  1.00  0.00    -0.237 OA
ATOM     91  O   UNL     1      -6.363   8.259  -7.045  1.00  0.00    -0.744 OA
ENDBRANCH  85  88
ENDBRANCH  57  81
BRANCH  69  92
ATOM     92  C   UNL     1       1.019  13.274 -12.629  1.00  0.00     0.023 A 
ATOM     93  C   UNL     1       0.836  14.343 -11.731  1.00  0.00     0.012 A 
ATOM     94  C   UNL     1       1.352  13.544 -13.971  1.00  0.00     0.148 A 
ATOM     95  C   UNL     1       0.963  15.662 -12.167  1.00  0.00     0.002 A 
ATOM     96  C   UNL     1       1.520  14.859 -14.388  1.00  0.00     0.091 A 
ATOM     97  F   UNL     1       1.502  12.511 -14.813  1.00  0.00    -0.205 F 
ATOM     98  C   UNL     1       1.317  15.919 -13.489  1.00  0.00     0.022 A 
BRANCH  96  99
ATOM     99  S   UNL     1       2.067  15.276 -16.047  1.00  0.00     0.127 S 
ATOM    100  O   UNL     1       0.828  15.751 -16.660  1.00  0.00    -0.237 OA
ATOM    101  O   UNL     1       3.062  16.320 -15.795  1.00  0.00    -0.237 OA
ATOM    102  O   UNL     1       2.614  14.047 -16.607  1.00  0.00    -0.744 OA
ENDBRANCH  96  99
ENDBRANCH  69  92
ENDBRANCH  43  44
ENDBRANCH  35  38
ENDBRANCH  33  34
ENDBRANCH  32  33
ENDBRANCH   1  32
TORSDOF 19
