REMARK SMILES COc1cc2c(CC(=O)NCCCCNC(=O)c3ccc(-c4c5nc(c(-c6cccc(S(=O)(=O)[O-])c6F)c6ccc([nH]6)c(-c6cccc(S(=O)(=O)[O-])c6F)c6nc(c(-c7cccc(S(=O)(=O)[O-])c7F)c7ccc4[nH]7)C=C6)C=C5)cc3)c(C)n(C(=O)c3ccc(Cl)cc3)c2cc1Cl
REMARK SMILES IDX 12 1 11 2 10 3 8 4 9 5 7 7 6 8 3 9 4 10 95 11 5 12 94 13
REMARK SMILES IDX 96 14 93 15 81 16 83 17 82 18 2 19 1 20 84 21 85 22 86 23
REMARK SMILES IDX 87 24 92 25 88 26 91 27 89 28 90 29 13 30 14 31 15 32 16 33
REMARK SMILES IDX 17 35 18 36 19 37 80 38 20 39 79 40 21 41 22 42 23 43 73 44
REMARK SMILES IDX 24 45 78 46 72 47 74 48 25 49 77 50 71 51 70 52 26 54 58 55
REMARK SMILES IDX 38 56 57 57 39 58 42 59 56 60 75 61 40 62 41 63 55 65 76 66
REMARK SMILES IDX 43 67 27 68 28 69 36 70 29 71 31 72 37 73 30 74 32 75 33 76
REMARK SMILES IDX 34 77 35 78 59 79 60 80 68 81 61 82 63 83 69 84 62 85 64 86
REMARK SMILES IDX 65 87 66 88 67 89 44 90 45 91 53 92 46 93 48 94 54 95 47 96
REMARK SMILES IDX 49 97 50 98 51 99 52 100
REMARK H PARENT 10 6 15 34 74 53 42 64
REMARK Flexibility Score: inf
ROOT
ATOM      1  C   UNL     1       0.772   5.349  -5.682  1.00  0.00     0.023 C 
ENDROOT
BRANCH   1   2
ATOM      2  C   UNL     1      -0.574   5.923  -5.250  1.00  0.00     0.116 C 
BRANCH   2   3
ATOM      3  N   UNL     1      -1.520   4.890  -4.886  1.00  0.00    -0.356 N 
ATOM      4  C   UNL     1      -2.057   4.630  -3.657  1.00  0.00     0.224 C 
ATOM      5  O   UNL     1      -2.883   3.719  -3.556  1.00  0.00    -0.275 OA
ATOM      6  H   UNL     1      -1.815   4.300  -5.617  1.00  0.00     0.163 HD
BRANCH   4   7
ATOM      7  C   UNL     1      -1.695   5.502  -2.464  1.00  0.00     0.138 C 
BRANCH   7   8
ATOM      8  C   UNL     1      -0.249   5.409  -2.059  1.00  0.00    -0.009 A 
ATOM      9  C   UNL     1       0.974   1.881  -1.180  1.00  0.00     0.138 A 
ATOM     10  C   UNL     1       0.064   2.859  -1.608  1.00  0.00     0.058 A 
ATOM     11  C   UNL     1       2.267   2.259  -0.838  1.00  0.00     0.085 A 
ATOM     12  C   UNL     1       0.446   4.220  -1.700  1.00  0.00     0.008 A 
ATOM     13  C   UNL     1       2.642   3.607  -0.871  1.00  0.00     0.051 A 
ATOM     14  Cl  UNL     1       3.524   1.141  -0.442  1.00  0.00    -0.080 Cl
ATOM     15  C   UNL     1       1.753   4.582  -1.367  1.00  0.00     0.058 A 
ATOM     16  C   UNL     1       0.644   6.469  -1.917  1.00  0.00     0.028 A 
ATOM     17  N   UNL     1       1.922   5.944  -1.674  1.00  0.00    -0.280 N 
ATOM     18  C   UNL     1       0.338   7.930  -2.057  1.00  0.00     0.065 C 
BRANCH   9  19
ATOM     19  O   UNL     1       0.498   0.597  -1.211  1.00  0.00    -0.495 OA
ATOM     20  C   UNL     1       0.653  -0.116   0.014  1.00  0.00     0.278 C 
ENDBRANCH   9  19
BRANCH  17  21
ATOM     21  C   UNL     1       3.160   6.653  -1.738  1.00  0.00     0.262 C 
ATOM     22  O   UNL     1       3.150   7.851  -2.023  1.00  0.00    -0.268 OA
BRANCH  21  23
ATOM     23  C   UNL     1       4.484   6.071  -1.460  1.00  0.00     0.040 A 
ATOM     24  C   UNL     1       5.044   5.103  -2.303  1.00  0.00     0.015 A 
ATOM     25  C   UNL     1       5.129   6.450  -0.277  1.00  0.00     0.015 A 
ATOM     26  C   UNL     1       6.207   4.439  -1.901  1.00  0.00     0.021 A 
ATOM     27  C   UNL     1       6.297   5.793   0.110  1.00  0.00     0.021 A 
ATOM     28  C   UNL     1       6.817   4.774  -0.690  1.00  0.00     0.041 A 
ATOM     29  Cl  UNL     1       8.202   3.906  -0.154  1.00  0.00    -0.084 Cl
ENDBRANCH  21  23
ENDBRANCH  17  21
ENDBRANCH   7   8
ENDBRANCH   4   7
ENDBRANCH   2   3
ENDBRANCH   1   2
BRANCH   1  30
ATOM     30  C   UNL     1       0.744   4.657  -7.049  1.00  0.00     0.023 C 
BRANCH  30  31
ATOM     31  C   UNL     1       0.142   5.504  -8.176  1.00  0.00     0.116 C 
BRANCH  31  32
ATOM     32  N   UNL     1       0.820   6.767  -8.387  1.00  0.00    -0.352 N 
ATOM     33  C   UNL     1       1.816   7.177  -9.232  1.00  0.00     0.251 C 
ATOM     34  H   UNL     1       0.493   7.484  -7.797  1.00  0.00     0.163 HD
ATOM     35  O   UNL     1       1.991   8.396  -9.314  1.00  0.00    -0.269 OA
BRANCH  33  36
ATOM     36  C   UNL     1       2.737   6.261  -9.955  1.00  0.00     0.039 A 
ATOM     37  C   UNL     1       2.657   4.871  -9.925  1.00  0.00     0.014 A 
ATOM     38  C   UNL     1       3.835   6.861 -10.603  1.00  0.00     0.014 A 
ATOM     39  C   UNL     1       3.713   4.103 -10.377  1.00  0.00     0.010 A 
ATOM     40  C   UNL     1       4.885   6.093 -11.091  1.00  0.00     0.010 A 
ATOM     41  C   UNL     1       4.848   4.718 -10.908  1.00  0.00    -0.014 A 
BRANCH  41  42
ATOM     42  C   UNL     1       5.926   3.834 -11.323  1.00  0.00     0.031 A 
ATOM     43  C   UNL     1       5.512   2.811 -12.321  1.00  0.00     0.074 A 
ATOM     44  C   UNL     1       7.184   3.919 -10.849  1.00  0.00     0.049 A 
ATOM     45  N   UNL     1       5.391   1.536 -12.140  1.00  0.00    -0.248 NA
ATOM     46  C   UNL     1       5.000   3.289 -13.614  1.00  0.00     0.031 C 
ATOM     47  C   UNL     1       7.791   4.983 -10.047  1.00  0.00     0.029 A 
ATOM     48  N   UNL     1       8.232   3.085 -11.090  1.00  0.00    -0.354 N 
ATOM     49  C   UNL     1       5.000   1.021 -13.374  1.00  0.00     0.074 A 
ATOM     50  C   UNL     1       4.615   2.148 -14.185  1.00  0.00     0.031 C 
ATOM     51  C   UNL     1       9.138   4.855 -10.087  1.00  0.00     0.029 A 
ATOM     52  C   UNL     1       9.475   3.628 -10.785  1.00  0.00     0.049 A 
ATOM     53  H   UNL     1       8.119   2.175 -11.449  1.00  0.00     0.167 HD
ATOM     54  C   UNL     1       5.242  -0.272 -13.720  1.00  0.00     0.034 A 
ATOM     55  C   UNL     1      10.678   3.121 -11.152  1.00  0.00     0.034 A 
ATOM     56  C   UNL     1       5.521  -1.097 -12.578  1.00  0.00     0.049 A 
ATOM     57  C   UNL     1      10.465   1.681 -11.428  1.00  0.00     0.074 A 
ATOM     58  C   UNL     1       4.825  -1.461 -11.443  1.00  0.00     0.029 A 
ATOM     59  N   UNL     1       6.838  -1.386 -12.324  1.00  0.00    -0.354 N 
ATOM     60  N   UNL     1      10.147   0.812 -10.509  1.00  0.00    -0.248 NA
ATOM     61  C   UNL     1      10.193   1.278 -12.798  1.00  0.00     0.031 C 
ATOM     62  C   UNL     1       5.805  -1.485 -10.408  1.00  0.00     0.029 A 
ATOM     63  C   UNL     1       7.041  -1.187 -10.985  1.00  0.00     0.049 A 
ATOM     64  H   UNL     1       7.510  -1.680 -12.980  1.00  0.00     0.167 HD
ATOM     65  C   UNL     1       9.245  -0.036 -11.135  1.00  0.00     0.074 A 
ATOM     66  C   UNL     1       9.389   0.237 -12.563  1.00  0.00     0.031 C 
ATOM     67  C   UNL     1       8.269  -0.672 -10.425  1.00  0.00     0.034 A 
BRANCH  54  68
ATOM     68  C   UNL     1       5.598  -0.709 -15.117  1.00  0.00     0.023 A 
ATOM     69  C   UNL     1       5.612  -2.092 -15.397  1.00  0.00     0.012 A 
ATOM     70  C   UNL     1       6.195   0.149 -16.070  1.00  0.00     0.148 A 
ATOM     71  C   UNL     1       6.219  -2.596 -16.553  1.00  0.00     0.002 A 
ATOM     72  C   UNL     1       6.732  -0.349 -17.249  1.00  0.00     0.091 A 
ATOM     73  F   UNL     1       6.376   1.441 -15.781  1.00  0.00    -0.205 F 
ATOM     74  C   UNL     1       6.771  -1.724 -17.485  1.00  0.00     0.022 A 
BRANCH  72  75
ATOM     75  S   UNL     1       7.438   0.744 -18.487  1.00  0.00     0.127 S 
ATOM     76  O   UNL     1       8.867   0.525 -18.285  1.00  0.00    -0.237 OA
ATOM     77  O   UNL     1       6.891   0.187 -19.724  1.00  0.00    -0.237 OA
ATOM     78  O   UNL     1       6.938   2.073 -18.160  1.00  0.00    -0.744 OA
ENDBRANCH  72  75
ENDBRANCH  54  68
BRANCH  55  79
ATOM     79  C   UNL     1      11.938   3.806 -11.539  1.00  0.00     0.023 A 
ATOM     80  C   UNL     1      13.126   3.050 -11.642  1.00  0.00     0.012 A 
ATOM     81  C   UNL     1      11.930   5.103 -12.097  1.00  0.00     0.148 A 
ATOM     82  C   UNL     1      14.244   3.543 -12.325  1.00  0.00     0.002 A 
ATOM     83  C   UNL     1      13.050   5.594 -12.767  1.00  0.00     0.091 A 
ATOM     84  F   UNL     1      10.800   5.819 -12.058  1.00  0.00    -0.205 F 
ATOM     85  C   UNL     1      14.202   4.809 -12.898  1.00  0.00     0.022 A 
BRANCH  83  86
ATOM     86  S   UNL     1      13.068   7.217 -13.543  1.00  0.00     0.127 S 
ATOM     87  O   UNL     1      14.350   7.757 -13.088  1.00  0.00    -0.237 OA
ATOM     88  O   UNL     1      13.018   6.876 -14.962  1.00  0.00    -0.237 OA
ATOM     89  O   UNL     1      11.904   7.920 -13.019  1.00  0.00    -0.744 OA
ENDBRANCH  83  86
ENDBRANCH  55  79
BRANCH  67  90
ATOM     90  C   UNL     1       8.326  -0.606  -8.922  1.00  0.00     0.023 A 
ATOM     91  C   UNL     1       8.068   0.590  -8.218  1.00  0.00     0.012 A 
ATOM     92  C   UNL     1       8.421  -1.813  -8.213  1.00  0.00     0.148 A 
ATOM     93  C   UNL     1       7.905   0.577  -6.829  1.00  0.00     0.002 A 
ATOM     94  C   UNL     1       8.221  -1.827  -6.839  1.00  0.00     0.091 A 
ATOM     95  F   UNL     1       8.651  -2.936  -8.909  1.00  0.00    -0.205 F 
ATOM     96  C   UNL     1       7.966  -0.634  -6.142  1.00  0.00     0.022 A 
BRANCH  94  97
ATOM     97  S   UNL     1       8.171  -3.358  -5.906  1.00  0.00     0.127 S 
ATOM     98  O   UNL     1       9.346  -3.230  -5.046  1.00  0.00    -0.237 OA
ATOM     99  O   UNL     1       6.888  -3.253  -5.210  1.00  0.00    -0.237 OA
ATOM    100  O   UNL     1       8.236  -4.435  -6.887  1.00  0.00    -0.744 OA
ENDBRANCH  94  97
ENDBRANCH  67  90
ENDBRANCH  41  42
ENDBRANCH  33  36
ENDBRANCH  31  32
ENDBRANCH  30  31
ENDBRANCH   1  30
TORSDOF 18
