REMARK SMILES COc1ccc(C2=NN(C(=O)CCC(=O)NCCCCNC(=O)c3ccc(-c4c5nc(c(-c6cccc(S(=O)(=O)[O-])c6F)c6ccc([nH]6)c(-c6cccc(S(=O)(=O)[O-])c6F)c6nc(c(-c7cccc(S(=O)(=O)[O-])c7F)c7ccc4[nH]7)C=C6)C=C5)cc3)[C@H](c3ccc(Cl)cc3Cl)C2)cc1
REMARK SMILES IDX 17 1 16 2 14 3 15 4 13 6 12 7 10 8 11 9 9 10 7 11 8 12 96 13
REMARK SMILES IDX 87 14 6 15 3 16 4 17 98 18 5 19 97 20 2 21 1 22 88 23 89 24
REMARK SMILES IDX 94 25 90 26 93 27 95 28 91 29 92 30 18 31 19 32 20 33 21 34
REMARK SMILES IDX 22 35 23 37 24 38 25 39 86 40 26 41 85 42 27 43 28 44 29 45
REMARK SMILES IDX 79 46 30 47 84 48 78 49 80 50 31 51 83 52 77 53 76 54 32 56
REMARK SMILES IDX 64 57 44 58 63 59 45 60 48 61 62 62 81 63 46 64 47 65 61 67
REMARK SMILES IDX 82 68 49 69 33 70 34 71 42 72 35 73 37 74 43 75 36 76 38 77
REMARK SMILES IDX 39 78 40 79 41 80 65 81 66 82 74 83 67 84 69 85 75 86 68 87
REMARK SMILES IDX 70 88 71 89 72 90 73 91 50 92 51 93 59 94 52 95 54 96 60 97
REMARK SMILES IDX 53 98 55 99 56 100 57 101 58 102
REMARK H PARENT 16 5 21 36 80 55 48 66
REMARK Flexibility Score: inf
ROOT
ATOM      1  C   UNL     1       2.758  -7.801   2.618  1.00  0.00     0.116 C 
ENDROOT
BRANCH   1   2
ATOM      2  N   UNL     1       3.722  -7.109   3.450  1.00  0.00    -0.356 N 
ATOM      3  C   UNL     1       4.540  -7.622   4.406  1.00  0.00     0.220 C 
ATOM      4  O   UNL     1       5.550  -6.992   4.723  1.00  0.00    -0.275 OA
ATOM      5  H   UNL     1       3.795  -6.138   3.302  1.00  0.00     0.163 HD
BRANCH   3   6
ATOM      6  C   UNL     1       4.204  -8.924   5.085  1.00  0.00     0.110 C 
BRANCH   6   7
ATOM      7  C   UNL     1       3.020  -8.933   6.049  1.00  0.00     0.112 C 
BRANCH   7   8
ATOM      8  C   UNL     1       2.100  -7.730   6.202  1.00  0.00     0.243 C 
ATOM      9  O   UNL     1       0.882  -7.942   6.107  1.00  0.00    -0.273 OA
BRANCH   8  10
ATOM     10  N   UNL     1       2.610  -6.467   6.410  1.00  0.00    -0.225 N 
ATOM     11  C   UNL     1       2.669  -4.367   5.899  1.00  0.00     0.071 C 
ATOM     12  N   UNL     1       1.882  -5.401   5.928  1.00  0.00    -0.174 NA
ATOM     13  C   UNL     1       4.036  -4.608   6.497  1.00  0.00     0.091 C 
ATOM     14  C   UNL     1       3.821  -6.004   7.116  1.00  0.00     0.149 C 
BRANCH  11  15
ATOM     15  C   UNL     1       2.295  -3.140   5.137  1.00  0.00    -0.002 A 
ATOM     16  C   UNL     1       1.585  -1.490   2.928  1.00  0.00     0.118 A 
ATOM     17  C   UNL     1       0.602  -2.080   3.742  1.00  0.00     0.047 A 
ATOM     18  C   UNL     1       2.907  -1.558   3.403  1.00  0.00     0.047 A 
ATOM     19  C   UNL     1       0.951  -2.913   4.820  1.00  0.00     0.014 A 
ATOM     20  C   UNL     1       3.266  -2.385   4.487  1.00  0.00     0.014 A 
BRANCH  16  21
ATOM     21  O   UNL     1       1.102  -1.058   1.652  1.00  0.00    -0.497 OA
ATOM     22  C   UNL     1       1.052  -0.551  -0.290  1.00  0.00     0.278 C 
ENDBRANCH  16  21
ENDBRANCH  11  15
BRANCH  14  23
ATOM     23  C   UNL     1       3.511  -6.043   8.613  1.00  0.00    -0.004 A 
ATOM     24  C   UNL     1       2.695  -5.049   9.190  1.00  0.00     0.009 A 
ATOM     25  C   UNL     1       3.853  -7.150   9.414  1.00  0.00     0.047 A 
ATOM     26  C   UNL     1       2.188  -5.186  10.482  1.00  0.00     0.021 A 
ATOM     27  C   UNL     1       3.302  -7.312  10.689  1.00  0.00     0.041 A 
ATOM     28  Cl  UNL     1       4.984  -8.358   8.911  1.00  0.00    -0.084 Cl
ATOM     29  C   UNL     1       2.466  -6.334  11.212  1.00  0.00     0.042 A 
ATOM     30  Cl  UNL     1       1.772  -6.551  12.771  1.00  0.00    -0.084 Cl
ENDBRANCH  14  23
ENDBRANCH   8  10
ENDBRANCH   7   8
ENDBRANCH   6   7
ENDBRANCH   3   6
ENDBRANCH   1   2
BRANCH   1  31
ATOM     31  C   UNL     1       1.297  -7.389   2.786  1.00  0.00     0.023 C 
BRANCH  31  32
ATOM     32  C   UNL     1       0.968  -5.901   2.752  1.00  0.00     0.023 C 
BRANCH  32  33
ATOM     33  C   UNL     1       1.626  -5.088   1.651  1.00  0.00     0.116 C 
BRANCH  33  34
ATOM     34  N   UNL     1       0.755  -4.985   0.499  1.00  0.00    -0.352 N 
ATOM     35  C   UNL     1       0.059  -3.871   0.105  1.00  0.00     0.251 C 
ATOM     36  H   UNL     1       0.653  -5.792  -0.055  1.00  0.00     0.163 HD
ATOM     37  O   UNL     1      -0.926  -3.964  -0.620  1.00  0.00    -0.269 OA
BRANCH  35  38
ATOM     38  C   UNL     1       0.526  -2.544   0.520  1.00  0.00     0.039 A 
ATOM     39  C   UNL     1      -0.687  -1.264   0.912  1.00  0.00     0.014 A 
ATOM     40  C   UNL     1       2.284  -2.151   0.493  1.00  0.00     0.014 A 
ATOM     41  C   UNL     1      -0.137   0.401   1.317  1.00  0.00     0.010 A 
ATOM     42  C   UNL     1       2.837  -0.467   0.886  1.00  0.00     0.010 A 
ATOM     43  C   UNL     1       1.634   0.809   1.324  1.00  0.00    -0.014 A 
BRANCH  43  44
ATOM     44  C   UNL     1       2.073   2.205   1.572  1.00  0.00     0.031 A 
ATOM     45  C   UNL     1       3.017   2.907   0.626  1.00  0.00     0.074 A 
ATOM     46  C   UNL     1       1.636   2.834   2.680  1.00  0.00     0.049 A 
ATOM     47  N   UNL     1       3.512   4.117   0.696  1.00  0.00    -0.248 NA
ATOM     48  C   UNL     1       3.498   2.151  -0.540  1.00  0.00     0.031 C 
ATOM     49  C   UNL     1       0.795   2.235   3.718  1.00  0.00     0.029 A 
ATOM     50  N   UNL     1       1.854   4.111   3.133  1.00  0.00    -0.354 N 
ATOM     51  C   UNL     1       4.391   4.238  -0.378  1.00  0.00     0.074 A 
ATOM     52  C   UNL     1       4.410   2.963  -1.050  1.00  0.00     0.031 C 
ATOM     53  C   UNL     1       0.546   3.147   4.670  1.00  0.00     0.029 A 
ATOM     54  C   UNL     1       1.240   4.383   4.334  1.00  0.00     0.049 A 
ATOM     55  H   UNL     1       2.398   4.770   2.644  1.00  0.00     0.167 HD
ATOM     56  C   UNL     1       5.086   5.320  -0.802  1.00  0.00     0.034 A 
ATOM     57  C   UNL     1       1.241   5.503   5.083  1.00  0.00     0.034 A 
ATOM     58  C   UNL     1       5.018   6.603  -0.162  1.00  0.00     0.049 A 
ATOM     59  C   UNL     1       1.980   6.708   4.571  1.00  0.00     0.074 A 
ATOM     60  C   UNL     1       5.611   7.791  -0.544  1.00  0.00     0.029 A 
ATOM     61  N   UNL     1       4.312   6.859   1.003  1.00  0.00    -0.354 N 
ATOM     62  N   UNL     1       2.684   6.839   3.471  1.00  0.00    -0.248 NA
ATOM     63  C   UNL     1       1.893   7.934   5.377  1.00  0.00     0.031 C 
ATOM     64  C   UNL     1       5.293   8.759   0.414  1.00  0.00     0.029 A 
ATOM     65  C   UNL     1       4.464   8.184   1.365  1.00  0.00     0.049 A 
ATOM     66  H   UNL     1       3.781   6.195   1.500  1.00  0.00     0.167 HD
ATOM     67  C   UNL     1       3.090   8.167   3.433  1.00  0.00     0.074 A 
ATOM     68  C   UNL     1       2.535   8.805   4.610  1.00  0.00     0.031 C 
ATOM     69  C   UNL     1       3.859   8.803   2.516  1.00  0.00     0.034 A 
BRANCH  56  70
ATOM     70  C   UNL     1       5.943   5.165  -2.037  1.00  0.00     0.023 A 
ATOM     71  C   UNL     1       5.336   4.952  -3.293  1.00  0.00     0.012 A 
ATOM     72  C   UNL     1       7.348   5.241  -1.958  1.00  0.00     0.148 A 
ATOM     73  C   UNL     1       6.111   4.757  -4.437  1.00  0.00     0.002 A 
ATOM     74  C   UNL     1       8.112   5.097  -3.111  1.00  0.00     0.091 A 
ATOM     75  F   UNL     1       7.911   5.433  -0.757  1.00  0.00    -0.205 F 
ATOM     76  C   UNL     1       7.497   4.836  -4.346  1.00  0.00     0.022 A 
BRANCH  74  77
ATOM     77  S   UNL     1       9.901   5.254  -3.120  1.00  0.00     0.127 S 
ATOM     78  O   UNL     1      10.314   3.893  -3.461  1.00  0.00    -0.237 OA
ATOM     79  O   UNL     1      10.115   6.239  -4.180  1.00  0.00    -0.237 OA
ATOM     80  O   UNL     1      10.275   5.699  -1.785  1.00  0.00    -0.744 OA
ENDBRANCH  74  77
ENDBRANCH  56  70
BRANCH  57  81
ATOM     81  C   UNL     1       0.463   5.555   6.355  1.00  0.00     0.023 A 
ATOM     82  C   UNL     1      -0.687   6.366   6.433  1.00  0.00     0.012 A 
ATOM     83  C   UNL     1       0.840   4.793   7.478  1.00  0.00     0.148 A 
ATOM     84  C   UNL     1      -1.423   6.448   7.616  1.00  0.00     0.002 A 
ATOM     85  C   UNL     1       0.072   4.837   8.636  1.00  0.00     0.091 A 
ATOM     86  F   UNL     1       1.938   4.029   7.387  1.00  0.00    -0.205 F 
ATOM     87  C   UNL     1      -1.049   5.678   8.714  1.00  0.00     0.022 A 
BRANCH  85  88
ATOM     88  S   UNL     1       0.406   3.791  10.058  1.00  0.00     0.127 S 
ATOM     89  O   UNL     1       0.850   4.767  11.049  1.00  0.00    -0.237 OA
ATOM     90  O   UNL     1      -0.910   3.205  10.317  1.00  0.00    -0.237 OA
ATOM     91  O   UNL     1       1.413   2.835   9.618  1.00  0.00    -0.744 OA
ENDBRANCH  85  88
ENDBRANCH  57  81
BRANCH  69  92
ATOM     92  C   UNL     1       4.110  10.272   2.714  1.00  0.00     0.023 A 
ATOM     93  C   UNL     1       4.971  10.711   3.739  1.00  0.00     0.012 A 
ATOM     94  C   UNL     1       3.562  11.210   1.817  1.00  0.00     0.148 A 
ATOM     95  C   UNL     1       5.257  12.066   3.887  1.00  0.00     0.002 A 
ATOM     96  C   UNL     1       3.898  12.551   1.935  1.00  0.00     0.091 A 
ATOM     97  F   UNL     1       2.731  10.769   0.861  1.00  0.00    -0.205 F 
ATOM     98  C   UNL     1       4.733  12.983   2.978  1.00  0.00     0.022 A 
BRANCH  96  99
ATOM     99  S   UNL     1       3.365  13.782   0.743  1.00  0.00     0.127 S 
ATOM    100  O   UNL     1       2.409  14.562   1.528  1.00  0.00    -0.237 OA
ATOM    101  O   UNL     1       4.615  14.477   0.437  1.00  0.00    -0.237 OA
ATOM    102  O   UNL     1       2.795  13.042  -0.375  1.00  0.00    -0.744 OA
ENDBRANCH  96  99
ENDBRANCH  69  92
ENDBRANCH  43  44
ENDBRANCH  35  38
ENDBRANCH  33  34
ENDBRANCH  32  33
ENDBRANCH  31  32
ENDBRANCH   1  31
TORSDOF 20
