REMARK SMILES O=C(NCCCCNC(=O)c1ccc(-c2c3nc(c(-c4cccc(S(=O)(=O)[O-])c4F)c4ccc([nH]4)c(-c4cccc(S(=O)(=O)[O-])c4F)c4nc(c(-c5cccc(S(=O)(=O)[O-])c5F)c5ccc2[nH]5)C=C4)C=C3)cc1)C1=Cc2cc(Cl)cc(-c3ccc(Cl)cc3)c2O[C@@H]1C(F)(F)F
REMARK SMILES IDX 6 1 5 2 4 3 3 4 1 5 2 6 74 8 75 9 91 10 76 11 90 12 77 13
REMARK SMILES IDX 89 14 78 15 81 16 79 17 80 18 92 19 93 20 94 21 95 22 82 23
REMARK SMILES IDX 83 24 88 25 84 26 87 27 85 28 86 29 7 30 8 31 9 32 10 34
REMARK SMILES IDX 11 35 12 36 73 37 13 38 72 39 14 40 15 41 16 42 66 43 17 44
REMARK SMILES IDX 71 45 65 46 67 47 18 48 70 49 64 50 63 51 19 53 51 54 31 55
REMARK SMILES IDX 50 56 32 57 35 58 49 59 68 60 33 61 34 62 48 64 69 65 36 66
REMARK SMILES IDX 20 67 21 68 29 69 22 70 24 71 30 72 23 73 25 74 26 75 27 76
REMARK SMILES IDX 28 77 52 78 53 79 61 80 54 81 56 82 62 83 55 84 57 85 58 86
REMARK SMILES IDX 59 87 60 88 37 89 38 90 46 91 39 92 41 93 47 94 40 95 42 96
REMARK SMILES IDX 43 97 44 98 45 99
REMARK H PARENT 3 7 8 33 67 52 35 63
REMARK Flexibility Score: inf
ROOT
ATOM      1  C   UNL     1       4.223   0.116  -4.705  1.00  0.00     0.023 C 
ENDROOT
BRANCH   1   2
ATOM      2  C   UNL     1       4.487  -0.891  -3.587  1.00  0.00     0.023 C 
BRANCH   2   3
ATOM      3  C   UNL     1       4.159  -0.452  -2.163  1.00  0.00     0.116 C 
BRANCH   3   4
ATOM      4  N   UNL     1       2.834  -0.793  -1.671  1.00  0.00    -0.352 N 
ATOM      5  O   UNL     1       1.161  -1.041  -0.190  1.00  0.00    -0.270 OA
ATOM      6  C   UNL     1       2.359  -0.833  -0.388  1.00  0.00     0.251 C 
ATOM      7  H   UNL     1       2.179  -1.030  -2.367  1.00  0.00     0.163 HD
BRANCH   6   8
ATOM      8  C   UNL     1       3.217  -0.566   0.810  1.00  0.00     0.067 C 
ATOM      9  C   UNL     1       4.506  -0.939   0.889  1.00  0.00     0.025 C 
ATOM     10  C   UNL     1       2.814   0.703   1.533  1.00  0.00     0.314 C 
ATOM     11  C   UNL     1       5.406   0.225   0.659  1.00  0.00     0.019 A 
ATOM     12  O   UNL     1       3.603   1.824   1.048  1.00  0.00    -0.475 OA
ATOM     13  C   UNL     1       6.707  -0.035   0.217  1.00  0.00     0.032 A 
ATOM     14  C   UNL     1       4.878   1.533   0.611  1.00  0.00     0.135 A 
ATOM     15  C   UNL     1       7.445   0.990  -0.360  1.00  0.00     0.042 A 
ATOM     16  C   UNL     1       5.609   2.561  -0.009  1.00  0.00     0.026 A 
ATOM     17  Cl  UNL     1       8.986   0.642  -1.038  1.00  0.00    -0.084 Cl
ATOM     18  C   UNL     1       6.901   2.267  -0.489  1.00  0.00     0.033 A 
BRANCH  10  19
ATOM     19  C   UNL     1       2.884   0.569   3.065  1.00  0.00     0.429 C 
ATOM     20  F   UNL     1       2.408   1.672   3.689  1.00  0.00    -0.167 F 
ATOM     21  F   UNL     1       2.148  -0.480   3.509  1.00  0.00    -0.167 F 
ATOM     22  F   UNL     1       4.148   0.374   3.517  1.00  0.00    -0.167 F 
ENDBRANCH  10  19
BRANCH  16  23
ATOM     23  C   UNL     1       5.022   3.867  -0.344  1.00  0.00    -0.015 A 
ATOM     24  C   UNL     1       4.086   3.970  -1.389  1.00  0.00     0.010 A 
ATOM     25  C   UNL     1       5.461   5.043   0.278  1.00  0.00     0.010 A 
ATOM     26  C   UNL     1       3.649   5.215  -1.846  1.00  0.00     0.021 A 
ATOM     27  C   UNL     1       5.013   6.290  -0.167  1.00  0.00     0.021 A 
ATOM     28  C   UNL     1       4.126   6.372  -1.240  1.00  0.00     0.041 A 
ATOM     29  Cl  UNL     1       3.636   7.910  -1.829  1.00  0.00    -0.084 Cl
ENDBRANCH  16  23
ENDBRANCH   6   8
ENDBRANCH   3   4
ENDBRANCH   2   3
ENDBRANCH   1   2
BRANCH   1  30
ATOM     30  C   UNL     1       4.849   1.506  -4.582  1.00  0.00     0.116 C 
BRANCH  30  31
ATOM     31  N   UNL     1       6.298   1.549  -4.431  1.00  0.00    -0.352 N 
ATOM     32  C   UNL     1       7.190   2.448  -4.992  1.00  0.00     0.251 C 
ATOM     33  H   UNL     1       6.692   0.852  -3.858  1.00  0.00     0.163 HD
ATOM     34  O   UNL     1       8.386   2.378  -4.743  1.00  0.00    -0.269 OA
BRANCH  32  35
ATOM     35  C   UNL     1       6.690   3.456  -5.958  1.00  0.00     0.039 A 
ATOM     36  C   UNL     1       7.201   3.441  -7.259  1.00  0.00     0.014 A 
ATOM     37  C   UNL     1       5.640   4.314  -5.622  1.00  0.00     0.014 A 
ATOM     38  C   UNL     1       6.560   4.179  -8.258  1.00  0.00     0.010 A 
ATOM     39  C   UNL     1       4.964   4.999  -6.632  1.00  0.00     0.010 A 
ATOM     40  C   UNL     1       5.388   4.898  -7.968  1.00  0.00    -0.014 A 
BRANCH  40  41
ATOM     41  C   UNL     1       4.519   5.408  -9.064  1.00  0.00     0.031 A 
ATOM     42  C   UNL     1       4.242   6.873  -9.235  1.00  0.00     0.074 A 
ATOM     43  C   UNL     1       3.874   4.516  -9.847  1.00  0.00     0.049 A 
ATOM     44  N   UNL     1       3.497   7.467 -10.133  1.00  0.00    -0.248 NA
ATOM     45  C   UNL     1       4.855   7.788  -8.262  1.00  0.00     0.031 C 
ATOM     46  C   UNL     1       3.958   3.059  -9.712  1.00  0.00     0.029 A 
ATOM     47  N   UNL     1       2.995   4.699 -10.887  1.00  0.00    -0.354 N 
ATOM     48  C   UNL     1       3.532   8.820  -9.824  1.00  0.00     0.074 A 
ATOM     49  C   UNL     1       4.347   8.956  -8.634  1.00  0.00     0.031 C 
ATOM     50  C   UNL     1       3.165   2.484 -10.628  1.00  0.00     0.029 A 
ATOM     51  C   UNL     1       2.499   3.524 -11.405  1.00  0.00     0.049 A 
ATOM     52  H   UNL     1       2.744   5.587 -11.230  1.00  0.00     0.167 HD
ATOM     53  C   UNL     1       2.966   9.858 -10.486  1.00  0.00     0.034 A 
ATOM     54  C   UNL     1       1.608   3.301 -12.391  1.00  0.00     0.034 A 
ATOM     55  C   UNL     1       2.186   9.727 -11.689  1.00  0.00     0.049 A 
ATOM     56  C   UNL     1       1.036   4.469 -13.146  1.00  0.00     0.074 A 
ATOM     57  C   UNL     1       1.677  10.729 -12.497  1.00  0.00     0.029 A 
ATOM     58  N   UNL     1       1.783   8.524 -12.247  1.00  0.00    -0.354 N 
ATOM     59  N   UNL     1       1.262   5.748 -12.973  1.00  0.00    -0.248 NA
ATOM     60  C   UNL     1       0.119   4.164 -14.254  1.00  0.00     0.031 C 
ATOM     61  C   UNL     1       0.951  10.132 -13.534  1.00  0.00     0.029 A 
ATOM     62  C   UNL     1       1.017   8.757 -13.378  1.00  0.00     0.049 A 
ATOM     63  H   UNL     1       2.009   7.634 -11.892  1.00  0.00     0.167 HD
ATOM     64  C   UNL     1       0.535   6.400 -13.962  1.00  0.00     0.074 A 
ATOM     65  C   UNL     1      -0.118   5.373 -14.748  1.00  0.00     0.031 C 
ATOM     66  C   UNL     1       0.406   7.731 -14.184  1.00  0.00     0.034 A 
BRANCH  53  67
ATOM     67  C   UNL     1       3.232  11.244  -9.963  1.00  0.00     0.023 A 
ATOM     68  C   UNL     1       4.510  11.812 -10.145  1.00  0.00     0.012 A 
ATOM     69  C   UNL     1       2.218  12.005  -9.352  1.00  0.00     0.148 A 
ATOM     70  C   UNL     1       4.785  13.103  -9.697  1.00  0.00     0.002 A 
ATOM     71  C   UNL     1       2.489  13.307  -8.942  1.00  0.00     0.091 A 
ATOM     72  F   UNL     1       1.016  11.442  -9.167  1.00  0.00    -0.205 F 
ATOM     73  C   UNL     1       3.773  13.853  -9.105  1.00  0.00     0.022 A 
BRANCH  71  74
ATOM     74  S   UNL     1       1.227  14.374  -8.237  1.00  0.00     0.127 S 
ATOM     75  O   UNL     1       1.550  14.312  -6.813  1.00  0.00    -0.237 OA
ATOM     76  O   UNL     1       1.516  15.661  -8.871  1.00  0.00    -0.237 OA
ATOM     77  O   UNL     1      -0.048  13.786  -8.623  1.00  0.00    -0.744 OA
ENDBRANCH  71  74
ENDBRANCH  53  67
BRANCH  54  78
ATOM     78  C   UNL     1       1.261   1.900 -12.764  1.00  0.00     0.023 A 
ATOM     79  C   UNL     1       1.746   1.366 -13.973  1.00  0.00     0.012 A 
ATOM     80  C   UNL     1       0.508   1.079 -11.902  1.00  0.00     0.148 A 
ATOM     81  C   UNL     1       1.469   0.045 -14.328  1.00  0.00     0.002 A 
ATOM     82  C   UNL     1       0.283  -0.252 -12.235  1.00  0.00     0.091 A 
ATOM     83  F   UNL     1       0.042   1.611 -10.763  1.00  0.00    -0.205 F 
ATOM     84  C   UNL     1       0.749  -0.767 -13.455  1.00  0.00     0.022 A 
BRANCH  82  85
ATOM     85  S   UNL     1      -0.506  -1.401 -11.102  1.00  0.00     0.127 S 
ATOM     86  O   UNL     1      -1.827  -1.555 -11.702  1.00  0.00    -0.237 OA
ATOM     87  O   UNL     1       0.361  -2.576 -11.206  1.00  0.00    -0.237 OA
ATOM     88  O   UNL     1      -0.468  -0.749  -9.799  1.00  0.00    -0.744 OA
ENDBRANCH  82  85
ENDBRANCH  54  78
BRANCH  66  89
ATOM     89  C   UNL     1      -0.474   8.169 -15.326  1.00  0.00     0.023 A 
ATOM     90  C   UNL     1      -1.874   8.084 -15.192  1.00  0.00     0.012 A 
ATOM     91  C   UNL     1       0.076   8.735 -16.493  1.00  0.00     0.148 A 
ATOM     92  C   UNL     1      -2.713   8.536 -16.211  1.00  0.00     0.002 A 
ATOM     93  C   UNL     1      -0.767   9.222 -17.486  1.00  0.00     0.091 A 
ATOM     94  F   UNL     1       1.411   8.788 -16.611  1.00  0.00    -0.205 F 
ATOM     95  C   UNL     1      -2.161   9.115 -17.350  1.00  0.00     0.022 A 
BRANCH  93  96
ATOM     96  S   UNL     1      -0.147  10.061 -18.949  1.00  0.00     0.127 S 
ATOM     97  O   UNL     1      -0.355   9.050 -19.984  1.00  0.00    -0.237 OA
ATOM     98  O   UNL     1      -1.035  11.221 -19.044  1.00  0.00    -0.237 OA
ATOM     99  O   UNL     1       1.243  10.389 -18.663  1.00  0.00    -0.744 OA
ENDBRANCH  93  96
ENDBRANCH  66  89
ENDBRANCH  40  41
ENDBRANCH  32  35
ENDBRANCH  30  31
ENDBRANCH   1  30
TORSDOF 16
