REMARK SMILES O=C(NCCCCNC(=O)c1ccccc1NC(=S)NC(=O)c1ccc2ccccc2c1)c1ccc(-c2c3nc(c(-c4cccc(S(=O)(=O)[O-])c4F)c4ccc([nH]4)c(-c4cccc(S(=O)(=O)[O-])c4F)c4nc(c(-c5cccc(S(=O)(=O)[O-])c5F)c5ccc2[nH]5)C=C4)C=C3)cc1
REMARK SMILES IDX 6 1 5 2 4 3 3 4 1 5 2 6 33 8 34 9 95 10 35 11 94 12 36 13
REMARK SMILES IDX 37 14 38 15 88 16 39 17 93 18 87 19 89 20 40 21 92 22 86 23
REMARK SMILES IDX 85 24 41 26 73 27 53 28 72 29 54 30 57 31 71 32 90 33 55 34
REMARK SMILES IDX 56 35 70 37 91 38 58 39 42 40 43 41 51 42 44 43 46 44 52 45
REMARK SMILES IDX 45 46 47 47 48 48 49 49 50 50 74 51 75 52 83 53 76 54 78 55
REMARK SMILES IDX 84 56 77 57 79 58 80 59 81 60 82 61 59 62 60 63 68 64 61 65
REMARK SMILES IDX 63 66 69 67 62 68 64 69 65 70 66 71 67 72 7 73 8 74 9 75
REMARK SMILES IDX 10 77 11 78 12 79 16 80 13 81 15 82 14 83 17 84 18 86 19 87
REMARK SMILES IDX 20 88 21 89 22 91 23 92 24 93 32 94 25 95 31 96 26 97 30 98
REMARK SMILES IDX 27 99 29 100 28 101
REMARK H PARENT 3 7 89 25 57 36 8 76 17 85 20 90
REMARK Flexibility Score: inf
ROOT
ATOM      1  C   UNL     1       4.473  -3.496   1.364  1.00  0.00     0.023 C 
ENDROOT
BRANCH   1   2
ATOM      2  C   UNL     1       4.791  -2.009   1.481  1.00  0.00     0.023 C 
BRANCH   2   3
ATOM      3  C   UNL     1       4.442  -1.208   0.235  1.00  0.00     0.116 C 
BRANCH   3   4
ATOM      4  N   UNL     1       3.010  -1.141   0.007  1.00  0.00    -0.352 N 
ATOM      5  O   UNL     1       1.003  -0.109  -0.081  1.00  0.00    -0.269 OA
ATOM      6  C   UNL     1       2.224  -0.015  -0.069  1.00  0.00     0.251 C 
ATOM      7  H   UNL     1       2.547  -2.002  -0.107  1.00  0.00     0.163 HD
BRANCH   6   8
ATOM      8  C   UNL     1       2.894   1.302  -0.093  1.00  0.00     0.039 A 
ATOM      9  C   UNL     1       3.996   1.500  -0.929  1.00  0.00     0.014 A 
ATOM     10  C   UNL     1       2.478   2.303   0.784  1.00  0.00     0.014 A 
ATOM     11  C   UNL     1       4.792   2.621  -0.753  1.00  0.00     0.010 A 
ATOM     12  C   UNL     1       3.208   3.491   0.861  1.00  0.00     0.010 A 
ATOM     13  C   UNL     1       4.389   3.647   0.117  1.00  0.00    -0.014 A 
BRANCH  13  14
ATOM     14  C   UNL     1       5.171   4.908   0.144  1.00  0.00     0.031 A 
ATOM     15  C   UNL     1       5.819   5.414   1.401  1.00  0.00     0.074 A 
ATOM     16  C   UNL     1       5.290   5.602  -1.006  1.00  0.00     0.049 A 
ATOM     17  N   UNL     1       6.535   6.496   1.573  1.00  0.00    -0.248 NA
ATOM     18  C   UNL     1       5.639   4.616   2.623  1.00  0.00     0.031 C 
ATOM     19  C   UNL     1       4.678   5.222  -2.284  1.00  0.00     0.029 A 
ATOM     20  N   UNL     1       5.957   6.763  -1.293  1.00  0.00    -0.354 N 
ATOM     21  C   UNL     1       6.856   6.534   2.924  1.00  0.00     0.074 A 
ATOM     22  C   UNL     1       6.249   5.368   3.530  1.00  0.00     0.031 C 
ATOM     23  C   UNL     1       5.025   6.111  -3.222  1.00  0.00     0.029 A 
ATOM     24  C   UNL     1       5.808   7.168  -2.598  1.00  0.00     0.049 A 
ATOM     25  H   UNL     1       6.491   7.259  -0.630  1.00  0.00     0.167 HD
ATOM     26  C   UNL     1       7.592   7.455   3.594  1.00  0.00     0.034 A 
ATOM     27  C   UNL     1       6.217   8.287  -3.223  1.00  0.00     0.034 A 
ATOM     28  C   UNL     1       8.191   8.612   2.979  1.00  0.00     0.049 A 
ATOM     29  C   UNL     1       7.002   9.301  -2.447  1.00  0.00     0.074 A 
ATOM     30  C   UNL     1       9.001   9.572   3.561  1.00  0.00     0.029 A 
ATOM     31  N   UNL     1       8.023   8.987   1.654  1.00  0.00    -0.354 N 
ATOM     32  N   UNL     1       7.389   9.263  -1.196  1.00  0.00    -0.248 NA
ATOM     33  C   UNL     1       7.430  10.501  -3.177  1.00  0.00     0.031 C 
ATOM     34  C   UNL     1       9.269  10.558   2.606  1.00  0.00     0.029 A 
ATOM     35  C   UNL     1       8.688  10.177   1.408  1.00  0.00     0.049 A 
ATOM     36  H   UNL     1       7.506   8.481   0.986  1.00  0.00     0.167 HD
ATOM     37  C   UNL     1       8.136  10.416  -0.996  1.00  0.00     0.074 A 
ATOM     38  C   UNL     1       8.165  11.119  -2.263  1.00  0.00     0.031 C 
ATOM     39  C   UNL     1       8.737  10.855   0.137  1.00  0.00     0.034 A 
BRANCH  26  40
ATOM     40  C   UNL     1       7.788   7.258   5.077  1.00  0.00     0.023 A 
ATOM     41  C   UNL     1       8.584   6.197   5.554  1.00  0.00     0.012 A 
ATOM     42  C   UNL     1       7.227   8.165   6.000  1.00  0.00     0.148 A 
ATOM     43  C   UNL     1       8.782   6.015   6.923  1.00  0.00     0.002 A 
ATOM     44  C   UNL     1       7.471   8.008   7.359  1.00  0.00     0.091 A 
ATOM     45  F   UNL     1       6.464   9.163   5.532  1.00  0.00    -0.205 F 
ATOM     46  C   UNL     1       8.234   6.925   7.823  1.00  0.00     0.022 A 
BRANCH  44  47
ATOM     47  S   UNL     1       6.879   9.171   8.593  1.00  0.00     0.127 S 
ATOM     48  O   UNL     1       5.905   8.357   9.320  1.00  0.00    -0.237 OA
ATOM     49  O   UNL     1       8.101   9.471   9.340  1.00  0.00    -0.237 OA
ATOM     50  O   UNL     1       6.322  10.296   7.855  1.00  0.00    -0.744 OA
ENDBRANCH  44  47
ENDBRANCH  26  40
BRANCH  27  51
ATOM     51  C   UNL     1       5.885   8.497  -4.658  1.00  0.00     0.023 A 
ATOM     52  C   UNL     1       6.912   8.493  -5.620  1.00  0.00     0.012 A 
ATOM     53  C   UNL     1       4.550   8.674  -5.073  1.00  0.00     0.148 A 
ATOM     54  C   UNL     1       6.619   8.701  -6.968  1.00  0.00     0.002 A 
ATOM     55  C   UNL     1       4.259   8.818  -6.422  1.00  0.00     0.091 A 
ATOM     56  F   UNL     1       3.590   8.672  -4.138  1.00  0.00    -0.205 F 
ATOM     57  C   UNL     1       5.293   8.854  -7.370  1.00  0.00     0.022 A 
BRANCH  55  58
ATOM     58  S   UNL     1       2.577   8.893  -7.043  1.00  0.00     0.127 S 
ATOM     59  O   UNL     1       2.519  10.250  -7.580  1.00  0.00    -0.237 OA
ATOM     60  O   UNL     1       2.583   7.830  -8.048  1.00  0.00    -0.237 OA
ATOM     61  O   UNL     1       1.718   8.635  -5.895  1.00  0.00    -0.744 OA
ENDBRANCH  55  58
ENDBRANCH  27  51
BRANCH  39  62
ATOM     62  C   UNL     1       9.529  12.134   0.049  1.00  0.00     0.023 A 
ATOM     63  C   UNL     1       8.876  13.368  -0.139  1.00  0.00     0.012 A 
ATOM     64  C   UNL     1      10.929  12.111   0.205  1.00  0.00     0.148 A 
ATOM     65  C   UNL     1       9.607  14.553  -0.215  1.00  0.00     0.002 A 
ATOM     66  C   UNL     1      11.645  13.300   0.189  1.00  0.00     0.091 A 
ATOM     67  F   UNL     1      11.535  10.925   0.366  1.00  0.00    -0.205 F 
ATOM     68  C   UNL     1      10.989  14.520  -0.038  1.00  0.00     0.022 A 
BRANCH  66  69
ATOM     69  S   UNL     1      13.412  13.367   0.504  1.00  0.00     0.127 S 
ATOM     70  O   UNL     1      13.930  13.787  -0.797  1.00  0.00    -0.237 OA
ATOM     71  O   UNL     1      13.498  14.384   1.552  1.00  0.00    -0.237 OA
ATOM     72  O   UNL     1      13.800  12.027   0.923  1.00  0.00    -0.744 OA
ENDBRANCH  66  69
ENDBRANCH  39  62
ENDBRANCH  13  14
ENDBRANCH   6   8
ENDBRANCH   3   4
ENDBRANCH   2   3
ENDBRANCH   1   2
BRANCH   1  73
ATOM     73  C   UNL     1       4.948  -4.106   0.053  1.00  0.00     0.116 C 
BRANCH  73  74
ATOM     74  N   UNL     1       6.284  -3.658  -0.299  1.00  0.00    -0.352 N 
ATOM     75  C   UNL     1       7.210  -4.201  -1.147  1.00  0.00     0.253 C 
ATOM     76  H   UNL     1       6.570  -2.828   0.146  1.00  0.00     0.163 HD
ATOM     77  O   UNL     1       8.297  -3.726  -1.299  1.00  0.00    -0.269 OA
BRANCH  75  78
ATOM     78  C   UNL     1       7.007  -5.579  -1.516  1.00  0.00     0.063 A 
ATOM     79  C   UNL     1       7.720  -6.262  -0.547  1.00  0.00     0.016 A 
ATOM     80  C   UNL     1       6.010  -6.212  -2.309  1.00  0.00     0.053 A 
ATOM     81  C   UNL     1       7.302  -7.500  -0.374  1.00  0.00     0.001 A 
ATOM     82  C   UNL     1       6.056  -7.545  -2.483  1.00  0.00     0.027 A 
ATOM     83  C   UNL     1       6.580  -8.093  -1.372  1.00  0.00     0.002 A 
BRANCH  80  84
ATOM     84  N   UNL     1       4.812  -5.626  -2.687  1.00  0.00    -0.332 N 
ATOM     85  H   UNL     1       4.865  -4.669  -2.912  1.00  0.00     0.169 HD
BRANCH  84  86
ATOM     86  C   UNL     1       3.568  -6.180  -2.794  1.00  0.00     0.177 C 
ATOM     87  S   UNL     1       2.454  -5.259  -3.661  1.00  0.00    -0.040 S 
BRANCH  86  88
ATOM     88  N   UNL     1       3.135  -7.463  -2.223  1.00  0.00    -0.299 N 
ATOM     89  C   UNL     1       3.083  -8.832  -1.459  1.00  0.00     0.257 C 
ATOM     90  H   UNL     1       2.213  -7.463  -2.570  1.00  0.00     0.172 HD
ATOM     91  O   UNL     1       2.107  -9.518  -1.807  1.00  0.00    -0.269 OA
BRANCH  89  92
ATOM     92  C   UNL     1       4.088  -9.502  -0.382  1.00  0.00     0.040 A 
ATOM     93  C   UNL     1       5.012 -10.531  -0.754  1.00  0.00     0.014 A 
ATOM     94  C   UNL     1       4.364  -8.930   0.907  1.00  0.00     0.022 A 
ATOM     95  C   UNL     1       6.297 -10.677  -0.003  1.00  0.00     0.009 A 
ATOM     96  C   UNL     1       5.622  -9.108   1.719  1.00  0.00    -0.018 A 
ATOM     97  C   UNL     1       6.658  -9.935   1.208  1.00  0.00    -0.018 A 
ATOM     98  C   UNL     1       6.000  -8.240   2.826  1.00  0.00     0.009 A 
ATOM     99  C   UNL     1       8.038  -9.691   1.730  1.00  0.00     0.009 A 
ATOM    100  C   UNL     1       7.319  -8.076   3.345  1.00  0.00     0.001 A 
ATOM    101  C   UNL     1       8.360  -8.777   2.768  1.00  0.00     0.001 A 
ENDBRANCH  89  92
ENDBRANCH  86  88
ENDBRANCH  84  86
ENDBRANCH  80  84
ENDBRANCH  75  78
ENDBRANCH  73  74
ENDBRANCH   1  73
TORSDOF 18
