REMARK SMILES COc1cc2c(cc1OC)[C@H](C(=O)NCCCCNC(=O)c1ccc(-c3c4nc(c(-c5cccc(S(=O)(=O)[O-])c5F)c5ccc([nH]5)c(-c5cccc(S(=O)(=O)[O-])c5F)c5nc(c(-c6cccc(S(=O)(=O)[O-])c6F)c6ccc3[nH]6)C=C5)C=C4)cc1)[C@@H](c1ccc(SC)cc1)N(C)C2=O
REMARK SMILES IDX 17 1 16 2 15 3 14 4 12 5 13 6 11 8 3 9 4 10 8 11 5 12 7 13
REMARK SMILES IDX 6 14 96 15 94 16 97 17 85 18 95 19 2 20 1 21 9 22 10 23
REMARK SMILES IDX 86 24 87 25 93 26 88 27 92 28 89 29 90 30 91 31 18 32 19 33
REMARK SMILES IDX 20 34 21 36 22 37 23 38 84 39 24 40 83 41 25 42 26 43 27 44
REMARK SMILES IDX 77 45 28 46 82 47 76 48 78 49 29 50 81 51 75 52 74 53 30 55
REMARK SMILES IDX 62 56 42 57 61 58 43 59 46 60 60 61 79 62 44 63 45 64 59 66
REMARK SMILES IDX 80 67 47 68 31 69 32 70 40 71 33 72 35 73 41 74 34 75 36 76
REMARK SMILES IDX 37 77 38 78 39 79 63 80 64 81 72 82 65 83 67 84 73 85 66 86
REMARK SMILES IDX 68 87 69 88 70 89 71 90 48 91 49 92 57 93 50 94 52 95 58 96
REMARK SMILES IDX 51 97 53 98 54 99 55 100 56 101
REMARK H PARENT 14 7 19 35 78 54 46 65
REMARK Flexibility Score: inf
ROOT
ATOM      1  C   UNL     1      -1.727   9.137  -3.637  1.00  0.00     0.023 C 
ENDROOT
BRANCH   1   2
ATOM      2  C   UNL     1      -0.695   8.502  -2.704  1.00  0.00     0.023 C 
BRANCH   2   3
ATOM      3  C   UNL     1      -0.551   6.993  -2.861  1.00  0.00     0.116 C 
BRANCH   3   4
ATOM      4  N   UNL     1       0.014   6.630  -4.153  1.00  0.00    -0.355 N 
ATOM      5  C   UNL     1       1.152   5.915  -4.429  1.00  0.00     0.230 C 
ATOM      6  O   UNL     1       1.385   5.595  -5.594  1.00  0.00    -0.274 OA
ATOM      7  H   UNL     1      -0.492   6.940  -4.938  1.00  0.00     0.163 HD
BRANCH   5   8
ATOM      8  C   UNL     1       2.049   5.493  -3.268  1.00  0.00     0.136 C 
ATOM      9  C   UNL     1       0.975   1.609  -1.595  1.00  0.00     0.161 A 
ATOM     10  C   UNL     1       2.273   2.125  -1.476  1.00  0.00     0.064 A 
ATOM     11  C   UNL     1       0.008   2.349  -2.282  1.00  0.00     0.161 A 
ATOM     12  C   UNL     1       2.612   3.376  -2.019  1.00  0.00     0.048 A 
ATOM     13  C   UNL     1       0.365   3.591  -2.833  1.00  0.00     0.056 A 
ATOM     14  C   UNL     1       1.662   4.123  -2.719  1.00  0.00    -0.016 A 
ATOM     15  C   UNL     1       3.984   3.906  -1.800  1.00  0.00     0.254 C 
ATOM     16  N   UNL     1       4.363   5.039  -2.522  1.00  0.00    -0.334 N 
ATOM     17  O   UNL     1       4.712   3.348  -0.982  1.00  0.00    -0.269 OA
ATOM     18  C   UNL     1       3.547   5.494  -3.691  1.00  0.00     0.132 C 
ATOM     19  C   UNL     1       5.700   5.562  -2.276  1.00  0.00     0.147 C 
BRANCH   9  20
ATOM     20  O   UNL     1       0.675   0.356  -1.132  1.00  0.00    -0.493 OA
ATOM     21  C   UNL     1       1.119   0.096   0.197  1.00  0.00     0.278 C 
ENDBRANCH   9  20
BRANCH  11  22
ATOM     22  O   UNL     1      -1.307   2.045  -2.509  1.00  0.00    -0.493 OA
ATOM     23  C   UNL     1      -1.868   0.903  -1.882  1.00  0.00     0.278 C 
ENDBRANCH  11  22
BRANCH  18  24
ATOM     24  C   UNL     1       4.056   6.809  -4.305  1.00  0.00    -0.024 A 
ATOM     25  C   UNL     1       3.449   8.053  -4.083  1.00  0.00     0.007 A 
ATOM     26  C   UNL     1       5.195   6.785  -5.131  1.00  0.00     0.007 A 
ATOM     27  C   UNL     1       3.957   9.220  -4.671  1.00  0.00     0.015 A 
ATOM     28  C   UNL     1       5.726   7.959  -5.684  1.00  0.00     0.015 A 
ATOM     29  C   UNL     1       5.113   9.191  -5.456  1.00  0.00     0.007 A 
BRANCH  29  30
ATOM     30  S   UNL     1       5.683  10.745  -6.131  1.00  0.00    -0.130 SA
ATOM     31  C   UNL     1       7.455  10.454  -6.365  1.00  0.00     0.091 C 
ENDBRANCH  29  30
ENDBRANCH  18  24
ENDBRANCH   5   8
ENDBRANCH   3   4
ENDBRANCH   2   3
ENDBRANCH   1   2
BRANCH   1  32
ATOM     32  C   UNL     1      -3.128   8.540  -3.556  1.00  0.00     0.116 C 
BRANCH  32  33
ATOM     33  N   UNL     1      -3.706   8.626  -2.223  1.00  0.00    -0.352 N 
ATOM     34  C   UNL     1      -4.973   9.014  -1.858  1.00  0.00     0.251 C 
ATOM     35  H   UNL     1      -3.109   8.372  -1.482  1.00  0.00     0.163 HD
ATOM     36  O   UNL     1      -5.251   9.161  -0.670  1.00  0.00    -0.269 OA
BRANCH  34  37
ATOM     37  C   UNL     1      -5.987   9.283  -2.901  1.00  0.00     0.039 A 
ATOM     38  C   UNL     1      -6.759  10.443  -2.808  1.00  0.00     0.014 A 
ATOM     39  C   UNL     1      -6.157   8.408  -3.977  1.00  0.00     0.014 A 
ATOM     40  C   UNL     1      -7.661  10.754  -3.828  1.00  0.00     0.010 A 
ATOM     41  C   UNL     1      -6.993   8.764  -5.032  1.00  0.00     0.010 A 
ATOM     42  C   UNL     1      -7.762   9.935  -4.965  1.00  0.00    -0.014 A 
BRANCH  42  43
ATOM     43  C   UNL     1      -8.656  10.302  -6.094  1.00  0.00     0.031 A 
ATOM     44  C   UNL     1      -9.795   9.403  -6.494  1.00  0.00     0.074 A 
ATOM     45  C   UNL     1      -8.395  11.411  -6.815  1.00  0.00     0.049 A 
ATOM     46  N   UNL     1     -10.674   9.564  -7.450  1.00  0.00    -0.248 NA
ATOM     47  C   UNL     1      -9.952   8.146  -5.745  1.00  0.00     0.031 C 
ATOM     48  C   UNL     1      -7.260  12.311  -6.599  1.00  0.00     0.029 A 
ATOM     49  N   UNL     1      -9.050  11.958  -7.890  1.00  0.00    -0.354 N 
ATOM     50  C   UNL     1     -11.457   8.416  -7.444  1.00  0.00     0.074 A 
ATOM     51  C   UNL     1     -10.928   7.550  -6.414  1.00  0.00     0.031 C 
ATOM     52  C   UNL     1      -7.303  13.300  -7.505  1.00  0.00     0.029 A 
ATOM     53  C   UNL     1      -8.451  13.094  -8.382  1.00  0.00     0.049 A 
ATOM     54  H   UNL     1      -9.872  11.573  -8.272  1.00  0.00     0.167 HD
ATOM     55  C   UNL     1     -12.538   8.120  -8.206  1.00  0.00     0.034 A 
ATOM     56  C   UNL     1      -8.785  13.882  -9.424  1.00  0.00     0.034 A 
ATOM     57  C   UNL     1     -13.087   9.002  -9.200  1.00  0.00     0.049 A 
ATOM     58  C   UNL     1     -10.028  13.570 -10.209  1.00  0.00     0.074 A 
ATOM     59  C   UNL     1     -14.245   8.847  -9.941  1.00  0.00     0.029 A 
ATOM     60  N   UNL     1     -12.510  10.195  -9.605  1.00  0.00    -0.354 N 
ATOM     61  N   UNL     1     -10.869  12.576 -10.061  1.00  0.00    -0.248 NA
ATOM     62  C   UNL     1     -10.395  14.511 -11.278  1.00  0.00     0.031 C 
ATOM     63  C   UNL     1     -14.350   9.930 -10.820  1.00  0.00     0.029 A 
ATOM     64  C   UNL     1     -13.277  10.780 -10.598  1.00  0.00     0.049 A 
ATOM     65  H   UNL     1     -11.677  10.572  -9.240  1.00  0.00     0.167 HD
ATOM     66  C   UNL     1     -11.880  12.788 -10.991  1.00  0.00     0.074 A 
ATOM     67  C   UNL     1     -11.556  14.017 -11.685  1.00  0.00     0.031 C 
ATOM     68  C   UNL     1     -12.972  12.027 -11.252  1.00  0.00     0.034 A 
BRANCH  55  69
ATOM     69  C   UNL     1     -13.225   6.800  -7.964  1.00  0.00     0.023 A 
ATOM     70  C   UNL     1     -13.939   6.591  -6.765  1.00  0.00     0.012 A 
ATOM     71  C   UNL     1     -13.206   5.785  -8.941  1.00  0.00     0.148 A 
ATOM     72  C   UNL     1     -14.585   5.380  -6.524  1.00  0.00     0.002 A 
ATOM     73  C   UNL     1     -13.894   4.599  -8.713  1.00  0.00     0.091 A 
ATOM     74  F   UNL     1     -12.506   5.991 -10.065  1.00  0.00    -0.205 F 
ATOM     75  C   UNL     1     -14.571   4.389  -7.501  1.00  0.00     0.022 A 
BRANCH  73  76
ATOM     76  S   UNL     1     -14.008   3.297  -9.945  1.00  0.00     0.127 S 
ATOM     77  O   UNL     1     -13.137   2.272  -9.372  1.00  0.00    -0.237 OA
ATOM     78  O   UNL     1     -15.434   2.970  -9.917  1.00  0.00    -0.237 OA
ATOM     79  O   UNL     1     -13.546   3.885 -11.195  1.00  0.00    -0.744 OA
ENDBRANCH  73  76
ENDBRANCH  55  69
BRANCH  56  80
ATOM     80  C   UNL     1      -7.957  15.082  -9.734  1.00  0.00     0.023 A 
ATOM     81  C   UNL     1      -8.468  16.367  -9.470  1.00  0.00     0.012 A 
ATOM     82  C   UNL     1      -6.650  14.951 -10.240  1.00  0.00     0.148 A 
ATOM     83  C   UNL     1      -7.702  17.504  -9.731  1.00  0.00     0.002 A 
ATOM     84  C   UNL     1      -5.871  16.084 -10.444  1.00  0.00     0.091 A 
ATOM     85  F   UNL     1      -6.187  13.719 -10.490  1.00  0.00    -0.205 F 
ATOM     86  C   UNL     1      -6.401  17.362 -10.206  1.00  0.00     0.022 A 
BRANCH  84  87
ATOM     87  S   UNL     1      -4.142  15.993 -10.921  1.00  0.00     0.127 S 
ATOM     88  O   UNL     1      -4.174  16.551 -12.270  1.00  0.00    -0.237 OA
ATOM     89  O   UNL     1      -3.509  16.846  -9.915  1.00  0.00    -0.237 OA
ATOM     90  O   UNL     1      -3.781  14.585 -10.829  1.00  0.00    -0.744 OA
ENDBRANCH  84  87
ENDBRANCH  56  80
BRANCH  68  91
ATOM     91  C   UNL     1     -13.929  12.512 -12.310  1.00  0.00     0.023 A 
ATOM     92  C   UNL     1     -13.563  12.461 -13.670  1.00  0.00     0.012 A 
ATOM     93  C   UNL     1     -15.223  12.943 -11.959  1.00  0.00     0.148 A 
ATOM     94  C   UNL     1     -14.459  12.863 -14.660  1.00  0.00     0.002 A 
ATOM     95  C   UNL     1     -16.128  13.293 -12.954  1.00  0.00     0.091 A 
ATOM     96  F   UNL     1     -15.547  13.002 -10.659  1.00  0.00    -0.205 F 
ATOM     97  C   UNL     1     -15.744  13.266 -14.304  1.00  0.00     0.022 A 
BRANCH  95  98
ATOM     98  S   UNL     1     -17.834  13.727 -12.594  1.00  0.00     0.127 S 
ATOM     99  O   UNL     1     -17.836  15.166 -12.855  1.00  0.00    -0.237 OA
ATOM    100  O   UNL     1     -18.571  12.928 -13.573  1.00  0.00    -0.237 OA
ATOM    101  O   UNL     1     -18.063  13.344 -11.207  1.00  0.00    -0.744 OA
ENDBRANCH  95  98
ENDBRANCH  68  91
ENDBRANCH  42  43
ENDBRANCH  34  37
ENDBRANCH  32  33
ENDBRANCH   1  32
TORSDOF 18
