REMARK SMILES Cc1c(C(=O)Nc2ccc(C(=O)Nc3ccccc3C(=O)NCCCCNC(=O)c3ccc(-c4c5nc(c(-c6cccc(S(=O)(=O)[O-])c6F)c6ccc([nH]6)c(-c6cccc(S(=O)(=O)[O-])c6F)c6nc(c(-c7cccc(S(=O)(=O)[O-])c7F)c7ccc4[nH]7)C=C6)C=C5)cc3)cc2)cccc1[N+](=O)[O-]
REMARK SMILES IDX 23 1 22 2 20 3 21 4 19 6 14 7 15 8 16 9 18 10 17 11 13 12
REMARK SMILES IDX 11 13 12 14 10 16 7 17 8 18 94 19 9 20 93 21 6 22 4 23 5 24
REMARK SMILES IDX 3 26 1 27 2 28 98 29 95 30 97 31 96 32 99 33 100 34 101 35
REMARK SMILES IDX 24 36 25 37 26 38 27 39 28 40 29 42 30 43 31 44 92 45 32 46
REMARK SMILES IDX 91 47 33 48 34 49 35 50 85 51 36 52 90 53 84 54 86 55 37 56
REMARK SMILES IDX 89 57 83 58 82 59 38 61 70 62 50 63 69 64 51 65 54 66 68 67
REMARK SMILES IDX 87 68 52 69 53 70 67 72 88 73 55 74 39 75 40 76 48 77 41 78
REMARK SMILES IDX 43 79 49 80 42 81 44 82 45 83 46 84 47 85 71 86 72 87 80 88
REMARK SMILES IDX 73 89 75 90 81 91 74 92 76 93 77 94 78 95 79 96 56 97 57 98
REMARK SMILES IDX 65 99 58 100 60 101 66 102 59 103 61 104 62 105 63 106
REMARK SMILES IDX 64 107
REMARK H PARENT 22 5 13 15 6 25 27 41 86 60 54 71
REMARK Flexibility Score: inf
ROOT
ATOM      1  C   UNL     1       3.161  -0.389   4.231  1.00  0.00     0.116 C 
ENDROOT
BRANCH   1   2
ATOM      2  N   UNL     1       4.426   0.071   3.659  1.00  0.00    -0.352 N 
ATOM      3  C   UNL     1       4.926   1.329   3.347  1.00  0.00     0.253 C 
ATOM      4  O   UNL     1       6.129   1.432   3.116  1.00  0.00    -0.269 OA
ATOM      5  H   UNL     1       5.051  -0.660   3.454  1.00  0.00     0.163 HD
BRANCH   3   6
ATOM      6  C   UNL     1       4.056   2.532   3.188  1.00  0.00     0.063 A 
ATOM      7  C   UNL     1       4.207   3.445   2.110  1.00  0.00     0.054 A 
ATOM      8  C   UNL     1       3.288   4.506   1.981  1.00  0.00     0.027 A 
ATOM      9  C   UNL     1       2.204   4.629   2.849  1.00  0.00     0.002 A 
ATOM     10  C   UNL     1       3.057   2.783   4.141  1.00  0.00     0.016 A 
ATOM     11  C   UNL     1       2.099   3.779   3.941  1.00  0.00     0.001 A 
BRANCH   7  12
ATOM     12  N   UNL     1       5.128   3.370   1.035  1.00  0.00    -0.321 N 
ATOM     13  C   UNL     1       5.553   2.321   0.239  1.00  0.00     0.255 C 
ATOM     14  O   UNL     1       6.448   2.520  -0.585  1.00  0.00    -0.269 OA
ATOM     15  H   UNL     1       5.548   4.232   0.812  1.00  0.00     0.170 HD
BRANCH  13  16
ATOM     16  C   UNL     1       4.824   1.026   0.187  1.00  0.00     0.040 A 
ATOM     17  C   UNL     1       3.299  -1.308  -0.157  1.00  0.00     0.041 A 
ATOM     18  C   UNL     1       2.809  -0.237   0.563  1.00  0.00     0.027 A 
ATOM     19  C   UNL     1       4.630  -1.278  -0.582  1.00  0.00     0.027 A 
ATOM     20  C   UNL     1       3.511   0.944   0.624  1.00  0.00     0.016 A 
ATOM     21  C   UNL     1       5.393  -0.107  -0.410  1.00  0.00     0.016 A 
BRANCH  17  22
ATOM     22  N   UNL     1       2.451  -2.360  -0.533  1.00  0.00    -0.322 N 
ATOM     23  C   UNL     1       1.067  -2.401  -0.654  1.00  0.00     0.256 C 
ATOM     24  O   UNL     1       0.526  -3.497  -0.814  1.00  0.00    -0.269 OA
ATOM     25  H   UNL     1       2.909  -3.204  -0.746  1.00  0.00     0.170 HD
BRANCH  23  26
ATOM     26  C   UNL     1       0.177  -1.184  -0.581  1.00  0.00     0.049 A 
ATOM     27  C   UNL     1       1.453   0.254  -2.255  1.00  0.00     0.053 C 
ATOM     28  C   UNL     1       0.457   0.093  -1.133  1.00  0.00     0.039 A 
ATOM     29  C   UNL     1      -0.290   1.193  -0.640  1.00  0.00     0.273 A 
ATOM     30  C   UNL     1      -1.022  -1.367   0.139  1.00  0.00     0.014 A 
ATOM     31  C   UNL     1      -1.475   0.993   0.086  1.00  0.00     0.086 A 
ATOM     32  C   UNL     1      -1.874  -0.297   0.412  1.00  0.00     0.008 A 
BRANCH  29  33
ATOM     33  N   UNL     1       0.197   2.585  -0.743  1.00  0.00     0.063 N 
ATOM     34  O   UNL     1      -0.629   3.496  -0.587  1.00  0.00    -0.258 OA
ATOM     35  O   UNL     1       1.410   2.772  -0.904  1.00  0.00    -0.258 OA
ENDBRANCH  29  33
ENDBRANCH  23  26
ENDBRANCH  17  22
ENDBRANCH  13  16
ENDBRANCH   7  12
ENDBRANCH   3   6
ENDBRANCH   1   2
BRANCH   1  36
ATOM     36  C   UNL     1       2.396  -1.544   3.553  1.00  0.00     0.023 C 
BRANCH  36  37
ATOM     37  C   UNL     1       3.179  -2.676   2.885  1.00  0.00     0.023 C 
BRANCH  37  38
ATOM     38  C   UNL     1       3.907  -3.501   3.905  1.00  0.00     0.116 C 
BRANCH  38  39
ATOM     39  N   UNL     1       3.015  -4.277   4.735  1.00  0.00    -0.352 N 
ATOM     40  C   UNL     1       3.312  -5.191   5.716  1.00  0.00     0.251 C 
ATOM     41  H   UNL     1       2.055  -4.130   4.574  1.00  0.00     0.163 HD
ATOM     42  O   UNL     1       2.459  -6.059   5.937  1.00  0.00    -0.269 OA
BRANCH  40  43
ATOM     43  C   UNL     1       4.513  -5.055   6.576  1.00  0.00     0.039 A 
ATOM     44  C   UNL     1       4.558  -5.780   7.776  1.00  0.00     0.014 A 
ATOM     45  C   UNL     1       5.451  -4.053   6.362  1.00  0.00     0.014 A 
ATOM     46  C   UNL     1       5.291  -5.287   8.850  1.00  0.00     0.010 A 
ATOM     47  C   UNL     1       6.199  -3.586   7.391  1.00  0.00     0.010 A 
ATOM     48  C   UNL     1       5.975  -4.103   8.657  1.00  0.00    -0.014 A 
BRANCH  48  49
ATOM     49  C   UNL     1       6.537  -3.232   9.653  1.00  0.00     0.031 A 
ATOM     50  C   UNL     1       7.918  -3.482  10.043  1.00  0.00     0.074 A 
ATOM     51  C   UNL     1       5.932  -2.022   9.704  1.00  0.00     0.049 A 
ATOM     52  N   UNL     1       8.541  -2.801  10.927  1.00  0.00    -0.248 NA
ATOM     53  C   UNL     1       8.712  -4.555   9.452  1.00  0.00     0.031 C 
ATOM     54  C   UNL     1       6.503  -0.705   9.942  1.00  0.00     0.029 A 
ATOM     55  N   UNL     1       4.582  -1.752   9.509  1.00  0.00    -0.354 N 
ATOM     56  C   UNL     1       9.875  -3.101  10.778  1.00  0.00     0.074 A 
ATOM     57  C   UNL     1       9.902  -4.314  10.005  1.00  0.00     0.031 C 
ATOM     58  C   UNL     1       5.502   0.176  10.138  1.00  0.00     0.029 A 
ATOM     59  C   UNL     1       4.261  -0.584  10.204  1.00  0.00     0.049 A 
ATOM     60  H   UNL     1       3.958  -2.293   8.973  1.00  0.00     0.167 HD
ATOM     61  C   UNL     1      10.776  -2.161  11.174  1.00  0.00     0.034 A 
ATOM     62  C   UNL     1       3.490  -0.721  11.330  1.00  0.00     0.034 A 
ATOM     63  C   UNL     1      10.063  -1.042  11.835  1.00  0.00     0.049 A 
ATOM     64  C   UNL     1       4.302  -0.554  12.610  1.00  0.00     0.074 A 
ATOM     65  C   UNL     1       9.698   0.229  11.422  1.00  0.00     0.029 A 
ATOM     66  N   UNL     1       9.290  -1.313  12.965  1.00  0.00    -0.354 N 
ATOM     67  N   UNL     1       5.601  -0.419  12.654  1.00  0.00    -0.248 NA
ATOM     68  C   UNL     1       3.706  -0.482  13.939  1.00  0.00     0.031 C 
ATOM     69  C   UNL     1       8.610   0.661  12.243  1.00  0.00     0.029 A 
ATOM     70  C   UNL     1       8.338  -0.324  13.181  1.00  0.00     0.049 A 
ATOM     71  H   UNL     1       9.404  -2.106  13.537  1.00  0.00     0.167 HD
ATOM     72  C   UNL     1       6.040  -0.388  13.949  1.00  0.00     0.074 A 
ATOM     73  C   UNL     1       4.799  -0.335  14.710  1.00  0.00     0.031 C 
ATOM     74  C   UNL     1       7.372  -0.460  14.280  1.00  0.00     0.034 A 
BRANCH  61  75
ATOM     75  C   UNL     1      12.247  -2.102  10.783  1.00  0.00     0.023 A 
ATOM     76  C   UNL     1      12.961  -0.955  11.194  1.00  0.00     0.012 A 
ATOM     77  C   UNL     1      12.986  -3.034  10.008  1.00  0.00     0.148 A 
ATOM     78  C   UNL     1      14.299  -0.732  10.845  1.00  0.00     0.002 A 
ATOM     79  C   UNL     1      14.330  -2.828   9.679  1.00  0.00     0.091 A 
ATOM     80  F   UNL     1      12.410  -4.135   9.537  1.00  0.00    -0.205 F 
ATOM     81  C   UNL     1      14.988  -1.669  10.090  1.00  0.00     0.022 A 
BRANCH  79  82
ATOM     82  S   UNL     1      15.294  -4.013   8.714  1.00  0.00     0.127 S 
ATOM     83  O   UNL     1      15.673  -3.220   7.545  1.00  0.00    -0.237 OA
ATOM     84  O   UNL     1      16.400  -4.325   9.620  1.00  0.00    -0.237 OA
ATOM     85  O   UNL     1      14.411  -5.136   8.424  1.00  0.00    -0.744 OA
ENDBRANCH  79  82
ENDBRANCH  61  75
BRANCH  62  86
ATOM     86  C   UNL     1       2.378  -1.715  11.090  1.00  0.00     0.023 A 
ATOM     87  C   UNL     1       1.468  -1.384  10.051  1.00  0.00     0.012 A 
ATOM     88  C   UNL     1       2.516  -3.069  11.451  1.00  0.00     0.148 A 
ATOM     89  C   UNL     1       0.894  -2.378   9.253  1.00  0.00     0.002 A 
ATOM     90  C   UNL     1       1.920  -4.057  10.661  1.00  0.00     0.091 A 
ATOM     91  F   UNL     1       3.275  -3.378  12.510  1.00  0.00    -0.205 F 
ATOM     92  C   UNL     1       1.165  -3.715   9.527  1.00  0.00     0.022 A 
BRANCH  90  93
ATOM     93  S   UNL     1       2.175  -5.806  11.002  1.00  0.00     0.127 S 
ATOM     94  O   UNL     1       1.039  -6.104  11.870  1.00  0.00    -0.237 OA
ATOM     95  O   UNL     1       2.097  -6.417   9.677  1.00  0.00    -0.237 OA
ATOM     96  O   UNL     1       3.491  -5.884  11.619  1.00  0.00    -0.744 OA
ENDBRANCH  90  93
ENDBRANCH  62  86
BRANCH  74  97
ATOM     97  C   UNL     1       7.908  -0.685  15.692  1.00  0.00     0.023 A 
ATOM     98  C   UNL     1       7.101  -1.158  16.744  1.00  0.00     0.012 A 
ATOM     99  C   UNL     1       9.294  -0.553  15.981  1.00  0.00     0.148 A 
ATOM    100  C   UNL     1       7.609  -1.400  18.025  1.00  0.00     0.002 A 
ATOM    101  C   UNL     1       9.817  -0.940  17.211  1.00  0.00     0.091 A 
ATOM    102  F   UNL     1      10.125  -0.020  15.075  1.00  0.00    -0.205 F 
ATOM    103  C   UNL     1       8.973  -1.318  18.253  1.00  0.00     0.022 A 
BRANCH 101 104
ATOM    104  S   UNL     1      11.589  -1.134  17.450  1.00  0.00     0.127 S 
ATOM    105  O   UNL     1      11.944   0.120  18.109  1.00  0.00    -0.237 OA
ATOM    106  O   UNL     1      11.658  -2.317  18.311  1.00  0.00    -0.237 OA
ATOM    107  O   UNL     1      12.136  -1.338  16.116  1.00  0.00    -0.744 OA
ENDBRANCH 101 104
ENDBRANCH  74  97
ENDBRANCH  48  49
ENDBRANCH  40  43
ENDBRANCH  38  39
ENDBRANCH  37  38
ENDBRANCH  36  37
ENDBRANCH   1  36
TORSDOF 19
