REMARK SMILES O=C(NCCCCNC(=O)c1ccc(N2C(=O)[C@@H]3N=NC(c4ccccc4)=C3[C@H]2c2cccc(Br)c2)cc1)c1ccc(-c2c3nc(c(-c4cccc(S(=O)(=O)[O-])c4F)c4ccc([nH]4)c(-c4cccc(S(=O)(=O)[O-])c4F)c4nc(c(-c5cccc(S(=O)(=O)[O-])c5F)c5ccc2[nH]5)C=C4)C=C3)cc1
REMARK SMILES IDX 5 1 4 2 3 3 1 4 2 5 39 7 40 8 101 9 41 10 100 11 42 12 43 13
REMARK SMILES IDX 44 14 94 15 45 16 99 17 93 18 95 19 46 20 98 21 92 22 91 23
REMARK SMILES IDX 47 25 79 26 59 27 78 28 60 29 63 30 77 31 96 32 61 33 62 34
REMARK SMILES IDX 76 36 97 37 64 38 48 39 49 40 57 41 50 42 52 43 58 44 51 45
REMARK SMILES IDX 53 46 54 47 55 48 56 49 80 50 81 51 89 52 82 53 84 54 90 55
REMARK SMILES IDX 83 56 85 57 86 58 87 59 88 60 65 61 66 62 74 63 67 64 69 65
REMARK SMILES IDX 75 66 68 67 70 68 71 69 72 70 73 71 6 72 7 73 8 74 9 75
REMARK SMILES IDX 10 77 11 78 12 79 38 80 13 81 37 82 14 83 15 84 16 85 29 86
REMARK SMILES IDX 18 87 17 88 28 89 19 90 21 91 20 92 30 93 31 94 36 95 32 96
REMARK SMILES IDX 34 97 33 98 35 99 22 100 23 101 27 102 24 103 26 104 25 105
REMARK H PARENT 3 6 95 24 63 35 8 76
REMARK Flexibility Score: inf
ROOT
ATOM      1  C   UNL     1       4.935   0.664   2.140  1.00  0.00     0.023 C 
ENDROOT
BRANCH   1   2
ATOM      2  C   UNL     1       4.620  -0.213   0.930  1.00  0.00     0.116 C 
BRANCH   2   3
ATOM      3  N   UNL     1       3.214  -0.491   0.721  1.00  0.00    -0.352 N 
ATOM      4  O   UNL     1       1.143  -0.523  -0.021  1.00  0.00    -0.269 OA
ATOM      5  C   UNL     1       2.176   0.145   0.094  1.00  0.00     0.251 C 
ATOM      6  H   UNL     1       2.937  -1.343   1.130  1.00  0.00     0.163 HD
BRANCH   5   7
ATOM      7  C   UNL     1       2.178   1.553  -0.399  1.00  0.00     0.039 A 
ATOM      8  C   UNL     1       3.301   2.367  -0.542  1.00  0.00     0.014 A 
ATOM      9  C   UNL     1       0.918   2.090  -0.739  1.00  0.00     0.014 A 
ATOM     10  C   UNL     1       3.162   3.692  -0.964  1.00  0.00     0.010 A 
ATOM     11  C   UNL     1       0.774   3.410  -1.164  1.00  0.00     0.010 A 
ATOM     12  C   UNL     1       1.900   4.220  -1.261  1.00  0.00    -0.014 A 
BRANCH  12  13
ATOM     13  C   UNL     1       1.833   5.563  -1.836  1.00  0.00     0.031 A 
ATOM     14  C   UNL     1       2.418   5.686  -3.200  1.00  0.00     0.074 A 
ATOM     15  C   UNL     1       1.199   6.622  -1.292  1.00  0.00     0.049 A 
ATOM     16  N   UNL     1       3.490   6.320  -3.546  1.00  0.00    -0.248 NA
ATOM     17  C   UNL     1       1.789   4.928  -4.290  1.00  0.00     0.031 C 
ATOM     18  C   UNL     1       0.295   6.633  -0.142  1.00  0.00     0.029 A 
ATOM     19  N   UNL     1       1.147   7.913  -1.744  1.00  0.00    -0.354 N 
ATOM     20  C   UNL     1       3.558   6.221  -4.936  1.00  0.00     0.074 A 
ATOM     21  C   UNL     1       2.588   5.227  -5.316  1.00  0.00     0.031 C 
ATOM     22  C   UNL     1      -0.384   7.804  -0.125  1.00  0.00     0.029 A 
ATOM     23  C   UNL     1       0.131   8.670  -1.173  1.00  0.00     0.049 A 
ATOM     24  H   UNL     1       1.774   8.273  -2.413  1.00  0.00     0.167 HD
ATOM     25  C   UNL     1       4.256   7.119  -5.685  1.00  0.00     0.034 A 
ATOM     26  C   UNL     1      -0.295   9.894  -1.573  1.00  0.00     0.034 A 
ATOM     27  C   UNL     1       5.133   7.923  -4.873  1.00  0.00     0.049 A 
ATOM     28  C   UNL     1       0.786  10.512  -2.370  1.00  0.00     0.074 A 
ATOM     29  C   UNL     1       6.183   7.682  -4.011  1.00  0.00     0.029 A 
ATOM     30  N   UNL     1       4.746   9.220  -4.647  1.00  0.00    -0.354 N 
ATOM     31  N   UNL     1       1.911  10.935  -1.868  1.00  0.00    -0.248 NA
ATOM     32  C   UNL     1       0.760  10.368  -3.816  1.00  0.00     0.031 C 
ATOM     33  C   UNL     1       6.069   8.683  -3.003  1.00  0.00     0.029 A 
ATOM     34  C   UNL     1       4.982   9.496  -3.330  1.00  0.00     0.049 A 
ATOM     35  H   UNL     1       4.368   9.839  -5.313  1.00  0.00     0.167 HD
ATOM     36  C   UNL     1       2.848  10.668  -2.856  1.00  0.00     0.074 A 
ATOM     37  C   UNL     1       2.067  10.457  -4.070  1.00  0.00     0.031 C 
ATOM     38  C   UNL     1       4.136  10.353  -2.531  1.00  0.00     0.034 A 
BRANCH  25  39
ATOM     39  C   UNL     1       3.917   7.548  -7.098  1.00  0.00     0.023 A 
ATOM     40  C   UNL     1       4.847   8.387  -7.758  1.00  0.00     0.012 A 
ATOM     41  C   UNL     1       2.639   7.426  -7.688  1.00  0.00     0.148 A 
ATOM     42  C   UNL     1       4.502   9.123  -8.895  1.00  0.00     0.002 A 
ATOM     43  C   UNL     1       2.326   8.097  -8.866  1.00  0.00     0.091 A 
ATOM     44  F   UNL     1       1.667   6.769  -7.049  1.00  0.00    -0.205 F 
ATOM     45  C   UNL     1       3.240   8.975  -9.454  1.00  0.00     0.022 A 
BRANCH  43  46
ATOM     46  S   UNL     1       0.732   7.899  -9.671  1.00  0.00     0.127 S 
ATOM     47  O   UNL     1       0.094   9.178  -9.374  1.00  0.00    -0.237 OA
ATOM     48  O   UNL     1       1.124   7.711 -11.068  1.00  0.00    -0.237 OA
ATOM     49  O   UNL     1       0.129   6.723  -9.057  1.00  0.00    -0.744 OA
ENDBRANCH  43  46
ENDBRANCH  25  39
BRANCH  26  50
ATOM     50  C   UNL     1      -1.630  10.531  -1.484  1.00  0.00     0.023 A 
ATOM     51  C   UNL     1      -1.742  11.934  -1.588  1.00  0.00     0.012 A 
ATOM     52  C   UNL     1      -2.806   9.760  -1.594  1.00  0.00     0.148 A 
ATOM     53  C   UNL     1      -2.977  12.544  -1.836  1.00  0.00     0.002 A 
ATOM     54  C   UNL     1      -4.033  10.371  -1.835  1.00  0.00     0.091 A 
ATOM     55  F   UNL     1      -2.707   8.424  -1.560  1.00  0.00    -0.205 F 
ATOM     56  C   UNL     1      -4.121  11.763  -1.970  1.00  0.00     0.022 A 
BRANCH  54  57
ATOM     57  S   UNL     1      -5.547   9.425  -2.049  1.00  0.00     0.127 S 
ATOM     58  O   UNL     1      -6.486  10.157  -1.197  1.00  0.00    -0.237 OA
ATOM     59  O   UNL     1      -5.788   9.562  -3.483  1.00  0.00    -0.237 OA
ATOM     60  O   UNL     1      -5.242   8.079  -1.583  1.00  0.00    -0.744 OA
ENDBRANCH  54  57
ENDBRANCH  26  50
BRANCH  38  61
ATOM     61  C   UNL     1       4.620  10.656  -1.138  1.00  0.00     0.023 A 
ATOM     62  C   UNL     1       4.026  10.096   0.011  1.00  0.00     0.012 A 
ATOM     63  C   UNL     1       5.807  11.398  -0.997  1.00  0.00     0.148 A 
ATOM     64  C   UNL     1       4.586  10.298   1.275  1.00  0.00     0.002 A 
ATOM     65  C   UNL     1       6.390  11.550   0.254  1.00  0.00     0.091 A 
ATOM     66  F   UNL     1       6.361  11.927  -2.099  1.00  0.00    -0.205 F 
ATOM     67  C   UNL     1       5.776  11.012   1.395  1.00  0.00     0.022 A 
BRANCH  65  68
ATOM     68  S   UNL     1       7.993  12.335   0.442  1.00  0.00     0.127 S 
ATOM     69  O   UNL     1       7.626  13.671   0.911  1.00  0.00    -0.237 OA
ATOM     70  O   UNL     1       8.642  11.492   1.449  1.00  0.00    -0.237 OA
ATOM     71  O   UNL     1       8.620  12.276  -0.870  1.00  0.00    -0.744 OA
ENDBRANCH  65  68
ENDBRANCH  38  61
ENDBRANCH  12  13
ENDBRANCH   5   7
ENDBRANCH   2   3
ENDBRANCH   1   2
BRANCH   1  72
ATOM     72  C   UNL     1       4.394   0.176   3.493  1.00  0.00     0.023 C 
BRANCH  72  73
ATOM     73  C   UNL     1       4.759  -1.248   3.920  1.00  0.00     0.116 C 
BRANCH  73  74
ATOM     74  N   UNL     1       6.184  -1.439   4.135  1.00  0.00    -0.352 N 
ATOM     75  C   UNL     1       6.848  -2.023   5.185  1.00  0.00     0.251 C 
ATOM     76  H   UNL     1       6.762  -1.096   3.416  1.00  0.00     0.163 HD
ATOM     77  O   UNL     1       8.078  -2.014   5.207  1.00  0.00    -0.269 OA
BRANCH  75  78
ATOM     78  C   UNL     1       6.124  -2.635   6.327  1.00  0.00     0.039 A 
ATOM     79  C   UNL     1       6.484  -2.219   7.609  1.00  0.00     0.016 A 
ATOM     80  C   UNL     1       5.168  -3.651   6.178  1.00  0.00     0.016 A 
ATOM     81  C   UNL     1       5.844  -2.763   8.725  1.00  0.00     0.027 A 
ATOM     82  C   UNL     1       4.533  -4.211   7.309  1.00  0.00     0.027 A 
ATOM     83  C   UNL     1       4.851  -3.752   8.590  1.00  0.00     0.045 A 
BRANCH  83  84
ATOM     84  N   UNL     1       4.126  -4.186   9.751  1.00  0.00    -0.299 N 
ATOM     85  C   UNL     1       3.726  -3.128  10.636  1.00  0.00     0.259 C 
ATOM     86  C   UNL     1       4.606  -5.356  10.529  1.00  0.00     0.152 C 
ATOM     87  C   UNL     1       3.996  -3.561  12.043  1.00  0.00     0.248 C 
ATOM     88  O   UNL     1       3.290  -2.027  10.305  1.00  0.00    -0.271 OA
ATOM     89  C   UNL     1       4.986  -4.616  11.748  1.00  0.00     0.021 C 
ATOM     90  N   UNL     1       4.784  -2.644  12.882  1.00  0.00    -0.170 NA
ATOM     91  C   UNL     1       6.025  -4.405  12.548  1.00  0.00     0.097 C 
ATOM     92  N   UNL     1       5.852  -3.227  13.248  1.00  0.00    -0.154 NA
BRANCH  86  93
ATOM     93  C   UNL     1       3.550  -6.431  10.868  1.00  0.00    -0.020 A 
ATOM     94  C   UNL     1       3.248  -6.771  12.215  1.00  0.00     0.006 A 
ATOM     95  C   UNL     1       2.928  -7.196   9.870  1.00  0.00     0.022 A 
ATOM     96  C   UNL     1       2.371  -7.803  12.553  1.00  0.00     0.002 A 
ATOM     97  C   UNL     1       2.065  -8.251  10.218  1.00  0.00     0.018 A 
ATOM     98  C   UNL     1       1.785  -8.556  11.550  1.00  0.00     0.016 A 
ATOM     99  Br  UNL     1       1.289  -9.324   8.865  1.00  0.00    -0.051 Br
ENDBRANCH  86  93
BRANCH  91 100
ATOM    100  C   UNL     1       7.287  -5.132  12.635  1.00  0.00     0.002 A 
ATOM    101  C   UNL     1       7.371  -6.316  13.382  1.00  0.00     0.010 A 
ATOM    102  C   UNL     1       8.458  -4.559  12.127  1.00  0.00     0.010 A 
ATOM    103  C   UNL     1       8.618  -6.873  13.680  1.00  0.00     0.001 A 
ATOM    104  C   UNL     1       9.702  -5.121  12.421  1.00  0.00     0.001 A 
ATOM    105  C   UNL     1       9.783  -6.263  13.216  1.00  0.00     0.000 A 
ENDBRANCH  91 100
ENDBRANCH  83  84
ENDBRANCH  75  78
ENDBRANCH  73  74
ENDBRANCH  72  73
ENDBRANCH   1  72
TORSDOF 17
