REMARK SMILES CCOC(=O)c1c(NC(=O)/C=C(/C)C(=O)NCCCCNC(=O)c2ccc(-c3c4nc(c(-c5cccc(S(=O)(=O)[O-])c5F)c5ccc([nH]5)c(-c5cccc(S(=O)(=O)[O-])c5F)c5nc(c(-c6cccc(S(=O)(=O)[O-])c6F)c6ccc3[nH]6)C=C5)C=C4)cc2)sc2c1CC[C@H](C(C)(C)C)C2
REMARK SMILES IDX 17 1 16 2 14 3 15 4 12 6 11 7 13 8 9 9 8 10 10 12 7 13 6 14
REMARK SMILES IDX 89 15 87 16 88 17 90 18 97 19 91 20 92 21 4 22 5 23 3 24
REMARK SMILES IDX 2 25 1 26 93 27 94 28 95 29 96 30 18 31 19 32 20 33 21 34
REMARK SMILES IDX 22 35 23 37 24 38 25 39 86 40 26 41 85 42 27 43 28 44 29 45
REMARK SMILES IDX 79 46 30 47 84 48 78 49 80 50 31 51 83 52 77 53 76 54 32 56
REMARK SMILES IDX 64 57 44 58 63 59 45 60 48 61 62 62 81 63 46 64 47 65 61 67
REMARK SMILES IDX 82 68 49 69 33 70 34 71 42 72 35 73 37 74 43 75 36 76 38 77
REMARK SMILES IDX 39 78 40 79 41 80 65 81 66 82 74 83 67 84 69 85 75 86 68 87
REMARK SMILES IDX 70 88 71 89 72 90 73 91 50 92 51 93 59 94 52 95 54 96 60 97
REMARK SMILES IDX 53 98 55 99 56 100 57 101 58 102
REMARK H PARENT 16 5 8 11 21 36 80 55 48 66
REMARK Flexibility Score: inf
ROOT
ATOM      1  C   UNL     1      -0.384   3.999  -0.567  1.00  0.00     0.116 C 
ENDROOT
BRANCH   1   2
ATOM      2  N   UNL     1       0.548   2.912  -1.294  1.00  0.00    -0.352 N 
ATOM      3  C   UNL     1       1.465   1.880  -1.450  1.00  0.00     0.247 C 
ATOM      4  O   UNL     1       1.391   1.455  -2.624  1.00  0.00    -0.270 OA
ATOM      5  H   UNL     1       0.327   3.093  -2.236  1.00  0.00     0.163 HD
BRANCH   3   6
ATOM      6  C   UNL     1       2.541   1.112  -0.609  1.00  0.00     0.019 C 
ATOM      7  C   UNL     1       3.697   0.798  -1.231  1.00  0.00     0.080 C 
ATOM      8  C   UNL     1       2.738   0.583   0.806  1.00  0.00     0.050 C 
BRANCH   7   9
ATOM      9  C   UNL     1       4.332   1.336  -2.425  1.00  0.00     0.249 C 
ATOM     10  N   UNL     1       4.885   2.568  -2.253  1.00  0.00    -0.313 N 
ATOM     11  H   UNL     1       5.728   2.721  -2.739  1.00  0.00     0.171 HD
ATOM     12  O   UNL     1       4.693   0.574  -3.318  1.00  0.00    -0.270 OA
BRANCH  10  13
ATOM     13  C   UNL     1       4.439   3.638  -1.496  1.00  0.00     0.110 A 
ATOM     14  C   UNL     1       3.197   4.024  -0.969  1.00  0.00     0.098 A 
ATOM     15  C   UNL     1       2.792   5.065  -1.963  1.00  0.00    -0.017 A 
ATOM     16  S   UNL     1       5.352   5.021  -1.951  1.00  0.00    -0.122 S 
ATOM     17  C   UNL     1       3.907   5.753  -2.450  1.00  0.00     0.011 A 
ATOM     18  C   UNL     1       1.450   5.513  -2.446  1.00  0.00     0.038 C 
ATOM     19  C   UNL     1       3.879   7.025  -3.272  1.00  0.00     0.051 C 
ATOM     20  C   UNL     1       1.419   6.766  -3.326  1.00  0.00     0.009 C 
ATOM     21  C   UNL     1       2.550   7.742  -2.954  1.00  0.00    -0.000 C 
BRANCH  14  22
ATOM     22  C   UNL     1       2.808   3.768   0.513  1.00  0.00     0.341 C 
ATOM     23  O   UNL     1       3.594   4.184   1.366  1.00  0.00    -0.246 OA
BRANCH  22  24
ATOM     24  O   UNL     1       1.718   3.065   1.020  1.00  0.00    -0.462 OA
BRANCH  24  25
ATOM     25  C   UNL     1       0.406   2.224   1.542  1.00  0.00     0.230 C 
ATOM     26  C   UNL     1      -0.204   0.956   0.866  1.00  0.00     0.049 C 
ENDBRANCH  24  25
ENDBRANCH  22  24
ENDBRANCH  14  22
BRANCH  21  27
ATOM     27  C   UNL     1       2.342   9.193  -3.498  1.00  0.00    -0.035 C 
ATOM     28  C   UNL     1       1.636   9.953  -2.368  1.00  0.00     0.011 C 
ATOM     29  C   UNL     1       3.644   9.954  -3.777  1.00  0.00     0.011 C 
ATOM     30  C   UNL     1       1.452   9.279  -4.758  1.00  0.00     0.011 C 
ENDBRANCH  21  27
ENDBRANCH  10  13
ENDBRANCH   7   9
ENDBRANCH   3   6
ENDBRANCH   1   2
BRANCH   1  31
ATOM     31  C   UNL     1      -0.158   5.080   0.622  1.00  0.00     0.023 C 
BRANCH  31  32
ATOM     32  C   UNL     1       0.357   6.549   0.539  1.00  0.00     0.023 C 
BRANCH  32  33
ATOM     33  C   UNL     1      -0.445   7.624  -0.220  1.00  0.00     0.116 C 
BRANCH  33  34
ATOM     34  N   UNL     1      -1.674   8.061   0.422  1.00  0.00    -0.352 N 
ATOM     35  C   UNL     1      -2.347   9.263   0.280  1.00  0.00     0.251 C 
ATOM     36  H   UNL     1      -2.083   7.415   1.042  1.00  0.00     0.163 HD
ATOM     37  O   UNL     1      -3.364   9.466   0.941  1.00  0.00    -0.269 OA
BRANCH  35  38
ATOM     38  C   UNL     1      -1.858  10.333  -0.634  1.00  0.00     0.039 A 
ATOM     39  C   UNL     1      -1.505  11.583  -0.112  1.00  0.00     0.014 A 
ATOM     40  C   UNL     1      -1.812  10.149  -2.014  1.00  0.00     0.014 A 
ATOM     41  C   UNL     1      -1.016  12.607  -0.952  1.00  0.00     0.010 A 
ATOM     42  C   UNL     1      -1.280  11.161  -2.841  1.00  0.00     0.010 A 
ATOM     43  C   UNL     1      -0.830  12.401  -2.330  1.00  0.00    -0.014 A 
BRANCH  43  44
ATOM     44  C   UNL     1      -0.116  13.407  -3.220  1.00  0.00     0.031 A 
ATOM     45  C   UNL     1      -0.684  13.801  -4.574  1.00  0.00     0.074 A 
ATOM     46  C   UNL     1       1.114  13.896  -2.912  1.00  0.00     0.049 A 
ATOM     47  N   UNL     1      -0.138  14.510  -5.534  1.00  0.00    -0.248 NA
ATOM     48  C   UNL     1      -2.024  13.296  -4.907  1.00  0.00     0.031 C 
ATOM     49  C   UNL     1       1.889  13.581  -1.709  1.00  0.00     0.029 A 
ATOM     50  N   UNL     1       1.957  14.740  -3.615  1.00  0.00    -0.354 N 
ATOM     51  C   UNL     1      -1.029  14.472  -6.602  1.00  0.00     0.074 A 
ATOM     52  C   UNL     1      -2.133  13.634  -6.184  1.00  0.00     0.031 C 
ATOM     53  C   UNL     1       3.073  14.215  -1.754  1.00  0.00     0.029 A 
ATOM     54  C   UNL     1       3.172  14.971  -3.000  1.00  0.00     0.049 A 
ATOM     55  H   UNL     1       1.711  15.142  -4.479  1.00  0.00     0.167 HD
ATOM     56  C   UNL     1      -0.979  15.101  -7.804  1.00  0.00     0.034 A 
ATOM     57  C   UNL     1       4.252  15.693  -3.375  1.00  0.00     0.034 A 
ATOM     58  C   UNL     1       0.042  16.030  -8.211  1.00  0.00     0.049 A 
ATOM     59  C   UNL     1       4.254  16.449  -4.682  1.00  0.00     0.074 A 
ATOM     60  C   UNL     1       0.088  16.800  -9.363  1.00  0.00     0.029 A 
ATOM     61  N   UNL     1       1.182  16.330  -7.489  1.00  0.00    -0.354 N 
ATOM     62  N   UNL     1       3.320  16.518  -5.596  1.00  0.00    -0.248 NA
ATOM     63  C   UNL     1       5.448  17.259  -4.993  1.00  0.00     0.031 C 
ATOM     64  C   UNL     1       1.263  17.557  -9.342  1.00  0.00     0.029 A 
ATOM     65  C   UNL     1       1.934  17.277  -8.165  1.00  0.00     0.049 A 
ATOM     66  H   UNL     1       1.423  15.930  -6.622  1.00  0.00     0.167 HD
ATOM     67  C   UNL     1       3.785  17.419  -6.551  1.00  0.00     0.074 A 
ATOM     68  C   UNL     1       5.083  17.875  -6.110  1.00  0.00     0.031 C 
ATOM     69  C   UNL     1       3.181  17.819  -7.695  1.00  0.00     0.034 A 
BRANCH  56  70
ATOM     70  C   UNL     1      -2.122  14.870  -8.764  1.00  0.00     0.023 A 
ATOM     71  C   UNL     1      -3.391  15.410  -8.472  1.00  0.00     0.012 A 
ATOM     72  C   UNL     1      -1.926  14.184  -9.979  1.00  0.00     0.148 A 
ATOM     73  C   UNL     1      -4.462  15.219  -9.342  1.00  0.00     0.002 A 
ATOM     74  C   UNL     1      -2.986  14.045 -10.868  1.00  0.00     0.091 A 
ATOM     75  F   UNL     1      -0.713  13.678 -10.242  1.00  0.00    -0.205 F 
ATOM     76  C   UNL     1      -4.258  14.545 -10.543  1.00  0.00     0.022 A 
BRANCH  74  77
ATOM     77  S   UNL     1      -2.805  13.278 -12.482  1.00  0.00     0.127 S 
ATOM     78  O   UNL     1      -3.507  12.011 -12.286  1.00  0.00    -0.237 OA
ATOM     79  O   UNL     1      -3.496  14.228 -13.355  1.00  0.00    -0.237 OA
ATOM     80  O   UNL     1      -1.372  13.172 -12.717  1.00  0.00    -0.744 OA
ENDBRANCH  74  77
ENDBRANCH  56  70
BRANCH  57  81
ATOM     81  C   UNL     1       5.431  15.822  -2.463  1.00  0.00     0.023 A 
ATOM     82  C   UNL     1       5.687  17.066  -1.848  1.00  0.00     0.012 A 
ATOM     83  C   UNL     1       6.313  14.750  -2.229  1.00  0.00     0.148 A 
ATOM     84  C   UNL     1       6.822  17.253  -1.057  1.00  0.00     0.002 A 
ATOM     85  C   UNL     1       7.414  14.929  -1.397  1.00  0.00     0.091 A 
ATOM     86  F   UNL     1       6.059  13.578  -2.828  1.00  0.00    -0.205 F 
ATOM     87  C   UNL     1       7.681  16.184  -0.827  1.00  0.00     0.022 A 
BRANCH  85  88
ATOM     88  S   UNL     1       8.520  13.586  -0.949  1.00  0.00     0.127 S 
ATOM     89  O   UNL     1       9.759  13.985  -1.613  1.00  0.00    -0.237 OA
ATOM     90  O   UNL     1       8.541  13.691   0.510  1.00  0.00    -0.237 OA
ATOM     91  O   UNL     1       7.893  12.374  -1.458  1.00  0.00    -0.744 OA
ENDBRANCH  85  88
ENDBRANCH  57  81
BRANCH  69  92
ATOM     92  C   UNL     1       3.842  18.875  -8.545  1.00  0.00     0.023 A 
ATOM     93  C   UNL     1       4.962  18.554  -9.336  1.00  0.00     0.012 A 
ATOM     94  C   UNL     1       3.259  20.155  -8.662  1.00  0.00     0.148 A 
ATOM     95  C   UNL     1       5.494  19.491 -10.224  1.00  0.00     0.002 A 
ATOM     96  C   UNL     1       3.765  21.066  -9.582  1.00  0.00     0.091 A 
ATOM     97  F   UNL     1       2.205  20.448  -7.886  1.00  0.00    -0.205 F 
ATOM     98  C   UNL     1       4.887  20.738 -10.359  1.00  0.00     0.022 A 
BRANCH  96  99
ATOM     99  S   UNL     1       2.987  22.655  -9.901  1.00  0.00     0.127 S 
ATOM    100  O   UNL     1       3.996  23.587  -9.398  1.00  0.00    -0.237 OA
ATOM    101  O   UNL     1       2.843  22.641 -11.357  1.00  0.00    -0.237 OA
ATOM    102  O   UNL     1       1.730  22.646  -9.165  1.00  0.00    -0.744 OA
ENDBRANCH  96  99
ENDBRANCH  69  92
ENDBRANCH  43  44
ENDBRANCH  35  38
ENDBRANCH  33  34
ENDBRANCH  32  33
ENDBRANCH  31  32
ENDBRANCH   1  31
TORSDOF 20
