REMARK SMILES O=C(NCCCCNC(=O)C1(C/C=C/c2ccccc2)Cc2ccccc2C1)c1ccc(-c2c3nc(c(-c4cccc(S(=O)(=O)[O-])c4F)c4ccc([nH]4)c(-c4cccc(S(=O)(=O)[O-])c4F)c4nc(c(-c5cccc(S(=O)(=O)[O-])c5F)c5ccc2[nH]5)C=C4)C=C3)cc1
REMARK SMILES IDX 5 1 4 2 3 3 1 4 2 5 29 7 30 8 91 9 31 10 90 11 32 12 33 13
REMARK SMILES IDX 34 14 84 15 35 16 89 17 83 18 85 19 36 20 88 21 82 22 81 23
REMARK SMILES IDX 37 25 69 26 49 27 68 28 50 29 53 30 67 31 86 32 51 33 52 34
REMARK SMILES IDX 66 36 87 37 54 38 38 39 39 40 47 41 40 42 42 43 48 44 41 45
REMARK SMILES IDX 43 46 44 47 45 48 46 49 70 50 71 51 79 52 72 53 74 54 80 55
REMARK SMILES IDX 73 56 75 57 76 58 77 59 78 60 55 61 56 62 64 63 57 64 59 65
REMARK SMILES IDX 65 66 58 67 60 68 61 69 62 70 63 71 6 72 7 73 8 74 9 75
REMARK SMILES IDX 10 77 11 78 21 79 28 80 22 81 27 82 23 83 26 84 24 85 25 86
REMARK SMILES IDX 12 87 13 88 14 89 15 90 16 91 20 92 17 93 19 94 18 95
REMARK H PARENT 3 6 85 24 53 35 8 76
REMARK Flexibility Score: inf
ROOT
ATOM      1  C   UNL     1       4.819  -1.972  -1.808  1.00  0.00     0.023 C 
ENDROOT
BRANCH   1   2
ATOM      2  C   UNL     1       4.527  -0.646  -1.117  1.00  0.00     0.116 C 
BRANCH   2   3
ATOM      3  N   UNL     1       3.103  -0.364  -1.014  1.00  0.00    -0.352 N 
ATOM      4  O   UNL     1       1.134   0.007   0.016  1.00  0.00    -0.269 OA
ATOM      5  C   UNL     1       2.357  -0.062   0.101  1.00  0.00     0.251 C 
ATOM      6  H   UNL     1       2.604  -0.393  -1.861  1.00  0.00     0.163 HD
BRANCH   5   7
ATOM      7  C   UNL     1       3.033   0.145   1.400  1.00  0.00     0.039 A 
ATOM      8  C   UNL     1       4.175   0.944   1.487  1.00  0.00     0.014 A 
ATOM      9  C   UNL     1       2.525  -0.482   2.541  1.00  0.00     0.014 A 
ATOM     10  C   UNL     1       4.894   0.992   2.677  1.00  0.00     0.010 A 
ATOM     11  C   UNL     1       3.204  -0.364   3.757  1.00  0.00     0.010 A 
ATOM     12  C   UNL     1       4.413   0.344   3.827  1.00  0.00    -0.014 A 
BRANCH  12  13
ATOM     13  C   UNL     1       5.160   0.482   5.103  1.00  0.00     0.031 A 
ATOM     14  C   UNL     1       5.789  -0.706   5.778  1.00  0.00     0.074 A 
ATOM     15  C   UNL     1       5.271   1.708   5.651  1.00  0.00     0.049 A 
ATOM     16  N   UNL     1       6.503  -0.741   6.875  1.00  0.00    -0.248 NA
ATOM     17  C   UNL     1       5.586  -2.023   5.155  1.00  0.00     0.031 C 
ATOM     18  C   UNL     1       4.656   2.925   5.114  1.00  0.00     0.029 A 
ATOM     19  N   UNL     1       5.932   2.137   6.772  1.00  0.00    -0.354 N 
ATOM     20  C   UNL     1       6.800  -2.080   7.097  1.00  0.00     0.074 A 
ATOM     21  C   UNL     1       6.186  -2.830   6.022  1.00  0.00     0.031 C 
ATOM     22  C   UNL     1       4.990   3.966   5.889  1.00  0.00     0.029 A 
ATOM     23  C   UNL     1       5.803   3.487   7.001  1.00  0.00     0.049 A 
ATOM     24  H   UNL     1       6.449   1.538   7.357  1.00  0.00     0.167 HD
ATOM     25  C   UNL     1       7.532  -2.631   8.095  1.00  0.00     0.034 A 
ATOM     26  C   UNL     1       6.276   4.257   7.999  1.00  0.00     0.034 A 
ATOM     27  C   UNL     1       8.181  -1.875   9.134  1.00  0.00     0.049 A 
ATOM     28  C   UNL     1       7.128   3.626   9.062  1.00  0.00     0.074 A 
ATOM     29  C   UNL     1       9.007  -2.336  10.145  1.00  0.00     0.029 A 
ATOM     30  N   UNL     1       8.078  -0.502   9.299  1.00  0.00    -0.354 N 
ATOM     31  N   UNL     1       7.511   2.377   9.174  1.00  0.00    -0.248 NA
ATOM     32  C   UNL     1       7.635   4.511  10.119  1.00  0.00     0.031 C 
ATOM     33  C   UNL     1       9.393  -1.242  10.928  1.00  0.00     0.029 A 
ATOM     34  C   UNL     1       8.817  -0.099  10.399  1.00  0.00     0.049 A 
ATOM     35  H   UNL     1       7.555   0.098   8.720  1.00  0.00     0.167 HD
ATOM     36  C   UNL     1       8.317   2.328  10.304  1.00  0.00     0.074 A 
ATOM     37  C   UNL     1       8.393   3.680  10.822  1.00  0.00     0.031 C 
ATOM     38  C   UNL     1       8.920   1.256  10.875  1.00  0.00     0.034 A 
BRANCH  25  39
ATOM     39  C   UNL     1       7.720  -4.125   8.092  1.00  0.00     0.023 A 
ATOM     40  C   UNL     1       8.624  -4.707   7.181  1.00  0.00     0.012 A 
ATOM     41  C   UNL     1       7.071  -4.942   9.039  1.00  0.00     0.148 A 
ATOM     42  C   UNL     1       8.866  -6.081   7.199  1.00  0.00     0.002 A 
ATOM     43  C   UNL     1       7.343  -6.306   9.074  1.00  0.00     0.091 A 
ATOM     44  F   UNL     1       6.197  -4.375   9.883  1.00  0.00    -0.205 F 
ATOM     45  C   UNL     1       8.235  -6.878   8.151  1.00  0.00     0.022 A 
BRANCH  43  46
ATOM     46  S   UNL     1       6.632  -7.402  10.309  1.00  0.00     0.127 S 
ATOM     47  O   UNL     1       5.627  -8.117   9.525  1.00  0.00    -0.237 OA
ATOM     48  O   UNL     1       7.784  -8.212  10.706  1.00  0.00    -0.237 OA
ATOM     49  O   UNL     1       6.113  -6.535  11.358  1.00  0.00    -0.744 OA
ENDBRANCH  43  46
ENDBRANCH  25  39
BRANCH  26  50
ATOM     50  C   UNL     1       5.994   5.718   7.990  1.00  0.00     0.023 A 
ATOM     51  C   UNL     1       7.035   6.623   7.710  1.00  0.00     0.012 A 
ATOM     52  C   UNL     1       4.688   6.210   8.180  1.00  0.00     0.148 A 
ATOM     53  C   UNL     1       6.782   7.993   7.634  1.00  0.00     0.002 A 
ATOM     54  C   UNL     1       4.432   7.569   8.042  1.00  0.00     0.091 A 
ATOM     55  F   UNL     1       3.713   5.334   8.466  1.00  0.00    -0.205 F 
ATOM     56  C   UNL     1       5.480   8.464   7.784  1.00  0.00     0.022 A 
BRANCH  54  57
ATOM     57  S   UNL     1       2.760   8.226   8.065  1.00  0.00     0.127 S 
ATOM     58  O   UNL     1       2.678   8.789   9.409  1.00  0.00    -0.237 OA
ATOM     59  O   UNL     1       2.802   9.213   6.985  1.00  0.00    -0.237 OA
ATOM     60  O   UNL     1       1.895   7.085   7.793  1.00  0.00    -0.744 OA
ENDBRANCH  54  57
ENDBRANCH  26  50
BRANCH  38  61
ATOM     61  C   UNL     1       9.720   1.500  12.126  1.00  0.00     0.023 A 
ATOM     62  C   UNL     1       9.047   1.735  13.341  1.00  0.00     0.012 A 
ATOM     63  C   UNL     1      11.126   1.436  12.112  1.00  0.00     0.148 A 
ATOM     64  C   UNL     1       9.764   1.929  14.521  1.00  0.00     0.002 A 
ATOM     65  C   UNL     1      11.832   1.589  13.300  1.00  0.00     0.091 A 
ATOM     66  F   UNL     1      11.748   1.235  10.941  1.00  0.00    -0.205 F 
ATOM     67  C   UNL     1      11.154   1.845  14.503  1.00  0.00     0.022 A 
BRANCH  65  68
ATOM     68  S   UNL     1      13.618   1.411  13.376  1.00  0.00     0.127 S 
ATOM     69  O   UNL     1      14.056   2.805  13.420  1.00  0.00    -0.237 OA
ATOM     70  O   UNL     1      13.809   0.673  14.626  1.00  0.00    -0.237 OA
ATOM     71  O   UNL     1      13.993   0.670  12.179  1.00  0.00    -0.744 OA
ENDBRANCH  65  68
ENDBRANCH  38  61
ENDBRANCH  12  13
ENDBRANCH   5   7
ENDBRANCH   2   3
ENDBRANCH   1   2
BRANCH   1  72
ATOM     72  C   UNL     1       4.288  -2.097  -3.236  1.00  0.00     0.023 C 
BRANCH  72  73
ATOM     73  C   UNL     1       4.666  -0.953  -4.174  1.00  0.00     0.116 C 
BRANCH  73  74
ATOM     74  N   UNL     1       6.105  -0.818  -4.321  1.00  0.00    -0.356 N 
ATOM     75  C   UNL     1       6.921  -0.815  -5.409  1.00  0.00     0.227 C 
ATOM     76  H   UNL     1       6.582  -0.707  -3.467  1.00  0.00     0.163 HD
ATOM     77  O   UNL     1       8.130  -0.799  -5.157  1.00  0.00    -0.274 OA
BRANCH  75  78
ATOM     78  C   UNL     1       6.393  -0.908  -6.853  1.00  0.00     0.061 C 
ATOM     79  C   UNL     1       5.778  -2.328  -7.051  1.00  0.00     0.053 C 
ATOM     80  C   UNL     1       5.273   0.126  -7.173  1.00  0.00     0.053 C 
ATOM     81  C   UNL     1       4.527  -2.057  -7.823  1.00  0.00    -0.044 A 
ATOM     82  C   UNL     1       4.242  -0.694  -7.886  1.00  0.00    -0.044 A 
ATOM     83  C   UNL     1       3.680  -2.991  -8.398  1.00  0.00     0.004 A 
ATOM     84  C   UNL     1       3.106  -0.232  -8.531  1.00  0.00     0.004 A 
ATOM     85  C   UNL     1       2.537  -2.535  -9.058  1.00  0.00     0.000 A 
ATOM     86  C   UNL     1       2.252  -1.164  -9.125  1.00  0.00     0.000 A 
BRANCH  78  87
ATOM     87  C   UNL     1       7.574  -0.746  -7.869  1.00  0.00     0.045 C 
BRANCH  87  88
ATOM     88  C   UNL     1       8.246   0.607  -7.872  1.00  0.00    -0.025 C 
ATOM     89  C   UNL     1       9.514   0.805  -7.481  1.00  0.00     0.004 C 
BRANCH  89  90
ATOM     90  C   UNL     1      10.108   2.140  -7.388  1.00  0.00    -0.026 A 
ATOM     91  C   UNL     1      11.319   2.415  -8.030  1.00  0.00     0.008 A 
ATOM     92  C   UNL     1       9.508   3.134  -6.604  1.00  0.00     0.008 A 
ATOM     93  C   UNL     1      11.912   3.673  -7.904  1.00  0.00     0.001 A 
ATOM     94  C   UNL     1      10.102   4.389  -6.475  1.00  0.00     0.001 A 
ATOM     95  C   UNL     1      11.304   4.659  -7.127  1.00  0.00     0.000 A 
ENDBRANCH  89  90
ENDBRANCH  87  88
ENDBRANCH  78  87
ENDBRANCH  75  78
ENDBRANCH  73  74
ENDBRANCH  72  73
ENDBRANCH   1  72
TORSDOF 17
