REMARK SMILES Cc1ccccc1-c1nn(-c2ccccc2)cc1/C=C(\C#N)C(=O)NCCCCNC(=O)c1ccc(-c2c3nc(c(-c4cccc(S(=O)(=O)[O-])c4F)c4ccc([nH]4)c(-c4cccc(S(=O)(=O)[O-])c4F)c4nc(c(-c5cccc(S(=O)(=O)[O-])c5F)c5ccc2[nH]5)C=C4)C=C3)cc1
REMARK SMILES IDX 28 1 27 2 26 3 25 4 23 5 24 6 20 8 19 9 18 10 8 11 9 12
REMARK SMILES IDX 10 13 17 14 7 15 1 16 2 17 3 18 4 19 6 20 5 21 11 22 12 23
REMARK SMILES IDX 16 24 13 25 15 26 14 27 21 28 22 29 29 30 30 31 31 32 32 34
REMARK SMILES IDX 33 35 34 36 95 37 35 38 94 39 36 40 37 41 38 42 88 43 39 44
REMARK SMILES IDX 93 45 87 46 89 47 40 48 92 49 86 50 85 51 41 53 73 54 53 55
REMARK SMILES IDX 72 56 54 57 57 58 71 59 90 60 55 61 56 62 70 64 91 65 58 66
REMARK SMILES IDX 42 67 43 68 51 69 44 70 46 71 52 72 45 73 47 74 48 75 49 76
REMARK SMILES IDX 50 77 74 78 75 79 83 80 76 81 78 82 84 83 77 84 79 85 80 86
REMARK SMILES IDX 81 87 82 88 59 89 60 90 68 91 61 92 63 93 69 94 62 95 64 96
REMARK SMILES IDX 65 97 66 98 67 99
REMARK H PARENT 25 7 30 33 89 52 57 63
REMARK Flexibility Score: inf
ROOT
ATOM      1  C   UNL     1      -1.738  -1.589   5.291  1.00  0.00     0.023 C 
ENDROOT
BRANCH   1   2
ATOM      2  C   UNL     1      -1.695  -1.141   3.818  1.00  0.00     0.023 C 
BRANCH   2   3
ATOM      3  C   UNL     1      -2.647  -0.002   3.430  1.00  0.00     0.116 C 
BRANCH   3   4
ATOM      4  N   UNL     1      -2.288   1.275   4.045  1.00  0.00    -0.351 N 
ATOM      5  C   UNL     1      -1.468   2.299   3.670  1.00  0.00     0.261 C 
ATOM      6  O   UNL     1      -1.366   3.270   4.423  1.00  0.00    -0.268 OA
ATOM      7  H   UNL     1      -2.732   1.429   4.911  1.00  0.00     0.163 HD
BRANCH   5   8
ATOM      8  C   UNL     1      -0.706   2.285   2.404  1.00  0.00     0.117 C 
ATOM      9  C   UNL     1       0.077   3.285   1.909  1.00  0.00     0.037 C 
BRANCH   9  10
ATOM     10  C   UNL     1       0.829   3.398   0.624  1.00  0.00     0.022 A 
ATOM     11  C   UNL     1       0.904   2.736  -0.693  1.00  0.00     0.100 A 
ATOM     12  N   UNL     1       1.612   3.484  -1.545  1.00  0.00    -0.167 NA
ATOM     13  N   UNL     1       2.261   4.375  -0.801  1.00  0.00    -0.240 N 
ATOM     14  C   UNL     1       1.804   4.386   0.497  1.00  0.00     0.123 A 
BRANCH  11  15
ATOM     15  C   UNL     1       0.417   1.498  -1.329  1.00  0.00     0.006 A 
ATOM     16  C   UNL     1       2.537   0.184  -0.657  1.00  0.00     0.045 C 
ATOM     17  C   UNL     1       1.200   0.304  -1.340  1.00  0.00    -0.042 A 
ATOM     18  C   UNL     1       0.623  -0.894  -1.823  1.00  0.00     0.004 A 
ATOM     19  C   UNL     1      -0.684  -0.911  -2.313  1.00  0.00     0.000 A 
ATOM     20  C   UNL     1      -0.857   1.481  -1.931  1.00  0.00     0.011 A 
ATOM     21  C   UNL     1      -1.413   0.277  -2.391  1.00  0.00     0.001 A 
ENDBRANCH  11  15
BRANCH  13  22
ATOM     22  C   UNL     1       3.309   5.103  -1.413  1.00  0.00     0.065 A 
ATOM     23  C   UNL     1       3.256   5.308  -2.805  1.00  0.00     0.028 A 
ATOM     24  C   UNL     1       4.419   5.527  -0.683  1.00  0.00     0.028 A 
ATOM     25  C   UNL     1       4.299   5.956  -3.461  1.00  0.00     0.002 A 
ATOM     26  C   UNL     1       5.482   6.136  -1.358  1.00  0.00     0.002 A 
ATOM     27  C   UNL     1       5.418   6.359  -2.738  1.00  0.00     0.000 A 
ENDBRANCH  13  22
ENDBRANCH   9  10
BRANCH   8  28
ATOM     28  C   UNL     1      -0.714   1.123   1.424  1.00  0.00     0.105 C 
ATOM     29  N   UNL     1      -0.720   0.160   0.611  1.00  0.00    -0.192 NA
ENDBRANCH   8  28
ENDBRANCH   5   8
ENDBRANCH   3   4
ENDBRANCH   2   3
ENDBRANCH   1   2
BRANCH   1  30
ATOM     30  C   UNL     1      -3.045  -2.213   5.764  1.00  0.00     0.116 C 
BRANCH  30  31
ATOM     31  N   UNL     1      -3.369  -3.437   5.030  1.00  0.00    -0.352 N 
ATOM     32  C   UNL     1      -4.532  -4.175   5.019  1.00  0.00     0.251 C 
ATOM     33  H   UNL     1      -2.647  -3.785   4.459  1.00  0.00     0.163 HD
ATOM     34  O   UNL     1      -4.428  -5.410   4.954  1.00  0.00    -0.269 OA
BRANCH  32  35
ATOM     35  C   UNL     1      -5.851  -3.519   4.963  1.00  0.00     0.039 A 
ATOM     36  C   UNL     1      -7.043  -4.244   4.840  1.00  0.00     0.014 A 
ATOM     37  C   UNL     1      -5.883  -2.146   4.774  1.00  0.00     0.014 A 
ATOM     38  C   UNL     1      -8.157  -3.602   4.301  1.00  0.00     0.010 A 
ATOM     39  C   UNL     1      -7.038  -1.472   4.589  1.00  0.00     0.010 A 
ATOM     40  C   UNL     1      -8.070  -2.233   4.081  1.00  0.00    -0.014 A 
BRANCH  40  41
ATOM     41  C   UNL     1      -8.881  -1.426   3.199  1.00  0.00     0.031 A 
ATOM     42  C   UNL     1     -10.148  -0.928   3.717  1.00  0.00     0.074 A 
ATOM     43  C   UNL     1      -8.207  -0.863   2.162  1.00  0.00     0.049 A 
ATOM     44  N   UNL     1     -11.020  -0.307   3.013  1.00  0.00    -0.248 NA
ATOM     45  C   UNL     1     -10.538  -1.128   5.108  1.00  0.00     0.031 C 
ATOM     46  C   UNL     1      -8.454   0.416   1.508  1.00  0.00     0.029 A 
ATOM     47  N   UNL     1      -7.057  -1.297   1.501  1.00  0.00    -0.354 N 
ATOM     48  C   UNL     1     -11.900   0.263   3.906  1.00  0.00     0.074 A 
ATOM     49  C   UNL     1     -11.679  -0.440   5.143  1.00  0.00     0.031 C 
ATOM     50  C   UNL     1      -7.707   0.483   0.388  1.00  0.00     0.029 A 
ATOM     51  C   UNL     1      -7.127  -0.834   0.188  1.00  0.00     0.049 A 
ATOM     52  H   UNL     1      -6.329  -1.833   1.891  1.00  0.00     0.167 HD
ATOM     53  C   UNL     1     -12.541   1.403   3.526  1.00  0.00     0.034 A 
ATOM     54  C   UNL     1      -7.432  -1.664  -0.862  1.00  0.00     0.034 A 
ATOM     55  C   UNL     1     -12.229   1.703   2.107  1.00  0.00     0.049 A 
ATOM     56  C   UNL     1      -8.802  -1.351  -1.466  1.00  0.00     0.074 A 
ATOM     57  C   UNL     1     -11.359   2.596   1.499  1.00  0.00     0.029 A 
ATOM     58  N   UNL     1     -12.565   0.772   1.121  1.00  0.00    -0.354 N 
ATOM     59  N   UNL     1      -9.662  -0.508  -0.958  1.00  0.00    -0.248 NA
ATOM     60  C   UNL     1      -9.302  -1.958  -2.696  1.00  0.00     0.031 C 
ATOM     61  C   UNL     1     -11.095   2.126   0.176  1.00  0.00     0.029 A 
ATOM     62  C   UNL     1     -11.830   0.971  -0.043  1.00  0.00     0.049 A 
ATOM     63  H   UNL     1     -13.238   0.062   1.236  1.00  0.00     0.167 HD
ATOM     64  C   UNL     1     -10.843  -0.551  -1.646  1.00  0.00     0.074 A 
ATOM     65  C   UNL     1     -10.524  -1.400  -2.787  1.00  0.00     0.031 C 
ATOM     66  C   UNL     1     -11.986   0.061  -1.187  1.00  0.00     0.034 A 
BRANCH  53  67
ATOM     67  C   UNL     1     -13.184   2.410   4.480  1.00  0.00     0.023 A 
ATOM     68  C   UNL     1     -13.529   3.668   3.941  1.00  0.00     0.012 A 
ATOM     69  C   UNL     1     -13.430   2.262   5.871  1.00  0.00     0.148 A 
ATOM     70  C   UNL     1     -14.022   4.720   4.726  1.00  0.00     0.002 A 
ATOM     71  C   UNL     1     -13.903   3.313   6.663  1.00  0.00     0.091 A 
ATOM     72  F   UNL     1     -13.249   1.091   6.471  1.00  0.00    -0.205 F 
ATOM     73  C   UNL     1     -14.196   4.549   6.092  1.00  0.00     0.022 A 
BRANCH  71  74
ATOM     74  S   UNL     1     -14.140   3.160   8.449  1.00  0.00     0.127 S 
ATOM     75  O   UNL     1     -13.306   4.248   8.963  1.00  0.00    -0.237 OA
ATOM     76  O   UNL     1     -15.579   3.377   8.591  1.00  0.00    -0.237 OA
ATOM     77  O   UNL     1     -13.678   1.827   8.820  1.00  0.00    -0.744 OA
ENDBRANCH  71  74
ENDBRANCH  53  67
BRANCH  54  78
ATOM     78  C   UNL     1      -6.857  -3.041  -0.692  1.00  0.00     0.023 A 
ATOM     79  C   UNL     1      -5.446  -3.136  -0.610  1.00  0.00     0.012 A 
ATOM     80  C   UNL     1      -7.636  -4.082  -0.158  1.00  0.00     0.148 A 
ATOM     81  C   UNL     1      -4.843  -4.120   0.179  1.00  0.00     0.002 A 
ATOM     82  C   UNL     1      -7.027  -5.061   0.627  1.00  0.00     0.091 A 
ATOM     83  F   UNL     1      -8.959  -4.069  -0.362  1.00  0.00    -0.205 F 
ATOM     84  C   UNL     1      -5.640  -5.047   0.844  1.00  0.00     0.022 A 
BRANCH  82  85
ATOM     85  S   UNL     1      -8.017  -6.286   1.497  1.00  0.00     0.127 S 
ATOM     86  O   UNL     1      -8.082  -7.364   0.514  1.00  0.00    -0.237 OA
ATOM     87  O   UNL     1      -7.208  -6.587   2.676  1.00  0.00    -0.237 OA
ATOM     88  O   UNL     1      -9.269  -5.606   1.795  1.00  0.00    -0.744 OA
ENDBRANCH  82  85
ENDBRANCH  54  78
BRANCH  66  89
ATOM     89  C   UNL     1     -13.378  -0.141  -1.779  1.00  0.00     0.023 A 
ATOM     90  C   UNL     1     -13.688  -1.204  -2.649  1.00  0.00     0.012 A 
ATOM     91  C   UNL     1     -14.471   0.680  -1.389  1.00  0.00     0.148 A 
ATOM     92  C   UNL     1     -14.967  -1.386  -3.186  1.00  0.00     0.002 A 
ATOM     93  C   UNL     1     -15.769   0.408  -1.813  1.00  0.00     0.091 A 
ATOM     94  F   UNL     1     -14.264   1.761  -0.625  1.00  0.00    -0.205 F 
ATOM     95  C   UNL     1     -16.015  -0.593  -2.751  1.00  0.00     0.022 A 
BRANCH  93  96
ATOM     96  S   UNL     1     -17.191   1.216  -1.065  1.00  0.00     0.127 S 
ATOM     97  O   UNL     1     -17.516   2.235  -2.060  1.00  0.00    -0.237 OA
ATOM     98  O   UNL     1     -18.158   0.119  -0.977  1.00  0.00    -0.237 OA
ATOM     99  O   UNL     1     -16.727   1.704   0.226  1.00  0.00    -0.744 OA
ENDBRANCH  93  96
ENDBRANCH  66  89
ENDBRANCH  40  41
ENDBRANCH  32  35
ENDBRANCH  30  31
ENDBRANCH   1  30
TORSDOF 18
