REMARK SMILES O=C(NCCCCNC(=O)c1ccc(F)cc1-c1ccc(F)c(Cl)c1)c1ccc(-c2c3nc(c(-c4cccc(S(=O)(=O)[O-])c4F)c4ccc([nH]4)c(-c4cccc(S(=O)(=O)[O-])c4F)c4nc(c(-c5cccc(S(=O)(=O)[O-])c5F)c5ccc2[nH]5)C=C4)C=C3)cc1
REMARK SMILES IDX 4 1 3 2 1 3 2 4 26 6 27 7 88 8 28 9 87 10 29 11 30 12 31 13
REMARK SMILES IDX 81 14 32 15 86 16 80 17 82 18 33 19 85 20 79 21 78 22 34 24
REMARK SMILES IDX 66 25 46 26 65 27 47 28 50 29 64 30 83 31 48 32 49 33 63 35
REMARK SMILES IDX 84 36 51 37 35 38 36 39 44 40 37 41 39 42 45 43 38 44 40 45
REMARK SMILES IDX 41 46 42 47 43 48 67 49 68 50 76 51 69 52 71 53 77 54 70 55
REMARK SMILES IDX 72 56 73 57 74 58 75 59 52 60 53 61 61 62 54 63 56 64 62 65
REMARK SMILES IDX 55 66 57 67 58 68 59 69 60 70 5 71 6 72 7 73 8 74 9 75 10 77
REMARK SMILES IDX 11 78 12 79 17 80 13 81 16 82 14 83 15 84 18 85 19 86 25 87
REMARK SMILES IDX 20 88 23 89 21 90 24 91 22 92
REMARK H PARENT 3 5 82 23 50 34 8 76
REMARK Flexibility Score: inf
ROOT
ATOM      1  C   UNL     1       4.705  -1.285   0.452  1.00  0.00     0.116 C 
ENDROOT
BRANCH   1   2
ATOM      2  N   UNL     1       3.272  -1.146   0.250  1.00  0.00    -0.352 N 
ATOM      3  O   UNL     1       1.294  -0.087   0.072  1.00  0.00    -0.269 OA
ATOM      4  C   UNL     1       2.518  -0.003   0.109  1.00  0.00     0.251 C 
ATOM      5  H   UNL     1       2.768  -1.991   0.208  1.00  0.00     0.163 HD
BRANCH   4   6
ATOM      6  C   UNL     1       3.182   1.318   0.041  1.00  0.00     0.039 A 
ATOM      7  C   UNL     1       4.309   1.513  -0.761  1.00  0.00     0.014 A 
ATOM      8  C   UNL     1       2.672   2.377   0.798  1.00  0.00     0.014 A 
ATOM      9  C   UNL     1       5.011   2.712  -0.687  1.00  0.00     0.010 A 
ATOM     10  C   UNL     1       3.333   3.610   0.806  1.00  0.00     0.010 A 
ATOM     11  C   UNL     1       4.528   3.776   0.092  1.00  0.00    -0.014 A 
BRANCH  11  12
ATOM     12  C   UNL     1       5.255   5.072   0.085  1.00  0.00     0.031 A 
ATOM     13  C   UNL     1       5.906   5.615   1.328  1.00  0.00     0.074 A 
ATOM     14  C   UNL     1       5.337   5.758  -1.072  1.00  0.00     0.049 A 
ATOM     15  N   UNL     1       6.609   6.709   1.472  1.00  0.00    -0.248 NA
ATOM     16  C   UNL     1       5.747   4.840   2.569  1.00  0.00     0.031 C 
ATOM     17  C   UNL     1       4.711   5.349  -2.332  1.00  0.00     0.029 A 
ATOM     18  N   UNL     1       5.977   6.929  -1.385  1.00  0.00    -0.354 N 
ATOM     19  C   UNL     1       6.948   6.774   2.818  1.00  0.00     0.074 A 
ATOM     20  C   UNL     1       6.367   5.611   3.454  1.00  0.00     0.031 C 
ATOM     21  C   UNL     1       5.027   6.234  -3.287  1.00  0.00     0.029 A 
ATOM     22  C   UNL     1       5.835   7.298  -2.702  1.00  0.00     0.049 A 
ATOM     23  H   UNL     1       6.490   7.455  -0.729  1.00  0.00     0.167 HD
ATOM     24  C   UNL     1       7.692   7.707   3.459  1.00  0.00     0.034 A 
ATOM     25  C   UNL     1       6.294   8.375  -3.368  1.00  0.00     0.034 A 
ATOM     26  C   UNL     1       8.305   8.838   2.812  1.00  0.00     0.049 A 
ATOM     27  C   UNL     1       7.138   9.379  -2.637  1.00  0.00     0.074 A 
ATOM     28  C   UNL     1       9.128   9.801   3.369  1.00  0.00     0.029 A 
ATOM     29  N   UNL     1       8.165   9.159   1.471  1.00  0.00    -0.354 N 
ATOM     30  N   UNL     1       7.545   9.357  -1.391  1.00  0.00    -0.248 NA
ATOM     31  C   UNL     1       7.606  10.542  -3.404  1.00  0.00     0.031 C 
ATOM     32  C   UNL     1       9.474  10.713   2.368  1.00  0.00     0.029 A 
ATOM     33  C   UNL     1       8.879  10.311   1.184  1.00  0.00     0.049 A 
ATOM     34  H   UNL     1       7.636   8.645   0.819  1.00  0.00     0.167 HD
ATOM     35  C   UNL     1       8.328  10.492  -1.226  1.00  0.00     0.074 A 
ATOM     36  C   UNL     1       8.362  11.166  -2.509  1.00  0.00     0.031 C 
ATOM     37  C   UNL     1       8.942  10.946  -0.107  1.00  0.00     0.034 A 
BRANCH  24  38
ATOM     38  C   UNL     1       7.945   7.529   4.933  1.00  0.00     0.023 A 
ATOM     39  C   UNL     1       8.896   6.579   5.358  1.00  0.00     0.012 A 
ATOM     40  C   UNL     1       7.337   8.372   5.883  1.00  0.00     0.148 A 
ATOM     41  C   UNL     1       9.228   6.463   6.707  1.00  0.00     0.002 A 
ATOM     42  C   UNL     1       7.699   8.275   7.222  1.00  0.00     0.091 A 
ATOM     43  F   UNL     1       6.421   9.256   5.460  1.00  0.00    -0.205 F 
ATOM     44  C   UNL     1       8.640   7.318   7.636  1.00  0.00     0.022 A 
BRANCH  42  45
ATOM     45  S   UNL     1       7.055   9.379   8.485  1.00  0.00     0.127 S 
ATOM     46  O   UNL     1       6.175   8.486   9.236  1.00  0.00    -0.237 OA
ATOM     47  O   UNL     1       8.270   9.777   9.197  1.00  0.00    -0.237 OA
ATOM     48  O   UNL     1       6.389  10.459   7.772  1.00  0.00    -0.744 OA
ENDBRANCH  42  45
ENDBRANCH  24  38
BRANCH  25  49
ATOM     49  C   UNL     1       6.010   8.505  -4.824  1.00  0.00     0.023 A 
ATOM     50  C   UNL     1       7.054   8.323  -5.750  1.00  0.00     0.012 A 
ATOM     51  C   UNL     1       4.699   8.709  -5.297  1.00  0.00     0.148 A 
ATOM     52  C   UNL     1       6.799   8.349  -7.122  1.00  0.00     0.002 A 
ATOM     53  C   UNL     1       4.442   8.672  -6.663  1.00  0.00     0.091 A 
ATOM     54  F   UNL     1       3.721   8.901  -4.400  1.00  0.00    -0.205 F 
ATOM     55  C   UNL     1       5.492   8.506  -7.577  1.00  0.00     0.022 A 
BRANCH  53  56
ATOM     56  S   UNL     1       2.770   8.700  -7.320  1.00  0.00     0.127 S 
ATOM     57  O   UNL     1       2.682  10.055  -7.857  1.00  0.00    -0.237 OA
ATOM     58  O   UNL     1       2.820   7.639  -8.328  1.00  0.00    -0.237 OA
ATOM     59  O   UNL     1       1.902   8.404  -6.188  1.00  0.00    -0.744 OA
ENDBRANCH  53  56
ENDBRANCH  25  49
BRANCH  37  60
ATOM     60  C   UNL     1       9.711  12.237  -0.204  1.00  0.00     0.023 A 
ATOM     61  C   UNL     1       9.007  13.456  -0.252  1.00  0.00     0.012 A 
ATOM     62  C   UNL     1      11.118  12.249  -0.139  1.00  0.00     0.148 A 
ATOM     63  C   UNL     1       9.693  14.669  -0.250  1.00  0.00     0.002 A 
ATOM     64  C   UNL     1      11.793  13.463  -0.095  1.00  0.00     0.091 A 
ATOM     65  F   UNL     1      11.768  11.076  -0.113  1.00  0.00    -0.205 F 
ATOM     66  C   UNL     1      11.083  14.674  -0.158  1.00  0.00     0.022 A 
BRANCH  64  67
ATOM     67  S   UNL     1      13.574  13.566   0.117  1.00  0.00     0.127 S 
ATOM     68  O   UNL     1      14.012  13.953  -1.223  1.00  0.00    -0.237 OA
ATOM     69  O   UNL     1      13.709  14.614   1.130  1.00  0.00    -0.237 OA
ATOM     70  O   UNL     1      14.001  12.244   0.557  1.00  0.00    -0.744 OA
ENDBRANCH  64  67
ENDBRANCH  37  60
ENDBRANCH  11  12
ENDBRANCH   4   6
ENDBRANCH   1   2
BRANCH   1  71
ATOM     71  C   UNL     1       5.061  -2.140   1.662  1.00  0.00     0.023 C 
BRANCH  71  72
ATOM     72  C   UNL     1       4.566  -3.584   1.621  1.00  0.00     0.023 C 
BRANCH  72  73
ATOM     73  C   UNL     1       4.901  -4.359   0.350  1.00  0.00     0.116 C 
BRANCH  73  74
ATOM     74  N   UNL     1       6.330  -4.444   0.091  1.00  0.00    -0.352 N 
ATOM     75  C   UNL     1       7.120  -5.556  -0.078  1.00  0.00     0.251 C 
ATOM     76  H   UNL     1       6.799  -3.581   0.029  1.00  0.00     0.163 HD
ATOM     77  O   UNL     1       8.320  -5.445  -0.302  1.00  0.00    -0.269 OA
BRANCH  75  78
ATOM     78  C   UNL     1       6.504  -6.897   0.008  1.00  0.00     0.047 A 
ATOM     79  C   UNL     1       5.525  -7.228  -0.946  1.00  0.00     0.017 A 
ATOM     80  C   UNL     1       6.908  -7.825   0.992  1.00  0.00    -0.003 A 
ATOM     81  C   UNL     1       4.875  -8.457  -0.881  1.00  0.00     0.040 A 
ATOM     82  C   UNL     1       6.231  -9.059   1.034  1.00  0.00     0.048 A 
ATOM     83  C   UNL     1       5.226  -9.355   0.117  1.00  0.00     0.123 A 
ATOM     84  F   UNL     1       4.594 -10.534   0.192  1.00  0.00    -0.207 F 
BRANCH  80  85
ATOM     85  C   UNL     1       8.009  -7.580   1.941  1.00  0.00    -0.016 A 
ATOM     86  C   UNL     1       7.947  -6.560   2.905  1.00  0.00     0.012 A 
ATOM     87  C   UNL     1       9.165  -8.384   1.893  1.00  0.00     0.032 A 
ATOM     88  C   UNL     1       9.010  -6.345   3.789  1.00  0.00     0.041 A 
ATOM     89  C   UNL     1      10.222  -8.172   2.780  1.00  0.00     0.077 A 
ATOM     90  C   UNL     1      10.140  -7.153   3.723  1.00  0.00     0.141 A 
ATOM     91  Cl  UNL     1      11.611  -9.187   2.697  1.00  0.00    -0.081 Cl
ATOM     92  F   UNL     1      11.142  -6.937   4.588  1.00  0.00    -0.205 F 
ENDBRANCH  80  85
ENDBRANCH  75  78
ENDBRANCH  73  74
ENDBRANCH  72  73
ENDBRANCH  71  72
ENDBRANCH   1  71
TORSDOF 15
