REMARK SMILES CCc1cccc(CC)c1N1/C(=[NH+]/C(=O)CCCC(=O)NCCCCNC(=O)c2ccc(-c3c4nc(c(-c5cccc(S(=O)(=O)[O-])c5F)c5ccc([nH]5)c(-c5cccc(S(=O)(=O)[O-])c5F)c5nc(c(-c6cccc(S(=O)(=O)[O-])c6F)c6ccc3[nH]6)C=C5)C=C4)cc2)S[C@@H]2CS(=O)(=O)C[C@@H]21
REMARK SMILES IDX 22 1 21 2 19 3 20 4 18 6 17 7 16 8 14 9 11 10 12 11 99 12
REMARK SMILES IDX 13 13 92 14 93 15 98 16 94 18 95 19 15 20 96 21 97 22 10 23
REMARK SMILES IDX 3 24 4 25 5 26 7 27 6 28 2 29 1 30 8 31 9 32 23 33 24 34
REMARK SMILES IDX 25 35 26 36 27 37 28 39 29 40 30 41 91 42 31 43 90 44 32 45
REMARK SMILES IDX 33 46 34 47 84 48 35 49 89 50 83 51 85 52 36 53 88 54 82 55
REMARK SMILES IDX 81 56 37 58 69 59 49 60 68 61 50 62 53 63 67 64 86 65 51 66
REMARK SMILES IDX 52 67 66 69 87 70 54 71 38 72 39 73 47 74 40 75 42 76 48 77
REMARK SMILES IDX 41 78 43 79 44 80 45 81 46 82 70 83 71 84 79 85 72 86 74 87
REMARK SMILES IDX 80 88 73 89 75 90 76 91 77 92 78 93 55 94 56 95 64 96 57 97
REMARK SMILES IDX 59 98 65 99 58 100 60 101 61 102 62 103 63 104
REMARK H PARENT 21 5 13 17 26 38 85 57 53 68
REMARK Flexibility Score: inf
ROOT
ATOM      1  C   UNL     1      -1.540   2.566   5.230  1.00  0.00     0.116 C 
ENDROOT
BRANCH   1   2
ATOM      2  N   UNL     1      -0.412   1.925   5.864  1.00  0.00    -0.356 N 
ATOM      3  C   UNL     1       0.190   0.747   5.545  1.00  0.00     0.220 C 
ATOM      4  O   UNL     1       1.076   0.313   6.282  1.00  0.00    -0.275 OA
ATOM      5  H   UNL     1      -0.027   2.405   6.633  1.00  0.00     0.163 HD
BRANCH   3   6
ATOM      6  C   UNL     1      -0.182   0.024   4.267  1.00  0.00     0.100 C 
BRANCH   6   7
ATOM      7  C   UNL     1      -1.369  -0.936   4.321  1.00  0.00     0.022 C 
BRANCH   7   8
ATOM      8  C   UNL     1      -2.778  -0.405   4.054  1.00  0.00     0.128 C 
BRANCH   8   9
ATOM      9  C   UNL     1      -3.094   0.216   2.695  1.00  0.00     0.307 C 
ATOM     10  N   UNL     1      -1.446   2.672   0.520  1.00  0.00    -0.216 N 
ATOM     11  C   UNL     1      -2.380   1.941   1.263  1.00  0.00     0.319 C 
ATOM     12  C   UNL     1      -1.937   3.199  -0.780  1.00  0.00     0.212 C 
ATOM     13  N   UNL     1      -2.145   1.073   2.191  1.00  0.00    -0.204 N 
ATOM     14  S   UNL     1      -3.991   2.326   0.617  1.00  0.00    -0.029 SA
ATOM     15  C   UNL     1      -3.293   2.516  -1.035  1.00  0.00     0.120 C 
ATOM     16  C   UNL     1      -1.036   2.906  -1.980  1.00  0.00     0.188 C 
ATOM     17  H   UNL     1      -1.233   1.023   2.558  1.00  0.00     0.316 HD
ATOM     18  C   UNL     1      -3.014   1.153  -1.648  1.00  0.00     0.156 C 
ATOM     19  S   UNL     1      -1.740   1.504  -2.822  1.00  0.00     0.155 S 
ATOM     20  O   UNL     1      -4.137  -0.113   2.132  1.00  0.00    -0.247 OA
ATOM     21  O   UNL     1      -0.799   0.409  -2.837  1.00  0.00    -0.229 OA
ATOM     22  O   UNL     1      -2.380   1.982  -4.034  1.00  0.00    -0.229 OA
BRANCH  10  23
ATOM     23  C   UNL     1      -0.125   3.006   0.910  1.00  0.00     0.134 A 
ATOM     24  C   UNL     1       0.884   2.006   1.018  1.00  0.00    -0.001 A 
ATOM     25  C   UNL     1       2.216   2.377   1.302  1.00  0.00     0.008 A 
ATOM     26  C   UNL     1       2.592   3.707   1.398  1.00  0.00     0.001 A 
ATOM     27  C   UNL     1       0.266   4.372   1.093  1.00  0.00    -0.001 A 
ATOM     28  C   UNL     1       1.628   4.693   1.278  1.00  0.00     0.008 A 
BRANCH  24  29
ATOM     29  C   UNL     1       0.642   0.525   0.799  1.00  0.00     0.036 C 
ATOM     30  C   UNL     1       1.427  -0.054  -0.369  1.00  0.00     0.009 C 
ENDBRANCH  24  29
BRANCH  27  31
ATOM     31  C   UNL     1      -0.703   5.545   1.077  1.00  0.00     0.036 C 
ATOM     32  C   UNL     1      -0.552   6.518   2.246  1.00  0.00     0.009 C 
ENDBRANCH  27  31
ENDBRANCH  10  23
ENDBRANCH   8   9
ENDBRANCH   7   8
ENDBRANCH   6   7
ENDBRANCH   3   6
ENDBRANCH   1   2
BRANCH   1  33
ATOM     33  C   UNL     1      -2.801   2.393   6.075  1.00  0.00     0.023 C 
BRANCH  33  34
ATOM     34  C   UNL     1      -2.999   3.488   7.109  1.00  0.00     0.023 C 
BRANCH  34  35
ATOM     35  C   UNL     1      -3.232   4.858   6.499  1.00  0.00     0.116 C 
BRANCH  35  36
ATOM     36  N   UNL     1      -4.431   4.936   5.675  1.00  0.00    -0.352 N 
ATOM     37  C   UNL     1      -5.310   5.989   5.579  1.00  0.00     0.251 C 
ATOM     38  H   UNL     1      -4.635   4.145   5.125  1.00  0.00     0.163 HD
ATOM     39  O   UNL     1      -6.344   5.889   4.928  1.00  0.00    -0.269 OA
BRANCH  37  40
ATOM     40  C   UNL     1      -4.993   7.234   6.307  1.00  0.00     0.039 A 
ATOM     41  C   UNL     1      -5.964   7.812   7.123  1.00  0.00     0.014 A 
ATOM     42  C   UNL     1      -3.705   7.773   6.241  1.00  0.00     0.014 A 
ATOM     43  C   UNL     1      -5.627   8.918   7.904  1.00  0.00     0.010 A 
ATOM     44  C   UNL     1      -3.342   8.791   7.109  1.00  0.00     0.010 A 
ATOM     45  C   UNL     1      -4.308   9.404   7.918  1.00  0.00    -0.014 A 
BRANCH  45  46
ATOM     46  C   UNL     1      -3.939  10.596   8.721  1.00  0.00     0.031 A 
ATOM     47  C   UNL     1      -3.404  11.823   8.025  1.00  0.00     0.074 A 
ATOM     48  C   UNL     1      -4.038  10.565  10.065  1.00  0.00     0.049 A 
ATOM     49  N   UNL     1      -3.030  12.964   8.541  1.00  0.00    -0.248 NA
ATOM     50  C   UNL     1      -3.237  11.753   6.561  1.00  0.00     0.031 C 
ATOM     51  C   UNL     1      -4.451   9.406  10.861  1.00  0.00     0.029 A 
ATOM     52  N   UNL     1      -3.785  11.535  11.001  1.00  0.00    -0.354 N 
ATOM     53  C   UNL     1      -2.547  13.721   7.480  1.00  0.00     0.074 A 
ATOM     54  C   UNL     1      -2.630  12.900   6.296  1.00  0.00     0.031 C 
ATOM     55  C   UNL     1      -4.441   9.740  12.163  1.00  0.00     0.029 A 
ATOM     56  C   UNL     1      -3.997  11.123  12.297  1.00  0.00     0.049 A 
ATOM     57  H   UNL     1      -3.479  12.441  10.768  1.00  0.00     0.167 HD
ATOM     58  C   UNL     1      -2.110  15.001   7.480  1.00  0.00     0.034 A 
ATOM     59  C   UNL     1      -3.850  11.790  13.459  1.00  0.00     0.034 A 
ATOM     60  C   UNL     1      -2.090  15.838   8.646  1.00  0.00     0.049 A 
ATOM     61  C   UNL     1      -3.426  13.235  13.417  1.00  0.00     0.074 A 
ATOM     62  C   UNL     1      -1.765  17.179   8.734  1.00  0.00     0.029 A 
ATOM     63  N   UNL     1      -2.403  15.414   9.927  1.00  0.00    -0.354 N 
ATOM     64  N   UNL     1      -3.143  13.985  12.379  1.00  0.00    -0.248 NA
ATOM     65  C   UNL     1      -3.345  13.939  14.704  1.00  0.00     0.031 C 
ATOM     66  C   UNL     1      -1.847  17.558  10.077  1.00  0.00     0.029 A 
ATOM     67  C   UNL     1      -2.268  16.464  10.816  1.00  0.00     0.049 A 
ATOM     68  H   UNL     1      -2.680  14.501  10.168  1.00  0.00     0.167 HD
ATOM     69  C   UNL     1      -2.896  15.256  12.884  1.00  0.00     0.074 A 
ATOM     70  C   UNL     1      -3.092  15.181  14.317  1.00  0.00     0.031 C 
ATOM     71  C   UNL     1      -2.524  16.383  12.229  1.00  0.00     0.034 A 
BRANCH  58  72
ATOM     72  C   UNL     1      -1.662  15.598   6.173  1.00  0.00     0.023 A 
ATOM     73  C   UNL     1      -2.612  15.903   5.177  1.00  0.00     0.012 A 
ATOM     74  C   UNL     1      -0.310  15.935   5.967  1.00  0.00     0.148 A 
ATOM     75  C   UNL     1      -2.221  16.514   3.987  1.00  0.00     0.002 A 
ATOM     76  C   UNL     1       0.064  16.589   4.800  1.00  0.00     0.091 A 
ATOM     77  F   UNL     1       0.579  15.613   6.917  1.00  0.00    -0.205 F 
ATOM     78  C   UNL     1      -0.887  16.869   3.805  1.00  0.00     0.022 A 
BRANCH  76  79
ATOM     79  S   UNL     1       1.739  17.164   4.505  1.00  0.00     0.127 S 
ATOM     80  O   UNL     1       2.130  16.351   3.353  1.00  0.00    -0.237 OA
ATOM     81  O   UNL     1       1.525  18.580   4.207  1.00  0.00    -0.237 OA
ATOM     82  O   UNL     1       2.480  16.899   5.729  1.00  0.00    -0.744 OA
ENDBRANCH  76  79
ENDBRANCH  58  72
BRANCH  59  83
ATOM     83  C   UNL     1      -4.152  11.128  14.761  1.00  0.00     0.023 A 
ATOM     84  C   UNL     1      -5.242  11.575  15.536  1.00  0.00     0.012 A 
ATOM     85  C   UNL     1      -3.349  10.081  15.250  1.00  0.00     0.148 A 
ATOM     86  C   UNL     1      -5.488  11.033  16.799  1.00  0.00     0.002 A 
ATOM     87  C   UNL     1      -3.637   9.504  16.481  1.00  0.00     0.091 A 
ATOM     88  F   UNL     1      -2.312   9.675  14.505  1.00  0.00    -0.205 F 
ATOM     89  C   UNL     1      -4.690   9.994  17.268  1.00  0.00     0.022 A 
BRANCH  87  90
ATOM     90  S   UNL     1      -2.740   8.078  17.102  1.00  0.00     0.127 S 
ATOM     91  O   UNL     1      -1.930   8.671  18.162  1.00  0.00    -0.237 OA
ATOM     92  O   UNL     1      -3.828   7.215  17.566  1.00  0.00    -0.237 OA
ATOM     93  O   UNL     1      -2.006   7.551  15.959  1.00  0.00    -0.744 OA
ENDBRANCH  87  90
ENDBRANCH  59  83
BRANCH  71  94
ATOM     94  C   UNL     1      -2.363  17.641  13.042  1.00  0.00     0.023 A 
ATOM     95  C   UNL     1      -1.296  17.764  13.954  1.00  0.00     0.012 A 
ATOM     96  C   UNL     1      -3.248  18.722  12.862  1.00  0.00     0.148 A 
ATOM     97  C   UNL     1      -1.145  18.923  14.714  1.00  0.00     0.002 A 
ATOM     98  C   UNL     1      -3.056  19.896  13.579  1.00  0.00     0.091 A 
ATOM     99  F   UNL     1      -4.265  18.581  12.000  1.00  0.00    -0.205 F 
ATOM    100  C   UNL     1      -2.018  19.991  14.519  1.00  0.00     0.022 A 
BRANCH  98 101
ATOM    101  S   UNL     1      -4.065  21.357  13.312  1.00  0.00     0.127 S 
ATOM    102  O   UNL     1      -4.908  21.358  14.505  1.00  0.00    -0.237 OA
ATOM    103  O   UNL     1      -3.063  22.423  13.271  1.00  0.00    -0.237 OA
ATOM    104  O   UNL     1      -4.761  21.137  12.051  1.00  0.00    -0.744 OA
ENDBRANCH  98 101
ENDBRANCH  71  94
ENDBRANCH  45  46
ENDBRANCH  37  40
ENDBRANCH  35  36
ENDBRANCH  34  35
ENDBRANCH  33  34
ENDBRANCH   1  33
TORSDOF 20
