REMARK SMILES C[C@]([NH2+]C[C@H]1Cc2ccccc2O1)(C(=O)NCCCCNC(=O)c1ccc(-c2c3nc(c(-c4cccc(S(=O)(=O)[O-])c4F)c4ccc([nH]4)c(-c4cccc(S(=O)(=O)[O-])c4F)c4nc(c(-c5cccc(S(=O)(=O)[O-])c5F)c5ccc2[nH]5)C=C4)C=C3)cc1)C(F)(F)F
REMARK SMILES IDX 18 1 17 2 16 3 14 4 15 5 2 7 1 8 87 9 88 10 89 11 90 12 3 13
REMARK SMILES IDX 4 16 5 17 6 18 13 19 7 20 12 21 8 22 11 23 9 24 10 25 19 26
REMARK SMILES IDX 20 27 21 28 22 29 23 31 24 32 25 33 86 34 26 35 85 36 27 37
REMARK SMILES IDX 28 38 29 39 79 40 30 41 84 42 78 43 80 44 31 45 83 46 77 47
REMARK SMILES IDX 76 48 32 50 64 51 44 52 63 53 45 54 48 55 62 56 81 57 46 58
REMARK SMILES IDX 47 59 61 61 82 62 49 63 33 64 34 65 42 66 35 67 37 68 43 69
REMARK SMILES IDX 36 70 38 71 39 72 40 73 41 74 65 75 66 76 74 77 67 78 69 79
REMARK SMILES IDX 75 80 68 81 70 82 71 83 72 84 73 85 50 86 51 87 59 88 52 89
REMARK SMILES IDX 54 90 60 91 53 92 55 93 56 94 57 95 58 96
REMARK H PARENT 16 6 3 14 3 15 21 30 80 49 48 60
REMARK Flexibility Score: inf
ROOT
ATOM      1  C   UNL     1      -1.433   0.402   2.609  1.00  0.00     0.023 C 
ENDROOT
BRANCH   1   2
ATOM      2  C   UNL     1      -1.206  -0.993   2.016  1.00  0.00     0.116 C 
BRANCH   2   3
ATOM      3  N   UNL     1      -1.400  -0.981   0.575  1.00  0.00    -0.350 N 
ATOM      4  C   UNL     1      -0.563  -0.994  -0.501  1.00  0.00     0.290 C 
ATOM      5  O   UNL     1      -1.122  -0.713  -1.569  1.00  0.00    -0.267 OA
ATOM      6  H   UNL     1      -2.350  -0.958   0.319  1.00  0.00     0.163 HD
BRANCH   4   7
ATOM      7  C   UNL     1       0.973  -1.250  -0.447  1.00  0.00     0.268 C 
ATOM      8  C   UNL     1       1.414  -2.307   0.578  1.00  0.00     0.101 C 
BRANCH   7   9
ATOM      9  C   UNL     1       1.279  -1.872  -1.855  1.00  0.00     0.453 C 
ATOM     10  F   UNL     1       1.083  -0.994  -2.868  1.00  0.00    -0.164 F 
ATOM     11  F   UNL     1       2.586  -2.245  -1.948  1.00  0.00    -0.164 F 
ATOM     12  F   UNL     1       0.549  -2.984  -2.102  1.00  0.00    -0.164 F 
ENDBRANCH   7   9
BRANCH   7  13
ATOM     13  N   UNL     1       1.775   0.028  -0.262  1.00  0.00    -0.323 N 
ATOM     14  H   UNL     1       1.775   0.535  -1.147  1.00  0.00     0.347 HD
ATOM     15  H   UNL     1       2.708  -0.258   0.037  1.00  0.00     0.347 HD
BRANCH  13  16
ATOM     16  C   UNL     1       1.267   0.927   0.778  1.00  0.00     0.307 C 
BRANCH  16  17
ATOM     17  C   UNL     1       2.262   2.011   1.261  1.00  0.00     0.232 C 
ATOM     18  C   UNL     1       1.536   3.148   2.012  1.00  0.00     0.090 C 
ATOM     19  O   UNL     1       3.206   1.403   2.194  1.00  0.00    -0.484 OA
ATOM     20  C   UNL     1       1.706   2.675   3.405  1.00  0.00    -0.002 A 
ATOM     21  C   UNL     1       2.696   1.706   3.434  1.00  0.00     0.123 A 
ATOM     22  C   UNL     1       1.083   3.096   4.567  1.00  0.00     0.007 A 
ATOM     23  C   UNL     1       3.101   1.116   4.613  1.00  0.00     0.047 A 
ATOM     24  C   UNL     1       1.469   2.503   5.772  1.00  0.00     0.001 A 
ATOM     25  C   UNL     1       2.473   1.519   5.795  1.00  0.00     0.004 A 
ENDBRANCH  16  17
ENDBRANCH  13  16
ENDBRANCH   7  13
ENDBRANCH   4   7
ENDBRANCH   2   3
ENDBRANCH   1   2
BRANCH   1  26
ATOM     26  C   UNL     1      -2.884   0.744   2.916  1.00  0.00     0.023 C 
BRANCH  26  27
ATOM     27  C   UNL     1      -3.504  -0.082   4.030  1.00  0.00     0.116 C 
BRANCH  27  28
ATOM     28  N   UNL     1      -2.778   0.009   5.292  1.00  0.00    -0.352 N 
ATOM     29  C   UNL     1      -3.291   0.095   6.564  1.00  0.00     0.251 C 
ATOM     30  H   UNL     1      -1.796   0.009   5.223  1.00  0.00     0.163 HD
ATOM     31  O   UNL     1      -2.547   0.268   7.526  1.00  0.00    -0.269 OA
BRANCH  29  32
ATOM     32  C   UNL     1      -4.753   0.020   6.747  1.00  0.00     0.039 A 
ATOM     33  C   UNL     1      -5.393   1.009   7.497  1.00  0.00     0.014 A 
ATOM     34  C   UNL     1      -5.493  -0.978   6.107  1.00  0.00     0.014 A 
ATOM     35  C   UNL     1      -6.788   1.040   7.541  1.00  0.00     0.010 A 
ATOM     36  C   UNL     1      -6.878  -0.890   6.078  1.00  0.00     0.010 A 
ATOM     37  C   UNL     1      -7.540   0.115   6.798  1.00  0.00    -0.014 A 
BRANCH  37  38
ATOM     38  C   UNL     1      -9.021   0.175   6.756  1.00  0.00     0.031 A 
ATOM     39  C   UNL     1      -9.831  -0.984   7.269  1.00  0.00     0.074 A 
ATOM     40  C   UNL     1      -9.631   1.218   6.159  1.00  0.00     0.049 A 
ATOM     41  N   UNL     1     -11.125  -1.161   7.243  1.00  0.00    -0.248 NA
ATOM     42  C   UNL     1      -9.084  -2.111   7.856  1.00  0.00     0.031 C 
ATOM     43  C   UNL     1      -8.950   2.354   5.533  1.00  0.00     0.029 A 
ATOM     44  N   UNL     1     -10.963   1.477   5.954  1.00  0.00    -0.354 N 
ATOM     45  C   UNL     1     -11.344  -2.429   7.766  1.00  0.00     0.074 A 
ATOM     46  C   UNL     1     -10.047  -2.996   8.062  1.00  0.00     0.031 C 
ATOM     47  C   UNL     1      -9.868   3.189   5.019  1.00  0.00     0.029 A 
ATOM     48  C   UNL     1     -11.199   2.640   5.259  1.00  0.00     0.049 A 
ATOM     49  H   UNL     1     -11.682   0.886   6.275  1.00  0.00     0.167 HD
ATOM     50  C   UNL     1     -12.519  -3.053   8.016  1.00  0.00     0.034 A 
ATOM     51  C   UNL     1     -12.358   3.201   4.861  1.00  0.00     0.034 A 
ATOM     52  C   UNL     1     -13.806  -2.457   7.784  1.00  0.00     0.049 A 
ATOM     53  C   UNL     1     -13.654   2.527   5.225  1.00  0.00     0.074 A 
ATOM     54  C   UNL     1     -15.056  -2.961   8.094  1.00  0.00     0.029 A 
ATOM     55  N   UNL     1     -14.007  -1.221   7.190  1.00  0.00    -0.354 N 
ATOM     56  N   UNL     1     -13.844   1.403   5.873  1.00  0.00    -0.248 NA
ATOM     57  C   UNL     1     -14.894   3.217   4.842  1.00  0.00     0.031 C 
ATOM     58  C   UNL     1     -16.015  -2.028   7.684  1.00  0.00     0.029 A 
ATOM     59  C   UNL     1     -15.360  -0.941   7.127  1.00  0.00     0.049 A 
ATOM     60  H   UNL     1     -13.291  -0.629   6.862  1.00  0.00     0.167 HD
ATOM     61  C   UNL     1     -15.221   1.266   6.004  1.00  0.00     0.074 A 
ATOM     62  C   UNL     1     -15.816   2.434   5.388  1.00  0.00     0.031 C 
ATOM     63  C   UNL     1     -15.930   0.256   6.565  1.00  0.00     0.034 A 
BRANCH  50  64
ATOM     64  C   UNL     1     -12.460  -4.420   8.643  1.00  0.00     0.023 A 
ATOM     65  C   UNL     1     -12.072  -4.542   9.993  1.00  0.00     0.012 A 
ATOM     66  C   UNL     1     -12.822  -5.573   7.921  1.00  0.00     0.148 A 
ATOM     67  C   UNL     1     -12.008  -5.792  10.605  1.00  0.00     0.002 A 
ATOM     68  C   UNL     1     -12.797  -6.812   8.551  1.00  0.00     0.091 A 
ATOM     69  F   UNL     1     -13.163  -5.441   6.631  1.00  0.00    -0.205 F 
ATOM     70  C   UNL     1     -12.380  -6.925   9.888  1.00  0.00     0.022 A 
BRANCH  68  71
ATOM     71  S   UNL     1     -13.328  -8.321   7.733  1.00  0.00     0.127 S 
ATOM     72  O   UNL     1     -12.050  -8.980   7.471  1.00  0.00    -0.237 OA
ATOM     73  O   UNL     1     -14.144  -8.962   8.765  1.00  0.00    -0.237 OA
ATOM     74  O   UNL     1     -14.069  -7.895   6.554  1.00  0.00    -0.744 OA
ENDBRANCH  68  71
ENDBRANCH  50  64
BRANCH  51  75
ATOM     75  C   UNL     1     -12.345   4.513   4.154  1.00  0.00     0.023 A 
ATOM     76  C   UNL     1     -12.786   5.664   4.835  1.00  0.00     0.012 A 
ATOM     77  C   UNL     1     -11.861   4.637   2.838  1.00  0.00     0.148 A 
ATOM     78  C   UNL     1     -12.774   6.911   4.209  1.00  0.00     0.002 A 
ATOM     79  C   UNL     1     -11.803   5.891   2.238  1.00  0.00     0.091 A 
ATOM     80  F   UNL     1     -11.458   3.529   2.201  1.00  0.00    -0.205 F 
ATOM     81  C   UNL     1     -12.273   7.026   2.915  1.00  0.00     0.022 A 
BRANCH  79  82
ATOM     82  S   UNL     1     -11.046   6.147   0.628  1.00  0.00     0.127 S 
ATOM     83  O   UNL     1     -12.215   6.340  -0.225  1.00  0.00    -0.237 OA
ATOM     84  O   UNL     1     -10.243   7.350   0.856  1.00  0.00    -0.237 OA
ATOM     85  O   UNL     1     -10.261   4.947   0.374  1.00  0.00    -0.744 OA
ENDBRANCH  79  82
ENDBRANCH  51  75
BRANCH  63  86
ATOM     86  C   UNL     1     -17.430   0.374   6.568  1.00  0.00     0.023 A 
ATOM     87  C   UNL     1     -18.146   0.162   5.373  1.00  0.00     0.012 A 
ATOM     88  C   UNL     1     -18.133   0.606   7.766  1.00  0.00     0.148 A 
ATOM     89  C   UNL     1     -19.539   0.205   5.367  1.00  0.00     0.002 A 
ATOM     90  C   UNL     1     -19.523   0.603   7.760  1.00  0.00     0.091 A 
ATOM     91  F   UNL     1     -17.432   0.825   8.888  1.00  0.00    -0.205 F 
ATOM     92  C   UNL     1     -20.227   0.412   6.560  1.00  0.00     0.022 A 
BRANCH  90  93
ATOM     93  S   UNL     1     -20.487   0.769   9.267  1.00  0.00     0.127 S 
ATOM     94  O   UNL     1     -20.949   2.152   9.174  1.00  0.00    -0.237 OA
ATOM     95  O   UNL     1     -21.533  -0.237   9.082  1.00  0.00    -0.237 OA
ATOM     96  O   UNL     1     -19.567   0.485  10.360  1.00  0.00    -0.744 OA
ENDBRANCH  90  93
ENDBRANCH  63  86
ENDBRANCH  37  38
ENDBRANCH  29  32
ENDBRANCH  27  28
ENDBRANCH  26  27
ENDBRANCH   1  26
TORSDOF 18
