REMARK SMILES C[C@H]1CC[C@@H]([C@H](C(=O)NCCCCNC(=O)c2ccc(-c3c4nc(c(-c5cccc(S(=O)(=O)[O-])c5F)c5ccc([nH]5)c(-c5cccc(S(=O)(=O)[O-])c5F)c5nc(c(-c6cccc(S(=O)(=O)[O-])c6F)c6ccc3[nH]6)C=C5)C=C4)cc2)[C@@H]2CCS(=O)(=O)C2)C[C@@H]1C
REMARK SMILES IDX 12 1 11 2 10 3 9 4 7 5 8 6 6 8 5 9 1 10 2 11 3 12 88 13 4 14
REMARK SMILES IDX 87 15 89 16 80 17 81 18 86 19 82 20 83 21 84 22 85 23 13 24
REMARK SMILES IDX 14 25 15 26 16 28 17 29 18 30 79 31 19 32 78 33 20 34 21 35
REMARK SMILES IDX 22 36 72 37 23 38 77 39 71 40 73 41 24 42 76 43 70 44 69 45
REMARK SMILES IDX 25 47 57 48 37 49 56 50 38 51 41 52 55 53 74 54 39 55 40 56
REMARK SMILES IDX 54 58 75 59 42 60 26 61 27 62 35 63 28 64 30 65 36 66 29 67
REMARK SMILES IDX 31 68 32 69 33 70 34 71 58 72 59 73 67 74 60 75 62 76 68 77
REMARK SMILES IDX 61 78 63 79 64 80 65 81 66 82 43 83 44 84 52 85 45 86 47 87
REMARK SMILES IDX 53 88 46 89 48 90 49 91 50 92 51 93
REMARK H PARENT 9 7 14 27 73 46 41 57
REMARK Flexibility Score: inf
ROOT
ATOM      1  C   UNL     1      -4.453  -2.207   7.187  1.00  0.00     0.023 C 
ENDROOT
BRANCH   1   2
ATOM      2  C   UNL     1      -5.235  -2.165   5.902  1.00  0.00     0.023 C 
BRANCH   2   3
ATOM      3  C   UNL     1      -4.888  -1.032   4.923  1.00  0.00     0.116 C 
BRANCH   3   4
ATOM      4  N   UNL     1      -4.048  -1.555   3.872  1.00  0.00    -0.356 N 
ATOM      5  C   UNL     1      -4.206  -1.949   2.590  1.00  0.00     0.223 C 
ATOM      6  O   UNL     1      -3.206  -2.537   2.169  1.00  0.00    -0.275 OA
ATOM      7  H   UNL     1      -3.113  -1.649   4.168  1.00  0.00     0.163 HD
BRANCH   5   8
ATOM      8  C   UNL     1      -5.398  -1.581   1.644  1.00  0.00     0.085 C 
BRANCH   8   9
ATOM      9  C   UNL     1      -4.768  -1.342   0.167  1.00  0.00     0.002 C 
ATOM     10  C   UNL     1      -6.998  -4.371  -2.008  1.00  0.00     0.008 C 
ATOM     11  C   UNL     1      -5.902  -3.303  -1.812  1.00  0.00    -0.011 C 
ATOM     12  C   UNL     1      -6.596  -1.939  -1.548  1.00  0.00     0.004 C 
ATOM     13  C   UNL     1      -4.796  -3.677  -0.781  1.00  0.00    -0.011 C 
ATOM     14  C   UNL     1      -5.748  -0.842  -0.903  1.00  0.00     0.005 C 
ATOM     15  C   UNL     1      -3.933  -2.460  -0.513  1.00  0.00     0.008 C 
ATOM     16  C   UNL     1      -3.972  -4.908  -1.154  1.00  0.00     0.008 C 
ENDBRANCH   8   9
BRANCH   8  17
ATOM     17  C   UNL     1      -6.877  -2.203   1.741  1.00  0.00     0.018 C 
ATOM     18  C   UNL     1      -7.543  -2.171   3.130  1.00  0.00     0.021 C 
ATOM     19  C   UNL     1      -7.296  -3.633   1.325  1.00  0.00     0.141 C 
ATOM     20  C   UNL     1      -7.068  -3.425   3.846  1.00  0.00     0.137 C 
ATOM     21  S   UNL     1      -7.011  -4.727   2.674  1.00  0.00     0.150 S 
ATOM     22  O   UNL     1      -5.649  -5.224   2.588  1.00  0.00    -0.229 OA
ATOM     23  O   UNL     1      -8.152  -5.589   2.846  1.00  0.00    -0.229 OA
ENDBRANCH   8  17
ENDBRANCH   5   8
ENDBRANCH   3   4
ENDBRANCH   2   3
ENDBRANCH   1   2
BRANCH   1  24
ATOM     24  C   UNL     1      -4.701  -0.995   8.043  1.00  0.00     0.116 C 
BRANCH  24  25
ATOM     25  N   UNL     1      -6.101  -0.876   8.459  1.00  0.00    -0.352 N 
ATOM     26  C   UNL     1      -6.673  -1.120   9.690  1.00  0.00     0.251 C 
ATOM     27  H   UNL     1      -6.724  -0.577   7.758  1.00  0.00     0.163 HD
ATOM     28  O   UNL     1      -7.891  -1.148   9.821  1.00  0.00    -0.269 OA
BRANCH  26  29
ATOM     29  C   UNL     1      -5.775  -1.377  10.830  1.00  0.00     0.039 A 
ATOM     30  C   UNL     1      -5.997  -2.460  11.679  1.00  0.00     0.014 A 
ATOM     31  C   UNL     1      -4.618  -0.615  10.941  1.00  0.00     0.014 A 
ATOM     32  C   UNL     1      -4.988  -2.836  12.568  1.00  0.00     0.010 A 
ATOM     33  C   UNL     1      -3.548  -1.131  11.643  1.00  0.00     0.010 A 
ATOM     34  C   UNL     1      -3.731  -2.211  12.513  1.00  0.00    -0.014 A 
BRANCH  34  35
ATOM     35  C   UNL     1      -2.597  -2.603  13.385  1.00  0.00     0.031 A 
ATOM     36  C   UNL     1      -1.912  -1.541  14.215  1.00  0.00     0.074 A 
ATOM     37  C   UNL     1      -2.119  -3.863  13.358  1.00  0.00     0.049 A 
ATOM     38  N   UNL     1      -0.842  -1.638  14.957  1.00  0.00    -0.248 NA
ATOM     39  C   UNL     1      -2.464  -0.173  14.155  1.00  0.00     0.031 C 
ATOM     40  C   UNL     1      -2.623  -4.951  12.515  1.00  0.00     0.029 A 
ATOM     41  N   UNL     1      -1.084  -4.438  14.051  1.00  0.00    -0.354 N 
ATOM     42  C   UNL     1      -0.569  -0.346  15.393  1.00  0.00     0.074 A 
ATOM     43  C   UNL     1      -1.528   0.530  14.769  1.00  0.00     0.031 C 
ATOM     44  C   UNL     1      -1.921  -6.068  12.768  1.00  0.00     0.029 A 
ATOM     45  C   UNL     1      -0.892  -5.768  13.757  1.00  0.00     0.049 A 
ATOM     46  H   UNL     1      -0.531  -3.945  14.698  1.00  0.00     0.167 HD
ATOM     47  C   UNL     1       0.359   0.074  16.281  1.00  0.00     0.034 A 
ATOM     48  C   UNL     1       0.015  -6.643  14.233  1.00  0.00     0.034 A 
ATOM     49  C   UNL     1       1.253  -0.815  16.963  1.00  0.00     0.049 A 
ATOM     50  C   UNL     1       0.997  -6.168  15.271  1.00  0.00     0.074 A 
ATOM     51  C   UNL     1       2.159  -0.521  17.963  1.00  0.00     0.029 A 
ATOM     52  N   UNL     1       1.350  -2.174  16.712  1.00  0.00    -0.354 N 
ATOM     53  N   UNL     1       1.134  -4.972  15.791  1.00  0.00    -0.248 NA
ATOM     54  C   UNL     1       1.925  -7.169  15.814  1.00  0.00     0.031 C 
ATOM     55  C   UNL     1       2.831  -1.702  18.295  1.00  0.00     0.029 A 
ATOM     56  C   UNL     1       2.311  -2.735  17.531  1.00  0.00     0.049 A 
ATOM     57  H   UNL     1       0.814  -2.667  16.050  1.00  0.00     0.167 HD
ATOM     58  C   UNL     1       2.135  -5.085  16.749  1.00  0.00     0.074 A 
ATOM     59  C   UNL     1       2.554  -6.472  16.750  1.00  0.00     0.031 C 
ATOM     60  C   UNL     1       2.671  -4.129  17.547  1.00  0.00     0.034 A 
BRANCH  47  61
ATOM     61  C   UNL     1       0.404   1.544  16.605  1.00  0.00     0.023 A 
ATOM     62  C   UNL     1      -0.664   2.145  17.306  1.00  0.00     0.012 A 
ATOM     63  C   UNL     1       1.517   2.326  16.244  1.00  0.00     0.148 A 
ATOM     64  C   UNL     1      -0.645   3.507  17.601  1.00  0.00     0.002 A 
ATOM     65  C   UNL     1       1.554   3.671  16.591  1.00  0.00     0.091 A 
ATOM     66  F   UNL     1       2.510   1.745  15.556  1.00  0.00    -0.205 F 
ATOM     67  C   UNL     1       0.468   4.266  17.255  1.00  0.00     0.022 A 
BRANCH  65  68
ATOM     68  S   UNL     1       2.977   4.716  16.268  1.00  0.00     0.127 S 
ATOM     69  O   UNL     1       2.441   5.642  15.271  1.00  0.00    -0.237 OA
ATOM     70  O   UNL     1       3.223   5.310  17.582  1.00  0.00    -0.237 OA
ATOM     71  O   UNL     1       4.029   3.830  15.792  1.00  0.00    -0.744 OA
ENDBRANCH  65  68
ENDBRANCH  47  61
BRANCH  48  72
ATOM     72  C   UNL     1      -0.004  -8.066  13.788  1.00  0.00     0.023 A 
ATOM     73  C   UNL     1      -0.388  -9.073  14.697  1.00  0.00     0.012 A 
ATOM     74  C   UNL     1       0.338  -8.426  12.471  1.00  0.00     0.148 A 
ATOM     75  C   UNL     1      -0.393 -10.415  14.314  1.00  0.00     0.002 A 
ATOM     76  C   UNL     1       0.277  -9.759  12.080  1.00  0.00     0.091 A 
ATOM     77  F   UNL     1       0.706  -7.455  11.624  1.00  0.00    -0.205 F 
ATOM     78  C   UNL     1      -0.069 -10.757  13.004  1.00  0.00     0.022 A 
BRANCH  76  79
ATOM     79  S   UNL     1       0.556 -10.280  10.384  1.00  0.00     0.127 S 
ATOM     80  O   UNL     1       1.814 -11.014  10.500  1.00  0.00    -0.237 OA
ATOM     81  O   UNL     1      -0.621 -11.110  10.129  1.00  0.00    -0.237 OA
ATOM     82  O   UNL     1       0.610  -9.053   9.601  1.00  0.00    -0.744 OA
ENDBRANCH  76  79
ENDBRANCH  48  72
BRANCH  60  83
ATOM     83  C   UNL     1       3.733  -4.551  18.524  1.00  0.00     0.023 A 
ATOM     84  C   UNL     1       5.019  -4.896  18.064  1.00  0.00     0.012 A 
ATOM     85  C   UNL     1       3.475  -4.520  19.909  1.00  0.00     0.148 A 
ATOM     86  C   UNL     1       6.023  -5.240  18.967  1.00  0.00     0.002 A 
ATOM     87  C   UNL     1       4.496  -4.808  20.804  1.00  0.00     0.091 A 
ATOM     88  F   UNL     1       2.240  -4.201  20.322  1.00  0.00    -0.205 F 
ATOM     89  C   UNL     1       5.765  -5.183  20.335  1.00  0.00     0.022 A 
BRANCH  87  90
ATOM     90  S   UNL     1       4.287  -4.657  22.581  1.00  0.00     0.127 S 
ATOM     91  O   UNL     1       4.317  -6.056  23.004  1.00  0.00    -0.237 OA
ATOM     92  O   UNL     1       5.464  -3.877  22.964  1.00  0.00    -0.237 OA
ATOM     93  O   UNL     1       3.017  -3.973  22.781  1.00  0.00    -0.744 OA
ENDBRANCH  87  90
ENDBRANCH  60  83
ENDBRANCH  34  35
ENDBRANCH  26  29
ENDBRANCH  24  25
ENDBRANCH   1  24
TORSDOF 16
