REMARK SMILES CS(=O)(=O)c1ccc(C2=NN(c3ccc(C(=O)NCCCCNC(=O)c4ccc(-c5c6nc(c(-c7cccc(S(=O)(=O)[O-])c7F)c7ccc([nH]7)c(-c7cccc(S(=O)(=O)[O-])c7F)c7nc(c(-c8cccc(S(=O)(=O)[O-])c8F)c8ccc5[nH]8)C=C7)C=C6)cc4)cc3)[C@H](c3ccc(Cl)cc3)C2)cc1
REMARK SMILES IDX 20 1 19 2 18 3 16 4 17 5 15 7 12 8 13 9 90 10 14 11 89 12
REMARK SMILES IDX 11 13 9 14 10 15 99 16 91 17 8 18 5 19 6 20 101 21 7 22
REMARK SMILES IDX 100 23 2 24 1 25 3 26 4 27 92 28 93 29 98 30 94 31 97 32
REMARK SMILES IDX 95 33 96 34 21 35 22 36 23 37 24 38 25 40 26 41 27 42 88 43
REMARK SMILES IDX 28 44 87 45 29 46 30 47 31 48 81 49 32 50 86 51 80 52 82 53
REMARK SMILES IDX 33 54 85 55 79 56 78 57 34 59 66 60 46 61 65 62 47 63 50 64
REMARK SMILES IDX 64 65 83 66 48 67 49 68 63 70 84 71 51 72 35 73 36 74 44 75
REMARK SMILES IDX 37 76 39 77 45 78 38 79 40 80 41 81 42 82 43 83 67 84 68 85
REMARK SMILES IDX 76 86 69 87 71 88 77 89 70 90 72 91 73 92 74 93 75 94 52 95
REMARK SMILES IDX 53 96 61 97 54 98 56 99 62 100 55 101 57 102 58 103 59 104
REMARK SMILES IDX 60 105
REMARK H PARENT 18 6 23 39 82 58 50 69
REMARK Flexibility Score: inf
ROOT
ATOM      1  C   UNL     1       7.399   8.787 -10.220  1.00  0.00     0.023 C 
ENDROOT
BRANCH   1   2
ATOM      2  C   UNL     1       6.255   9.746  -9.883  1.00  0.00     0.116 C 
BRANCH   2   3
ATOM      3  N   UNL     1       5.097   9.487 -10.718  1.00  0.00    -0.352 N 
ATOM      4  C   UNL     1       3.925   8.823 -10.451  1.00  0.00     0.251 C 
ATOM      5  O   UNL     1       3.039   8.810 -11.304  1.00  0.00    -0.269 OA
ATOM      6  H   UNL     1       5.162   9.849 -11.632  1.00  0.00     0.163 HD
BRANCH   4   7
ATOM      7  C   UNL     1       3.666   8.188  -9.133  1.00  0.00     0.039 A 
ATOM      8  C   UNL     1       3.089   7.199  -6.564  1.00  0.00     0.060 A 
ATOM      9  C   UNL     1       2.077   7.756  -7.350  1.00  0.00     0.029 A 
ATOM     10  C   UNL     1       4.364   7.056  -7.114  1.00  0.00     0.029 A 
ATOM     11  C   UNL     1       2.361   8.245  -8.629  1.00  0.00     0.016 A 
ATOM     12  C   UNL     1       4.647   7.531  -8.392  1.00  0.00     0.016 A 
BRANCH   8  13
ATOM     13  N   UNL     1       2.860   6.794  -5.265  1.00  0.00    -0.257 N 
ATOM     14  C   UNL     1       2.118   5.461  -3.804  1.00  0.00     0.071 C 
ATOM     15  N   UNL     1       2.554   5.505  -5.022  1.00  0.00    -0.176 NA
ATOM     16  C   UNL     1       2.048   6.787  -3.091  1.00  0.00     0.091 C 
ATOM     17  C   UNL     1       2.794   7.679  -4.104  1.00  0.00     0.144 C 
BRANCH  14  18
ATOM     18  C   UNL     1       1.688   4.194  -3.194  1.00  0.00    -0.002 A 
ATOM     19  C   UNL     1       0.842   1.723  -2.246  1.00  0.00     0.067 A 
ATOM     20  C   UNL     1       1.957   1.788  -3.083  1.00  0.00     0.021 A 
ATOM     21  C   UNL     1       0.141   2.882  -1.888  1.00  0.00     0.021 A 
ATOM     22  C   UNL     1       2.374   3.028  -3.561  1.00  0.00     0.011 A 
ATOM     23  C   UNL     1       0.574   4.127  -2.354  1.00  0.00     0.011 A 
BRANCH  19  24
ATOM     24  S   UNL     1       0.264   0.139  -1.684  1.00  0.00     0.175 S 
ATOM     25  C   UNL     1       0.934   0.026  -0.047  1.00  0.00     0.163 C 
ATOM     26  O   UNL     1       0.892  -0.882  -2.494  1.00  0.00    -0.224 OA
ATOM     27  O   UNL     1      -1.183   0.222  -1.574  1.00  0.00    -0.224 OA
ENDBRANCH  19  24
ENDBRANCH  14  18
BRANCH  17  28
ATOM     28  C   UNL     1       4.192   8.179  -3.730  1.00  0.00    -0.023 A 
ATOM     29  C   UNL     1       4.964   7.655  -2.681  1.00  0.00     0.007 A 
ATOM     30  C   UNL     1       4.769   9.200  -4.516  1.00  0.00     0.007 A 
ATOM     31  C   UNL     1       6.254   8.141  -2.423  1.00  0.00     0.021 A 
ATOM     32  C   UNL     1       6.067   9.664  -4.281  1.00  0.00     0.021 A 
ATOM     33  C   UNL     1       6.803   9.135  -3.228  1.00  0.00     0.041 A 
ATOM     34  Cl  UNL     1       8.398   9.703  -2.924  1.00  0.00    -0.084 Cl
ENDBRANCH  17  28
ENDBRANCH   8  13
ENDBRANCH   4   7
ENDBRANCH   2   3
ENDBRANCH   1   2
BRANCH   1  35
ATOM     35  C   UNL     1       8.156   9.144 -11.497  1.00  0.00     0.023 C 
BRANCH  35  36
ATOM     36  C   UNL     1       8.882  10.480 -11.453  1.00  0.00     0.116 C 
BRANCH  36  37
ATOM     37  N   UNL     1       9.875  10.563 -10.388  1.00  0.00    -0.352 N 
ATOM     38  C   UNL     1      11.098  11.192 -10.426  1.00  0.00     0.251 C 
ATOM     39  H   UNL     1       9.642  10.116  -9.542  1.00  0.00     0.163 HD
ATOM     40  O   UNL     1      11.886  11.095  -9.492  1.00  0.00    -0.269 OA
BRANCH  38  41
ATOM     41  C   UNL     1      11.454  11.953 -11.639  1.00  0.00     0.039 A 
ATOM     42  C   UNL     1      12.627  11.631 -12.324  1.00  0.00     0.014 A 
ATOM     43  C   UNL     1      10.565  12.903 -12.148  1.00  0.00     0.014 A 
ATOM     44  C   UNL     1      12.871  12.210 -13.570  1.00  0.00     0.010 A 
ATOM     45  C   UNL     1      10.772  13.415 -13.422  1.00  0.00     0.010 A 
ATOM     46  C   UNL     1      11.923  13.070 -14.148  1.00  0.00    -0.014 A 
BRANCH  46  47
ATOM     47  C   UNL     1      12.093  13.611 -15.521  1.00  0.00     0.031 A 
ATOM     48  C   UNL     1      12.171  15.097 -15.734  1.00  0.00     0.074 A 
ATOM     49  C   UNL     1      12.054  12.776 -16.579  1.00  0.00     0.049 A 
ATOM     50  N   UNL     1      12.187  15.771 -16.854  1.00  0.00    -0.248 NA
ATOM     51  C   UNL     1      12.203  15.938 -14.526  1.00  0.00     0.031 C 
ATOM     52  C   UNL     1      11.903  11.321 -16.506  1.00  0.00     0.029 A 
ATOM     53  N   UNL     1      12.097  13.037 -17.926  1.00  0.00    -0.354 N 
ATOM     54  C   UNL     1      12.192  17.111 -16.488  1.00  0.00     0.074 A 
ATOM     55  C   UNL     1      12.137  17.155 -15.043  1.00  0.00     0.031 C 
ATOM     56  C   UNL     1      11.855  10.821 -17.750  1.00  0.00     0.029 A 
ATOM     57  C   UNL     1      11.932  11.918 -18.709  1.00  0.00     0.049 A 
ATOM     58  H   UNL     1      12.232  13.940 -18.297  1.00  0.00     0.167 HD
ATOM     59  C   UNL     1      12.264  18.206 -17.281  1.00  0.00     0.034 A 
ATOM     60  C   UNL     1      11.830  11.791 -20.047  1.00  0.00     0.034 A 
ATOM     61  C   UNL     1      12.348  18.155 -18.715  1.00  0.00     0.049 A 
ATOM     62  C   UNL     1      11.936  13.020 -20.909  1.00  0.00     0.074 A 
ATOM     63  C   UNL     1      12.499  19.203 -19.605  1.00  0.00     0.029 A 
ATOM     64  N   UNL     1      12.277  16.995 -19.471  1.00  0.00    -0.354 N 
ATOM     65  N   UNL     1      12.085  14.271 -20.545  1.00  0.00    -0.248 NA
ATOM     66  C   UNL     1      11.897  12.819 -22.364  1.00  0.00     0.031 C 
ATOM     67  C   UNL     1      12.492  18.679 -20.901  1.00  0.00     0.029 A 
ATOM     68  C   UNL     1      12.374  17.300 -20.817  1.00  0.00     0.049 A 
ATOM     69  H   UNL     1      12.172  16.088 -19.104  1.00  0.00     0.167 HD
ATOM     70  C   UNL     1      12.197  15.000 -21.724  1.00  0.00     0.074 A 
ATOM     71  C   UNL     1      12.113  14.049 -22.812  1.00  0.00     0.031 C 
ATOM     72  C   UNL     1      12.345  16.338 -21.889  1.00  0.00     0.034 A 
BRANCH  59  73
ATOM     73  C   UNL     1      12.303  19.552 -16.604  1.00  0.00     0.023 A 
ATOM     74  C   UNL     1      13.442  19.925 -15.860  1.00  0.00     0.012 A 
ATOM     75  C   UNL     1      11.236  20.462 -16.733  1.00  0.00     0.148 A 
ATOM     76  C   UNL     1      13.500  21.161 -15.217  1.00  0.00     0.002 A 
ATOM     77  C   UNL     1      11.322  21.712 -16.131  1.00  0.00     0.091 A 
ATOM     78  F   UNL     1      10.153  20.085 -17.427  1.00  0.00    -0.205 F 
ATOM     79  C   UNL     1      12.445  22.057 -15.361  1.00  0.00     0.022 A 
BRANCH  77  80
ATOM     80  S   UNL     1      10.055  22.970 -16.325  1.00  0.00     0.127 S 
ATOM     81  O   UNL     1       9.460  22.997 -14.989  1.00  0.00    -0.237 OA
ATOM     82  O   UNL     1      10.845  24.154 -16.663  1.00  0.00    -0.237 OA
ATOM     83  O   UNL     1       9.180  22.499 -17.390  1.00  0.00    -0.744 OA
ENDBRANCH  77  80
ENDBRANCH  59  73
BRANCH  60  84
ATOM     84  C   UNL     1      11.658  10.441 -20.654  1.00  0.00     0.023 A 
ATOM     85  C   UNL     1      12.716   9.867 -21.386  1.00  0.00     0.012 A 
ATOM     86  C   UNL     1      10.466   9.711 -20.485  1.00  0.00     0.148 A 
ATOM     87  C   UNL     1      12.578   8.605 -21.966  1.00  0.00     0.002 A 
ATOM     88  C   UNL     1      10.356   8.431 -21.015  1.00  0.00     0.091 A 
ATOM     89  F   UNL     1       9.468  10.278 -19.791  1.00  0.00    -0.205 F 
ATOM     90  C   UNL     1      11.403   7.884 -21.772  1.00  0.00     0.022 A 
BRANCH  88  91
ATOM     91  S   UNL     1       8.935   7.377 -20.706  1.00  0.00     0.127 S 
ATOM     92  O   UNL     1       8.326   7.300 -22.030  1.00  0.00    -0.237 OA
ATOM     93  O   UNL     1       9.574   6.142 -20.247  1.00  0.00    -0.237 OA
ATOM     94  O   UNL     1       8.151   8.062 -19.687  1.00  0.00    -0.744 OA
ENDBRANCH  88  91
ENDBRANCH  60  84
BRANCH  72  95
ATOM     95  C   UNL     1      12.486  16.862 -23.294  1.00  0.00     0.023 A 
ATOM     96  C   UNL     1      11.369  16.895 -24.152  1.00  0.00     0.012 A 
ATOM     97  C   UNL     1      13.711  17.405 -23.731  1.00  0.00     0.148 A 
ATOM     98  C   UNL     1      11.477  17.435 -25.433  1.00  0.00     0.002 A 
ATOM     99  C   UNL     1      13.797  17.989 -24.988  1.00  0.00     0.091 A 
ATOM    100  F   UNL     1      14.765  17.348 -22.904  1.00  0.00    -0.205 F 
ATOM    101  C   UNL     1      12.685  17.994 -25.846  1.00  0.00     0.022 A 
BRANCH  99 102
ATOM    102  S   UNL     1      15.280  18.821 -25.565  1.00  0.00     0.127 S 
ATOM    103  O   UNL     1      15.742  17.914 -26.615  1.00  0.00    -0.237 OA
ATOM    104  O   UNL     1      14.750  20.096 -26.050  1.00  0.00    -0.237 OA
ATOM    105  O   UNL     1      16.158  18.931 -24.408  1.00  0.00    -0.744 OA
ENDBRANCH  99 102
ENDBRANCH  72  95
ENDBRANCH  46  47
ENDBRANCH  38  41
ENDBRANCH  36  37
ENDBRANCH  35  36
ENDBRANCH   1  35
TORSDOF 18
