REMARK SMILES CC/C(C(=O)NCCCCNC(=O)c1ccc(-c2c3nc(c(-c4cccc(S(=O)(=O)[O-])c4F)c4ccc([nH]4)c(-c4cccc(S(=O)(=O)[O-])c4F)c4nc(c(-c5cccc(S(=O)(=O)[O-])c5F)c5ccc2[nH]5)C=C4)C=C3)cc1)=C1\CCc2ccccc21
REMARK SMILES IDX 9 1 8 2 7 3 6 4 4 5 5 6 3 8 77 9 78 10 85 11 79 12 80 13
REMARK SMILES IDX 84 14 81 15 83 16 82 17 2 18 1 19 10 20 11 21 12 22 13 24
REMARK SMILES IDX 14 25 15 26 76 27 16 28 75 29 17 30 18 31 19 32 69 33 20 34
REMARK SMILES IDX 74 35 68 36 70 37 21 38 73 39 67 40 66 41 22 43 54 44 34 45
REMARK SMILES IDX 53 46 35 47 38 48 52 49 71 50 36 51 37 52 51 54 72 55 39 56
REMARK SMILES IDX 23 57 24 58 32 59 25 60 27 61 33 62 26 63 28 64 29 65 30 66
REMARK SMILES IDX 31 67 55 68 56 69 64 70 57 71 59 72 65 73 58 74 60 75 61 76
REMARK SMILES IDX 62 77 63 78 40 79 41 80 49 81 42 82 44 83 50 84 43 85 45 86
REMARK SMILES IDX 46 87 47 88 48 89
REMARK H PARENT 6 7 11 23 70 42 38 53
REMARK Flexibility Score: inf
ROOT
ATOM      1  C   UNL     1       1.876  -4.717   6.485  1.00  0.00     0.023 C 
ENDROOT
BRANCH   1   2
ATOM      2  C   UNL     1       1.316  -3.674   5.529  1.00  0.00     0.023 C 
BRANCH   2   3
ATOM      3  C   UNL     1       2.264  -3.166   4.427  1.00  0.00     0.116 C 
BRANCH   3   4
ATOM      4  N   UNL     1       1.645  -3.299   3.114  1.00  0.00    -0.352 N 
ATOM      5  C   UNL     1       0.584  -2.584   2.628  1.00  0.00     0.247 C 
ATOM      6  O   UNL     1      -0.431  -3.205   2.303  1.00  0.00    -0.270 OA
ATOM      7  H   UNL     1       2.031  -3.975   2.512  1.00  0.00     0.163 HD
BRANCH   5   8
ATOM      8  C   UNL     1       0.796  -1.188   2.076  1.00  0.00     0.020 C 
ATOM      9  C   UNL     1       0.993  -0.067   2.808  1.00  0.00    -0.031 C 
ATOM     10  C   UNL     1       1.277   1.339   2.302  1.00  0.00     0.041 C 
ATOM     11  C   UNL     1       1.091   0.112   4.268  1.00  0.00    -0.019 A 
ATOM     12  C   UNL     1       2.276   1.943   3.294  1.00  0.00     0.041 C 
ATOM     13  C   UNL     1       1.916   1.210   4.540  1.00  0.00    -0.040 A 
ATOM     14  C   UNL     1       0.470  -0.535   5.317  1.00  0.00     0.009 A 
ATOM     15  C   UNL     1       2.309   1.536   5.830  1.00  0.00     0.004 A 
ATOM     16  C   UNL     1       0.839  -0.207   6.631  1.00  0.00     0.001 A 
ATOM     17  C   UNL     1       1.787   0.792   6.883  1.00  0.00     0.000 A 
BRANCH   8  18
ATOM     18  C   UNL     1       0.628  -1.292   0.553  1.00  0.00     0.038 C 
ATOM     19  C   UNL     1       0.961  -0.145  -0.390  1.00  0.00     0.009 C 
ENDBRANCH   8  18
ENDBRANCH   5   8
ENDBRANCH   3   4
ENDBRANCH   2   3
ENDBRANCH   1   2
BRANCH   1  20
ATOM     20  C   UNL     1       3.168  -4.350   7.198  1.00  0.00     0.116 C 
BRANCH  20  21
ATOM     21  N   UNL     1       3.135  -3.108   7.962  1.00  0.00    -0.352 N 
ATOM     22  C   UNL     1       3.728  -2.842   9.182  1.00  0.00     0.251 C 
ATOM     23  H   UNL     1       2.626  -2.367   7.560  1.00  0.00     0.163 HD
ATOM     24  O   UNL     1       3.592  -1.744   9.717  1.00  0.00    -0.269 OA
BRANCH  22  25
ATOM     25  C   UNL     1       4.482  -3.921   9.865  1.00  0.00     0.039 A 
ATOM     26  C   UNL     1       4.174  -4.233  11.191  1.00  0.00     0.014 A 
ATOM     27  C   UNL     1       5.394  -4.703   9.155  1.00  0.00     0.014 A 
ATOM     28  C   UNL     1       4.681  -5.408  11.757  1.00  0.00     0.010 A 
ATOM     29  C   UNL     1       5.802  -5.925   9.679  1.00  0.00     0.010 A 
ATOM     30  C   UNL     1       5.440  -6.302  10.980  1.00  0.00    -0.014 A 
BRANCH  30  31
ATOM     31  C   UNL     1       5.806  -7.654  11.485  1.00  0.00     0.031 A 
ATOM     32  C   UNL     1       7.249  -8.084  11.552  1.00  0.00     0.074 A 
ATOM     33  C   UNL     1       4.832  -8.542  11.774  1.00  0.00     0.049 A 
ATOM     34  N   UNL     1       7.749  -9.235  11.924  1.00  0.00    -0.248 NA
ATOM     35  C   UNL     1       8.260  -7.113  11.103  1.00  0.00     0.031 C 
ATOM     36  C   UNL     1       3.393  -8.302  11.626  1.00  0.00     0.029 A 
ATOM     37  N   UNL     1       4.900  -9.836  12.231  1.00  0.00    -0.354 N 
ATOM     38  C   UNL     1       9.119  -9.140  11.714  1.00  0.00     0.074 A 
ATOM     39  C   UNL     1       9.368  -7.838  11.138  1.00  0.00     0.031 C 
ATOM     40  C   UNL     1       2.718  -9.398  12.008  1.00  0.00     0.029 A 
ATOM     41  C   UNL     1       3.671 -10.428  12.409  1.00  0.00     0.049 A 
ATOM     42  H   UNL     1       5.751 -10.296  12.415  1.00  0.00     0.167 HD
ATOM     43  C   UNL     1      10.091 -10.035  12.013  1.00  0.00     0.034 A 
ATOM     44  C   UNL     1       3.344 -11.656  12.859  1.00  0.00     0.034 A 
ATOM     45  C   UNL     1       9.850 -11.301  12.649  1.00  0.00     0.049 A 
ATOM     46  C   UNL     1       4.444 -12.590  13.287  1.00  0.00     0.074 A 
ATOM     47  C   UNL     1      10.771 -12.232  13.094  1.00  0.00     0.029 A 
ATOM     48  N   UNL     1       8.594 -11.813  12.937  1.00  0.00    -0.354 N 
ATOM     49  N   UNL     1       5.741 -12.405  13.257  1.00  0.00    -0.248 NA
ATOM     50  C   UNL     1       4.034 -13.884  13.853  1.00  0.00     0.031 C 
ATOM     51  C   UNL     1      10.071 -13.311  13.646  1.00  0.00     0.029 A 
ATOM     52  C   UNL     1       8.714 -13.046  13.556  1.00  0.00     0.049 A 
ATOM     53  H   UNL     1       7.741 -11.366  12.731  1.00  0.00     0.167 HD
ATOM     54  C   UNL     1       6.302 -13.542  13.827  1.00  0.00     0.074 A 
ATOM     55  C   UNL     1       5.200 -14.397  14.221  1.00  0.00     0.031 C 
ATOM     56  C   UNL     1       7.610 -13.861  13.991  1.00  0.00     0.034 A 
BRANCH  43  57
ATOM     57  C   UNL     1      11.516  -9.635  11.728  1.00  0.00     0.023 A 
ATOM     58  C   UNL     1      12.123  -8.638  12.520  1.00  0.00     0.012 A 
ATOM     59  C   UNL     1      12.267 -10.264  10.716  1.00  0.00     0.148 A 
ATOM     60  C   UNL     1      13.439  -8.243  12.284  1.00  0.00     0.002 A 
ATOM     61  C   UNL     1      13.593  -9.896  10.515  1.00  0.00     0.091 A 
ATOM     62  F   UNL     1      11.668 -11.194   9.958  1.00  0.00    -0.205 F 
ATOM     63  C   UNL     1      14.176  -8.878  11.289  1.00  0.00     0.022 A 
BRANCH  61  64
ATOM     64  S   UNL     1      14.651 -10.705   9.310  1.00  0.00     0.127 S 
ATOM     65  O   UNL     1      14.760  -9.678   8.275  1.00  0.00    -0.237 OA
ATOM     66  O   UNL     1      15.877 -10.930  10.076  1.00  0.00    -0.237 OA
ATOM     67  O   UNL     1      13.952 -11.920   8.916  1.00  0.00    -0.744 OA
ENDBRANCH  61  64
ENDBRANCH  43  57
BRANCH  44  68
ATOM     68  C   UNL     1       1.911 -12.032  13.030  1.00  0.00     0.023 A 
ATOM     69  C   UNL     1       1.381 -12.140  14.331  1.00  0.00     0.012 A 
ATOM     70  C   UNL     1       1.065 -12.249  11.926  1.00  0.00     0.148 A 
ATOM     71  C   UNL     1       0.046 -12.489  14.532  1.00  0.00     0.002 A 
ATOM     72  C   UNL     1      -0.279 -12.544  12.132  1.00  0.00     0.091 A 
ATOM     73  F   UNL     1       1.587 -12.155  10.695  1.00  0.00    -0.205 F 
ATOM     74  C   UNL     1      -0.787 -12.681  13.433  1.00  0.00     0.022 A 
BRANCH  72  75
ATOM     75  S   UNL     1      -1.451 -12.674  10.776  1.00  0.00     0.127 S 
ATOM     76  O   UNL     1      -1.661 -14.117  10.698  1.00  0.00    -0.237 OA
ATOM     77  O   UNL     1      -2.593 -11.912  11.284  1.00  0.00    -0.237 OA
ATOM     78  O   UNL     1      -0.788 -12.063   9.632  1.00  0.00    -0.744 OA
ENDBRANCH  72  75
ENDBRANCH  44  68
BRANCH  56  79
ATOM     79  C   UNL     1       7.926 -15.180  14.643  1.00  0.00     0.023 A 
ATOM     80  C   UNL     1       7.724 -16.377  13.926  1.00  0.00     0.012 A 
ATOM     81  C   UNL     1       8.477 -15.234  15.937  1.00  0.00     0.148 A 
ATOM     82  C   UNL     1       8.031 -17.609  14.502  1.00  0.00     0.002 A 
ATOM     83  C   UNL     1       8.824 -16.463  16.487  1.00  0.00     0.091 A 
ATOM     84  F   UNL     1       8.642 -14.088  16.614  1.00  0.00    -0.205 F 
ATOM     85  C   UNL     1       8.591 -17.651  15.777  1.00  0.00     0.022 A 
BRANCH  83  86
ATOM     86  S   UNL     1       9.637 -16.593  18.085  1.00  0.00     0.127 S 
ATOM     87  O   UNL     1       8.520 -16.941  18.961  1.00  0.00    -0.237 OA
ATOM     88  O   UNL     1      10.598 -17.675  17.864  1.00  0.00    -0.237 OA
ATOM     89  O   UNL     1      10.246 -15.291  18.322  1.00  0.00    -0.744 OA
ENDBRANCH  83  86
ENDBRANCH  56  79
ENDBRANCH  30  31
ENDBRANCH  22  25
ENDBRANCH  20  21
ENDBRANCH   1  20
TORSDOF 15
