REMARK SMILES CC1=C(C)C[C@@H](C(=O)NCCCCNC(=O)c2ccc(-c3c4nc(c(-c5cccc(S(=O)(=O)[O-])c5F)c5ccc([nH]5)c(-c5cccc(S(=O)(=O)[O-])c5F)c5nc(c(-c6cccc(S(=O)(=O)[O-])c6F)c6ccc3[nH]6)C=C5)C=C4)cc2)[C@@H](C(=O)N2CCN(c3cccc(C(F)(F)F)c3)CC2)C1
REMARK SMILES IDX 11 1 10 2 9 3 7 4 8 5 6 7 1 8 2 9 3 10 99 11 4 12 5 13 80 14
REMARK SMILES IDX 81 15 82 16 83 17 84 18 98 19 85 20 97 21 86 22 87 23 88 24
REMARK SMILES IDX 96 25 89 26 91 27 90 28 92 29 93 30 94 31 95 32 12 33 13 34
REMARK SMILES IDX 14 35 15 36 16 38 17 39 18 40 79 41 19 42 78 43 20 44 21 45
REMARK SMILES IDX 22 46 72 47 23 48 77 49 71 50 73 51 24 52 76 53 70 54 69 55
REMARK SMILES IDX 25 57 57 58 37 59 56 60 38 61 41 62 55 63 74 64 39 65 40 66
REMARK SMILES IDX 54 68 75 69 42 70 26 71 27 72 35 73 28 74 30 75 36 76 29 77
REMARK SMILES IDX 31 78 32 79 33 80 34 81 58 82 59 83 67 84 60 85 62 86 68 87
REMARK SMILES IDX 61 88 63 89 64 90 65 91 66 92 43 93 44 94 52 95 45 96 47 97
REMARK SMILES IDX 53 98 46 99 48 100 49 101 50 102 51 103
REMARK H PARENT 9 6 14 37 73 56 41 67
REMARK Flexibility Score: inf
ROOT
ATOM      1  C   UNL     1       3.309  -0.849   3.118  1.00  0.00     0.023 C 
ENDROOT
BRANCH   1   2
ATOM      2  C   UNL     1       2.853  -2.294   3.146  1.00  0.00     0.116 C 
BRANCH   2   3
ATOM      3  N   UNL     1       2.066  -2.593   4.320  1.00  0.00    -0.356 N 
ATOM      4  C   UNL     1       0.733  -2.515   4.562  1.00  0.00     0.224 C 
ATOM      5  O   UNL     1       0.331  -3.042   5.606  1.00  0.00    -0.275 OA
ATOM      6  H   UNL     1       2.595  -2.912   5.087  1.00  0.00     0.163 HD
BRANCH   4   7
ATOM      7  C   UNL     1      -0.285  -1.910   3.578  1.00  0.00     0.095 C 
ATOM      8  C   UNL     1       0.703  -0.168  -0.402  1.00  0.00     0.039 C 
ATOM      9  C   UNL     1       0.244  -0.852   0.863  1.00  0.00    -0.074 C 
ATOM     10  C   UNL     1       0.151  -2.182   1.024  1.00  0.00    -0.074 C 
ATOM     11  C   UNL     1      -0.080   0.114   1.961  1.00  0.00     0.045 C 
ATOM     12  C   UNL     1       0.602  -3.190  -0.002  1.00  0.00     0.039 C 
ATOM     13  C   UNL     1      -0.370  -2.778   2.308  1.00  0.00     0.045 C 
ATOM     14  C   UNL     1      -0.365  -0.359   3.393  1.00  0.00     0.095 C 
BRANCH  14  15
ATOM     15  C   UNL     1       0.372   0.439   4.503  1.00  0.00     0.226 C 
ATOM     16  O   UNL     1       0.502  -0.062   5.623  1.00  0.00    -0.275 OA
ATOM     17  N   UNL     1       0.897   1.702   4.277  1.00  0.00    -0.339 N 
ATOM     18  C   UNL     1       2.013   2.142   5.131  1.00  0.00     0.141 C 
ATOM     19  C   UNL     1       0.385   2.781   3.410  1.00  0.00     0.141 C 
ATOM     20  C   UNL     1       3.143   2.745   4.281  1.00  0.00     0.138 C 
ATOM     21  C   UNL     1       1.507   3.412   2.537  1.00  0.00     0.138 C 
ATOM     22  N   UNL     1       2.629   3.804   3.397  1.00  0.00    -0.368 N 
BRANCH  22  23
ATOM     23  C   UNL     1       3.638   4.617   2.896  1.00  0.00     0.037 A 
ATOM     24  C   UNL     1       4.614   4.176   1.996  1.00  0.00     0.026 A 
ATOM     25  C   UNL     1       3.776   5.886   3.463  1.00  0.00     0.039 A 
ATOM     26  C   UNL     1       5.722   4.976   1.699  1.00  0.00     0.003 A 
ATOM     27  C   UNL     1       4.884   6.698   3.187  1.00  0.00     0.058 A 
ATOM     28  C   UNL     1       5.862   6.228   2.299  1.00  0.00     0.013 A 
BRANCH  27  29
ATOM     29  C   UNL     1       5.033   8.031   3.871  1.00  0.00     0.416 C 
ATOM     30  F   UNL     1       6.184   8.130   4.589  1.00  0.00    -0.166 F 
ATOM     31  F   UNL     1       5.056   9.066   2.984  1.00  0.00    -0.166 F 
ATOM     32  F   UNL     1       4.022   8.317   4.739  1.00  0.00    -0.166 F 
ENDBRANCH  27  29
ENDBRANCH  22  23
ENDBRANCH  14  15
ENDBRANCH   4   7
ENDBRANCH   2   3
ENDBRANCH   1   2
BRANCH   1  33
ATOM     33  C   UNL     1       4.534  -0.620   3.994  1.00  0.00     0.023 C 
BRANCH  33  34
ATOM     34  C   UNL     1       5.844  -0.813   3.253  1.00  0.00     0.116 C 
BRANCH  34  35
ATOM     35  N   UNL     1       6.006   0.062   2.092  1.00  0.00    -0.352 N 
ATOM     36  C   UNL     1       7.060   0.869   1.718  1.00  0.00     0.251 C 
ATOM     37  H   UNL     1       5.237   0.078   1.478  1.00  0.00     0.163 HD
ATOM     38  O   UNL     1       6.959   1.577   0.727  1.00  0.00    -0.269 OA
BRANCH  36  39
ATOM     39  C   UNL     1       8.285   0.906   2.547  1.00  0.00     0.039 A 
ATOM     40  C   UNL     1       8.919   2.130   2.777  1.00  0.00     0.014 A 
ATOM     41  C   UNL     1       8.773  -0.254   3.145  1.00  0.00     0.014 A 
ATOM     42  C   UNL     1       9.979   2.198   3.686  1.00  0.00     0.010 A 
ATOM     43  C   UNL     1       9.714  -0.158   4.155  1.00  0.00     0.010 A 
ATOM     44  C   UNL     1      10.347   1.063   4.424  1.00  0.00    -0.014 A 
BRANCH  44  45
ATOM     45  C   UNL     1      11.418   1.085   5.453  1.00  0.00     0.031 A 
ATOM     46  C   UNL     1      12.568   0.116   5.330  1.00  0.00     0.074 A 
ATOM     47  C   UNL     1      11.299   1.870   6.543  1.00  0.00     0.049 A 
ATOM     48  N   UNL     1      13.493  -0.186   6.202  1.00  0.00    -0.248 NA
ATOM     49  C   UNL     1      12.652  -0.663   4.080  1.00  0.00     0.031 C 
ATOM     50  C   UNL     1      10.192   2.791   6.817  1.00  0.00     0.029 A 
ATOM     51  N   UNL     1      12.110   1.996   7.643  1.00  0.00    -0.354 N 
ATOM     52  C   UNL     1      14.222  -1.225   5.633  1.00  0.00     0.074 A 
ATOM     53  C   UNL     1      13.597  -1.543   4.370  1.00  0.00     0.031 C 
ATOM     54  C   UNL     1      10.403   3.399   7.996  1.00  0.00     0.029 A 
ATOM     55  C   UNL     1      11.636   2.885   8.582  1.00  0.00     0.049 A 
ATOM     56  H   UNL     1      12.952   1.498   7.751  1.00  0.00     0.167 HD
ATOM     57  C   UNL     1      15.342  -1.829   6.092  1.00  0.00     0.034 A 
ATOM     58  C   UNL     1      12.141   3.237   9.780  1.00  0.00     0.034 A 
ATOM     59  C   UNL     1      16.014  -1.437   7.299  1.00  0.00     0.049 A 
ATOM     60  C   UNL     1      13.434   2.607  10.229  1.00  0.00     0.074 A 
ATOM     61  C   UNL     1      17.198  -1.921   7.823  1.00  0.00     0.029 A 
ATOM     62  N   UNL     1      15.571  -0.441   8.155  1.00  0.00    -0.354 N 
ATOM     63  N   UNL     1      14.170   1.708   9.621  1.00  0.00    -0.248 NA
ATOM     64  C   UNL     1      13.986   3.066  11.512  1.00  0.00     0.031 C 
ATOM     65  C   UNL     1      17.476  -1.210   8.994  1.00  0.00     0.029 A 
ATOM     66  C   UNL     1      16.469  -0.279   9.193  1.00  0.00     0.049 A 
ATOM     67  H   UNL     1      14.740   0.075   8.041  1.00  0.00     0.167 HD
ATOM     68  C   UNL     1      15.290   1.527  10.423  1.00  0.00     0.074 A 
ATOM     69  C   UNL     1      15.145   2.425  11.551  1.00  0.00     0.031 C 
ATOM     70  C   UNL     1      16.336   0.680  10.258  1.00  0.00     0.034 A 
BRANCH  57  71
ATOM     71  C   UNL     1      15.959  -2.904   5.236  1.00  0.00     0.023 A 
ATOM     72  C   UNL     1      16.577  -2.546   4.019  1.00  0.00     0.012 A 
ATOM     73  C   UNL     1      15.968  -4.252   5.643  1.00  0.00     0.148 A 
ATOM     74  C   UNL     1      17.155  -3.514   3.201  1.00  0.00     0.002 A 
ATOM     75  C   UNL     1      16.589  -5.206   4.844  1.00  0.00     0.091 A 
ATOM     76  F   UNL     1      15.361  -4.578   6.793  1.00  0.00    -0.205 F 
ATOM     77  C   UNL     1      17.170  -4.841   3.618  1.00  0.00     0.022 A 
BRANCH  75  78
ATOM     78  S   UNL     1      16.734  -6.932   5.321  1.00  0.00     0.127 S 
ATOM     79  O   UNL     1      15.863  -7.583   4.343  1.00  0.00    -0.237 OA
ATOM     80  O   UNL     1      18.163  -7.184   5.128  1.00  0.00    -0.237 OA
ATOM     81  O   UNL     1      16.284  -7.008   6.704  1.00  0.00    -0.744 OA
ENDBRANCH  75  78
ENDBRANCH  57  71
BRANCH  58  82
ATOM     82  C   UNL     1      11.482   4.293  10.602  1.00  0.00     0.023 A 
ATOM     83  C   UNL     1      12.123   5.538  10.757  1.00  0.00     0.012 A 
ATOM     84  C   UNL     1      10.238   4.083  11.226  1.00  0.00     0.148 A 
ATOM     85  C   UNL     1      11.562   6.538  11.553  1.00  0.00     0.002 A 
ATOM     86  C   UNL     1       9.658   5.103  11.975  1.00  0.00     0.091 A 
ATOM     87  F   UNL     1       9.644   2.890  11.082  1.00  0.00    -0.205 F 
ATOM     88  C   UNL     1      10.326   6.324  12.155  1.00  0.00     0.022 A 
BRANCH  86  89
ATOM     89  S   UNL     1       8.011   4.951  12.678  1.00  0.00     0.127 S 
ATOM     90  O   UNL     1       8.308   4.654  14.076  1.00  0.00    -0.237 OA
ATOM     91  O   UNL     1       7.447   6.280  12.437  1.00  0.00    -0.237 OA
ATOM     92  O   UNL     1       7.369   3.886  11.919  1.00  0.00    -0.744 OA
ENDBRANCH  86  89
ENDBRANCH  58  82
BRANCH  70  93
ATOM     93  C   UNL     1      17.433   0.721  11.286  1.00  0.00     0.023 A 
ATOM     94  C   UNL     1      17.221   0.157  12.558  1.00  0.00     0.012 A 
ATOM     95  C   UNL     1      18.700   1.242  10.957  1.00  0.00     0.148 A 
ATOM     96  C   UNL     1      18.247   0.137  13.501  1.00  0.00     0.002 A 
ATOM     97  C   UNL     1      19.731   1.174  11.885  1.00  0.00     0.091 A 
ATOM     98  F   UNL     1      18.873   1.790   9.746  1.00  0.00    -0.205 F 
ATOM     99  C   UNL     1      19.503   0.633  13.161  1.00  0.00     0.022 A 
BRANCH  97 100
ATOM    100  S   UNL     1      21.405   1.698  11.498  1.00  0.00     0.127 S 
ATOM    101  O   UNL     1      21.502   2.955  12.238  1.00  0.00    -0.237 OA
ATOM    102  O   UNL     1      22.208   0.604  12.046  1.00  0.00    -0.237 OA
ATOM    103  O   UNL     1      21.461   1.818  10.048  1.00  0.00    -0.744 OA
ENDBRANCH  97 100
ENDBRANCH  70  93
ENDBRANCH  44  45
ENDBRANCH  36  39
ENDBRANCH  34  35
ENDBRANCH  33  34
ENDBRANCH   1  33
TORSDOF 17
