REMARK SMILES Cc1ccnc(C(=O)c2[nH]c3ccc(OC(F)(F)F)cc3c2CC(=O)NCCCCNC(=O)c2ccc(-c3c4nc(c(-c5cccc(S(=O)(=O)[O-])c5F)c5ccc([nH]5)c(-c5cccc(S(=O)(=O)[O-])c5F)c5nc(c(-c6cccc(S(=O)(=O)[O-])c6F)c6ccc3[nH]6)C=C5)C=C4)cc2)c1
REMARK SMILES IDX 28 1 27 2 26 3 24 4 25 5 23 7 22 8 9 9 10 10 11 11 21 13
REMARK SMILES IDX 12 14 20 15 13 16 14 17 7 18 8 19 6 20 1 21 2 22 3 23 97 24
REMARK SMILES IDX 4 25 5 26 15 27 16 28 17 29 18 30 19 31 29 32 30 33 31 34
REMARK SMILES IDX 32 35 33 37 34 38 35 39 96 40 36 41 95 42 37 43 38 44 39 45
REMARK SMILES IDX 89 46 40 47 94 48 88 49 90 50 41 51 93 52 87 53 86 54 42 56
REMARK SMILES IDX 74 57 54 58 73 59 55 60 58 61 72 62 91 63 56 64 57 65 71 67
REMARK SMILES IDX 92 68 59 69 43 70 44 71 52 72 45 73 47 74 53 75 46 76 48 77
REMARK SMILES IDX 49 78 50 79 51 80 75 81 76 82 84 83 77 84 79 85 85 86 78 87
REMARK SMILES IDX 80 88 81 89 82 90 83 91 60 92 61 93 69 94 62 95 64 96 70 97
REMARK SMILES IDX 63 98 65 99 66 100 67 101 68 102
REMARK H PARENT 26 6 10 12 31 36 90 55 58 66
REMARK Flexibility Score: inf
ROOT
ATOM      1  C   UNL     1       3.105  -6.827  -0.763  1.00  0.00     0.023 C 
ENDROOT
BRANCH   1   2
ATOM      2  C   UNL     1       3.443  -6.871   0.726  1.00  0.00     0.116 C 
BRANCH   2   3
ATOM      3  N   UNL     1       4.018  -5.636   1.216  1.00  0.00    -0.356 N 
ATOM      4  C   UNL     1       3.425  -4.622   1.914  1.00  0.00     0.224 C 
ATOM      5  O   UNL     1       4.146  -3.743   2.394  1.00  0.00    -0.275 OA
ATOM      6  H   UNL     1       4.973  -5.507   1.016  1.00  0.00     0.163 HD
BRANCH   4   7
ATOM      7  C   UNL     1       1.933  -4.643   2.217  1.00  0.00     0.138 C 
BRANCH   7   8
ATOM      8  C   UNL     1       1.029  -4.661   1.016  1.00  0.00    -0.002 A 
ATOM      9  C   UNL     1       0.937  -3.703   0.011  1.00  0.00     0.093 A 
ATOM     10  N   UNL     1       0.076  -4.194  -0.945  1.00  0.00    -0.352 N 
ATOM     11  C   UNL     1      -0.500  -5.366  -0.524  1.00  0.00     0.046 A 
ATOM     12  H   UNL     1      -0.101  -3.763  -1.812  1.00  0.00     0.167 HD
ATOM     13  C   UNL     1       0.060  -5.676   0.711  1.00  0.00     0.008 A 
ATOM     14  C   UNL     1      -1.446  -6.183  -1.151  1.00  0.00     0.030 A 
ATOM     15  C   UNL     1      -0.362  -6.858   1.356  1.00  0.00     0.057 A 
ATOM     16  C   UNL     1      -1.841  -7.355  -0.490  1.00  0.00     0.049 A 
ATOM     17  C   UNL     1      -1.310  -7.696   0.752  1.00  0.00     0.130 A 
BRANCH   9  18
ATOM     18  C   UNL     1       1.669  -2.456  -0.140  1.00  0.00     0.227 C 
ATOM     19  O   UNL     1       2.883  -2.456  -0.308  1.00  0.00    -0.285 OA
BRANCH  18  20
ATOM     20  C   UNL     1       0.898  -1.156  -0.108  1.00  0.00     0.113 A 
ATOM     21  C   UNL     1      -2.627   0.218   0.204  1.00  0.00     0.044 C 
ATOM     22  C   UNL     1      -1.138   0.124   0.055  1.00  0.00    -0.047 A 
ATOM     23  C   UNL     1      -0.374   1.280  -0.104  1.00  0.00     0.023 A 
ATOM     24  C   UNL     1      -0.486  -1.114   0.073  1.00  0.00     0.036 A 
ATOM     25  C   UNL     1       0.996   1.153  -0.258  1.00  0.00     0.112 A 
ATOM     26  N   UNL     1       1.638  -0.031  -0.275  1.00  0.00    -0.253 NA
ENDBRANCH  18  20
ENDBRANCH   9  18
BRANCH  17  27
ATOM     27  O   UNL     1      -1.612  -8.809   1.487  1.00  0.00    -0.406 OA
BRANCH  27  28
ATOM     28  C   UNL     1      -2.541  -9.730   0.946  1.00  0.00     0.573 C 
ATOM     29  F   UNL     1      -3.749  -9.152   0.767  1.00  0.00    -0.132 F 
ATOM     30  F   UNL     1      -2.106 -10.237  -0.226  1.00  0.00    -0.132 F 
ATOM     31  F   UNL     1      -2.695 -10.752   1.817  1.00  0.00    -0.132 F 
ENDBRANCH  27  28
ENDBRANCH  17  27
ENDBRANCH   7   8
ENDBRANCH   4   7
ENDBRANCH   2   3
ENDBRANCH   1   2
BRANCH   1  32
ATOM     32  C   UNL     1       4.304  -6.825  -1.713  1.00  0.00     0.023 C 
BRANCH  32  33
ATOM     33  C   UNL     1       5.258  -8.007  -1.578  1.00  0.00     0.116 C 
BRANCH  33  34
ATOM     34  N   UNL     1       4.606  -9.300  -1.725  1.00  0.00    -0.352 N 
ATOM     35  C   UNL     1       5.123 -10.474  -2.223  1.00  0.00     0.251 C 
ATOM     36  H   UNL     1       3.668  -9.340  -1.429  1.00  0.00     0.163 HD
ATOM     37  O   UNL     1       4.398 -11.453  -2.356  1.00  0.00    -0.269 OA
BRANCH  35  38
ATOM     38  C   UNL     1       6.543 -10.537  -2.638  1.00  0.00     0.039 A 
ATOM     39  C   UNL     1       6.854 -11.113  -3.874  1.00  0.00     0.014 A 
ATOM     40  C   UNL     1       7.560 -10.025  -1.828  1.00  0.00     0.014 A 
ATOM     41  C   UNL     1       8.174 -11.108  -4.331  1.00  0.00     0.010 A 
ATOM     42  C   UNL     1       8.867  -9.971  -2.308  1.00  0.00     0.010 A 
ATOM     43  C   UNL     1       9.184 -10.505  -3.564  1.00  0.00    -0.014 A 
BRANCH  43  44
ATOM     44  C   UNL     1      10.574 -10.394  -4.071  1.00  0.00     0.031 A 
ATOM     45  C   UNL     1      11.688 -11.147  -3.403  1.00  0.00     0.074 A 
ATOM     46  C   UNL     1      10.844  -9.536  -5.074  1.00  0.00     0.049 A 
ATOM     47  N   UNL     1      12.968 -11.131  -3.671  1.00  0.00    -0.248 NA
ATOM     48  C   UNL     1      11.321 -12.015  -2.272  1.00  0.00     0.031 C 
ATOM     49  C   UNL     1       9.859  -8.694  -5.754  1.00  0.00     0.029 A 
ATOM     50  N   UNL     1      12.032  -9.214  -5.680  1.00  0.00    -0.354 N 
ATOM     51  C   UNL     1      13.563 -11.954  -2.724  1.00  0.00     0.074 A 
ATOM     52  C   UNL     1      12.508 -12.439  -1.861  1.00  0.00     0.031 C 
ATOM     53  C   UNL     1      10.480  -7.960  -6.691  1.00  0.00     0.029 A 
ATOM     54  C   UNL     1      11.908  -8.264  -6.666  1.00  0.00     0.049 A 
ATOM     55  H   UNL     1      12.892  -9.625  -5.433  1.00  0.00     0.167 HD
ATOM     56  C   UNL     1      14.866 -12.304  -2.605  1.00  0.00     0.034 A 
ATOM     57  C   UNL     1      12.838  -7.708  -7.466  1.00  0.00     0.034 A 
ATOM     58  C   UNL     1      15.903 -11.877  -3.503  1.00  0.00     0.049 A 
ATOM     59  C   UNL     1      14.271  -8.147  -7.341  1.00  0.00     0.074 A 
ATOM     60  C   UNL     1      17.233 -12.261  -3.529  1.00  0.00     0.029 A 
ATOM     61  N   UNL     1      15.728 -10.971  -4.537  1.00  0.00    -0.354 N 
ATOM     62  N   UNL     1      14.788  -9.052  -6.546  1.00  0.00    -0.248 NA
ATOM     63  C   UNL     1      15.242  -7.511  -8.243  1.00  0.00     0.031 C 
ATOM     64  C   UNL     1      17.860 -11.590  -4.586  1.00  0.00     0.029 A 
ATOM     65  C   UNL     1      16.923 -10.780  -5.208  1.00  0.00     0.049 A 
ATOM     66  H   UNL     1      14.878 -10.528  -4.761  1.00  0.00     0.167 HD
ATOM     67  C   UNL     1      16.138  -9.116  -6.870  1.00  0.00     0.074 A 
ATOM     68  C   UNL     1      16.356  -8.169  -7.945  1.00  0.00     0.031 C 
ATOM     69  C   UNL     1      17.111  -9.879  -6.315  1.00  0.00     0.034 A 
BRANCH  56  70
ATOM     70  C   UNL     1      15.220 -13.266  -1.506  1.00  0.00     0.023 A 
ATOM     71  C   UNL     1      14.937 -14.635  -1.681  1.00  0.00     0.012 A 
ATOM     72  C   UNL     1      15.848 -12.835  -0.323  1.00  0.00     0.148 A 
ATOM     73  C   UNL     1      15.250 -15.558  -0.684  1.00  0.00     0.002 A 
ATOM     74  C   UNL     1      16.183 -13.767   0.655  1.00  0.00     0.091 A 
ATOM     75  F   UNL     1      16.083 -11.526  -0.154  1.00  0.00    -0.205 F 
ATOM     76  C   UNL     1      15.881 -15.126   0.480  1.00  0.00     0.022 A 
BRANCH  74  77
ATOM     77  S   UNL     1      17.042 -13.267   2.152  1.00  0.00     0.127 S 
ATOM     78  O   UNL     1      15.935 -12.870   3.018  1.00  0.00    -0.237 OA
ATOM     79  O   UNL     1      17.723 -14.496   2.564  1.00  0.00    -0.237 OA
ATOM     80  O   UNL     1      17.942 -12.204   1.726  1.00  0.00    -0.744 OA
ENDBRANCH  74  77
ENDBRANCH  56  70
BRANCH  57  81
ATOM     81  C   UNL     1      12.417  -6.758  -8.532  1.00  0.00     0.023 A 
ATOM     82  C   UNL     1      12.396  -7.209  -9.866  1.00  0.00     0.012 A 
ATOM     83  C   UNL     1      11.986  -5.451  -8.239  1.00  0.00     0.148 A 
ATOM     84  C   UNL     1      11.964  -6.370 -10.893  1.00  0.00     0.002 A 
ATOM     85  C   UNL     1      11.517  -4.634  -9.263  1.00  0.00     0.091 A 
ATOM     86  F   UNL     1      12.031  -5.037  -6.965  1.00  0.00    -0.205 F 
ATOM     87  C   UNL     1      11.514  -5.088 -10.591  1.00  0.00     0.022 A 
BRANCH  85  88
ATOM     88  S   UNL     1      10.809  -3.012  -8.949  1.00  0.00     0.127 S 
ATOM     89  O   UNL     1      11.883  -2.127  -9.389  1.00  0.00    -0.237 OA
ATOM     90  O   UNL     1       9.626  -3.021  -9.810  1.00  0.00    -0.237 OA
ATOM     91  O   UNL     1      10.509  -2.991  -7.524  1.00  0.00    -0.744 OA
ENDBRANCH  85  88
ENDBRANCH  57  81
BRANCH  69  92
ATOM     92  C   UNL     1      18.504  -9.733  -6.862  1.00  0.00     0.023 A 
ATOM     93  C   UNL     1      19.287  -8.634  -6.459  1.00  0.00     0.012 A 
ATOM     94  C   UNL     1      19.063 -10.713  -7.703  1.00  0.00     0.148 A 
ATOM     95  C   UNL     1      20.605  -8.506  -6.897  1.00  0.00     0.002 A 
ATOM     96  C   UNL     1      20.388 -10.595  -8.110  1.00  0.00     0.091 A 
ATOM     97  F   UNL     1      18.294 -11.738  -8.099  1.00  0.00    -0.205 F 
ATOM     98  C   UNL     1      21.159  -9.491  -7.713  1.00  0.00     0.022 A 
BRANCH  96  99
ATOM     99  S   UNL     1      21.180 -11.871  -9.096  1.00  0.00     0.127 S 
ATOM    100  O   UNL     1      20.955 -11.387 -10.456  1.00  0.00    -0.237 OA
ATOM    101  O   UNL     1      22.573 -11.807  -8.651  1.00  0.00    -0.237 OA
ATOM    102  O   UNL     1      20.499 -13.109  -8.738  1.00  0.00    -0.744 OA
ENDBRANCH  96  99
ENDBRANCH  69  92
ENDBRANCH  43  44
ENDBRANCH  35  38
ENDBRANCH  33  34
ENDBRANCH  32  33
ENDBRANCH   1  32
TORSDOF 19
