REMARK SMILES C[C@H](CC(=O)NCCCCNC(=O)c1ccc(-c2c3nc(c(-c4cccc(S(=O)(=O)[O-])c4F)c4ccc([nH]4)c(-c4cccc(S(=O)(=O)[O-])c4F)c4nc(c(-c5cccc(S(=O)(=O)[O-])c5F)c5ccc2[nH]5)C=C4)C=C3)cc1)NC(=O)Cn1nc2ccccn2c1=O
REMARK SMILES IDX 8 1 7 2 6 3 4 4 5 5 3 7 2 8 1 9 77 10 78 11 79 13 80 14
REMARK SMILES IDX 81 15 82 16 89 17 83 18 88 19 90 20 84 21 87 22 85 23 86 24
REMARK SMILES IDX 9 25 10 26 11 27 12 28 13 30 14 31 15 32 76 33 16 34 75 35
REMARK SMILES IDX 17 36 18 37 19 38 69 39 20 40 74 41 68 42 70 43 21 44 73 45
REMARK SMILES IDX 67 46 66 47 22 49 54 50 34 51 53 52 35 53 38 54 52 55 71 56
REMARK SMILES IDX 36 57 37 58 51 60 72 61 39 62 23 63 24 64 32 65 25 66 27 67
REMARK SMILES IDX 33 68 26 69 28 70 29 71 30 72 31 73 55 74 56 75 64 76 57 77
REMARK SMILES IDX 59 78 65 79 58 80 60 81 61 82 62 83 63 84 40 85 41 86 49 87
REMARK SMILES IDX 42 88 44 89 50 90 43 91 45 92 46 93 47 94 48 95
REMARK H PARENT 6 6 77 12 11 29 70 48 38 59
REMARK Flexibility Score: inf
ROOT
ATOM      1  C   UNL     1      -0.974  -1.759   2.928  1.00  0.00     0.023 C 
ENDROOT
BRANCH   1   2
ATOM      2  C   UNL     1      -0.485  -0.340   2.634  1.00  0.00     0.116 C 
BRANCH   2   3
ATOM      3  N   UNL     1       0.960  -0.254   2.569  1.00  0.00    -0.356 N 
ATOM      4  C   UNL     1       1.779  -0.203   1.484  1.00  0.00     0.222 C 
ATOM      5  O   UNL     1       2.996  -0.128   1.659  1.00  0.00    -0.275 OA
ATOM      6  H   UNL     1       1.418  -0.229   3.441  1.00  0.00     0.163 HD
BRANCH   4   7
ATOM      7  C   UNL     1       1.202  -0.230   0.088  1.00  0.00     0.124 C 
BRANCH   7   8
ATOM      8  C   UNL     1       0.835  -1.616  -0.464  1.00  0.00     0.088 C 
ATOM      9  C   UNL     1       1.468  -2.810   0.248  1.00  0.00     0.031 C 
BRANCH   8  10
ATOM     10  N   UNL     1      -0.617  -1.786  -0.564  1.00  0.00    -0.352 N 
ATOM     11  C   UNL     1      -1.411  -1.761  -1.676  1.00  0.00     0.242 C 
ATOM     12  H   UNL     1      -1.086  -1.939   0.288  1.00  0.00     0.163 HD
ATOM     13  O   UNL     1      -2.618  -1.976  -1.531  1.00  0.00    -0.273 OA
BRANCH  11  14
ATOM     14  C   UNL     1      -0.790  -1.622  -3.059  1.00  0.00     0.249 C 
BRANCH  14  15
ATOM     15  N   UNL     1      -0.038  -0.406  -3.251  1.00  0.00    -0.203 N 
ATOM     16  N   UNL     1      -0.331   0.782  -2.611  1.00  0.00    -0.149 NA
ATOM     17  C   UNL     1       0.949  -0.210  -4.228  1.00  0.00     0.350 A 
ATOM     18  C   UNL     1       0.463   1.635  -3.177  1.00  0.00     0.161 A 
ATOM     19  N   UNL     1       1.248   1.128  -4.159  1.00  0.00    -0.250 N 
ATOM     20  O   UNL     1       1.403  -1.046  -4.997  1.00  0.00    -0.246 OA
ATOM     21  C   UNL     1       0.580   3.084  -2.864  1.00  0.00     0.050 A 
ATOM     22  C   UNL     1       2.077   1.875  -4.945  1.00  0.00     0.098 A 
ATOM     23  C   UNL     1       1.145   3.818  -3.845  1.00  0.00     0.005 A 
ATOM     24  C   UNL     1       2.041   3.208  -4.818  1.00  0.00     0.019 A 
ENDBRANCH  14  15
ENDBRANCH  11  14
ENDBRANCH   8  10
ENDBRANCH   7   8
ENDBRANCH   4   7
ENDBRANCH   2   3
ENDBRANCH   1   2
BRANCH   1  25
ATOM     25  C   UNL     1      -0.481  -2.354   4.245  1.00  0.00     0.023 C 
BRANCH  25  26
ATOM     26  C   UNL     1      -0.868  -1.558   5.481  1.00  0.00     0.116 C 
BRANCH  26  27
ATOM     27  N   UNL     1      -2.307  -1.381   5.600  1.00  0.00    -0.352 N 
ATOM     28  C   UNL     1      -3.103  -1.510   6.710  1.00  0.00     0.251 C 
ATOM     29  H   UNL     1      -2.774  -1.136   4.769  1.00  0.00     0.163 HD
ATOM     30  O   UNL     1      -4.325  -1.480   6.593  1.00  0.00    -0.269 OA
BRANCH  28  31
ATOM     31  C   UNL     1      -2.483  -1.707   8.037  1.00  0.00     0.039 A 
ATOM     32  C   UNL     1      -3.021  -2.669   8.894  1.00  0.00     0.014 A 
ATOM     33  C   UNL     1      -1.372  -0.955   8.428  1.00  0.00     0.014 A 
ATOM     34  C   UNL     1      -2.412  -2.909  10.126  1.00  0.00     0.010 A 
ATOM     35  C   UNL     1      -0.717  -1.256   9.616  1.00  0.00     0.010 A 
ATOM     36  C   UNL     1      -1.238  -2.225  10.485  1.00  0.00    -0.014 A 
BRANCH  36  37
ATOM     37  C   UNL     1      -0.545  -2.518  11.764  1.00  0.00     0.031 A 
ATOM     38  C   UNL     1      -0.399  -1.448  12.812  1.00  0.00     0.074 A 
ATOM     39  C   UNL     1       0.013  -3.730  11.952  1.00  0.00     0.049 A 
ATOM     40  N   UNL     1       0.180  -1.517  13.983  1.00  0.00    -0.248 NA
ATOM     41  C   UNL     1      -0.948  -0.119  12.495  1.00  0.00     0.031 C 
ATOM     42  C   UNL     1       0.017  -4.820  10.973  1.00  0.00     0.029 A 
ATOM     43  N   UNL     1       0.699  -4.243  13.023  1.00  0.00    -0.354 N 
ATOM     44  C   UNL     1       0.092  -0.241  14.527  1.00  0.00     0.074 A 
ATOM     45  C   UNL     1      -0.557   0.594  13.541  1.00  0.00     0.031 C 
ATOM     46  C   UNL     1       0.659  -5.877  11.495  1.00  0.00     0.029 A 
ATOM     47  C   UNL     1       1.136  -5.533  12.831  1.00  0.00     0.049 A 
ATOM     48  H   UNL     1       0.864  -3.736  13.850  1.00  0.00     0.167 HD
ATOM     49  C   UNL     1       0.486   0.191  15.749  1.00  0.00     0.034 A 
ATOM     50  C   UNL     1       1.840  -6.348  13.640  1.00  0.00     0.034 A 
ATOM     51  C   UNL     1       1.097  -0.653  16.740  1.00  0.00     0.049 A 
ATOM     52  C   UNL     1       2.221  -5.859  15.011  1.00  0.00     0.074 A 
ATOM     53  C   UNL     1       1.456  -0.336  18.038  1.00  0.00     0.029 A 
ATOM     54  N   UNL     1       1.450  -1.979  16.541  1.00  0.00    -0.354 N 
ATOM     55  N   UNL     1       1.984  -4.696  15.569  1.00  0.00    -0.248 NA
ATOM     56  C   UNL     1       2.930  -6.809  15.879  1.00  0.00     0.031 C 
ATOM     57  C   UNL     1       2.051  -1.463  18.615  1.00  0.00     0.029 A 
ATOM     58  C   UNL     1       2.030  -2.493  17.689  1.00  0.00     0.049 A 
ATOM     59  H   UNL     1       1.308  -2.482  15.707  1.00  0.00     0.167 HD
ATOM     60  C   UNL     1       2.480  -4.787  16.864  1.00  0.00     0.074 A 
ATOM     61  C   UNL     1       3.007  -6.129  17.014  1.00  0.00     0.031 C 
ATOM     62  C   UNL     1       2.509  -3.844  17.838  1.00  0.00     0.034 A 
BRANCH  49  63
ATOM     63  C   UNL     1       0.219   1.633  16.100  1.00  0.00     0.023 A 
ATOM     64  C   UNL     1      -1.107   2.065  16.309  1.00  0.00     0.012 A 
ATOM     65  C   UNL     1       1.276   2.547  16.271  1.00  0.00     0.148 A 
ATOM     66  C   UNL     1      -1.380   3.391  16.644  1.00  0.00     0.002 A 
ATOM     67  C   UNL     1       1.000   3.855  16.652  1.00  0.00     0.091 A 
ATOM     68  F   UNL     1       2.529   2.125  16.047  1.00  0.00    -0.205 F 
ATOM     69  C   UNL     1      -0.327   4.282  16.826  1.00  0.00     0.022 A 
BRANCH  67  70
ATOM     70  S   UNL     1       2.289   5.059  16.992  1.00  0.00     0.127 S 
ATOM     71  O   UNL     1       2.144   5.973  15.860  1.00  0.00    -0.237 OA
ATOM     72  O   UNL     1       1.864   5.610  18.279  1.00  0.00    -0.237 OA
ATOM     73  O   UNL     1       3.538   4.311  17.034  1.00  0.00    -0.744 OA
ENDBRANCH  67  70
ENDBRANCH  49  63
BRANCH  50  74
ATOM     74  C   UNL     1       2.163  -7.735  13.203  1.00  0.00     0.023 A 
ATOM     75  C   UNL     1       1.525  -8.825  13.829  1.00  0.00     0.012 A 
ATOM     76  C   UNL     1       3.075  -7.980  12.159  1.00  0.00     0.148 A 
ATOM     77  C   UNL     1       1.817 -10.134  13.447  1.00  0.00     0.002 A 
ATOM     78  C   UNL     1       3.318  -9.285  11.746  1.00  0.00     0.091 A 
ATOM     79  F   UNL     1       3.677  -6.931  11.583  1.00  0.00    -0.205 F 
ATOM     80  C   UNL     1       2.705 -10.364  12.400  1.00  0.00     0.022 A 
BRANCH  78  81
ATOM     81  S   UNL     1       4.344  -9.668  10.322  1.00  0.00     0.127 S 
ATOM     82  O   UNL     1       5.507 -10.289  10.950  1.00  0.00    -0.237 OA
ATOM     83  O   UNL     1       3.485 -10.585   9.571  1.00  0.00    -0.237 OA
ATOM     84  O   UNL     1       4.587  -8.395   9.658  1.00  0.00    -0.744 OA
ENDBRANCH  78  81
ENDBRANCH  50  74
BRANCH  62  85
ATOM     85  C   UNL     1       3.097  -4.238  19.169  1.00  0.00     0.023 A 
ATOM     86  C   UNL     1       4.484  -4.456  19.291  1.00  0.00     0.012 A 
ATOM     87  C   UNL     1       2.279  -4.345  20.311  1.00  0.00     0.148 A 
ATOM     88  C   UNL     1       5.040  -4.818  20.517  1.00  0.00     0.002 A 
ATOM     89  C   UNL     1       2.847  -4.653  21.540  1.00  0.00     0.091 A 
ATOM     90  F   UNL     1       0.959  -4.152  20.174  1.00  0.00    -0.205 F 
ATOM     91  C   UNL     1       4.225  -4.906  21.642  1.00  0.00     0.022 A 
BRANCH  89  92
ATOM     92  S   UNL     1       1.889  -4.689  23.059  1.00  0.00     0.127 S 
ATOM     93  O   UNL     1       1.778  -6.125  23.308  1.00  0.00    -0.237 OA
ATOM     94  O   UNL     1       2.758  -3.973  23.993  1.00  0.00    -0.237 OA
ATOM     95  O   UNL     1       0.637  -4.006  22.757  1.00  0.00    -0.744 OA
ENDBRANCH  89  92
ENDBRANCH  62  85
ENDBRANCH  36  37
ENDBRANCH  28  31
ENDBRANCH  26  27
ENDBRANCH  25  26
ENDBRANCH   1  25
TORSDOF 18
