REMARK SMILES C[C@@H](C(=O)NCCCCNC(=O)c1ccc(-c2c3nc(c(-c4cccc(S(=O)(=O)[O-])c4F)c4ccc([nH]4)c(-c4cccc(S(=O)(=O)[O-])c4F)c4nc(c(-c5cccc(S(=O)(=O)[O-])c5F)c5ccc2[nH]5)C=C4)C=C3)cc1)c1ccc(-c2ccccc2)c(F)c1
REMARK SMILES IDX 8 1 7 2 6 3 5 4 3 5 4 6 2 8 1 9 76 10 77 11 88 12 78 13
REMARK SMILES IDX 86 14 79 15 87 16 80 17 81 18 85 19 82 20 84 21 83 22 9 23
REMARK SMILES IDX 10 24 11 25 12 27 13 28 14 29 75 30 15 31 74 32 16 33 17 34
REMARK SMILES IDX 18 35 68 36 19 37 73 38 67 39 69 40 20 41 72 42 66 43 65 44
REMARK SMILES IDX 21 46 53 47 33 48 52 49 34 50 37 51 51 52 70 53 35 54 36 55
REMARK SMILES IDX 50 57 71 58 38 59 22 60 23 61 31 62 24 63 26 64 32 65 25 66
REMARK SMILES IDX 27 67 28 68 29 69 30 70 54 71 55 72 63 73 56 74 58 75 64 76
REMARK SMILES IDX 57 77 59 78 60 79 61 80 62 81 39 82 40 83 48 84 41 85 43 86
REMARK SMILES IDX 49 87 42 88 44 89 45 90 46 91 47 92
REMARK H PARENT 5 7 10 26 69 45 37 56
REMARK Flexibility Score: inf
ROOT
ATOM      1  C   UNL     1       4.990  -1.556   2.092  1.00  0.00     0.023 C 
ENDROOT
BRANCH   1   2
ATOM      2  C   UNL     1       4.188  -0.971   0.927  1.00  0.00     0.023 C 
BRANCH   2   3
ATOM      3  C   UNL     1       3.385  -2.000   0.124  1.00  0.00     0.116 C 
BRANCH   3   4
ATOM      4  N   UNL     1       2.304  -2.538   0.924  1.00  0.00    -0.356 N 
ATOM      5  C   UNL     1       0.985  -2.186   0.971  1.00  0.00     0.227 C 
ATOM      6  O   UNL     1       0.319  -2.663   1.891  1.00  0.00    -0.274 OA
ATOM      7  H   UNL     1       2.560  -3.271   1.529  1.00  0.00     0.163 HD
BRANCH   5   8
ATOM      8  C   UNL     1       0.379  -1.282  -0.125  1.00  0.00     0.105 C 
ATOM      9  C   UNL     1       0.902   0.155   0.013  1.00  0.00     0.023 C 
BRANCH   8  10
ATOM     10  C   UNL     1      -1.156  -1.350  -0.153  1.00  0.00    -0.033 A 
ATOM     11  C   UNL     1      -1.960  -0.202  -0.096  1.00  0.00     0.005 A 
ATOM     12  C   UNL     1      -1.808  -2.593  -0.236  1.00  0.00     0.044 A 
ATOM     13  C   UNL     1      -3.354  -0.291  -0.086  1.00  0.00     0.012 A 
ATOM     14  C   UNL     1      -3.204  -2.675  -0.207  1.00  0.00     0.131 A 
ATOM     15  C   UNL     1      -4.004  -1.530  -0.130  1.00  0.00     0.017 A 
ATOM     16  F   UNL     1      -3.770  -3.892  -0.256  1.00  0.00    -0.206 F 
BRANCH  15  17
ATOM     17  C   UNL     1      -5.470  -1.578  -0.059  1.00  0.00    -0.015 A 
ATOM     18  C   UNL     1      -6.253  -0.882  -0.997  1.00  0.00     0.009 A 
ATOM     19  C   UNL     1      -6.124  -2.244   0.987  1.00  0.00     0.009 A 
ATOM     20  C   UNL     1      -7.643  -0.836  -0.880  1.00  0.00     0.001 A 
ATOM     21  C   UNL     1      -7.515  -2.197   1.107  1.00  0.00     0.001 A 
ATOM     22  C   UNL     1      -8.273  -1.488   0.176  1.00  0.00     0.000 A 
ENDBRANCH  15  17
ENDBRANCH   8  10
ENDBRANCH   5   8
ENDBRANCH   3   4
ENDBRANCH   2   3
ENDBRANCH   1   2
BRANCH   1  23
ATOM     23  C   UNL     1       5.991  -2.638   1.708  1.00  0.00     0.116 C 
BRANCH  23  24
ATOM     24  N   UNL     1       6.933  -2.192   0.695  1.00  0.00    -0.352 N 
ATOM     25  C   UNL     1       8.282  -2.421   0.604  1.00  0.00     0.251 C 
ATOM     26  H   UNL     1       6.548  -1.649  -0.030  1.00  0.00     0.163 HD
ATOM     27  O   UNL     1       8.936  -1.831  -0.257  1.00  0.00    -0.269 OA
BRANCH  25  28
ATOM     28  C   UNL     1       8.951  -3.344   1.544  1.00  0.00     0.039 A 
ATOM     29  C   UNL     1      10.194  -2.978   2.065  1.00  0.00     0.014 A 
ATOM     30  C   UNL     1       8.372  -4.564   1.909  1.00  0.00     0.014 A 
ATOM     31  C   UNL     1      10.831  -3.811   2.985  1.00  0.00     0.010 A 
ATOM     32  C   UNL     1       8.971  -5.354   2.889  1.00  0.00     0.010 A 
ATOM     33  C   UNL     1      10.212  -4.993   3.429  1.00  0.00    -0.014 A 
BRANCH  33  34
ATOM     34  C   UNL     1      10.857  -5.829   4.474  1.00  0.00     0.031 A 
ATOM     35  C   UNL     1      11.286  -7.242   4.183  1.00  0.00     0.074 A 
ATOM     36  C   UNL     1      11.028  -5.316   5.709  1.00  0.00     0.049 A 
ATOM     37  N   UNL     1      11.913  -8.086   4.960  1.00  0.00    -0.248 NA
ATOM     38  C   UNL     1      10.948  -7.788   2.858  1.00  0.00     0.031 C 
ATOM     39  C   UNL     1      10.561  -3.999   6.149  1.00  0.00     0.029 A 
ATOM     40  N   UNL     1      11.630  -5.843   6.824  1.00  0.00    -0.354 N 
ATOM     41  C   UNL     1      12.036  -9.262   4.229  1.00  0.00     0.074 A 
ATOM     42  C   UNL     1      11.371  -9.040   2.963  1.00  0.00     0.031 C 
ATOM     43  C   UNL     1      10.908  -3.814   7.432  1.00  0.00     0.029 A 
ATOM     44  C   UNL     1      11.602  -5.004   7.914  1.00  0.00     0.049 A 
ATOM     45  H   UNL     1      12.043  -6.736   6.842  1.00  0.00     0.167 HD
ATOM     46  C   UNL     1      12.675 -10.409   4.562  1.00  0.00     0.034 A 
ATOM     47  C   UNL     1      12.083  -5.172   9.161  1.00  0.00     0.034 A 
ATOM     48  C   UNL     1      13.354 -10.619   5.813  1.00  0.00     0.049 A 
ATOM     49  C   UNL     1      12.835  -6.433   9.487  1.00  0.00     0.074 A 
ATOM     50  C   UNL     1      14.088 -11.720   6.221  1.00  0.00     0.029 A 
ATOM     51  N   UNL     1      13.379  -9.714   6.864  1.00  0.00    -0.354 N 
ATOM     52  N   UNL     1      13.084  -7.467   8.721  1.00  0.00    -0.248 NA
ATOM     53  C   UNL     1      13.413  -6.529  10.834  1.00  0.00     0.031 C 
ATOM     54  C   UNL     1      14.536 -11.489   7.527  1.00  0.00     0.029 A 
ATOM     55  C   UNL     1      14.110 -10.232   7.920  1.00  0.00     0.049 A 
ATOM     56  H   UNL     1      12.940  -8.833   6.859  1.00  0.00     0.167 HD
ATOM     57  C   UNL     1      13.868  -8.325   9.484  1.00  0.00     0.074 A 
ATOM     58  C   UNL     1      14.085  -7.669  10.757  1.00  0.00     0.031 C 
ATOM     59  C   UNL     1      14.349  -9.553   9.168  1.00  0.00     0.034 A 
BRANCH  46  60
ATOM     60  C   UNL     1      12.729 -11.505   3.527  1.00  0.00     0.023 A 
ATOM     61  C   UNL     1      13.524 -11.329   2.376  1.00  0.00     0.012 A 
ATOM     62  C   UNL     1      12.054 -12.727   3.718  1.00  0.00     0.148 A 
ATOM     63  C   UNL     1      13.621 -12.335   1.415  1.00  0.00     0.002 A 
ATOM     64  C   UNL     1      12.193 -13.743   2.779  1.00  0.00     0.091 A 
ATOM     65  F   UNL     1      11.289 -12.871   4.809  1.00  0.00    -0.205 F 
ATOM     66  C   UNL     1      12.965 -13.544   1.622  1.00  0.00     0.022 A 
BRANCH  64  67
ATOM     67  S   UNL     1      11.455 -15.368   2.985  1.00  0.00     0.127 S 
ATOM     68  O   UNL     1      10.451 -15.373   1.922  1.00  0.00    -0.237 OA
ATOM     69  O   UNL     1      12.595 -16.254   2.751  1.00  0.00    -0.237 OA
ATOM     70  O   UNL     1      10.926 -15.401   4.341  1.00  0.00    -0.744 OA
ENDBRANCH  64  67
ENDBRANCH  46  60
BRANCH  47  71
ATOM     71  C   UNL     1      11.918  -4.092  10.174  1.00  0.00     0.023 A 
ATOM     72  C   UNL     1      13.043  -3.370  10.620  1.00  0.00     0.012 A 
ATOM     73  C   UNL     1      10.647  -3.764  10.682  1.00  0.00     0.148 A 
ATOM     74  C   UNL     1      12.909  -2.370  11.584  1.00  0.00     0.002 A 
ATOM     75  C   UNL     1      10.512  -2.725  11.595  1.00  0.00     0.091 A 
ATOM     76  F   UNL     1       9.590  -4.470  10.255  1.00  0.00    -0.205 F 
ATOM     77  C   UNL     1      11.644  -2.041  12.063  1.00  0.00     0.022 A 
BRANCH  75  78
ATOM     78  S   UNL     1       8.908  -2.143  12.154  1.00  0.00     0.127 S 
ATOM     79  O   UNL     1       8.878  -2.627  13.532  1.00  0.00    -0.237 OA
ATOM     80  O   UNL     1       9.046  -0.694  12.012  1.00  0.00    -0.237 OA
ATOM     81  O   UNL     1       7.938  -2.743  11.248  1.00  0.00    -0.744 OA
ENDBRANCH  75  78
ENDBRANCH  47  71
BRANCH  59  82
ATOM     82  C   UNL     1      15.178 -10.258  10.212  1.00  0.00     0.023 A 
ATOM     83  C   UNL     1      14.566 -10.739  11.388  1.00  0.00     0.012 A 
ATOM     84  C   UNL     1      16.556 -10.473  10.015  1.00  0.00     0.148 A 
ATOM     85  C   UNL     1      15.321 -11.373  12.374  1.00  0.00     0.002 A 
ATOM     86  C   UNL     1      17.292 -11.153  10.978  1.00  0.00     0.091 A 
ATOM     87  F   UNL     1      17.127  -9.994   8.900  1.00  0.00    -0.205 F 
ATOM     88  C   UNL     1      16.680 -11.588  12.165  1.00  0.00     0.022 A 
BRANCH  86  89
ATOM     89  S   UNL     1      19.027 -11.559  10.751  1.00  0.00     0.127 S 
ATOM     90  O   UNL     1      19.677 -10.597  11.639  1.00  0.00    -0.237 OA
ATOM     91  O   UNL     1      19.084 -12.948  11.208  1.00  0.00    -0.237 OA
ATOM     92  O   UNL     1      19.295 -11.382   9.330  1.00  0.00    -0.744 OA
ENDBRANCH  86  89
ENDBRANCH  59  82
ENDBRANCH  33  34
ENDBRANCH  25  28
ENDBRANCH  23  24
ENDBRANCH   1  23
TORSDOF 16
