REMARK SMILES C[NH+](C)CCc1nc(Nc2ccc(O)c(C(=O)NCCCCNC(=O)c3ccc(-c4c5nc(c(-c6cccc(S(=O)(=O)[O-])c6F)c6ccc([nH]6)c(-c6cccc(S(=O)(=O)[O-])c6F)c6nc(c(-c7cccc(S(=O)(=O)[O-])c7F)c7ccc4[nH]7)C=C6)C=C5)cc3)c2)c2ccccc2n1
REMARK SMILES IDX 19 1 18 2 16 3 17 4 15 6 10 7 11 8 89 9 12 10 13 11 9 12
REMARK SMILES IDX 8 14 6 15 7 16 96 17 95 18 90 19 94 20 91 21 93 22 92 23
REMARK SMILES IDX 5 24 4 25 2 26 1 27 3 28 14 30 20 32 21 33 22 34 23 35 24 36
REMARK SMILES IDX 25 38 26 39 27 40 88 41 28 42 87 43 29 44 30 45 31 46 81 47
REMARK SMILES IDX 32 48 86 49 80 50 82 51 33 52 85 53 79 54 78 55 34 57 66 58
REMARK SMILES IDX 46 59 65 60 47 61 50 62 64 63 83 64 48 65 49 66 63 68 84 69
REMARK SMILES IDX 51 70 35 71 36 72 44 73 37 74 39 75 45 76 38 77 40 78 41 79
REMARK SMILES IDX 42 80 43 81 67 82 68 83 76 84 69 85 71 86 77 87 70 88 72 89
REMARK SMILES IDX 73 90 74 91 75 92 52 93 53 94 61 95 54 96 56 97 62 98 55 99
REMARK SMILES IDX 57 100 58 101 59 102 60 103
REMARK H PARENT 18 5 9 13 2 29 14 31 23 37 82 56 50 67
REMARK Flexibility Score: inf
ROOT
ATOM      1  C   UNL     1       4.894   9.358   3.845  1.00  0.00     0.116 C 
ENDROOT
BRANCH   1   2
ATOM      2  N   UNL     1       5.522   8.204   4.441  1.00  0.00    -0.352 N 
ATOM      3  C   UNL     1       5.018   7.008   4.873  1.00  0.00     0.255 C 
ATOM      4  O   UNL     1       5.815   6.276   5.471  1.00  0.00    -0.269 OA
ATOM      5  H   UNL     1       6.495   8.294   4.559  1.00  0.00     0.163 HD
BRANCH   3   6
ATOM      6  C   UNL     1       3.641   6.479   4.608  1.00  0.00     0.083 A 
ATOM      7  C   UNL     1       2.413   4.357   4.343  1.00  0.00     0.041 A 
ATOM      8  C   UNL     1       1.243   5.074   4.109  1.00  0.00     0.030 A 
ATOM      9  C   UNL     1       3.593   5.068   4.579  1.00  0.00     0.043 A 
ATOM     10  C   UNL     1       1.246   6.464   4.159  1.00  0.00     0.049 A 
ATOM     11  C   UNL     1       2.432   7.162   4.425  1.00  0.00     0.128 A 
BRANCH   7  12
ATOM     12  N   UNL     1       2.451   2.956   4.291  1.00  0.00    -0.340 N 
ATOM     13  H   UNL     1       3.010   2.507   4.965  1.00  0.00     0.168 HD
BRANCH  12  14
ATOM     14  C   UNL     1       1.776   2.124   3.380  1.00  0.00     0.142 A 
ATOM     15  C   UNL     1       0.736   1.885   1.342  1.00  0.00     0.137 A 
ATOM     16  N   UNL     1       1.363   2.672   2.220  1.00  0.00    -0.215 NA
ATOM     17  N   UNL     1       0.446   0.599   1.567  1.00  0.00    -0.233 NA
ATOM     18  C   UNL     1       0.870   0.052   2.708  1.00  0.00     0.076 A 
ATOM     19  C   UNL     1       1.551   0.775   3.691  1.00  0.00     0.043 A 
ATOM     20  C   UNL     1       0.627  -1.298   2.921  1.00  0.00     0.029 A 
ATOM     21  C   UNL     1       1.944   0.125   4.890  1.00  0.00     0.014 A 
ATOM     22  C   UNL     1       1.035  -1.947   4.089  1.00  0.00     0.002 A 
ATOM     23  C   UNL     1       1.689  -1.231   5.081  1.00  0.00     0.001 A 
BRANCH  15  24
ATOM     24  C   UNL     1       0.285   2.521   0.058  1.00  0.00     0.138 C 
BRANCH  24  25
ATOM     25  C   UNL     1       0.897   1.922  -1.221  1.00  0.00     0.269 C 
BRANCH  25  26
ATOM     26  N   UNL     1       0.355   0.686  -1.815  1.00  0.00    -0.339 N 
ATOM     27  C   UNL     1       0.909  -0.535  -1.241  1.00  0.00     0.332 C 
ATOM     28  C   UNL     1      -1.103   0.636  -1.836  1.00  0.00     0.332 C 
ATOM     29  H   UNL     1       0.667   0.727  -2.786  1.00  0.00     0.347 HD
ENDBRANCH  25  26
ENDBRANCH  24  25
ENDBRANCH  15  24
ENDBRANCH  12  14
ENDBRANCH   7  12
BRANCH  11  30
ATOM     30  O   UNL     1       2.313   8.512   4.544  1.00  0.00    -0.507 OA
ATOM     31  H   UNL     1       1.482   8.923   4.413  1.00  0.00     0.293 HD
ENDBRANCH  11  30
ENDBRANCH   3   6
ENDBRANCH   1   2
BRANCH   1  32
ATOM     32  C   UNL     1       4.388  10.296   4.945  1.00  0.00     0.023 C 
BRANCH  32  33
ATOM     33  C   UNL     1       5.449  11.229   5.526  1.00  0.00     0.023 C 
BRANCH  33  34
ATOM     34  C   UNL     1       5.986  12.259   4.544  1.00  0.00     0.116 C 
BRANCH  34  35
ATOM     35  N   UNL     1       4.944  13.087   3.950  1.00  0.00    -0.352 N 
ATOM     36  C   UNL     1       5.052  14.373   3.481  1.00  0.00     0.251 C 
ATOM     37  H   UNL     1       4.053  12.674   3.876  1.00  0.00     0.163 HD
ATOM     38  O   UNL     1       4.060  14.980   3.086  1.00  0.00    -0.269 OA
BRANCH  36  39
ATOM     39  C   UNL     1       6.374  15.025   3.506  1.00  0.00     0.039 A 
ATOM     40  C   UNL     1       6.502  16.262   4.141  1.00  0.00     0.014 A 
ATOM     41  C   UNL     1       7.490  14.378   2.970  1.00  0.00     0.014 A 
ATOM     42  C   UNL     1       7.770  16.822   4.299  1.00  0.00     0.010 A 
ATOM     43  C   UNL     1       8.757  14.902   3.192  1.00  0.00     0.010 A 
ATOM     44  C   UNL     1       8.909  16.129   3.856  1.00  0.00    -0.014 A 
BRANCH  44  45
ATOM     45  C   UNL     1      10.272  16.663   4.085  1.00  0.00     0.031 A 
ATOM     46  C   UNL     1      11.138  17.037   2.914  1.00  0.00     0.074 A 
ATOM     47  C   UNL     1      10.762  16.717   5.339  1.00  0.00     0.049 A 
ATOM     48  N   UNL     1      12.374  17.461   2.907  1.00  0.00    -0.248 NA
ATOM     49  C   UNL     1      10.549  16.884   1.572  1.00  0.00     0.031 C 
ATOM     50  C   UNL     1      10.049  16.294   6.547  1.00  0.00     0.029 A 
ATOM     51  N   UNL     1      11.988  17.123   5.804  1.00  0.00    -0.354 N 
ATOM     52  C   UNL     1      12.723  17.587   1.568  1.00  0.00     0.074 A 
ATOM     53  C   UNL     1      11.580  17.164   0.790  1.00  0.00     0.031 C 
ATOM     54  C   UNL     1      10.848  16.465   7.612  1.00  0.00     0.029 A 
ATOM     55  C   UNL     1      12.134  16.988   7.165  1.00  0.00     0.049 A 
ATOM     56  H   UNL     1      12.695  17.476   5.218  1.00  0.00     0.167 HD
ATOM     57  C   UNL     1      13.879  18.048   1.035  1.00  0.00     0.034 A 
ATOM     58  C   UNL     1      13.188  17.258   7.960  1.00  0.00     0.034 A 
ATOM     59  C   UNL     1      14.987  18.526   1.815  1.00  0.00     0.049 A 
ATOM     60  C   UNL     1      14.434  17.835   7.345  1.00  0.00     0.074 A 
ATOM     61  C   UNL     1      16.162  19.107   1.373  1.00  0.00     0.029 A 
ATOM     62  N   UNL     1      15.058  18.479   3.198  1.00  0.00    -0.354 N 
ATOM     63  N   UNL     1      14.681  18.113   6.088  1.00  0.00    -0.248 NA
ATOM     64  C   UNL     1      15.533  18.174   8.262  1.00  0.00     0.031 C 
ATOM     65  C   UNL     1      16.948  19.405   2.491  1.00  0.00     0.029 A 
ATOM     66  C   UNL     1      16.256  19.020   3.628  1.00  0.00     0.049 A 
ATOM     67  H   UNL     1      14.358  18.116   3.787  1.00  0.00     0.167 HD
ATOM     68  C   UNL     1      15.945  18.691   6.066  1.00  0.00     0.074 A 
ATOM     69  C   UNL     1      16.405  18.742   7.439  1.00  0.00     0.031 C 
ATOM     70  C   UNL     1      16.669  19.122   5.004  1.00  0.00     0.034 A 
BRANCH  57  71
ATOM     71  C   UNL     1      13.974  18.126  -0.465  1.00  0.00     0.023 A 
ATOM     72  C   UNL     1      13.248  19.121  -1.151  1.00  0.00     0.012 A 
ATOM     73  C   UNL     1      14.820  17.264  -1.188  1.00  0.00     0.148 A 
ATOM     74  C   UNL     1      13.338  19.238  -2.537  1.00  0.00     0.002 A 
ATOM     75  C   UNL     1      14.936  17.413  -2.566  1.00  0.00     0.091 A 
ATOM     76  F   UNL     1      15.484  16.309  -0.521  1.00  0.00    -0.205 F 
ATOM     77  C   UNL     1      14.189  18.393  -3.242  1.00  0.00     0.022 A 
BRANCH  75  78
ATOM     78  S   UNL     1      16.061  16.423  -3.556  1.00  0.00     0.127 S 
ATOM     79  O   UNL     1      15.133  15.553  -4.276  1.00  0.00    -0.237 OA
ATOM     80  O   UNL     1      16.715  17.436  -4.386  1.00  0.00    -0.237 OA
ATOM     81  O   UNL     1      16.943  15.753  -2.611  1.00  0.00    -0.744 OA
ENDBRANCH  75  78
ENDBRANCH  57  71
BRANCH  58  82
ATOM     82  C   UNL     1      13.077  17.070   9.434  1.00  0.00     0.023 A 
ATOM     83  C   UNL     1      13.016  18.203  10.269  1.00  0.00     0.012 A 
ATOM     84  C   UNL     1      13.005  15.788  10.012  1.00  0.00     0.148 A 
ATOM     85  C   UNL     1      12.918  18.064  11.653  1.00  0.00     0.002 A 
ATOM     86  C   UNL     1      12.855  15.657  11.389  1.00  0.00     0.091 A 
ATOM     87  F   UNL     1      13.079  14.720   9.204  1.00  0.00    -0.205 F 
ATOM     88  C   UNL     1      12.827  16.793  12.212  1.00  0.00     0.022 A 
BRANCH  86  89
ATOM     89  S   UNL     1      12.601  14.062  12.175  1.00  0.00     0.127 S 
ATOM     90  O   UNL     1      13.913  13.805  12.763  1.00  0.00    -0.237 OA
ATOM     91  O   UNL     1      11.541  14.360  13.139  1.00  0.00    -0.237 OA
ATOM     92  O   UNL     1      12.194  13.163  11.103  1.00  0.00    -0.744 OA
ENDBRANCH  86  89
ENDBRANCH  58  82
BRANCH  70  93
ATOM     93  C   UNL     1      18.023  19.719   5.278  1.00  0.00     0.023 A 
ATOM     94  C   UNL     1      19.097  18.877   5.628  1.00  0.00     0.012 A 
ATOM     95  C   UNL     1      18.252  21.098   5.104  1.00  0.00     0.148 A 
ATOM     96  C   UNL     1      20.372  19.402   5.828  1.00  0.00     0.002 A 
ATOM     97  C   UNL     1      19.535  21.608   5.261  1.00  0.00     0.091 A 
ATOM     98  F   UNL     1      17.212  21.885   4.791  1.00  0.00    -0.205 F 
ATOM     99  C   UNL     1      20.594  20.763   5.632  1.00  0.00     0.022 A 
BRANCH  97 100
ATOM    100  S   UNL     1      19.927  23.331   4.936  1.00  0.00     0.127 S 
ATOM    101  O   UNL     1      20.053  23.868   6.289  1.00  0.00    -0.237 OA
ATOM    102  O   UNL     1      21.188  23.232   4.199  1.00  0.00    -0.237 OA
ATOM    103  O   UNL     1      18.813  23.851   4.153  1.00  0.00    -0.744 OA
ENDBRANCH  97 100
ENDBRANCH  70  93
ENDBRANCH  44  45
ENDBRANCH  36  39
ENDBRANCH  34  35
ENDBRANCH  33  34
ENDBRANCH  32  33
ENDBRANCH   1  32
TORSDOF 20
