REMARK SMILES O=C(NCCCCNC(=O)c1csc(S(=O)(=O)Nc2cccc(S(=O)(=O)N3CCCC3)c2)c1)c1ccc(-c2c3nc(c(-c4cccc(S(=O)(=O)[O-])c4F)c4ccc([nH]4)c(-c4cccc(S(=O)(=O)[O-])c4F)c4nc(c(-c5cccc(S(=O)(=O)[O-])c5F)c5ccc2[nH]5)C=C4)C=C3)cc1
REMARK SMILES IDX 6 1 5 2 4 3 3 4 1 5 2 6 34 8 35 9 96 10 36 11 95 12 37 13
REMARK SMILES IDX 38 14 39 15 89 16 40 17 94 18 88 19 90 20 41 21 93 22 87 23
REMARK SMILES IDX 86 24 42 26 74 27 54 28 73 29 55 30 58 31 72 32 91 33 56 34
REMARK SMILES IDX 57 35 71 37 92 38 59 39 43 40 44 41 52 42 45 43 47 44 53 45
REMARK SMILES IDX 46 46 48 47 49 48 50 49 51 50 75 51 76 52 84 53 77 54 79 55
REMARK SMILES IDX 85 56 78 57 80 58 81 59 82 60 83 61 60 62 61 63 69 64 62 65
REMARK SMILES IDX 64 66 70 67 63 68 65 69 66 70 67 71 68 72 7 73 8 74 9 75
REMARK SMILES IDX 10 77 11 78 12 79 33 80 13 81 14 82 15 83 16 84 17 85 18 86
REMARK SMILES IDX 19 88 20 89 32 90 21 91 23 92 22 93 24 94 25 95 26 96 27 97
REMARK SMILES IDX 28 98 31 99 29 100 30 101
REMARK H PARENT 3 7 90 25 58 36 8 76 18 87
REMARK Flexibility Score: inf
ROOT
ATOM      1  C   UNL     1       4.666   2.061  -2.932  1.00  0.00     0.023 C 
ENDROOT
BRANCH   1   2
ATOM      2  C   UNL     1       5.042   0.859  -2.094  1.00  0.00     0.023 C 
BRANCH   2   3
ATOM      3  C   UNL     1       4.521   0.886  -0.678  1.00  0.00     0.116 C 
BRANCH   3   4
ATOM      4  N   UNL     1       3.067   0.824  -0.578  1.00  0.00    -0.352 N 
ATOM      5  O   UNL     1       1.068  -0.045   0.036  1.00  0.00    -0.269 OA
ATOM      6  C   UNL     1       2.290  -0.070   0.135  1.00  0.00     0.251 C 
ATOM      7  H   UNL     1       2.574   1.509  -1.085  1.00  0.00     0.163 HD
BRANCH   6   8
ATOM      8  C   UNL     1       2.967  -1.081   0.977  1.00  0.00     0.039 A 
ATOM      9  C   UNL     1       4.064  -0.701   1.744  1.00  0.00     0.014 A 
ATOM     10  C   UNL     1       2.585  -2.424   0.915  1.00  0.00     0.014 A 
ATOM     11  C   UNL     1       4.929  -1.672   2.213  1.00  0.00     0.010 A 
ATOM     12  C   UNL     1       3.368  -3.394   1.554  1.00  0.00     0.010 A 
ATOM     13  C   UNL     1       4.575  -3.031   2.170  1.00  0.00    -0.014 A 
BRANCH  13  14
ATOM     14  C   UNL     1       5.454  -3.995   2.884  1.00  0.00     0.031 A 
ATOM     15  C   UNL     1       6.107  -5.162   2.195  1.00  0.00     0.074 A 
ATOM     16  C   UNL     1       5.707  -3.751   4.188  1.00  0.00     0.049 A 
ATOM     17  N   UNL     1       6.949  -6.034   2.691  1.00  0.00    -0.248 NA
ATOM     18  C   UNL     1       5.774  -5.396   0.781  1.00  0.00     0.031 C 
ATOM     19  C   UNL     1       5.089  -2.676   4.975  1.00  0.00     0.029 A 
ATOM     20  N   UNL     1       6.558  -4.355   5.074  1.00  0.00    -0.354 N 
ATOM     21  C   UNL     1       7.219  -6.937   1.669  1.00  0.00     0.074 A 
ATOM     22  C   UNL     1       6.443  -6.514   0.523  1.00  0.00     0.031 C 
ATOM     23  C   UNL     1       5.628  -2.654   6.198  1.00  0.00     0.029 A 
ATOM     24  C   UNL     1       6.551  -3.772   6.320  1.00  0.00     0.049 A 
ATOM     25  H   UNL     1       7.120  -5.130   4.843  1.00  0.00     0.167 HD
ATOM     26  C   UNL     1       8.048  -8.010   1.685  1.00  0.00     0.034 A 
ATOM     27  C   UNL     1       7.184  -4.115   7.456  1.00  0.00     0.034 A 
ATOM     28  C   UNL     1       8.833  -8.409   2.827  1.00  0.00     0.049 A 
ATOM     29  C   UNL     1       8.102  -5.297   7.432  1.00  0.00     0.074 A 
ATOM     30  C   UNL     1       9.728  -9.461   2.931  1.00  0.00     0.029 A 
ATOM     31  N   UNL     1       8.817  -7.782   4.064  1.00  0.00    -0.354 N 
ATOM     32  N   UNL     1       8.416  -6.075   6.425  1.00  0.00    -0.248 NA
ATOM     33  C   UNL     1       8.773  -5.634   8.692  1.00  0.00     0.031 C 
ATOM     34  C   UNL     1      10.230  -9.486   4.237  1.00  0.00     0.029 A 
ATOM     35  C   UNL     1       9.679  -8.426   4.938  1.00  0.00     0.049 A 
ATOM     36  H   UNL     1       8.272  -6.993   4.289  1.00  0.00     0.167 HD
ATOM     37  C   UNL     1       9.334  -6.987   6.926  1.00  0.00     0.074 A 
ATOM     38  C   UNL     1       9.559  -6.631   8.313  1.00  0.00     0.031 C 
ATOM     39  C   UNL     1       9.918  -8.040   6.304  1.00  0.00     0.034 A 
BRANCH  26  40
ATOM     40  C   UNL     1       8.187  -8.823   0.420  1.00  0.00     0.023 A 
ATOM     41  C   UNL     1       8.897  -8.291  -0.675  1.00  0.00     0.012 A 
ATOM     42  C   UNL     1       7.702 -10.145   0.349  1.00  0.00     0.148 A 
ATOM     43  C   UNL     1       9.103  -9.050  -1.827  1.00  0.00     0.002 A 
ATOM     44  C   UNL     1       7.949 -10.911  -0.785  1.00  0.00     0.091 A 
ATOM     45  F   UNL     1       7.019 -10.632   1.395  1.00  0.00    -0.205 F 
ATOM     46  C   UNL     1       8.640 -10.362  -1.878  1.00  0.00     0.022 A 
BRANCH  44  47
ATOM     47  S   UNL     1       7.466 -12.637  -0.922  1.00  0.00     0.127 S 
ATOM     48  O   UNL     1       6.462 -12.579  -1.984  1.00  0.00    -0.237 OA
ATOM     49  O   UNL     1       8.724 -13.277  -1.307  1.00  0.00    -0.237 OA
ATOM     50  O   UNL     1       6.960 -13.021   0.388  1.00  0.00    -0.744 OA
ENDBRANCH  44  47
ENDBRANCH  26  40
BRANCH  27  51
ATOM     51  C   UNL     1       6.952  -3.332   8.701  1.00  0.00     0.023 A 
ATOM     52  C   UNL     1       8.002  -2.591   9.274  1.00  0.00     0.012 A 
ATOM     53  C   UNL     1       5.679  -3.302   9.305  1.00  0.00     0.148 A 
ATOM     54  C   UNL     1       7.798  -1.866  10.449  1.00  0.00     0.002 A 
ATOM     55  C   UNL     1       5.465  -2.521  10.432  1.00  0.00     0.091 A 
ATOM     56  F   UNL     1       4.695  -4.025   8.752  1.00  0.00    -0.205 F 
ATOM     57  C   UNL     1       6.528  -1.821  11.021  1.00  0.00     0.022 A 
BRANCH  55  58
ATOM     58  S   UNL     1       3.827  -2.287  11.129  1.00  0.00     0.127 S 
ATOM     59  O   UNL     1       3.894  -3.112  12.332  1.00  0.00    -0.237 OA
ATOM     60  O   UNL     1       3.803  -0.844  11.370  1.00  0.00    -0.237 OA
ATOM     61  O   UNL     1       2.898  -2.734  10.100  1.00  0.00    -0.744 OA
ENDBRANCH  55  58
ENDBRANCH  27  51
BRANCH  39  62
ATOM     62  C   UNL     1      10.880  -8.861   7.121  1.00  0.00     0.023 A 
ATOM     63  C   UNL     1      10.398  -9.670   8.171  1.00  0.00     0.012 A 
ATOM     64  C   UNL     1      12.259  -8.842   6.840  1.00  0.00     0.148 A 
ATOM     65  C   UNL     1      11.280 -10.403   8.963  1.00  0.00     0.002 A 
ATOM     66  C   UNL     1      13.126  -9.620   7.598  1.00  0.00     0.091 A 
ATOM     67  F   UNL     1      12.701  -8.052   5.851  1.00  0.00    -0.205 F 
ATOM     68  C   UNL     1      12.641 -10.386   8.671  1.00  0.00     0.022 A 
BRANCH  66  69
ATOM     69  S   UNL     1      14.881  -9.733   7.236  1.00  0.00     0.127 S 
ATOM     70  O   UNL     1      15.463  -8.973   8.341  1.00  0.00    -0.237 OA
ATOM     71  O   UNL     1      15.116 -11.176   7.298  1.00  0.00    -0.237 OA
ATOM     72  O   UNL     1      15.057  -9.149   5.914  1.00  0.00    -0.744 OA
ENDBRANCH  66  69
ENDBRANCH  39  62
ENDBRANCH  13  14
ENDBRANCH   6   8
ENDBRANCH   3   4
ENDBRANCH   2   3
ENDBRANCH   1   2
BRANCH   1  73
ATOM     73  C   UNL     1       4.980   3.446  -2.362  1.00  0.00     0.116 C 
BRANCH  73  74
ATOM     74  N   UNL     1       6.401   3.701  -2.202  1.00  0.00    -0.352 N 
ATOM     75  C   UNL     1       7.198   4.739  -2.619  1.00  0.00     0.252 C 
ATOM     76  H   UNL     1       6.881   3.001  -1.704  1.00  0.00     0.163 HD
ATOM     77  O   UNL     1       8.407   4.676  -2.406  1.00  0.00    -0.269 OA
BRANCH  75  78
ATOM     78  C   UNL     1       6.641   5.851  -3.389  1.00  0.00     0.051 A 
ATOM     79  C   UNL     1       5.447   6.510  -3.170  1.00  0.00     0.080 A 
ATOM     80  C   UNL     1       7.333   6.456  -4.498  1.00  0.00     0.048 A 
ATOM     81  S   UNL     1       5.066   7.618  -4.422  1.00  0.00    -0.130 S 
ATOM     82  C   UNL     1       6.516   7.266  -5.262  1.00  0.00     0.141 A 
BRANCH  82  83
ATOM     83  S   UNL     1       6.638   7.915  -6.918  1.00  0.00     0.271 S 
ATOM     84  O   UNL     1       5.529   7.330  -7.643  1.00  0.00    -0.200 OA
ATOM     85  O   UNL     1       6.763   9.349  -6.782  1.00  0.00    -0.200 OA
BRANCH  83  86
ATOM     86  N   UNL     1       8.044   7.372  -7.678  1.00  0.00    -0.279 N 
ATOM     87  H   UNL     1       8.572   8.016  -8.203  1.00  0.00     0.180 HD
BRANCH  86  88
ATOM     88  C   UNL     1       8.505   6.020  -7.595  1.00  0.00     0.050 A 
ATOM     89  C   UNL     1       9.863   5.816  -7.849  1.00  0.00     0.027 A 
ATOM     90  C   UNL     1       7.694   4.926  -7.298  1.00  0.00     0.048 A 
ATOM     91  C   UNL     1      10.428   4.549  -7.703  1.00  0.00     0.004 A 
ATOM     92  C   UNL     1       8.259   3.663  -7.117  1.00  0.00     0.084 A 
ATOM     93  C   UNL     1       9.631   3.473  -7.316  1.00  0.00     0.022 A 
BRANCH  92  94
ATOM     94  S   UNL     1       7.303   2.265  -6.556  1.00  0.00     0.243 S 
ATOM     95  O   UNL     1       7.648   1.168  -7.439  1.00  0.00    -0.207 OA
ATOM     96  O   UNL     1       7.518   2.189  -5.129  1.00  0.00    -0.207 OA
BRANCH  94  97
ATOM     97  N   UNL     1       5.688   2.619  -6.816  1.00  0.00    -0.198 NA
ATOM     98  C   UNL     1       5.075   2.574  -8.139  1.00  0.00     0.102 C 
ATOM     99  C   UNL     1       4.920   3.504  -5.944  1.00  0.00     0.102 C 
ATOM    100  C   UNL     1       4.382   3.921  -8.269  1.00  0.00     0.018 C 
ATOM    101  C   UNL     1       4.029   4.333  -6.850  1.00  0.00     0.018 C 
ENDBRANCH  94  97
ENDBRANCH  92  94
ENDBRANCH  86  88
ENDBRANCH  83  86
ENDBRANCH  82  83
ENDBRANCH  75  78
ENDBRANCH  73  74
ENDBRANCH   1  73
TORSDOF 19
