REMARK SMILES Cc1ccc(C)c(-n2nc(C)c(/C=C(/C#N)C(=O)NCCCCNC(=O)c3ccc(-c4c5nc(c(-c6cccc(S(=O)(=O)[O-])c6F)c6ccc([nH]6)c(-c6cccc(S(=O)(=O)[O-])c6F)c6nc(c(-c7cccc(S(=O)(=O)[O-])c7F)c7ccc4[nH]7)C=C6)C=C5)cc3)c2Cl)c1
REMARK SMILES IDX 22 1 21 2 20 3 19 4 17 5 18 6 14 8 13 9 12 10 8 11 9 12
REMARK SMILES IDX 90 13 10 14 91 15 11 16 7 17 1 18 2 19 3 20 92 21 4 22 5 23
REMARK SMILES IDX 6 24 15 25 16 26 23 27 24 28 25 29 26 31 27 32 28 33 89 34
REMARK SMILES IDX 29 35 88 36 30 37 31 38 32 39 82 40 33 41 87 42 81 43 83 44
REMARK SMILES IDX 34 45 86 46 80 47 79 48 35 50 67 51 47 52 66 53 48 54 51 55
REMARK SMILES IDX 65 56 84 57 49 58 50 59 64 61 85 62 52 63 36 64 37 65 45 66
REMARK SMILES IDX 38 67 40 68 46 69 39 70 41 71 42 72 43 73 44 74 68 75 69 76
REMARK SMILES IDX 77 77 70 78 72 79 78 80 71 81 73 82 74 83 75 84 76 85 53 86
REMARK SMILES IDX 54 87 62 88 55 89 57 90 63 91 56 92 58 93 59 94 60 95 61 96
REMARK H PARENT 19 7 24 30 83 49 51 60
REMARK Flexibility Score: inf
ROOT
ATOM      1  C   UNL     1      -7.654   9.313  -0.845  1.00  0.00     0.023 C 
ENDROOT
BRANCH   1   2
ATOM      2  C   UNL     1      -6.218   9.309  -1.407  1.00  0.00     0.023 C 
BRANCH   2   3
ATOM      3  C   UNL     1      -5.089   9.060  -0.384  1.00  0.00     0.116 C 
BRANCH   3   4
ATOM      4  N   UNL     1      -4.952   7.652  -0.066  1.00  0.00    -0.351 N 
ATOM      5  C   UNL     1      -4.392   6.656  -0.817  1.00  0.00     0.261 C 
ATOM      6  O   UNL     1      -5.086   5.665  -1.050  1.00  0.00    -0.268 OA
ATOM      7  H   UNL     1      -5.311   7.376   0.808  1.00  0.00     0.163 HD
BRANCH   5   8
ATOM      8  C   UNL     1      -3.024   6.816  -1.421  1.00  0.00     0.117 C 
ATOM      9  C   UNL     1      -2.145   5.800  -1.432  1.00  0.00     0.038 C 
BRANCH   9  10
ATOM     10  C   UNL     1      -2.210   4.490  -0.804  1.00  0.00     0.036 A 
ATOM     11  N   UNL     1      -1.619   2.375  -0.342  1.00  0.00    -0.221 N 
ATOM     12  N   UNL     1      -2.765   2.568   0.343  1.00  0.00    -0.171 NA
ATOM     13  C   UNL     1      -1.352   3.463  -1.150  1.00  0.00     0.140 A 
ATOM     14  C   UNL     1      -2.998   3.887   0.244  1.00  0.00     0.069 A 
ATOM     15  Cl  UNL     1      -0.203   3.369  -2.423  1.00  0.00    -0.061 Cl
ATOM     16  C   UNL     1      -3.974   4.428   1.234  1.00  0.00     0.069 C 
BRANCH  11  17
ATOM     17  C   UNL     1      -0.903   1.150  -0.202  1.00  0.00     0.069 A 
ATOM     18  C   UNL     1       2.773   0.134   0.032  1.00  0.00     0.044 C 
ATOM     19  C   UNL     1       1.277   0.056  -0.019  1.00  0.00    -0.049 A 
ATOM     20  C   UNL     1       0.634  -1.179   0.072  1.00  0.00     0.004 A 
ATOM     21  C   UNL     1       0.503   1.215  -0.147  1.00  0.00     0.032 A 
ATOM     22  C   UNL     1      -0.761  -1.250   0.062  1.00  0.00     0.006 A 
ATOM     23  C   UNL     1      -1.554  -0.095  -0.076  1.00  0.00    -0.025 A 
ATOM     24  C   UNL     1      -3.046  -0.299  -0.085  1.00  0.00     0.047 C 
ENDBRANCH  11  17
ENDBRANCH   9  10
BRANCH   8  25
ATOM     25  C   UNL     1      -3.058   7.979  -2.401  1.00  0.00     0.105 C 
ATOM     26  N   UNL     1      -3.086   8.943  -3.213  1.00  0.00    -0.192 NA
ENDBRANCH   8  25
ENDBRANCH   5   8
ENDBRANCH   3   4
ENDBRANCH   2   3
ENDBRANCH   1   2
BRANCH   1  27
ATOM     27  C   UNL     1      -8.104  10.556  -0.059  1.00  0.00     0.116 C 
BRANCH  27  28
ATOM     28  N   UNL     1      -8.007  11.824  -0.812  1.00  0.00    -0.352 N 
ATOM     29  C   UNL     1      -7.508  13.086  -0.502  1.00  0.00     0.251 C 
ATOM     30  H   UNL     1      -8.373  11.764  -1.725  1.00  0.00     0.163 HD
ATOM     31  O   UNL     1      -7.810  14.046  -1.208  1.00  0.00    -0.269 OA
BRANCH  29  32
ATOM     32  C   UNL     1      -6.577  13.289   0.631  1.00  0.00     0.039 A 
ATOM     33  C   UNL     1      -6.026  14.508   1.036  1.00  0.00     0.014 A 
ATOM     34  C   UNL     1      -6.044  12.154   1.179  1.00  0.00     0.014 A 
ATOM     35  C   UNL     1      -4.900  14.494   1.887  1.00  0.00     0.010 A 
ATOM     36  C   UNL     1      -5.314  12.189   2.319  1.00  0.00     0.010 A 
ATOM     37  C   UNL     1      -4.499  13.286   2.459  1.00  0.00    -0.014 A 
BRANCH  37  38
ATOM     38  C   UNL     1      -3.329  13.037   3.291  1.00  0.00     0.031 A 
ATOM     39  C   UNL     1      -3.591  13.145   4.747  1.00  0.00     0.074 A 
ATOM     40  C   UNL     1      -2.281  12.294   2.867  1.00  0.00     0.049 A 
ATOM     41  N   UNL     1      -3.358  14.155   5.520  1.00  0.00    -0.248 NA
ATOM     42  C   UNL     1      -4.440  12.105   5.359  1.00  0.00     0.031 C 
ATOM     43  C   UNL     1      -2.106  11.592   1.589  1.00  0.00     0.029 A 
ATOM     44  N   UNL     1      -1.193  11.890   3.582  1.00  0.00    -0.354 N 
ATOM     45  C   UNL     1      -3.845  13.753   6.763  1.00  0.00     0.074 A 
ATOM     46  C   UNL     1      -4.808  12.734   6.473  1.00  0.00     0.031 C 
ATOM     47  C   UNL     1      -1.082  10.710   1.697  1.00  0.00     0.029 A 
ATOM     48  C   UNL     1      -0.457  10.862   3.003  1.00  0.00     0.049 A 
ATOM     49  H   UNL     1      -0.947  12.296   4.445  1.00  0.00     0.167 HD
ATOM     50  C   UNL     1      -3.170  13.997   7.924  1.00  0.00     0.034 A 
ATOM     51  C   UNL     1       0.538  10.154   3.599  1.00  0.00     0.034 A 
ATOM     52  C   UNL     1      -2.057  14.892   7.678  1.00  0.00     0.049 A 
ATOM     53  C   UNL     1       0.929  10.862   4.833  1.00  0.00     0.074 A 
ATOM     54  C   UNL     1      -1.904  16.142   7.108  1.00  0.00     0.029 A 
ATOM     55  N   UNL     1      -0.802  14.326   7.674  1.00  0.00    -0.354 N 
ATOM     56  N   UNL     1       1.554  12.002   4.843  1.00  0.00    -0.248 NA
ATOM     57  C   UNL     1       0.258  10.495   6.070  1.00  0.00     0.031 C 
ATOM     58  C   UNL     1      -0.680  16.070   6.377  1.00  0.00     0.029 A 
ATOM     59  C   UNL     1      -0.123  14.809   6.590  1.00  0.00     0.049 A 
ATOM     60  H   UNL     1      -0.454  13.684   8.335  1.00  0.00     0.167 HD
ATOM     61  C   UNL     1       0.984  12.690   5.903  1.00  0.00     0.074 A 
ATOM     62  C   UNL     1       0.294  11.675   6.695  1.00  0.00     0.031 C 
ATOM     63  C   UNL     1       0.860  14.047   5.856  1.00  0.00     0.034 A 
BRANCH  50  64
ATOM     64  C   UNL     1      -3.208  13.133   9.188  1.00  0.00     0.023 A 
ATOM     65  C   UNL     1      -2.396  13.568  10.264  1.00  0.00     0.012 A 
ATOM     66  C   UNL     1      -3.767  11.840   9.324  1.00  0.00     0.148 A 
ATOM     67  C   UNL     1      -2.056  12.727  11.330  1.00  0.00     0.002 A 
ATOM     68  C   UNL     1      -3.464  11.019  10.406  1.00  0.00     0.091 A 
ATOM     69  F   UNL     1      -4.546  11.323   8.381  1.00  0.00    -0.205 F 
ATOM     70  C   UNL     1      -2.578  11.444  11.394  1.00  0.00     0.022 A 
BRANCH  68  71
ATOM     71  S   UNL     1      -4.141   9.355  10.546  1.00  0.00     0.127 S 
ATOM     72  O   UNL     1      -2.960   8.541  10.271  1.00  0.00    -0.237 OA
ATOM     73  O   UNL     1      -4.601   9.337  11.934  1.00  0.00    -0.237 OA
ATOM     74  O   UNL     1      -5.212   9.271   9.560  1.00  0.00    -0.744 OA
ENDBRANCH  68  71
ENDBRANCH  50  64
BRANCH  51  75
ATOM     75  C   UNL     1       1.037   8.787   3.359  1.00  0.00     0.023 A 
ATOM     76  C   UNL     1       2.346   8.409   3.723  1.00  0.00     0.012 A 
ATOM     77  C   UNL     1       0.131   7.775   3.033  1.00  0.00     0.148 A 
ATOM     78  C   UNL     1       2.728   7.059   3.767  1.00  0.00     0.002 A 
ATOM     79  C   UNL     1       0.526   6.441   3.048  1.00  0.00     0.091 A 
ATOM     80  F   UNL     1      -1.150   8.106   2.809  1.00  0.00    -0.205 F 
ATOM     81  C   UNL     1       1.816   6.069   3.424  1.00  0.00     0.022 A 
BRANCH  79  82
ATOM     82  S   UNL     1      -0.614   5.202   2.485  1.00  0.00     0.127 S 
ATOM     83  O   UNL     1       0.258   4.231   1.824  1.00  0.00    -0.237 OA
ATOM     84  O   UNL     1      -1.234   4.750   3.726  1.00  0.00    -0.237 OA
ATOM     85  O   UNL     1      -1.462   5.960   1.575  1.00  0.00    -0.744 OA
ENDBRANCH  79  82
ENDBRANCH  51  75
BRANCH  63  86
ATOM     86  C   UNL     1       1.598  14.782   4.768  1.00  0.00     0.023 A 
ATOM     87  C   UNL     1       1.283  14.623   3.401  1.00  0.00     0.012 A 
ATOM     88  C   UNL     1       2.499  15.787   5.147  1.00  0.00     0.148 A 
ATOM     89  C   UNL     1       1.862  15.447   2.433  1.00  0.00     0.002 A 
ATOM     90  C   UNL     1       3.031  16.639   4.189  1.00  0.00     0.091 A 
ATOM     91  F   UNL     1       2.794  15.914   6.450  1.00  0.00    -0.205 F 
ATOM     92  C   UNL     1       2.722  16.468   2.829  1.00  0.00     0.022 A 
BRANCH  90  93
ATOM     93  S   UNL     1       4.027  18.056   4.650  1.00  0.00     0.127 S 
ATOM     94  O   UNL     1       5.369  17.626   4.261  1.00  0.00    -0.237 OA
ATOM     95  O   UNL     1       3.460  19.120   3.821  1.00  0.00    -0.237 OA
ATOM     96  O   UNL     1       3.818  18.242   6.081  1.00  0.00    -0.744 OA
ENDBRANCH  90  93
ENDBRANCH  63  86
ENDBRANCH  37  38
ENDBRANCH  29  32
ENDBRANCH  27  28
ENDBRANCH   1  27
TORSDOF 17
