REMARK SMILES NC(=O)C[C@@H](C(=O)NCCCCNC(=O)c1ccc(-c2c3nc(c(-c4cccc(S(=O)(=O)[O-])c4F)c4ccc([nH]4)c(-c4cccc(S(=O)(=O)[O-])c4F)c4nc(c(-c5cccc(S(=O)(=O)[O-])c5F)c5ccc2[nH]5)C=C4)C=C3)cc1)N1C(=O)/C(=C/c2ccccc2)SC1=S
REMARK SMILES IDX 11 1 10 2 9 3 8 4 6 5 7 6 5 8 4 9 2 10 1 11 3 14 79 15 80 16
REMARK SMILES IDX 91 17 81 18 82 19 90 20 92 21 83 22 84 23 85 24 89 25 86 26
REMARK SMILES IDX 88 27 87 28 12 29 13 30 14 31 15 33 16 34 17 35 78 36 18 37
REMARK SMILES IDX 77 38 19 39 20 40 21 41 71 42 22 43 76 44 70 45 72 46 23 47
REMARK SMILES IDX 75 48 69 49 68 50 24 52 56 53 36 54 55 55 37 56 40 57 54 58
REMARK SMILES IDX 73 59 38 60 39 61 53 63 74 64 41 65 25 66 26 67 34 68 27 69
REMARK SMILES IDX 29 70 35 71 28 72 30 73 31 74 32 75 33 76 57 77 58 78 66 79
REMARK SMILES IDX 59 80 61 81 67 82 60 83 62 84 63 85 64 86 65 87 42 88 43 89
REMARK SMILES IDX 51 90 44 91 46 92 52 93 45 94 47 95 48 96 49 97 50 98
REMARK H PARENT 8 7 1 12 1 13 13 32 72 51 40 62
REMARK Flexibility Score: inf
ROOT
ATOM      1  C   UNL     1       1.525   2.119   1.227  1.00  0.00     0.023 C 
ENDROOT
BRANCH   1   2
ATOM      2  C   UNL     1       0.901   1.072   0.316  1.00  0.00     0.023 C 
BRANCH   2   3
ATOM      3  C   UNL     1       1.383   1.096  -1.141  1.00  0.00     0.116 C 
BRANCH   3   4
ATOM      4  N   UNL     1       2.597   0.304  -1.271  1.00  0.00    -0.354 N 
ATOM      5  C   UNL     1       2.820  -0.939  -1.789  1.00  0.00     0.243 C 
ATOM      6  O   UNL     1       3.929  -1.440  -1.573  1.00  0.00    -0.273 OA
ATOM      7  H   UNL     1       3.404   0.745  -0.921  1.00  0.00     0.163 HD
BRANCH   5   8
ATOM      8  C   UNL     1       1.747  -1.706  -2.605  1.00  0.00     0.190 C 
BRANCH   8   9
ATOM      9  C   UNL     1       0.746  -2.410  -1.695  1.00  0.00     0.135 C 
BRANCH   9  10
ATOM     10  C   UNL     1      -0.267  -1.620  -0.920  1.00  0.00     0.220 C 
ATOM     11  N   UNL     1      -0.214  -1.833   0.431  1.00  0.00    -0.370 N 
ATOM     12  H   UNL     1      -0.838  -1.361   1.029  1.00  0.00     0.159 HD
ATOM     13  H   UNL     1       0.448  -2.459   0.805  1.00  0.00     0.159 HD
ATOM     14  O   UNL     1      -1.107  -0.899  -1.431  1.00  0.00    -0.275 OA
ENDBRANCH   9  10
ENDBRANCH   8   9
BRANCH   8  15
ATOM     15  N   UNL     1       2.527  -2.688  -3.479  1.00  0.00    -0.280 N 
ATOM     16  C   UNL     1       3.232  -2.147  -4.560  1.00  0.00     0.266 C 
ATOM     17  C   UNL     1       2.733  -4.049  -3.275  1.00  0.00     0.149 C 
ATOM     18  O   UNL     1       3.208  -0.976  -4.916  1.00  0.00    -0.268 OA
ATOM     19  C   UNL     1       4.016  -3.200  -5.277  1.00  0.00     0.081 C 
ATOM     20  S   UNL     1       3.802  -4.707  -4.494  1.00  0.00    -0.054 SA
ATOM     21  S   UNL     1       2.129  -5.151  -2.170  1.00  0.00    -0.052 S 
ATOM     22  C   UNL     1       4.756  -3.025  -6.385  1.00  0.00     0.029 C 
BRANCH  22  23
ATOM     23  C   UNL     1       5.357  -4.164  -7.108  1.00  0.00    -0.024 A 
ATOM     24  C   UNL     1       6.705  -4.506  -6.952  1.00  0.00     0.008 A 
ATOM     25  C   UNL     1       4.524  -5.007  -7.861  1.00  0.00     0.008 A 
ATOM     26  C   UNL     1       7.201  -5.685  -7.522  1.00  0.00     0.001 A 
ATOM     27  C   UNL     1       5.019  -6.188  -8.418  1.00  0.00     0.001 A 
ATOM     28  C   UNL     1       6.357  -6.529  -8.245  1.00  0.00     0.000 A 
ENDBRANCH  22  23
ENDBRANCH   8  15
ENDBRANCH   5   8
ENDBRANCH   3   4
ENDBRANCH   2   3
ENDBRANCH   1   2
BRANCH   1  29
ATOM     29  C   UNL     1       1.115   3.545   0.916  1.00  0.00     0.116 C 
BRANCH  29  30
ATOM     30  N   UNL     1      -0.316   3.784   1.071  1.00  0.00    -0.352 N 
ATOM     31  C   UNL     1      -0.958   4.763   1.799  1.00  0.00     0.251 C 
ATOM     32  H   UNL     1      -0.905   3.159   0.590  1.00  0.00     0.163 HD
ATOM     33  O   UNL     1      -2.173   4.745   1.928  1.00  0.00    -0.269 OA
BRANCH  31  34
ATOM     34  C   UNL     1      -0.148   5.818   2.449  1.00  0.00     0.039 A 
ATOM     35  C   UNL     1      -0.415   6.176   3.771  1.00  0.00     0.014 A 
ATOM     36  C   UNL     1       0.917   6.403   1.762  1.00  0.00     0.014 A 
ATOM     37  C   UNL     1       0.435   7.071   4.425  1.00  0.00     0.010 A 
ATOM     38  C   UNL     1       1.834   7.179   2.453  1.00  0.00     0.010 A 
ATOM     39  C   UNL     1       1.589   7.551   3.783  1.00  0.00    -0.014 A 
BRANCH  39  40
ATOM     40  C   UNL     1       2.529   8.490   4.447  1.00  0.00     0.031 A 
ATOM     41  C   UNL     1       2.805   9.830   3.808  1.00  0.00     0.074 A 
ATOM     42  C   UNL     1       3.192   8.117   5.560  1.00  0.00     0.049 A 
ATOM     43  N   UNL     1       3.669  10.747   4.153  1.00  0.00    -0.248 NA
ATOM     44  C   UNL     1       2.039  10.163   2.592  1.00  0.00     0.031 C 
ATOM     45  C   UNL     1       3.081   6.816   6.224  1.00  0.00     0.029 A 
ATOM     46  N   UNL     1       4.117   8.793   6.317  1.00  0.00    -0.354 N 
ATOM     47  C   UNL     1       3.576  11.738   3.182  1.00  0.00     0.074 A 
ATOM     48  C   UNL     1       2.625  11.282   2.196  1.00  0.00     0.031 C 
ATOM     49  C   UNL     1       3.896   6.792   7.291  1.00  0.00     0.029 A 
ATOM     50  C   UNL     1       4.614   8.059   7.370  1.00  0.00     0.049 A 
ATOM     51  H   UNL     1       4.399   9.716   6.124  1.00  0.00     0.167 HD
ATOM     52  C   UNL     1       4.187  12.945   3.136  1.00  0.00     0.034 A 
ATOM     53  C   UNL     1       5.549   8.374   8.289  1.00  0.00     0.034 A 
ATOM     54  C   UNL     1       5.083  13.421   4.151  1.00  0.00     0.049 A 
ATOM     55  C   UNL     1       6.173   9.745   8.245  1.00  0.00     0.074 A 
ATOM     56  C   UNL     1       5.709  14.651   4.238  1.00  0.00     0.029 A 
ATOM     57  N   UNL     1       5.470  12.693   5.264  1.00  0.00    -0.354 N 
ATOM     58  N   UNL     1       5.975  10.716   7.386  1.00  0.00    -0.248 NA
ATOM     59  C   UNL     1       7.115  10.082   9.322  1.00  0.00     0.031 C 
ATOM     60  C   UNL     1       6.486  14.662   5.400  1.00  0.00     0.029 A 
ATOM     61  C   UNL     1       6.314  13.451   6.052  1.00  0.00     0.049 A 
ATOM     62  H   UNL     1       5.185  11.771   5.463  1.00  0.00     0.167 HD
ATOM     63  C   UNL     1       6.725  11.792   7.847  1.00  0.00     0.074 A 
ATOM     64  C   UNL     1       7.367  11.359   9.071  1.00  0.00     0.031 C 
ATOM     65  C   UNL     1       6.881  13.024   7.304  1.00  0.00     0.034 A 
BRANCH  52  66
ATOM     66  C   UNL     1       3.841  13.864   1.994  1.00  0.00     0.023 A 
ATOM     67  C   UNL     1       2.554  14.438   1.933  1.00  0.00     0.012 A 
ATOM     68  C   UNL     1       4.797  14.207   1.019  1.00  0.00     0.148 A 
ATOM     69  C   UNL     1       2.212  15.312   0.902  1.00  0.00     0.002 A 
ATOM     70  C   UNL     1       4.465  15.118   0.023  1.00  0.00     0.091 A 
ATOM     71  F   UNL     1       6.008  13.636   1.083  1.00  0.00    -0.205 F 
ATOM     72  C   UNL     1       3.170  15.660  -0.045  1.00  0.00     0.022 A 
BRANCH  70  73
ATOM     73  S   UNL     1       5.646  15.700  -1.198  1.00  0.00     0.127 S 
ATOM     74  O   UNL     1       5.074  15.175  -2.437  1.00  0.00    -0.237 OA
ATOM     75  O   UNL     1       5.548  17.152  -1.048  1.00  0.00    -0.237 OA
ATOM     76  O   UNL     1       6.932  15.131  -0.820  1.00  0.00    -0.744 OA
ENDBRANCH  70  73
ENDBRANCH  52  66
BRANCH  53  77
ATOM     77  C   UNL     1       5.918   7.405   9.361  1.00  0.00     0.023 A 
ATOM     78  C   UNL     1       5.588   7.688  10.702  1.00  0.00     0.012 A 
ATOM     79  C   UNL     1       6.608   6.214   9.065  1.00  0.00     0.148 A 
ATOM     80  C   UNL     1       5.988   6.834  11.731  1.00  0.00     0.002 A 
ATOM     81  C   UNL     1       6.950   5.337  10.088  1.00  0.00     0.091 A 
ATOM     82  F   UNL     1       6.921   5.962   7.786  1.00  0.00    -0.205 F 
ATOM     83  C   UNL     1       6.662   5.655  11.424  1.00  0.00     0.022 A 
BRANCH  81  84
ATOM     84  S   UNL     1       7.701   3.737   9.767  1.00  0.00     0.127 S 
ATOM     85  O   UNL     1       9.080   3.963  10.193  1.00  0.00    -0.237 OA
ATOM     86  O   UNL     1       6.923   2.856  10.638  1.00  0.00    -0.237 OA
ATOM     87  O   UNL     1       7.505   3.494   8.344  1.00  0.00    -0.744 OA
ENDBRANCH  81  84
ENDBRANCH  53  77
BRANCH  65  88
ATOM     88  C   UNL     1       7.712  14.023   8.063  1.00  0.00     0.023 A 
ATOM     89  C   UNL     1       9.111  13.875   8.133  1.00  0.00     0.012 A 
ATOM     90  C   UNL     1       7.103  15.152   8.644  1.00  0.00     0.148 A 
ATOM     91  C   UNL     1       9.886  14.817   8.807  1.00  0.00     0.002 A 
ATOM     92  C   UNL     1       7.887  16.114   9.264  1.00  0.00     0.091 A 
ATOM     93  F   UNL     1       5.768  15.264   8.579  1.00  0.00    -0.205 F 
ATOM     94  C   UNL     1       9.277  15.941   9.361  1.00  0.00     0.022 A 
BRANCH  92  95
ATOM     95  S   UNL     1       7.200  17.642   9.911  1.00  0.00     0.127 S 
ATOM     96  O   UNL     1       7.290  17.421  11.354  1.00  0.00    -0.237 OA
ATOM     97  O   UNL     1       8.129  18.645   9.389  1.00  0.00    -0.237 OA
ATOM     98  O   UNL     1       5.848  17.733   9.376  1.00  0.00    -0.744 OA
ENDBRANCH  92  95
ENDBRANCH  65  88
ENDBRANCH  39  40
ENDBRANCH  31  34
ENDBRANCH  29  30
ENDBRANCH   1  29
TORSDOF 18
