REMARK SMILES O=C(COc1cc(-c2ccccc2)nc(NCc2ccc(Cl)cc2)n1)NCCCCNC(=O)c1ccc(-c2c3nc(c(-c4cccc(S(=O)(=O)[O-])c4F)c4ccc([nH]4)c(-c4cccc(S(=O)(=O)[O-])c4F)c4nc(c(-c5cccc(S(=O)(=O)[O-])c5F)c5ccc2[nH]5)C=C4)C=C3)cc1
REMARK SMILES IDX 27 1 26 2 1 3 2 4 3 6 4 7 5 8 6 9 25 10 7 11 15 12 14 13
REMARK SMILES IDX 8 14 9 15 13 16 10 17 12 18 11 19 16 20 17 22 18 23 19 24
REMARK SMILES IDX 24 25 20 26 23 27 21 28 22 29 28 30 29 31 30 32 31 33 32 34
REMARK SMILES IDX 33 36 34 37 35 38 96 39 36 40 95 41 37 42 38 43 39 44 89 45
REMARK SMILES IDX 40 46 94 47 88 48 90 49 41 50 93 51 87 52 86 53 42 55 74 56
REMARK SMILES IDX 54 57 73 58 55 59 58 60 72 61 91 62 56 63 57 64 71 66 92 67
REMARK SMILES IDX 59 68 43 69 44 70 52 71 45 72 47 73 53 74 46 75 48 76 49 77
REMARK SMILES IDX 50 78 51 79 75 80 76 81 84 82 77 83 79 84 85 85 78 86 80 87
REMARK SMILES IDX 81 88 82 89 83 90 60 91 61 92 69 93 62 94 64 95 70 96 63 97
REMARK SMILES IDX 65 98 66 99 67 100 68 101
REMARK H PARENT 26 5 16 21 31 35 90 54 58 65
REMARK Flexibility Score: inf
ROOT
ATOM      1  C   UNL     1       2.265  -0.361  -2.330  1.00  0.00     0.116 C 
ENDROOT
BRANCH   1   2
ATOM      2  N   UNL     1       2.980  -0.081  -1.100  1.00  0.00    -0.353 N 
ATOM      3  O   UNL     1       1.184   0.788   0.048  1.00  0.00    -0.271 OA
ATOM      4  C   UNL     1       2.341   0.376   0.038  1.00  0.00     0.258 C 
ATOM      5  H   UNL     1       3.954  -0.221  -1.073  1.00  0.00     0.163 HD
BRANCH   4   6
ATOM      6  C   UNL     1       3.178   0.254   1.320  1.00  0.00     0.331 C 
BRANCH   6   7
ATOM      7  O   UNL     1       3.989  -0.918   1.408  1.00  0.00    -0.467 OA
BRANCH   7   8
ATOM      8  C   UNL     1       3.282  -2.045   1.758  1.00  0.00     0.219 A 
ATOM      9  C   UNL     1       2.341  -2.574   0.917  1.00  0.00     0.097 A 
ATOM     10  N   UNL     1       3.683  -2.662   2.876  1.00  0.00    -0.177 NA
ATOM     11  C   UNL     1       1.774  -3.766   1.294  1.00  0.00     0.080 A 
ATOM     12  C   UNL     1       3.082  -3.824   3.175  1.00  0.00     0.226 A 
ATOM     13  N   UNL     1       2.116  -4.389   2.434  1.00  0.00    -0.213 NA
BRANCH  11  14
ATOM     14  C   UNL     1       0.766  -4.397   0.433  1.00  0.00     0.000 A 
ATOM     15  C   UNL     1      -0.500  -4.742   0.926  1.00  0.00     0.010 A 
ATOM     16  C   UNL     1       1.016  -4.582  -0.942  1.00  0.00     0.010 A 
ATOM     17  C   UNL     1      -1.496  -5.215   0.066  1.00  0.00     0.001 A 
ATOM     18  C   UNL     1       0.024  -5.056  -1.800  1.00  0.00     0.001 A 
ATOM     19  C   UNL     1      -1.235  -5.363  -1.296  1.00  0.00     0.000 A 
ENDBRANCH  11  14
BRANCH  12  20
ATOM     20  N   UNL     1       3.438  -4.529   4.286  1.00  0.00    -0.350 N 
ATOM     21  H   UNL     1       2.885  -5.303   4.540  1.00  0.00     0.164 HD
BRANCH  20  22
ATOM     22  C   UNL     1       4.570  -4.210   5.107  1.00  0.00     0.152 C 
BRANCH  22  23
ATOM     23  C   UNL     1       4.130  -4.183   6.554  1.00  0.00    -0.029 A 
ATOM     24  C   UNL     1       3.906  -2.958   7.200  1.00  0.00     0.007 A 
ATOM     25  C   UNL     1       3.888  -5.376   7.255  1.00  0.00     0.007 A 
ATOM     26  C   UNL     1       3.465  -2.924   8.524  1.00  0.00     0.021 A 
ATOM     27  C   UNL     1       3.440  -5.342   8.578  1.00  0.00     0.021 A 
ATOM     28  C   UNL     1       3.232  -4.116   9.206  1.00  0.00     0.041 A 
ATOM     29  Cl  UNL     1       2.677  -4.074  10.835  1.00  0.00    -0.084 Cl
ENDBRANCH  22  23
ENDBRANCH  20  22
ENDBRANCH  12  20
ENDBRANCH   7   8
ENDBRANCH   6   7
ENDBRANCH   4   6
ENDBRANCH   1   2
BRANCH   1  30
ATOM     30  C   UNL     1       2.643   0.568  -3.476  1.00  0.00     0.023 C 
BRANCH  30  31
ATOM     31  C   UNL     1       4.119   0.530  -3.874  1.00  0.00     0.023 C 
BRANCH  31  32
ATOM     32  C   UNL     1       4.659  -0.837  -4.286  1.00  0.00     0.116 C 
BRANCH  32  33
ATOM     33  N   UNL     1       4.030  -1.361  -5.489  1.00  0.00    -0.352 N 
ATOM     34  C   UNL     1       4.611  -1.816  -6.649  1.00  0.00     0.251 C 
ATOM     35  H   UNL     1       3.046  -1.394  -5.469  1.00  0.00     0.163 HD
ATOM     36  O   UNL     1       3.903  -2.090  -7.617  1.00  0.00    -0.269 OA
BRANCH  34  37
ATOM     37  C   UNL     1       6.083  -1.950  -6.750  1.00  0.00     0.039 A 
ATOM     38  C   UNL     1       6.727  -1.479  -7.897  1.00  0.00     0.014 A 
ATOM     39  C   UNL     1       6.829  -2.533  -5.722  1.00  0.00     0.014 A 
ATOM     40  C   UNL     1       8.122  -1.526  -7.980  1.00  0.00     0.010 A 
ATOM     41  C   UNL     1       8.222  -2.508  -5.773  1.00  0.00     0.010 A 
ATOM     42  C   UNL     1       8.886  -2.004  -6.902  1.00  0.00    -0.014 A 
BRANCH  42  43
ATOM     43  C   UNL     1      10.373  -1.960  -6.929  1.00  0.00     0.031 A 
ATOM     44  C   UNL     1      11.179  -3.229  -6.839  1.00  0.00     0.074 A 
ATOM     45  C   UNL     1      11.005  -0.768  -6.952  1.00  0.00     0.049 A 
ATOM     46  N   UNL     1      12.478  -3.378  -6.782  1.00  0.00    -0.248 NA
ATOM     47  C   UNL     1      10.429  -4.494  -6.781  1.00  0.00     0.031 C 
ATOM     48  C   UNL     1      10.344   0.539  -6.962  1.00  0.00     0.029 A 
ATOM     49  N   UNL     1      12.344  -0.461  -6.940  1.00  0.00    -0.354 N 
ATOM     50  C   UNL     1      12.700  -4.744  -6.654  1.00  0.00     0.074 A 
ATOM     51  C   UNL     1      11.400  -5.378  -6.603  1.00  0.00     0.031 C 
ATOM     52  C   UNL     1      11.276   1.504  -6.956  1.00  0.00     0.029 A 
ATOM     53  C   UNL     1      12.600   0.891  -6.905  1.00  0.00     0.049 A 
ATOM     54  H   UNL     1      13.053  -1.143  -6.956  1.00  0.00     0.167 HD
ATOM     55  C   UNL     1      13.876  -5.415  -6.613  1.00  0.00     0.034 A 
ATOM     56  C   UNL     1      13.764   1.564  -6.824  1.00  0.00     0.034 A 
ATOM     57  C   UNL     1      15.169  -4.788  -6.692  1.00  0.00     0.049 A 
ATOM     58  C   UNL     1      15.058   0.796  -6.803  1.00  0.00     0.074 A 
ATOM     59  C   UNL     1      16.415  -5.390  -6.729  1.00  0.00     0.029 A 
ATOM     60  N   UNL     1      15.386  -3.420  -6.738  1.00  0.00    -0.354 N 
ATOM     61  N   UNL     1      15.246  -0.501  -6.824  1.00  0.00    -0.248 NA
ATOM     62  C   UNL     1      16.300   1.583  -6.785  1.00  0.00     0.031 C 
ATOM     63  C   UNL     1      17.386  -4.385  -6.767  1.00  0.00     0.029 A 
ATOM     64  C   UNL     1      16.744  -3.158  -6.795  1.00  0.00     0.049 A 
ATOM     65  H   UNL     1      14.678  -2.736  -6.731  1.00  0.00     0.167 HD
ATOM     66  C   UNL     1      16.624  -0.685  -6.857  1.00  0.00     0.074 A 
ATOM     67  C   UNL     1      17.222   0.634  -6.875  1.00  0.00     0.031 C 
ATOM     68  C   UNL     1      17.330  -1.843  -6.860  1.00  0.00     0.034 A 
BRANCH  55  69
ATOM     69  C   UNL     1      13.822  -6.920  -6.527  1.00  0.00     0.023 A 
ATOM     70  C   UNL     1      13.384  -7.664  -7.642  1.00  0.00     0.012 A 
ATOM     71  C   UNL     1      14.267  -7.599  -5.376  1.00  0.00     0.148 A 
ATOM     72  C   UNL     1      13.356  -9.057  -7.602  1.00  0.00     0.002 A 
ATOM     73  C   UNL     1      14.281  -8.989  -5.361  1.00  0.00     0.091 A 
ATOM     74  F   UNL     1      14.665  -6.876  -4.320  1.00  0.00    -0.205 F 
ATOM     75  C   UNL     1      13.814  -9.719  -6.466  1.00  0.00     0.022 A 
BRANCH  73  76
ATOM     76  S   UNL     1      14.927  -9.940  -3.980  1.00  0.00     0.127 S 
ATOM     77  O   UNL     1      13.713 -10.569  -3.462  1.00  0.00    -0.237 OA
ATOM     78  O   UNL     1      15.852 -10.857  -4.646  1.00  0.00    -0.237 OA
ATOM     79  O   UNL     1      15.558  -8.978  -3.088  1.00  0.00    -0.744 OA
ENDBRANCH  73  76
ENDBRANCH  55  69
BRANCH  56  80
ATOM     80  C   UNL     1      13.760   3.055  -6.799  1.00  0.00     0.023 A 
ATOM     81  C   UNL     1      14.246   3.773  -7.909  1.00  0.00     0.012 A 
ATOM     82  C   UNL     1      13.253   3.762  -5.692  1.00  0.00     0.148 A 
ATOM     83  C   UNL     1      14.257   5.168  -7.903  1.00  0.00     0.002 A 
ATOM     84  C   UNL     1      13.213   5.151  -5.717  1.00  0.00     0.091 A 
ATOM     85  F   UNL     1      12.805   3.060  -4.642  1.00  0.00    -0.205 F 
ATOM     86  C   UNL     1      13.732   5.857  -6.813  1.00  0.00     0.022 A 
BRANCH  84  87
ATOM     87  S   UNL     1      12.431   6.115  -4.418  1.00  0.00     0.127 S 
ATOM     88  O   UNL     1      13.579   6.784  -3.811  1.00  0.00    -0.237 OA
ATOM     89  O   UNL     1      11.543   6.988  -5.187  1.00  0.00    -0.237 OA
ATOM     90  O   UNL     1      11.741   5.151  -3.572  1.00  0.00    -0.744 OA
ENDBRANCH  84  87
ENDBRANCH  56  80
BRANCH  68  91
ATOM     91  C   UNL     1      18.832  -1.749  -6.928  1.00  0.00     0.023 A 
ATOM     92  C   UNL     1      19.563  -1.295  -5.812  1.00  0.00     0.012 A 
ATOM     93  C   UNL     1      19.524  -2.181  -8.078  1.00  0.00     0.148 A 
ATOM     94  C   UNL     1      20.956  -1.240  -5.852  1.00  0.00     0.002 A 
ATOM     95  C   UNL     1      20.913  -2.173  -8.091  1.00  0.00     0.091 A 
ATOM     96  F   UNL     1      18.811  -2.594  -9.136  1.00  0.00    -0.205 F 
ATOM     97  C   UNL     1      21.631  -1.690  -6.985  1.00  0.00     0.022 A 
BRANCH  95  98
ATOM     98  S   UNL     1      21.869  -2.823  -9.466  1.00  0.00     0.127 S 
ATOM     99  O   UNL     1      22.438  -1.603 -10.036  1.00  0.00    -0.237 OA
ATOM    100  O   UNL     1      22.835  -3.689  -8.789  1.00  0.00    -0.237 OA
ATOM    101  O   UNL     1      20.921  -3.526 -10.320  1.00  0.00    -0.744 OA
ENDBRANCH  95  98
ENDBRANCH  68  91
ENDBRANCH  42  43
ENDBRANCH  34  37
ENDBRANCH  32  33
ENDBRANCH  31  32
ENDBRANCH  30  31
ENDBRANCH   1  30
TORSDOF 20
