REMARK SMILES COc1ccc(CCN2C(=O)C[C@@H](C(=O)NCCCCNC(=O)c3ccc(-c4c5nc(c(-c6cccc(S(=O)(=O)[O-])c6F)c6ccc([nH]6)c(-c6cccc(S(=O)(=O)[O-])c6F)c6nc(c(-c7cccc(S(=O)(=O)[O-])c7F)c7ccc4[nH]7)C=C6)C=C5)cc3)S/C2=[NH+]\c2ccc(F)cc2)cc1OC
REMARK SMILES IDX 18 1 17 2 16 3 14 4 15 5 13 7 9 8 10 9 88 10 11 11 12 12
REMARK SMILES IDX 87 13 89 14 8 16 7 17 6 18 3 19 4 20 98 21 5 22 97 23 2 24
REMARK SMILES IDX 1 25 99 26 100 27 90 28 91 29 96 30 92 31 95 32 93 33 94 34
REMARK SMILES IDX 19 35 20 36 21 37 22 38 23 40 24 41 25 42 86 43 26 44 85 45
REMARK SMILES IDX 27 46 28 47 29 48 79 49 30 50 84 51 78 52 80 53 31 54 83 55
REMARK SMILES IDX 77 56 76 57 32 59 64 60 44 61 63 62 45 63 48 64 62 65 81 66
REMARK SMILES IDX 46 67 47 68 61 70 82 71 49 72 33 73 34 74 42 75 35 76 37 77
REMARK SMILES IDX 43 78 36 79 38 80 39 81 40 82 41 83 65 84 66 85 74 86 67 87
REMARK SMILES IDX 69 88 75 89 68 90 70 91 71 92 72 93 73 94 50 95 51 96 59 97
REMARK SMILES IDX 52 98 54 99 60 100 53 101 55 102 56 103 57 104 58 105
REMARK H PARENT 16 6 89 15 21 39 80 58 48 69
REMARK Flexibility Score: inf
ROOT
ATOM      1  C   UNL     1       0.632   4.146  -9.152  1.00  0.00     0.023 C 
ENDROOT
BRANCH   1   2
ATOM      2  C   UNL     1       0.160   5.545  -8.762  1.00  0.00     0.116 C 
BRANCH   2   3
ATOM      3  N   UNL     1      -1.269   5.747  -8.930  1.00  0.00    -0.355 N 
ATOM      4  C   UNL     1      -2.265   5.928  -8.012  1.00  0.00     0.234 C 
ATOM      5  O   UNL     1      -3.401   6.158  -8.437  1.00  0.00    -0.274 OA
ATOM      6  H   UNL     1      -1.572   5.754  -9.867  1.00  0.00     0.163 HD
BRANCH   4   7
ATOM      7  C   UNL     1      -2.006   5.879  -6.502  1.00  0.00     0.160 C 
ATOM      8  N   UNL     1       0.346   5.516  -4.691  1.00  0.00    -0.191 N 
ATOM      9  C   UNL     1      -0.059   6.795  -5.038  1.00  0.00     0.311 C 
ATOM     10  C   UNL     1      -0.388   4.338  -4.819  1.00  0.00     0.319 C 
ATOM     11  O   UNL     1       0.471   7.794  -4.535  1.00  0.00    -0.247 OA
ATOM     12  C   UNL     1      -1.139   7.023  -6.053  1.00  0.00     0.153 C 
ATOM     13  S   UNL     1      -1.573   4.209  -6.070  1.00  0.00    -0.024 SA
ATOM     14  N   UNL     1      -0.119   3.346  -4.033  1.00  0.00    -0.235 N 
ATOM     15  H   UNL     1       0.632   3.432  -3.403  1.00  0.00     0.313 HD
BRANCH   8  16
ATOM     16  C   UNL     1       1.681   5.440  -4.060  1.00  0.00     0.251 C 
BRANCH  16  17
ATOM     17  C   UNL     1       1.746   5.653  -2.532  1.00  0.00     0.082 C 
BRANCH  17  18
ATOM     18  C   UNL     1       1.658   4.353  -1.769  1.00  0.00    -0.040 A 
ATOM     19  C   UNL     1       1.333   1.727  -0.792  1.00  0.00     0.160 A 
ATOM     20  C   UNL     1       0.308   2.674  -0.662  1.00  0.00     0.051 A 
ATOM     21  C   UNL     1       2.567   2.128  -1.328  1.00  0.00     0.160 A 
ATOM     22  C   UNL     1       0.476   3.984  -1.126  1.00  0.00     0.008 A 
ATOM     23  C   UNL     1       2.714   3.432  -1.820  1.00  0.00     0.054 A 
BRANCH  19  24
ATOM     24  O   UNL     1       1.170   0.402  -0.494  1.00  0.00    -0.493 OA
ATOM     25  C   UNL     1       0.086   0.034   0.343  1.00  0.00     0.278 C 
ENDBRANCH  19  24
BRANCH  21  26
ATOM     26  O   UNL     1       3.693   1.360  -1.489  1.00  0.00    -0.493 OA
ATOM     27  C   UNL     1       3.824   0.223  -0.645  1.00  0.00     0.278 C 
ENDBRANCH  21  26
ENDBRANCH  17  18
ENDBRANCH  16  17
ENDBRANCH   8  16
BRANCH  14  28
ATOM     28  C   UNL     1      -0.856   2.154  -4.044  1.00  0.00     0.125 A 
ATOM     29  C   UNL     1      -2.030   2.038  -3.284  1.00  0.00     0.055 A 
ATOM     30  C   UNL     1      -0.391   1.048  -4.759  1.00  0.00     0.055 A 
ATOM     31  C   UNL     1      -2.746   0.840  -3.265  1.00  0.00     0.043 A 
ATOM     32  C   UNL     1      -1.109  -0.149  -4.748  1.00  0.00     0.043 A 
ATOM     33  C   UNL     1      -2.279  -0.242  -4.002  1.00  0.00     0.123 A 
ATOM     34  F   UNL     1      -2.962  -1.394  -3.983  1.00  0.00    -0.207 F 
ENDBRANCH  14  28
ENDBRANCH   4   7
ENDBRANCH   2   3
ENDBRANCH   1   2
BRANCH   1  35
ATOM     35  C   UNL     1       0.445   3.767 -10.621  1.00  0.00     0.023 C 
BRANCH  35  36
ATOM     36  C   UNL     1       0.991   4.759 -11.641  1.00  0.00     0.116 C 
BRANCH  36  37
ATOM     37  N   UNL     1       2.408   5.049 -11.477  1.00  0.00    -0.352 N 
ATOM     38  C   UNL     1       3.358   5.250 -12.453  1.00  0.00     0.251 C 
ATOM     39  H   UNL     1       2.729   5.110 -10.548  1.00  0.00     0.163 HD
ATOM     40  O   UNL     1       4.536   5.411 -12.144  1.00  0.00    -0.269 OA
BRANCH  38  41
ATOM     41  C   UNL     1       2.955   5.227 -13.876  1.00  0.00     0.039 A 
ATOM     42  C   UNL     1       3.662   4.415 -14.766  1.00  0.00     0.014 A 
ATOM     43  C   UNL     1       1.851   5.961 -14.316  1.00  0.00     0.014 A 
ATOM     44  C   UNL     1       3.212   4.277 -16.082  1.00  0.00     0.010 A 
ATOM     45  C   UNL     1       1.363   5.765 -15.604  1.00  0.00     0.010 A 
ATOM     46  C   UNL     1       2.035   4.919 -16.500  1.00  0.00    -0.014 A 
BRANCH  46  47
ATOM     47  C   UNL     1       1.474   4.706 -17.859  1.00  0.00     0.031 A 
ATOM     48  C   UNL     1       1.343   5.864 -18.812  1.00  0.00     0.074 A 
ATOM     49  C   UNL     1       0.979   3.497 -18.194  1.00  0.00     0.049 A 
ATOM     50  N   UNL     1       0.806   5.893 -20.004  1.00  0.00    -0.248 NA
ATOM     51  C   UNL     1       1.853   7.167 -18.354  1.00  0.00     0.031 C 
ATOM     52  C   UNL     1       0.962   2.318 -17.325  1.00  0.00     0.029 A 
ATOM     53  N   UNL     1       0.362   3.068 -19.344  1.00  0.00    -0.354 N 
ATOM     54  C   UNL     1       0.869   7.218 -20.417  1.00  0.00     0.074 A 
ATOM     55  C   UNL     1       1.473   7.969 -19.338  1.00  0.00     0.031 C 
ATOM     56  C   UNL     1       0.366   1.303 -17.971  1.00  0.00     0.029 A 
ATOM     57  C   UNL     1      -0.066   1.762 -19.287  1.00  0.00     0.049 A 
ATOM     58  H   UNL     1       0.239   3.642 -20.134  1.00  0.00     0.167 HD
ATOM     59  C   UNL     1       0.486   7.758 -21.598  1.00  0.00     0.034 A 
ATOM     60  C   UNL     1      -0.737   1.020 -20.191  1.00  0.00     0.034 A 
ATOM     61  C   UNL     1      -0.053   6.997 -22.692  1.00  0.00     0.049 A 
ATOM     62  C   UNL     1      -1.089   1.629 -21.521  1.00  0.00     0.074 A 
ATOM     63  C   UNL     1      -0.359   7.430 -23.971  1.00  0.00     0.029 A 
ATOM     64  N   UNL     1      -0.371   5.650 -22.639  1.00  0.00    -0.354 N 
ATOM     65  N   UNL     1      -0.850   2.841 -21.962  1.00  0.00    -0.248 NA
ATOM     66  C   UNL     1      -1.768   0.760 -22.494  1.00  0.00     0.031 C 
ATOM     67  C   UNL     1      -0.879   6.346 -24.685  1.00  0.00     0.029 A 
ATOM     68  C   UNL     1      -0.879   5.235 -23.857  1.00  0.00     0.049 A 
ATOM     69  H   UNL     1      -0.253   5.072 -21.850  1.00  0.00     0.167 HD
ATOM     70  C   UNL     1      -1.315   2.868 -23.273  1.00  0.00     0.074 A 
ATOM     71  C   UNL     1      -1.830   1.545 -23.561  1.00  0.00     0.031 C 
ATOM     72  C   UNL     1      -1.330   3.900 -24.152  1.00  0.00     0.034 A 
BRANCH  59  73
ATOM     73  C   UNL     1       0.694   9.236 -21.796  1.00  0.00     0.023 A 
ATOM     74  C   UNL     1       2.000   9.735 -21.977  1.00  0.00     0.012 A 
ATOM     75  C   UNL     1      -0.401  10.119 -21.870  1.00  0.00     0.148 A 
ATOM     76  C   UNL     1       2.217  11.094 -22.197  1.00  0.00     0.002 A 
ATOM     77  C   UNL     1      -0.180  11.466 -22.133  1.00  0.00     0.091 A 
ATOM     78  F   UNL     1      -1.633   9.629 -21.673  1.00  0.00    -0.205 F 
ATOM     79  C   UNL     1       1.128  11.957 -22.286  1.00  0.00     0.022 A 
BRANCH  77  80
ATOM     80  S   UNL     1      -1.520  12.644 -22.344  1.00  0.00     0.127 S 
ATOM     81  O   UNL     1      -1.417  13.430 -21.115  1.00  0.00    -0.237 OA
ATOM     82  O   UNL     1      -1.117  13.355 -23.558  1.00  0.00    -0.237 OA
ATOM     83  O   UNL     1      -2.733  11.851 -22.480  1.00  0.00    -0.744 OA
ENDBRANCH  77  80
ENDBRANCH  59  73
BRANCH  60  84
ATOM     84  C   UNL     1      -1.055  -0.407 -19.898  1.00  0.00     0.023 A 
ATOM     85  C   UNL     1      -0.373  -1.422 -20.599  1.00  0.00     0.012 A 
ATOM     86  C   UNL     1      -2.005  -0.767 -18.924  1.00  0.00     0.148 A 
ATOM     87  C   UNL     1      -0.657  -2.767 -20.360  1.00  0.00     0.002 A 
ATOM     88  C   UNL     1      -2.244  -2.110 -18.652  1.00  0.00     0.091 A 
ATOM     89  F   UNL     1      -2.655   0.212 -18.277  1.00  0.00    -0.205 F 
ATOM     90  C   UNL     1      -1.584  -3.111 -19.380  1.00  0.00     0.022 A 
BRANCH  88  91
ATOM     91  S   UNL     1      -3.324  -2.639 -17.317  1.00  0.00     0.127 S 
ATOM     92  O   UNL     1      -4.507  -3.084 -18.047  1.00  0.00    -0.237 OA
ATOM     93  O   UNL     1      -2.542  -3.710 -16.698  1.00  0.00    -0.237 OA
ATOM     94  O   UNL     1      -3.499  -1.465 -16.472  1.00  0.00    -0.744 OA
ENDBRANCH  88  91
ENDBRANCH  60  84
BRANCH  72  95
ATOM     95  C   UNL     1      -1.886   3.642 -25.527  1.00  0.00     0.023 A 
ATOM     96  C   UNL     1      -3.276   3.501 -25.703  1.00  0.00     0.012 A 
ATOM     97  C   UNL     1      -1.039   3.625 -26.653  1.00  0.00     0.148 A 
ATOM     98  C   UNL     1      -3.813   3.320 -26.977  1.00  0.00     0.002 A 
ATOM     99  C   UNL     1      -1.586   3.493 -27.924  1.00  0.00     0.091 A 
ATOM    100  F   UNL     1       0.283   3.741 -26.462  1.00  0.00    -0.205 F 
ATOM    101  C   UNL     1      -2.971   3.329 -28.087  1.00  0.00     0.022 A 
BRANCH  99 102
ATOM    102  S   UNL     1      -0.588   3.591 -29.414  1.00  0.00     0.127 S 
ATOM    103  O   UNL     1      -0.547   2.192 -29.838  1.00  0.00    -0.237 OA
ATOM    104  O   UNL     1      -1.390   4.465 -30.270  1.00  0.00    -0.237 OA
ATOM    105  O   UNL     1       0.689   4.159 -29.002  1.00  0.00    -0.744 OA
ENDBRANCH  99 102
ENDBRANCH  72  95
ENDBRANCH  46  47
ENDBRANCH  38  41
ENDBRANCH  36  37
ENDBRANCH  35  36
ENDBRANCH   1  35
TORSDOF 20
