REMARK SMILES COc1cccc(-c2c(C(=O)NCCCCNC(=O)c3ccc(-c4c5nc(c(-c6cccc(S(=O)(=O)[O-])c6F)c6ccc([nH]6)c(-c6cccc(S(=O)(=O)[O-])c6F)c6nc(c(-c7cccc(S(=O)(=O)[O-])c7F)c7ccc4[nH]7)C=C6)C=C5)cc3)nnn2Cc2ccc(OC(F)(F)F)cc2)c1
REMARK SMILES IDX 14 1 13 2 12 3 10 4 11 5 9 7 8 8 85 9 83 10 84 11 7 12 3 13
REMARK SMILES IDX 4 14 98 15 5 16 6 17 2 18 1 19 86 20 87 21 88 22 97 23 89 24
REMARK SMILES IDX 96 25 90 26 91 27 92 28 93 29 94 30 95 31 15 32 16 33 17 34
REMARK SMILES IDX 18 35 19 37 20 38 21 39 82 40 22 41 81 42 23 43 24 44 25 45
REMARK SMILES IDX 75 46 26 47 80 48 74 49 76 50 27 51 79 52 73 53 72 54 28 56
REMARK SMILES IDX 60 57 40 58 59 59 41 60 44 61 58 62 77 63 42 64 43 65 57 67
REMARK SMILES IDX 78 68 45 69 29 70 30 71 38 72 31 73 33 74 39 75 32 76 34 77
REMARK SMILES IDX 35 78 36 79 37 80 61 81 62 82 70 83 63 84 65 85 71 86 64 87
REMARK SMILES IDX 66 88 67 89 68 90 69 91 46 92 47 93 55 94 48 95 50 96 56 97
REMARK SMILES IDX 49 98 51 99 52 100 53 101 54 102
REMARK H PARENT 12 6 17 36 76 55 44 66
REMARK Flexibility Score: inf
ROOT
ATOM      1  C   UNL     1       1.003  -3.424   3.591  1.00  0.00     0.023 C 
ENDROOT
BRANCH   1   2
ATOM      2  C   UNL     1       1.573  -2.668   4.785  1.00  0.00     0.116 C 
BRANCH   2   3
ATOM      3  N   UNL     1       2.813  -3.173   5.302  1.00  0.00    -0.351 N 
ATOM      4  C   UNL     1       4.100  -2.685   5.312  1.00  0.00     0.274 C 
ATOM      5  O   UNL     1       4.911  -3.454   5.841  1.00  0.00    -0.267 OA
ATOM      6  H   UNL     1       2.725  -4.051   5.739  1.00  0.00     0.163 HD
BRANCH   4   7
ATOM      7  C   UNL     1       4.578  -1.425   4.705  1.00  0.00     0.178 A 
ATOM      8  C   UNL     1       4.027  -0.242   4.192  1.00  0.00     0.102 A 
ATOM      9  N   UNL     1       5.134   0.485   3.788  1.00  0.00    -0.239 N 
ATOM     10  N   UNL     1       5.957  -1.343   4.532  1.00  0.00    -0.124 NA
ATOM     11  N   UNL     1       6.264  -0.221   3.917  1.00  0.00    -0.066 NA
BRANCH   8  12
ATOM     12  C   UNL     1       2.678   0.261   3.956  1.00  0.00     0.006 A 
ATOM     13  C   UNL     1       0.857   0.599   2.370  1.00  0.00     0.119 A 
ATOM     14  C   UNL     1       0.033   0.982   3.430  1.00  0.00     0.046 A 
ATOM     15  C   UNL     1       2.173   0.231   2.639  1.00  0.00     0.056 A 
ATOM     16  C   UNL     1       0.524   1.024   4.739  1.00  0.00     0.005 A 
ATOM     17  C   UNL     1       1.854   0.687   5.004  1.00  0.00     0.011 A 
BRANCH  13  18
ATOM     18  O   UNL     1       0.273   0.630   1.135  1.00  0.00    -0.497 OA
ATOM     19  C   UNL     1       0.963  -0.019   0.073  1.00  0.00     0.278 C 
ENDBRANCH  13  18
ENDBRANCH   8  12
BRANCH   9  20
ATOM     20  C   UNL     1       5.188   1.751   3.069  1.00  0.00     0.182 C 
BRANCH  20  21
ATOM     21  C   UNL     1       5.808   2.877   3.860  1.00  0.00    -0.026 A 
ATOM     22  C   UNL     1       5.069   4.028   4.159  1.00  0.00     0.009 A 
ATOM     23  C   UNL     1       7.150   2.822   4.257  1.00  0.00     0.009 A 
ATOM     24  C   UNL     1       5.670   5.098   4.829  1.00  0.00     0.047 A 
ATOM     25  C   UNL     1       7.745   3.887   4.938  1.00  0.00     0.047 A 
ATOM     26  C   UNL     1       7.012   5.037   5.218  1.00  0.00     0.129 A 
BRANCH  26  27
ATOM     27  O   UNL     1       7.475   6.157   5.847  1.00  0.00    -0.406 OA
BRANCH  27  28
ATOM     28  C   UNL     1       8.827   6.153   6.271  1.00  0.00     0.573 C 
ATOM     29  F   UNL     1       9.058   5.192   7.187  1.00  0.00    -0.132 F 
ATOM     30  F   UNL     1       9.668   5.993   5.223  1.00  0.00    -0.132 F 
ATOM     31  F   UNL     1       9.105   7.351   6.837  1.00  0.00    -0.132 F 
ENDBRANCH  27  28
ENDBRANCH  26  27
ENDBRANCH  20  21
ENDBRANCH   9  20
ENDBRANCH   4   7
ENDBRANCH   2   3
ENDBRANCH   1   2
BRANCH   1  32
ATOM     32  C   UNL     1       0.017  -4.546   3.918  1.00  0.00     0.023 C 
BRANCH  32  33
ATOM     33  C   UNL     1      -1.193  -4.129   4.752  1.00  0.00     0.116 C 
BRANCH  33  34
ATOM     34  N   UNL     1      -2.018  -3.092   4.125  1.00  0.00    -0.352 N 
ATOM     35  C   UNL     1      -3.085  -2.420   4.693  1.00  0.00     0.251 C 
ATOM     36  H   UNL     1      -1.788  -2.848   3.199  1.00  0.00     0.163 HD
ATOM     37  O   UNL     1      -3.940  -1.873   4.000  1.00  0.00    -0.269 OA
BRANCH  35  38
ATOM     38  C   UNL     1      -3.161  -2.353   6.161  1.00  0.00     0.039 A 
ATOM     39  C   UNL     1      -4.338  -2.643   6.859  1.00  0.00     0.014 A 
ATOM     40  C   UNL     1      -1.980  -2.055   6.835  1.00  0.00     0.014 A 
ATOM     41  C   UNL     1      -4.289  -2.725   8.249  1.00  0.00     0.010 A 
ATOM     42  C   UNL     1      -1.902  -2.279   8.185  1.00  0.00     0.010 A 
ATOM     43  C   UNL     1      -3.060  -2.564   8.905  1.00  0.00    -0.014 A 
BRANCH  43  44
ATOM     44  C   UNL     1      -2.921  -2.833  10.334  1.00  0.00     0.031 A 
ATOM     45  C   UNL     1      -3.292  -4.216  10.740  1.00  0.00     0.074 A 
ATOM     46  C   UNL     1      -2.242  -2.002  11.156  1.00  0.00     0.049 A 
ATOM     47  N   UNL     1      -4.304  -4.590  11.452  1.00  0.00    -0.248 NA
ATOM     48  C   UNL     1      -2.543  -5.335  10.144  1.00  0.00     0.031 C 
ATOM     49  C   UNL     1      -1.529  -0.772  10.782  1.00  0.00     0.029 A 
ATOM     50  N   UNL     1      -1.889  -2.167  12.461  1.00  0.00    -0.354 N 
ATOM     51  C   UNL     1      -4.145  -5.966  11.625  1.00  0.00     0.074 A 
ATOM     52  C   UNL     1      -3.239  -6.383  10.591  1.00  0.00     0.031 C 
ATOM     53  C   UNL     1      -0.622  -0.472  11.735  1.00  0.00     0.029 A 
ATOM     54  C   UNL     1      -0.813  -1.371  12.855  1.00  0.00     0.049 A 
ATOM     55  H   UNL     1      -2.349  -2.790  13.069  1.00  0.00     0.167 HD
ATOM     56  C   UNL     1      -4.504  -6.570  12.796  1.00  0.00     0.034 A 
ATOM     57  C   UNL     1      -0.093  -1.479  13.998  1.00  0.00     0.034 A 
ATOM     58  C   UNL     1      -5.324  -5.682  13.593  1.00  0.00     0.049 A 
ATOM     59  C   UNL     1      -0.919  -2.237  14.960  1.00  0.00     0.074 A 
ATOM     60  C   UNL     1      -6.503  -4.986  13.413  1.00  0.00     0.029 A 
ATOM     61  N   UNL     1      -4.711  -5.108  14.681  1.00  0.00    -0.354 N 
ATOM     62  N   UNL     1      -2.035  -1.787  15.461  1.00  0.00    -0.248 NA
ATOM     63  C   UNL     1      -0.721  -3.673  15.057  1.00  0.00     0.031 C 
ATOM     64  C   UNL     1      -6.318  -3.756  14.115  1.00  0.00     0.029 A 
ATOM     65  C   UNL     1      -5.072  -3.795  14.743  1.00  0.00     0.049 A 
ATOM     66  H   UNL     1      -4.109  -5.569  15.310  1.00  0.00     0.167 HD
ATOM     67  C   UNL     1      -2.867  -2.898  15.482  1.00  0.00     0.074 A 
ATOM     68  C   UNL     1      -1.966  -4.043  15.366  1.00  0.00     0.031 C 
ATOM     69  C   UNL     1      -4.211  -2.763  15.278  1.00  0.00     0.034 A 
BRANCH  56  70
ATOM     70  C   UNL     1      -3.759  -7.726  13.469  1.00  0.00     0.023 A 
ATOM     71  C   UNL     1      -4.262  -8.148  14.726  1.00  0.00     0.012 A 
ATOM     72  C   UNL     1      -2.463  -8.181  13.134  1.00  0.00     0.148 A 
ATOM     73  C   UNL     1      -3.469  -8.831  15.654  1.00  0.00     0.002 A 
ATOM     74  C   UNL     1      -1.694  -8.908  14.038  1.00  0.00     0.091 A 
ATOM     75  F   UNL     1      -1.905  -7.851  11.972  1.00  0.00    -0.205 F 
ATOM     76  C   UNL     1      -2.175  -9.196  15.316  1.00  0.00     0.022 A 
BRANCH  74  77
ATOM     77  S   UNL     1      -0.020  -9.440  13.644  1.00  0.00     0.127 S 
ATOM     78  O   UNL     1       0.767  -8.579  14.523  1.00  0.00    -0.237 OA
ATOM     79  O   UNL     1      -0.062 -10.851  14.027  1.00  0.00    -0.237 OA
ATOM     80  O   UNL     1       0.145  -9.211  12.215  1.00  0.00    -0.744 OA
ENDBRANCH  74  77
ENDBRANCH  56  70
BRANCH  57  81
ATOM     81  C   UNL     1       1.329  -1.168  14.265  1.00  0.00     0.023 A 
ATOM     82  C   UNL     1       1.764  -0.982  15.593  1.00  0.00     0.012 A 
ATOM     83  C   UNL     1       2.308  -1.329  13.260  1.00  0.00     0.148 A 
ATOM     84  C   UNL     1       3.126  -1.000  15.916  1.00  0.00     0.002 A 
ATOM     85  C   UNL     1       3.662  -1.336  13.585  1.00  0.00     0.091 A 
ATOM     86  F   UNL     1       1.911  -1.569  12.004  1.00  0.00    -0.205 F 
ATOM     87  C   UNL     1       4.074  -1.187  14.915  1.00  0.00     0.022 A 
BRANCH  85  88
ATOM     88  S   UNL     1       4.939  -1.586  12.346  1.00  0.00     0.127 S 
ATOM     89  O   UNL     1       5.881  -0.512  12.664  1.00  0.00    -0.237 OA
ATOM     90  O   UNL     1       5.409  -2.930  12.667  1.00  0.00    -0.237 OA
ATOM     91  O   UNL     1       4.270  -1.435  11.059  1.00  0.00    -0.744 OA
ENDBRANCH  85  88
ENDBRANCH  57  81
BRANCH  69  92
ATOM     92  C   UNL     1      -4.810  -1.384  15.377  1.00  0.00     0.023 A 
ATOM     93  C   UNL     1      -4.471  -0.339  14.493  1.00  0.00     0.012 A 
ATOM     94  C   UNL     1      -5.861  -1.190  16.288  1.00  0.00     0.148 A 
ATOM     95  C   UNL     1      -5.151   0.882  14.537  1.00  0.00     0.002 A 
ATOM     96  C   UNL     1      -6.565   0.005  16.296  1.00  0.00     0.091 A 
ATOM     97  F   UNL     1      -6.171  -2.197  17.121  1.00  0.00    -0.205 F 
ATOM     98  C   UNL     1      -6.208   1.049  15.429  1.00  0.00     0.022 A 
BRANCH  96  99
ATOM     99  S   UNL     1      -8.011   0.229  17.334  1.00  0.00     0.127 S 
ATOM    100  O   UNL     1      -7.491   1.079  18.403  1.00  0.00    -0.237 OA
ATOM    101  O   UNL     1      -8.951   0.890  16.427  1.00  0.00    -0.237 OA
ATOM    102  O   UNL     1      -8.422  -1.110  17.739  1.00  0.00    -0.744 OA
ENDBRANCH  96  99
ENDBRANCH  69  92
ENDBRANCH  43  44
ENDBRANCH  35  38
ENDBRANCH  33  34
ENDBRANCH  32  33
ENDBRANCH   1  32
TORSDOF 20
