REMARK SMILES CCOC(=O)c1c(NC(=O)/C=C/C(=O)NCCCCNC(=O)c2ccc(-c3c4nc(c(-c5cccc(S(=O)(=O)[O-])c5F)c5ccc([nH]5)c(-c5cccc(S(=O)(=O)[O-])c5F)c5nc(c(-c6cccc(S(=O)(=O)[O-])c6F)c6ccc3[nH]6)C=C5)C=C4)cc2)sc(C)c1-c1ccc(C)c(C)c1
REMARK SMILES IDX 16 1 15 2 13 3 14 4 12 6 11 7 9 8 8 9 10 11 7 12 6 13 89 14
REMARK SMILES IDX 86 15 87 16 88 17 4 18 5 19 3 20 2 21 1 22 90 23 91 24 97 25
REMARK SMILES IDX 92 26 95 27 93 28 96 29 94 30 17 31 18 32 19 33 20 34 21 35
REMARK SMILES IDX 22 37 23 38 24 39 85 40 25 41 84 42 26 43 27 44 28 45 78 46
REMARK SMILES IDX 29 47 83 48 77 49 79 50 30 51 82 52 76 53 75 54 31 56 63 57
REMARK SMILES IDX 43 58 62 59 44 60 47 61 61 62 80 63 45 64 46 65 60 67 81 68
REMARK SMILES IDX 48 69 32 70 33 71 41 72 34 73 36 74 42 75 35 76 37 77 38 78
REMARK SMILES IDX 39 79 40 80 64 81 65 82 73 83 66 84 68 85 74 86 67 87 69 88
REMARK SMILES IDX 70 89 71 90 72 91 49 92 50 93 58 94 51 95 53 96 59 97 52 98
REMARK SMILES IDX 54 99 55 100 56 101 57 102
REMARK H PARENT 15 5 8 10 20 36 79 55 47 66
REMARK Flexibility Score: inf
ROOT
ATOM      1  C   UNL     1       7.086   7.197   3.337  1.00  0.00     0.116 C 
ENDROOT
BRANCH   1   2
ATOM      2  N   UNL     1       6.386   6.764   4.529  1.00  0.00    -0.353 N 
ATOM      3  C   UNL     1       5.238   6.035   4.581  1.00  0.00     0.244 C 
ATOM      4  O   UNL     1       4.556   5.992   5.598  1.00  0.00    -0.270 OA
ATOM      5  H   UNL     1       6.782   7.024   5.392  1.00  0.00     0.163 HD
BRANCH   3   6
ATOM      6  C   UNL     1       4.825   5.291   3.376  1.00  0.00     0.077 C 
ATOM      7  C   UNL     1       5.648   4.329   2.932  1.00  0.00     0.077 C 
BRANCH   7   8
ATOM      8  C   UNL     1       5.202   3.368   1.917  1.00  0.00     0.249 C 
ATOM      9  N   UNL     1       4.365   2.338   2.238  1.00  0.00    -0.313 N 
ATOM     10  H   UNL     1       4.158   1.741   1.483  1.00  0.00     0.171 HD
ATOM     11  O   UNL     1       5.602   3.503   0.761  1.00  0.00    -0.270 OA
BRANCH   9  12
ATOM     12  C   UNL     1       3.751   1.975   3.428  1.00  0.00     0.111 A 
ATOM     13  C   UNL     1       2.710   1.071   3.572  1.00  0.00     0.102 A 
ATOM     14  C   UNL     1       2.165   1.117   4.913  1.00  0.00     0.012 A 
ATOM     15  S   UNL     1       4.253   2.563   4.932  1.00  0.00    -0.122 S 
ATOM     16  C   UNL     1       2.863   1.995   5.727  1.00  0.00     0.012 A 
ATOM     17  C   UNL     1       2.615   2.457   7.127  1.00  0.00     0.057 C 
BRANCH  13  18
ATOM     18  C   UNL     1       2.244   0.260   2.457  1.00  0.00     0.341 C 
ATOM     19  O   UNL     1       3.018  -0.260   1.659  1.00  0.00    -0.246 OA
BRANCH  18  20
ATOM     20  O   UNL     1       0.888   0.206   2.358  1.00  0.00    -0.462 OA
BRANCH  20  21
ATOM     21  C   UNL     1       0.373  -0.598   1.287  1.00  0.00     0.230 C 
ATOM     22  C   UNL     1       0.559   0.061  -0.071  1.00  0.00     0.049 C 
ENDBRANCH  20  21
ENDBRANCH  18  20
ENDBRANCH  13  18
BRANCH  14  23
ATOM     23  C   UNL     1       1.066   0.322   5.433  1.00  0.00    -0.016 A 
ATOM     24  C   UNL     1       1.227  -1.058   5.562  1.00  0.00     0.009 A 
ATOM     25  C   UNL     1      -0.139   0.921   5.812  1.00  0.00     0.012 A 
ATOM     26  C   UNL     1       0.187  -1.832   6.068  1.00  0.00     0.004 A 
ATOM     27  C   UNL     1      -1.192   0.151   6.335  1.00  0.00    -0.048 A 
ATOM     28  C   UNL     1      -1.027  -1.243   6.461  1.00  0.00    -0.048 A 
ATOM     29  C   UNL     1      -2.460   0.846   6.748  1.00  0.00     0.044 C 
ATOM     30  C   UNL     1      -2.101  -2.156   6.984  1.00  0.00     0.044 C 
ENDBRANCH  14  23
ENDBRANCH   9  12
ENDBRANCH   7   8
ENDBRANCH   3   6
ENDBRANCH   1   2
BRANCH   1  31
ATOM     31  C   UNL     1       6.421   8.441   2.751  1.00  0.00     0.023 C 
BRANCH  31  32
ATOM     32  C   UNL     1       6.626   9.706   3.589  1.00  0.00     0.023 C 
BRANCH  32  33
ATOM     33  C   UNL     1       8.078  10.010   3.942  1.00  0.00     0.116 C 
BRANCH  33  34
ATOM     34  N   UNL     1       8.972   9.929   2.796  1.00  0.00    -0.352 N 
ATOM     35  C   UNL     1      10.130  10.620   2.557  1.00  0.00     0.251 C 
ATOM     36  H   UNL     1       8.708   9.288   2.097  1.00  0.00     0.163 HD
ATOM     37  O   UNL     1      10.716  10.481   1.488  1.00  0.00    -0.269 OA
BRANCH  35  38
ATOM     38  C   UNL     1      10.642  11.555   3.575  1.00  0.00     0.039 A 
ATOM     39  C   UNL     1      11.028  12.833   3.167  1.00  0.00     0.014 A 
ATOM     40  C   UNL     1      10.734  11.178   4.918  1.00  0.00     0.014 A 
ATOM     41  C   UNL     1      11.478  13.749   4.116  1.00  0.00     0.010 A 
ATOM     42  C   UNL     1      11.115  12.116   5.871  1.00  0.00     0.010 A 
ATOM     43  C   UNL     1      11.511  13.402   5.476  1.00  0.00    -0.014 A 
BRANCH  43  44
ATOM     44  C   UNL     1      11.991  14.369   6.489  1.00  0.00     0.031 A 
ATOM     45  C   UNL     1      13.265  14.098   7.240  1.00  0.00     0.074 A 
ATOM     46  C   UNL     1      11.254  15.461   6.766  1.00  0.00     0.049 A 
ATOM     47  N   UNL     1      13.861  14.834   8.141  1.00  0.00    -0.248 NA
ATOM     48  C   UNL     1      13.945  12.820   6.966  1.00  0.00     0.031 C 
ATOM     49  C   UNL     1       9.953  15.778   6.171  1.00  0.00     0.029 A 
ATOM     50  N   UNL     1      11.487  16.500   7.629  1.00  0.00    -0.354 N 
ATOM     51  C   UNL     1      14.962  14.099   8.563  1.00  0.00     0.074 A 
ATOM     52  C   UNL     1      14.930  12.840   7.852  1.00  0.00     0.031 C 
ATOM     53  C   UNL     1       9.511  16.941   6.677  1.00  0.00     0.029 A 
ATOM     54  C   UNL     1      10.491  17.448   7.632  1.00  0.00     0.049 A 
ATOM     55  H   UNL     1      12.291  16.562   8.194  1.00  0.00     0.167 HD
ATOM     56  C   UNL     1      15.937  14.455   9.432  1.00  0.00     0.034 A 
ATOM     57  C   UNL     1      10.395  18.607   8.312  1.00  0.00     0.034 A 
ATOM     58  C   UNL     1      15.993  15.733  10.088  1.00  0.00     0.049 A 
ATOM     59  C   UNL     1      11.542  19.027   9.192  1.00  0.00     0.074 A 
ATOM     60  C   UNL     1      16.974  16.229  10.927  1.00  0.00     0.029 A 
ATOM     61  N   UNL     1      15.030  16.722   9.967  1.00  0.00    -0.354 N 
ATOM     62  N   UNL     1      12.661  18.392   9.449  1.00  0.00    -0.248 NA
ATOM     63  C   UNL     1      11.440  20.346   9.833  1.00  0.00     0.031 C 
ATOM     64  C   UNL     1      16.603  17.523  11.312  1.00  0.00     0.029 A 
ATOM     65  C   UNL     1      15.397  17.833  10.705  1.00  0.00     0.049 A 
ATOM     66  H   UNL     1      14.205  16.645   9.434  1.00  0.00     0.167 HD
ATOM     67  C   UNL     1      13.413  19.250  10.242  1.00  0.00     0.074 A 
ATOM     68  C   UNL     1      12.630  20.457  10.408  1.00  0.00     0.031 C 
ATOM     69  C   UNL     1      14.634  19.052  10.797  1.00  0.00     0.034 A 
BRANCH  56  70
ATOM     70  C   UNL     1      17.057  13.476   9.659  1.00  0.00     0.023 A 
ATOM     71  C   UNL     1      18.005  13.264   8.636  1.00  0.00     0.012 A 
ATOM     72  C   UNL     1      17.200  12.795  10.883  1.00  0.00     0.148 A 
ATOM     73  C   UNL     1      19.054  12.363   8.813  1.00  0.00     0.002 A 
ATOM     74  C   UNL     1      18.273  11.930  11.068  1.00  0.00     0.091 A 
ATOM     75  F   UNL     1      16.276  12.988  11.836  1.00  0.00    -0.205 F 
ATOM     76  C   UNL     1      19.194  11.705  10.031  1.00  0.00     0.022 A 
BRANCH  74  77
ATOM     77  S   UNL     1      18.580  11.091  12.627  1.00  0.00     0.127 S 
ATOM     78  O   UNL     1      18.162   9.726  12.315  1.00  0.00    -0.237 OA
ATOM     79  O   UNL     1      20.024  11.264  12.793  1.00  0.00    -0.237 OA
ATOM     80  O   UNL     1      17.771  11.787  13.618  1.00  0.00    -0.744 OA
ENDBRANCH  74  77
ENDBRANCH  56  70
BRANCH  57  81
ATOM     81  C   UNL     1       9.228  19.505   8.087  1.00  0.00     0.023 A 
ATOM     82  C   UNL     1       9.411  20.699   7.361  1.00  0.00     0.012 A 
ATOM     83  C   UNL     1       7.941  19.174   8.550  1.00  0.00     0.148 A 
ATOM     84  C   UNL     1       8.340  21.562   7.127  1.00  0.00     0.002 A 
ATOM     85  C   UNL     1       6.868  20.014   8.270  1.00  0.00     0.091 A 
ATOM     86  F   UNL     1       7.788  18.040   9.248  1.00  0.00    -0.205 F 
ATOM     87  C   UNL     1       7.068  21.216   7.573  1.00  0.00     0.022 A 
BRANCH  85  88
ATOM     88  S   UNL     1       5.177  19.581   8.696  1.00  0.00     0.127 S 
ATOM     89  O   UNL     1       4.932  20.433   9.856  1.00  0.00    -0.237 OA
ATOM     90  O   UNL     1       4.448  19.963   7.486  1.00  0.00    -0.237 OA
ATOM     91  O   UNL     1       5.197  18.147   8.951  1.00  0.00    -0.744 OA
ENDBRANCH  85  88
ENDBRANCH  57  81
BRANCH  69  92
ATOM     92  C   UNL     1      15.224  20.178  11.602  1.00  0.00     0.023 A 
ATOM     93  C   UNL     1      14.713  20.463  12.883  1.00  0.00     0.012 A 
ATOM     94  C   UNL     1      16.329  20.905  11.118  1.00  0.00     0.148 A 
ATOM     95  C   UNL     1      15.273  21.478  13.658  1.00  0.00     0.002 A 
ATOM     96  C   UNL     1      16.910  21.885  11.915  1.00  0.00     0.091 A 
ATOM     97  F   UNL     1      16.787  20.637   9.887  1.00  0.00    -0.205 F 
ATOM     98  C   UNL     1      16.377  22.180  13.180  1.00  0.00     0.022 A 
BRANCH  96  99
ATOM     99  S   UNL     1      18.391  22.763  11.403  1.00  0.00     0.127 S 
ATOM    100  O   UNL     1      17.834  23.999  10.858  1.00  0.00    -0.237 OA
ATOM    101  O   UNL     1      19.117  22.926  12.664  1.00  0.00    -0.237 OA
ATOM    102  O   UNL     1      19.051  21.887  10.444  1.00  0.00    -0.744 OA
ENDBRANCH  96  99
ENDBRANCH  69  92
ENDBRANCH  43  44
ENDBRANCH  35  38
ENDBRANCH  33  34
ENDBRANCH  32  33
ENDBRANCH  31  32
ENDBRANCH   1  31
TORSDOF 20
