REMARK SMILES CCCSc1nc2n(n1)[C@@H](c1ccccc1C(=O)NCCCCNC(=O)c1ccc(-c3c4nc(c(-c5cccc(S(=O)(=O)[O-])c5F)c5ccc([nH]5)c(-c5cccc(S(=O)(=O)[O-])c5F)c5nc(c(-c6cccc(S(=O)(=O)[O-])c6F)c6ccc3[nH]6)C=C5)C=C4)cc1)C(C(=O)Nc1cccc(C)c1C)=C(C)N2
REMARK SMILES IDX 21 1 20 2 19 3 17 4 18 5 16 7 11 8 12 9 13 10 15 11 14 12
REMARK SMILES IDX 10 13 5 14 6 15 9 16 7 17 8 18 104 19 102 20 90 22 103 23
REMARK SMILES IDX 4 24 3 25 2 26 1 27 91 28 92 29 93 30 94 32 95 33 100 34
REMARK SMILES IDX 96 35 98 36 101 37 97 38 99 39 22 40 23 41 24 42 25 43 26 45
REMARK SMILES IDX 27 46 28 47 89 48 29 49 88 50 30 51 31 52 32 53 82 54 33 55
REMARK SMILES IDX 87 56 81 57 83 58 34 59 86 60 80 61 79 62 35 64 67 65 47 66
REMARK SMILES IDX 66 67 48 68 51 69 65 70 84 71 49 72 50 73 64 75 85 76 52 77
REMARK SMILES IDX 36 78 37 79 45 80 38 81 40 82 46 83 39 84 41 85 42 86 43 87
REMARK SMILES IDX 44 88 68 89 69 90 77 91 70 92 72 93 78 94 71 95 73 96 74 97
REMARK SMILES IDX 75 98 76 99 53 100 54 101 62 102 55 103 57 104 63 105 56 106
REMARK SMILES IDX 58 107 59 108 60 109 61 110
REMARK H PARENT 19 6 104 21 93 31 24 44 83 63 51 74
REMARK Flexibility Score: inf
ROOT
ATOM      1  C   UNL     1       5.303   2.093  -2.025  1.00  0.00     0.023 C 
ENDROOT
BRANCH   1   2
ATOM      2  C   UNL     1       4.774   2.609  -3.370  1.00  0.00     0.116 C 
BRANCH   2   3
ATOM      3  N   UNL     1       4.168   1.579  -4.197  1.00  0.00    -0.352 N 
ATOM      4  C   UNL     1       2.987   1.028  -4.598  1.00  0.00     0.251 C 
ATOM      5  O   UNL     1       3.195   0.189  -5.494  1.00  0.00    -0.269 OA
ATOM      6  H   UNL     1       4.895   1.087  -4.642  1.00  0.00     0.163 HD
BRANCH   4   7
ATOM      7  C   UNL     1       1.550   1.178  -4.135  1.00  0.00     0.045 A 
ATOM      8  C   UNL     1       0.950   1.880  -3.061  1.00  0.00    -0.006 A 
ATOM      9  C   UNL     1      -0.453   1.706  -2.830  1.00  0.00     0.007 A 
ATOM     10  C   UNL     1      -1.270   0.948  -3.659  1.00  0.00     0.000 A 
ATOM     11  C   UNL     1       0.655   0.475  -4.997  1.00  0.00     0.014 A 
ATOM     12  C   UNL     1      -0.720   0.366  -4.778  1.00  0.00     0.001 A 
BRANCH   8  13
ATOM     13  C   UNL     1       1.608   3.043  -2.322  1.00  0.00     0.180 C 
ATOM     14  C   UNL     1       0.688   2.733   1.055  1.00  0.00     0.210 A 
ATOM     15  N   UNL     1       0.022   3.903   0.792  1.00  0.00    -0.185 NA
ATOM     16  N   UNL     1       1.479   2.287   0.070  1.00  0.00    -0.141 NA
ATOM     17  C   UNL     1       0.336   4.144  -0.452  1.00  0.00     0.227 A 
ATOM     18  N   UNL     1       1.160   3.154  -0.917  1.00  0.00    -0.218 N 
ATOM     19  N   UNL     1      -0.047   5.126  -1.283  1.00  0.00    -0.328 N 
ATOM     20  C   UNL     1       0.417   5.247  -2.587  1.00  0.00     0.026 C 
ATOM     21  H   UNL     1      -0.689   5.795  -0.951  1.00  0.00     0.169 HD
ATOM     22  C   UNL     1       1.308   4.346  -3.070  1.00  0.00     0.065 C 
ATOM     23  C   UNL     1      -0.139   6.419  -3.350  1.00  0.00     0.065 C 
BRANCH  14  24
ATOM     24  S   UNL     1       0.403   1.888   2.550  1.00  0.00    -0.084 SA
BRANCH  24  25
ATOM     25  C   UNL     1       1.206   0.281   2.324  1.00  0.00     0.078 C 
BRANCH  25  26
ATOM     26  C   UNL     1       0.435  -0.738   1.480  1.00  0.00     0.008 C 
ATOM     27  C   UNL     1       0.673  -0.631  -0.017  1.00  0.00     0.005 C 
ENDBRANCH  25  26
ENDBRANCH  24  25
ENDBRANCH  14  24
BRANCH  22  28
ATOM     28  C   UNL     1       2.003   4.473  -4.376  1.00  0.00     0.255 C 
ATOM     29  O   UNL     1       1.732   3.727  -5.306  1.00  0.00    -0.269 OA
ATOM     30  N   UNL     1       3.073   5.332  -4.478  1.00  0.00    -0.322 N 
ATOM     31  H   UNL     1       3.916   5.013  -4.874  1.00  0.00     0.170 HD
BRANCH  30  32
ATOM     32  C   UNL     1       2.980   6.658  -4.026  1.00  0.00     0.044 A 
ATOM     33  C   UNL     1       2.605   7.542  -5.036  1.00  0.00     0.026 A 
ATOM     34  C   UNL     1       3.057   7.067  -2.674  1.00  0.00    -0.025 A 
ATOM     35  C   UNL     1       2.068   8.762  -4.691  1.00  0.00     0.002 A 
ATOM     36  C   UNL     1       2.677   8.390  -2.365  1.00  0.00    -0.046 A 
ATOM     37  C   UNL     1       3.476   6.144  -1.563  1.00  0.00     0.047 C 
ATOM     38  C   UNL     1       2.101   9.184  -3.367  1.00  0.00     0.004 A 
ATOM     39  C   UNL     1       2.892   9.032  -1.022  1.00  0.00     0.044 C 
ENDBRANCH  30  32
ENDBRANCH  22  28
ENDBRANCH   8  13
ENDBRANCH   4   7
ENDBRANCH   2   3
ENDBRANCH   1   2
BRANCH   1  40
ATOM     40  C   UNL     1       6.775   2.461  -1.748  1.00  0.00     0.023 C 
BRANCH  40  41
ATOM     41  C   UNL     1       7.096   3.958  -1.752  1.00  0.00     0.116 C 
BRANCH  41  42
ATOM     42  N   UNL     1       6.691   4.651  -0.536  1.00  0.00    -0.352 N 
ATOM     43  C   UNL     1       6.873   5.979  -0.185  1.00  0.00     0.251 C 
ATOM     44  H   UNL     1       6.223   4.098   0.130  1.00  0.00     0.163 HD
ATOM     45  O   UNL     1       6.907   6.265   1.008  1.00  0.00    -0.269 OA
BRANCH  43  46
ATOM     46  C   UNL     1       6.935   7.075  -1.197  1.00  0.00     0.039 A 
ATOM     47  C   UNL     1       7.436   8.340  -0.845  1.00  0.00     0.014 A 
ATOM     48  C   UNL     1       6.326   6.930  -2.438  1.00  0.00     0.014 A 
ATOM     49  C   UNL     1       7.333   9.419  -1.740  1.00  0.00     0.010 A 
ATOM     50  C   UNL     1       6.175   7.995  -3.299  1.00  0.00     0.010 A 
ATOM     51  C   UNL     1       6.677   9.243  -2.961  1.00  0.00    -0.014 A 
BRANCH  51  52
ATOM     52  C   UNL     1       6.820  10.141  -4.104  1.00  0.00     0.031 A 
ATOM     53  C   UNL     1       8.145  10.005  -4.735  1.00  0.00     0.074 A 
ATOM     54  C   UNL     1       5.811  10.767  -4.745  1.00  0.00     0.049 A 
ATOM     55  N   UNL     1       9.098  10.865  -4.609  1.00  0.00    -0.248 NA
ATOM     56  C   UNL     1       8.553   8.749  -5.382  1.00  0.00     0.031 C 
ATOM     57  C   UNL     1       4.444  10.935  -4.286  1.00  0.00     0.029 A 
ATOM     58  N   UNL     1       5.763  11.281  -6.014  1.00  0.00    -0.354 N 
ATOM     59  C   UNL     1      10.076  10.418  -5.478  1.00  0.00     0.074 A 
ATOM     60  C   UNL     1       9.838   9.009  -5.643  1.00  0.00     0.031 C 
ATOM     61  C   UNL     1       3.647  11.286  -5.324  1.00  0.00     0.029 A 
ATOM     62  C   UNL     1       4.465  11.469  -6.498  1.00  0.00     0.049 A 
ATOM     63  H   UNL     1       6.569  11.498  -6.537  1.00  0.00     0.167 HD
ATOM     64  C   UNL     1      10.716  11.311  -6.282  1.00  0.00     0.034 A 
ATOM     65  C   UNL     1       4.082  11.848  -7.744  1.00  0.00     0.034 A 
ATOM     66  C   UNL     1      10.427  12.677  -5.881  1.00  0.00     0.049 A 
ATOM     67  C   UNL     1       5.152  12.741  -8.222  1.00  0.00     0.074 A 
ATOM     68  C   UNL     1      10.464  13.384  -4.693  1.00  0.00     0.029 A 
ATOM     69  N   UNL     1       9.621  13.407  -6.722  1.00  0.00    -0.354 N 
ATOM     70  N   UNL     1       5.403  13.891  -7.661  1.00  0.00    -0.248 NA
ATOM     71  C   UNL     1       6.230  12.168  -9.002  1.00  0.00     0.031 C 
ATOM     72  C   UNL     1       9.326  14.246  -4.732  1.00  0.00     0.029 A 
ATOM     73  C   UNL     1       8.706  14.095  -5.972  1.00  0.00     0.049 A 
ATOM     74  H   UNL     1       9.691  13.432  -7.704  1.00  0.00     0.167 HD
ATOM     75  C   UNL     1       6.784  13.887  -7.540  1.00  0.00     0.074 A 
ATOM     76  C   UNL     1       7.240  12.893  -8.514  1.00  0.00     0.031 C 
ATOM     77  C   UNL     1       7.390  14.455  -6.455  1.00  0.00     0.034 A 
BRANCH  64  78
ATOM     78  C   UNL     1      11.234  11.004  -7.670  1.00  0.00     0.023 A 
ATOM     79  C   UNL     1      12.029  12.002  -8.275  1.00  0.00     0.012 A 
ATOM     80  C   UNL     1      10.786   9.953  -8.504  1.00  0.00     0.148 A 
ATOM     81  C   UNL     1      12.303  11.992  -9.645  1.00  0.00     0.002 A 
ATOM     82  C   UNL     1      11.138   9.899  -9.846  1.00  0.00     0.091 A 
ATOM     83  F   UNL     1       9.898   9.063  -8.057  1.00  0.00    -0.205 F 
ATOM     84  C   UNL     1      11.865  10.935 -10.431  1.00  0.00     0.022 A 
BRANCH  82  85
ATOM     85  S   UNL     1      10.638   8.526 -10.894  1.00  0.00     0.127 S 
ATOM     86  O   UNL     1       9.603   9.147 -11.712  1.00  0.00    -0.237 OA
ATOM     87  O   UNL     1      11.886   8.216 -11.592  1.00  0.00    -0.237 OA
ATOM     88  O   UNL     1      10.191   7.479  -9.980  1.00  0.00    -0.744 OA
ENDBRANCH  82  85
ENDBRANCH  64  78
BRANCH  65  89
ATOM     89  C   UNL     1       2.984  11.394  -8.633  1.00  0.00     0.023 A 
ATOM     90  C   UNL     1       2.609  12.178  -9.745  1.00  0.00     0.012 A 
ATOM     91  C   UNL     1       2.529  10.059  -8.593  1.00  0.00     0.148 A 
ATOM     92  C   UNL     1       1.849  11.642 -10.795  1.00  0.00     0.002 A 
ATOM     93  C   UNL     1       1.751   9.536  -9.629  1.00  0.00     0.091 A 
ATOM     94  F   UNL     1       2.958   9.265  -7.604  1.00  0.00    -0.205 F 
ATOM     95  C   UNL     1       1.423  10.319 -10.741  1.00  0.00     0.022 A 
BRANCH  93  96
ATOM     96  S   UNL     1       1.165   7.837  -9.590  1.00  0.00     0.127 S 
ATOM     97  O   UNL     1      -0.134   7.934 -10.259  1.00  0.00    -0.237 OA
ATOM     98  O   UNL     1       2.197   7.138 -10.347  1.00  0.00    -0.237 OA
ATOM     99  O   UNL     1       1.077   7.512  -8.170  1.00  0.00    -0.744 OA
ENDBRANCH  93  96
ENDBRANCH  65  89
BRANCH  77 100
ATOM    100  C   UNL     1       6.556  15.348  -5.562  1.00  0.00     0.023 A 
ATOM    101  C   UNL     1       5.429  14.887  -4.849  1.00  0.00     0.012 A 
ATOM    102  C   UNL     1       6.995  16.663  -5.340  1.00  0.00     0.148 A 
ATOM    103  C   UNL     1       4.736  15.724  -3.967  1.00  0.00     0.002 A 
ATOM    104  C   UNL     1       6.332  17.480  -4.431  1.00  0.00     0.091 A 
ATOM    105  F   UNL     1       8.068  17.096  -6.019  1.00  0.00    -0.205 F 
ATOM    106  C   UNL     1       5.194  17.020  -3.751  1.00  0.00     0.022 A 
BRANCH 104 107
ATOM    107  S   UNL     1       6.946  19.118  -4.037  1.00  0.00     0.127 S 
ATOM    108  O   UNL     1       6.079  19.973  -4.844  1.00  0.00    -0.237 OA
ATOM    109  O   UNL     1       6.718  19.204  -2.593  1.00  0.00    -0.237 OA
ATOM    110  O   UNL     1       8.355  19.111  -4.413  1.00  0.00    -0.744 OA
ENDBRANCH 104 107
ENDBRANCH  77 100
ENDBRANCH  51  52
ENDBRANCH  43  46
ENDBRANCH  41  42
ENDBRANCH  40  41
ENDBRANCH   1  40
TORSDOF 20
