REMARK SMILES CC1(C)C[C@@H](Nc2ccc(Cl)c(C(=O)NCCCCNC(=O)c3ccc(-c4c5nc(c(-c6cccc(S(=O)(=O)[O-])c6F)c6ccc([nH]6)c(-c6cccc(S(=O)(=O)[O-])c6F)c6nc(c(-c7cccc(S(=O)(=O)[O-])c7F)c7ccc4[nH]7)C=C6)C=C5)cc3)c2)C(C)(C)O1
REMARK SMILES IDX 18 1 17 2 16 3 15 4 13 5 14 6 12 8 7 9 8 10 86 11 9 12 10 13
REMARK SMILES IDX 11 14 6 15 5 17 1 18 2 19 3 20 4 21 90 22 87 23 88 24 89 25
REMARK SMILES IDX 19 26 20 27 21 28 22 30 23 31 24 32 85 33 25 34 84 35 26 36
REMARK SMILES IDX 27 37 28 38 78 39 29 40 83 41 77 42 79 43 30 44 82 45 76 46
REMARK SMILES IDX 75 47 31 49 63 50 43 51 62 52 44 53 47 54 61 55 80 56 45 57
REMARK SMILES IDX 46 58 60 60 81 61 48 62 32 63 33 64 41 65 34 66 36 67 42 68
REMARK SMILES IDX 35 69 37 70 38 71 39 72 40 73 64 74 65 75 73 76 66 77 68 78
REMARK SMILES IDX 74 79 67 80 69 81 70 82 71 83 72 84 49 85 50 86 58 87 51 88
REMARK SMILES IDX 53 89 59 90 52 91 54 92 55 93 56 94 57 95
REMARK H PARENT 15 7 6 16 20 29 79 48 47 59
REMARK Flexibility Score: inf
ROOT
ATOM      1  C   UNL     1      -8.962  -2.597  -9.092  1.00  0.00     0.023 C 
ENDROOT
BRANCH   1   2
ATOM      2  C   UNL     1      -7.982  -3.166  -8.067  1.00  0.00     0.023 C 
BRANCH   2   3
ATOM      3  C   UNL     1      -6.593  -2.540  -8.029  1.00  0.00     0.116 C 
BRANCH   3   4
ATOM      4  N   UNL     1      -6.565  -1.126  -7.706  1.00  0.00    -0.352 N 
ATOM      5  C   UNL     1      -5.637  -0.397  -6.998  1.00  0.00     0.252 C 
ATOM      6  O   UNL     1      -5.786   0.820  -6.897  1.00  0.00    -0.269 OA
ATOM      7  H   UNL     1      -7.329  -0.607  -8.047  1.00  0.00     0.163 HD
BRANCH   5   8
ATOM      8  C   UNL     1      -4.516  -1.032  -6.262  1.00  0.00     0.060 A 
ATOM      9  C   UNL     1      -3.243  -1.048  -4.168  1.00  0.00     0.035 A 
ATOM     10  C   UNL     1      -2.484  -2.106  -4.672  1.00  0.00     0.027 A 
ATOM     11  C   UNL     1      -4.300  -0.565  -4.947  1.00  0.00     0.041 A 
ATOM     12  C   UNL     1      -2.652  -2.544  -5.983  1.00  0.00     0.023 A 
ATOM     13  C   UNL     1      -3.610  -1.948  -6.805  1.00  0.00     0.053 A 
ATOM     14  Cl  UNL     1      -3.469  -2.283  -8.493  1.00  0.00    -0.083 Cl
BRANCH   9  15
ATOM     15  N   UNL     1      -2.864  -0.381  -3.005  1.00  0.00    -0.379 N 
ATOM     16  H   UNL     1      -3.524  -0.156  -2.310  1.00  0.00     0.160 HD
BRANCH  15  17
ATOM     17  C   UNL     1      -1.452  -0.027  -2.850  1.00  0.00     0.113 C 
ATOM     18  C   UNL     1       0.908   0.119   0.002  1.00  0.00     0.042 C 
ATOM     19  C   UNL     1       0.440   0.132  -1.450  1.00  0.00     0.065 C 
ATOM     20  C   UNL     1       1.585  -0.324  -2.365  1.00  0.00     0.042 C 
ATOM     21  C   UNL     1      -0.829  -0.694  -1.644  1.00  0.00     0.062 C 
ATOM     22  O   UNL     1       0.092   1.483  -1.816  1.00  0.00    -0.367 OA
ATOM     23  C   UNL     1      -1.135   1.465  -2.598  1.00  0.00     0.083 C 
ATOM     24  C   UNL     1      -2.183   2.223  -1.778  1.00  0.00     0.044 C 
ATOM     25  C   UNL     1      -0.866   2.209  -3.907  1.00  0.00     0.044 C 
ENDBRANCH  15  17
ENDBRANCH   9  15
ENDBRANCH   5   8
ENDBRANCH   3   4
ENDBRANCH   2   3
ENDBRANCH   1   2
BRANCH   1  26
ATOM     26  C   UNL     1      -8.443  -2.399 -10.514  1.00  0.00     0.116 C 
BRANCH  26  27
ATOM     27  N   UNL     1      -7.907  -3.606 -11.130  1.00  0.00    -0.352 N 
ATOM     28  C   UNL     1      -8.252  -4.236 -12.304  1.00  0.00     0.251 C 
ATOM     29  H   UNL     1      -7.182  -4.041 -10.625  1.00  0.00     0.163 HD
ATOM     30  O   UNL     1      -7.700  -5.291 -12.612  1.00  0.00    -0.269 OA
BRANCH  28  31
ATOM     31  C   UNL     1      -9.313  -3.681 -13.174  1.00  0.00     0.039 A 
ATOM     32  C   UNL     1     -10.311  -4.540 -13.646  1.00  0.00     0.014 A 
ATOM     33  C   UNL     1      -9.349  -2.325 -13.504  1.00  0.00     0.014 A 
ATOM     34  C   UNL     1     -11.399  -4.020 -14.354  1.00  0.00     0.010 A 
ATOM     35  C   UNL     1     -10.472  -1.798 -14.139  1.00  0.00     0.010 A 
ATOM     36  C   UNL     1     -11.518  -2.636 -14.556  1.00  0.00    -0.014 A 
BRANCH  36  37
ATOM     37  C   UNL     1     -12.749  -2.038 -15.141  1.00  0.00     0.031 A 
ATOM     38  C   UNL     1     -12.684  -1.248 -16.420  1.00  0.00     0.074 A 
ATOM     39  C   UNL     1     -13.909  -2.107 -14.455  1.00  0.00     0.049 A 
ATOM     40  N   UNL     1     -13.634  -0.582 -17.026  1.00  0.00    -0.248 NA
ATOM     41  C   UNL     1     -11.377  -1.169 -17.092  1.00  0.00     0.031 C 
ATOM     42  C   UNL     1     -14.087  -2.762 -13.156  1.00  0.00     0.029 A 
ATOM     43  N   UNL     1     -15.151  -1.590 -14.734  1.00  0.00    -0.354 N 
ATOM     44  C   UNL     1     -13.034   0.029 -18.120  1.00  0.00     0.074 A 
ATOM     45  C   UNL     1     -11.632  -0.326 -18.084  1.00  0.00     0.031 C 
ATOM     46  C   UNL     1     -15.357  -2.604 -12.751  1.00  0.00     0.029 A 
ATOM     47  C   UNL     1     -16.080  -1.815 -13.743  1.00  0.00     0.049 A 
ATOM     48  H   UNL     1     -15.357  -1.104 -15.565  1.00  0.00     0.167 HD
ATOM     49  C   UNL     1     -13.602   0.791 -19.085  1.00  0.00     0.034 A 
ATOM     50  C   UNL     1     -17.365  -1.423 -13.637  1.00  0.00     0.034 A 
ATOM     51  C   UNL     1     -15.007   1.091 -19.155  1.00  0.00     0.049 A 
ATOM     52  C   UNL     1     -17.985  -0.631 -14.757  1.00  0.00     0.074 A 
ATOM     53  C   UNL     1     -15.693   1.758 -20.155  1.00  0.00     0.029 A 
ATOM     54  N   UNL     1     -15.940   0.750 -18.190  1.00  0.00    -0.354 N 
ATOM     55  N   UNL     1     -17.440  -0.221 -15.876  1.00  0.00    -0.248 NA
ATOM     56  C   UNL     1     -19.406  -0.278 -14.617  1.00  0.00     0.031 C 
ATOM     57  C   UNL     1     -17.040   1.833 -19.787  1.00  0.00     0.029 A 
ATOM     58  C   UNL     1     -17.194   1.200 -18.564  1.00  0.00     0.049 A 
ATOM     59  H   UNL     1     -15.740   0.260 -17.360  1.00  0.00     0.167 HD
ATOM     60  C   UNL     1     -18.455   0.410 -16.586  1.00  0.00     0.074 A 
ATOM     61  C   UNL     1     -19.655   0.304 -15.782  1.00  0.00     0.031 C 
ATOM     62  C   UNL     1     -18.394   1.037 -17.786  1.00  0.00     0.034 A 
BRANCH  49  63
ATOM     63  C   UNL     1     -12.717   1.301 -20.191  1.00  0.00     0.023 A 
ATOM     64  C   UNL     1     -12.256   0.404 -21.176  1.00  0.00     0.012 A 
ATOM     65  C   UNL     1     -12.409   2.671 -20.304  1.00  0.00     0.148 A 
ATOM     66  C   UNL     1     -11.479   0.856 -22.241  1.00  0.00     0.002 A 
ATOM     67  C   UNL     1     -11.668   3.121 -21.392  1.00  0.00     0.091 A 
ATOM     68  F   UNL     1     -12.842   3.505 -19.348  1.00  0.00    -0.205 F 
ATOM     69  C   UNL     1     -11.195   2.214 -22.355  1.00  0.00     0.022 A 
BRANCH  67  70
ATOM     70  S   UNL     1     -11.313   4.860 -21.672  1.00  0.00     0.127 S 
ATOM     71  O   UNL     1      -9.877   4.914 -21.405  1.00  0.00    -0.237 OA
ATOM     72  O   UNL     1     -11.677   5.025 -23.080  1.00  0.00    -0.237 OA
ATOM     73  O   UNL     1     -12.151   5.597 -20.737  1.00  0.00    -0.744 OA
ENDBRANCH  67  70
ENDBRANCH  49  63
BRANCH  50  74
ATOM     74  C   UNL     1     -18.176  -1.833 -12.455  1.00  0.00     0.023 A 
ATOM     75  C   UNL     1     -19.203  -2.783 -12.620  1.00  0.00     0.012 A 
ATOM     76  C   UNL     1     -17.928  -1.309 -11.172  1.00  0.00     0.148 A 
ATOM     77  C   UNL     1     -19.990  -3.178 -11.538  1.00  0.00     0.002 A 
ATOM     78  C   UNL     1     -18.679  -1.747 -10.087  1.00  0.00     0.091 A 
ATOM     79  F   UNL     1     -16.958  -0.393 -11.035  1.00  0.00    -0.205 F 
ATOM     80  C   UNL     1     -19.722  -2.668 -10.270  1.00  0.00     0.022 A 
BRANCH  78  81
ATOM     81  S   UNL     1     -18.308  -1.242  -8.403  1.00  0.00     0.127 S 
ATOM     82  O   UNL     1     -19.353  -0.255  -8.149  1.00  0.00    -0.237 OA
ATOM     83  O   UNL     1     -18.456  -2.498  -7.666  1.00  0.00    -0.237 OA
ATOM     84  O   UNL     1     -16.944  -0.734  -8.445  1.00  0.00    -0.744 OA
ENDBRANCH  78  81
ENDBRANCH  50  74
BRANCH  62  85
ATOM     85  C   UNL     1     -19.664   1.640 -18.326  1.00  0.00     0.023 A 
ATOM     86  C   UNL     1     -20.167   2.826 -17.757  1.00  0.00     0.012 A 
ATOM     87  C   UNL     1     -20.310   1.080 -19.446  1.00  0.00     0.148 A 
ATOM     88  C   UNL     1     -21.311   3.431 -18.277  1.00  0.00     0.002 A 
ATOM     89  C   UNL     1     -21.422   1.714 -19.987  1.00  0.00     0.091 A 
ATOM     90  F   UNL     1     -19.826  -0.060 -19.961  1.00  0.00    -0.205 F 
ATOM     91  C   UNL     1     -21.930   2.883 -19.398  1.00  0.00     0.022 A 
BRANCH  89  92
ATOM     92  S   UNL     1     -22.227   1.130 -21.483  1.00  0.00     0.127 S 
ATOM     93  O   UNL     1     -23.450   0.532 -20.951  1.00  0.00    -0.237 OA
ATOM     94  O   UNL     1     -22.431   2.371 -22.233  1.00  0.00    -0.237 OA
ATOM     95  O   UNL     1     -21.293   0.201 -22.103  1.00  0.00    -0.744 OA
ENDBRANCH  89  92
ENDBRANCH  62  85
ENDBRANCH  36  37
ENDBRANCH  28  31
ENDBRANCH  26  27
ENDBRANCH   1  26
TORSDOF 16
