REMARK SMILES O=C(NCCCCNC(=O)c1ccccc1NC(=O)c1cc2cc(Cl)cc(Cl)c2oc1=O)c1ccc(-c2c3nc(c(-c4cccc(S(=O)(=O)[O-])c4F)c4ccc([nH]4)c(-c4cccc(S(=O)(=O)[O-])c4F)c4nc(c(-c5cccc(S(=O)(=O)[O-])c5F)c5ccc2[nH]5)C=C4)C=C3)cc1
REMARK SMILES IDX 5 1 4 2 3 3 1 4 2 5 33 7 34 8 95 9 35 10 94 11 36 12 37 13
REMARK SMILES IDX 38 14 88 15 39 16 93 17 87 18 89 19 40 20 92 21 86 22 85 23
REMARK SMILES IDX 41 25 73 26 53 27 72 28 54 29 57 30 71 31 90 32 55 33 56 34
REMARK SMILES IDX 70 36 91 37 58 38 42 39 43 40 51 41 44 42 46 43 52 44 45 45
REMARK SMILES IDX 47 46 48 47 49 48 50 49 74 50 75 51 83 52 76 53 78 54 84 55
REMARK SMILES IDX 77 56 79 57 80 58 81 59 82 60 59 61 60 62 68 63 61 64 63 65
REMARK SMILES IDX 69 66 62 67 64 68 65 69 66 70 67 71 6 72 7 73 8 74 9 75
REMARK SMILES IDX 10 77 11 78 12 79 16 80 13 81 15 82 14 83 17 84 18 85 19 87
REMARK SMILES IDX 20 88 21 89 31 90 22 91 30 92 32 93 23 94 29 95 24 96 27 97
REMARK SMILES IDX 25 98 26 99 28 100
REMARK H PARENT 3 6 89 24 57 35 8 76 17 86
REMARK Flexibility Score: inf
ROOT
ATOM      1  C   UNL     1       4.935  -2.767  -0.170  1.00  0.00     0.023 C 
ENDROOT
BRANCH   1   2
ATOM      2  C   UNL     1       4.679  -1.343  -0.654  1.00  0.00     0.116 C 
BRANCH   2   3
ATOM      3  N   UNL     1       3.267  -1.015  -0.763  1.00  0.00    -0.352 N 
ATOM      4  O   UNL     1       1.296  -0.071  -0.226  1.00  0.00    -0.269 OA
ATOM      5  C   UNL     1       2.513  -0.098  -0.066  1.00  0.00     0.251 C 
ATOM      6  H   UNL     1       2.772  -1.529  -1.441  1.00  0.00     0.163 HD
BRANCH   5   7
ATOM      7  C   UNL     1       3.156   0.819   0.905  1.00  0.00     0.039 A 
ATOM      8  C   UNL     1       4.334   1.496   0.587  1.00  0.00     0.014 A 
ATOM      9  C   UNL     1       2.571   0.995   2.163  1.00  0.00     0.014 A 
ATOM     10  C   UNL     1       5.023   2.187   1.581  1.00  0.00     0.010 A 
ATOM     11  C   UNL     1       3.223   1.762   3.135  1.00  0.00     0.010 A 
ATOM     12  C   UNL     1       4.486   2.313   2.873  1.00  0.00    -0.014 A 
BRANCH  12  13
ATOM     13  C   UNL     1       5.269   3.021   3.922  1.00  0.00     0.031 A 
ATOM     14  C   UNL     1       5.782   2.290   5.136  1.00  0.00     0.074 A 
ATOM     15  C   UNL     1       5.561   4.326   3.758  1.00  0.00     0.049 A 
ATOM     16  N   UNL     1       6.569   2.729   6.087  1.00  0.00    -0.248 NA
ATOM     17  C   UNL     1       5.356   0.892   5.317  1.00  0.00     0.031 C 
ATOM     18  C   UNL     1       5.081   5.161   2.655  1.00  0.00     0.029 A 
ATOM     19  N   UNL     1       6.344   5.173   4.501  1.00  0.00    -0.354 N 
ATOM     20  C   UNL     1       6.695   1.684   6.995  1.00  0.00     0.074 A 
ATOM     21  C   UNL     1       5.899   0.588   6.488  1.00  0.00     0.031 C 
ATOM     22  C   UNL     1       5.620   6.385   2.765  1.00  0.00     0.029 A 
ATOM     23  C   UNL     1       6.460   6.431   3.957  1.00  0.00     0.049 A 
ATOM     24  H   UNL     1       6.780   4.906   5.342  1.00  0.00     0.167 HD
ATOM     25  C   UNL     1       7.426   1.631   8.134  1.00  0.00     0.034 A 
ATOM     26  C   UNL     1       7.179   7.498   4.359  1.00  0.00     0.034 A 
ATOM     27  C   UNL     1       8.277   2.690   8.604  1.00  0.00     0.049 A 
ATOM     28  C   UNL     1       8.047   7.382   5.580  1.00  0.00     0.074 A 
ATOM     29  C   UNL     1       9.111   2.698   9.709  1.00  0.00     0.029 A 
ATOM     30  N   UNL     1       8.412   3.926   7.993  1.00  0.00    -0.354 N 
ATOM     31  N   UNL     1       8.258   6.338   6.344  1.00  0.00    -0.248 NA
ATOM     32  C   UNL     1       8.798   8.582   5.977  1.00  0.00     0.031 C 
ATOM     33  C   UNL     1       9.757   3.939   9.762  1.00  0.00     0.029 A 
ATOM     34  C   UNL     1       9.318   4.704   8.694  1.00  0.00     0.049 A 
ATOM     35  H   UNL     1       7.935   4.209   7.180  1.00  0.00     0.167 HD
ATOM     36  C   UNL     1       9.177   6.749   7.302  1.00  0.00     0.074 A 
ATOM     37  C   UNL     1       9.506   8.128   7.003  1.00  0.00     0.031 C 
ATOM     38  C   UNL     1       9.681   6.054   8.351  1.00  0.00     0.034 A 
BRANCH  25  39
ATOM     39  C   UNL     1       7.396   0.351   8.926  1.00  0.00     0.023 A 
ATOM     40  C   UNL     1       8.182  -0.738   8.499  1.00  0.00     0.012 A 
ATOM     41  C   UNL     1       6.655   0.245  10.118  1.00  0.00     0.148 A 
ATOM     42  C   UNL     1       8.219  -1.919   9.239  1.00  0.00     0.002 A 
ATOM     43  C   UNL     1       6.719  -0.926  10.866  1.00  0.00     0.091 A 
ATOM     44  F   UNL     1       5.889   1.280  10.494  1.00  0.00    -0.205 F 
ATOM     45  C   UNL     1       7.496  -2.010  10.427  1.00  0.00     0.022 A 
BRANCH  43  46
ATOM     46  S   UNL     1       5.864  -1.094  12.438  1.00  0.00     0.127 S 
ATOM     47  O   UNL     1       4.624  -1.752  12.033  1.00  0.00    -0.237 OA
ATOM     48  O   UNL     1       6.776  -1.938  13.210  1.00  0.00    -0.237 OA
ATOM     49  O   UNL     1       5.729   0.263  12.950  1.00  0.00    -0.744 OA
ENDBRANCH  43  46
ENDBRANCH  25  39
BRANCH  26  50
ATOM     50  C   UNL     1       7.183   8.732   3.525  1.00  0.00     0.023 A 
ATOM     51  C   UNL     1       8.333   9.050   2.779  1.00  0.00     0.012 A 
ATOM     52  C   UNL     1       6.042   9.547   3.410  1.00  0.00     0.148 A 
ATOM     53  C   UNL     1       8.350  10.165   1.940  1.00  0.00     0.002 A 
ATOM     54  C   UNL     1       6.047  10.625   2.531  1.00  0.00     0.091 A 
ATOM     55  F   UNL     1       4.963   9.246   4.147  1.00  0.00    -0.205 F 
ATOM     56  C   UNL     1       7.203  10.943   1.803  1.00  0.00     0.022 A 
BRANCH  54  57
ATOM     57  S   UNL     1       4.551  11.565   2.208  1.00  0.00     0.127 S 
ATOM     58  O   UNL     1       4.660  12.651   3.177  1.00  0.00    -0.237 OA
ATOM     59  O   UNL     1       4.723  11.968   0.811  1.00  0.00    -0.237 OA
ATOM     60  O   UNL     1       3.466  10.615   2.418  1.00  0.00    -0.744 OA
ENDBRANCH  54  57
ENDBRANCH  26  50
BRANCH  38  61
ATOM     61  C   UNL     1      10.643   6.770   9.258  1.00  0.00     0.023 A 
ATOM     62  C   UNL     1      10.139   7.681  10.207  1.00  0.00     0.012 A 
ATOM     63  C   UNL     1      12.022   6.497   9.225  1.00  0.00     0.148 A 
ATOM     64  C   UNL     1      10.997   8.326  11.096  1.00  0.00     0.002 A 
ATOM     65  C   UNL     1      12.869   7.120  10.137  1.00  0.00     0.091 A 
ATOM     66  F   UNL     1      12.491   5.646   8.300  1.00  0.00    -0.205 F 
ATOM     67  C   UNL     1      12.360   8.038  11.069  1.00  0.00     0.022 A 
BRANCH  65  68
ATOM     68  S   UNL     1      14.621   6.727  10.195  1.00  0.00     0.127 S 
ATOM     69  O   UNL     1      15.181   7.698   9.258  1.00  0.00    -0.237 OA
ATOM     70  O   UNL     1      14.963   6.969  11.598  1.00  0.00    -0.237 OA
ATOM     71  O   UNL     1      14.708   5.327   9.797  1.00  0.00    -0.744 OA
ENDBRANCH  65  68
ENDBRANCH  38  61
ENDBRANCH  12  13
ENDBRANCH   5   7
ENDBRANCH   2   3
ENDBRANCH   1   2
BRANCH   1  72
ATOM     72  C   UNL     1       4.447  -3.889  -1.088  1.00  0.00     0.023 C 
BRANCH  72  73
ATOM     73  C   UNL     1       4.795  -3.739  -2.565  1.00  0.00     0.116 C 
BRANCH  73  74
ATOM     74  N   UNL     1       6.218  -3.559  -2.813  1.00  0.00    -0.352 N 
ATOM     75  C   UNL     1       6.994  -4.061  -3.828  1.00  0.00     0.253 C 
ATOM     76  H   UNL     1       6.692  -2.997  -2.159  1.00  0.00     0.163 HD
ATOM     77  O   UNL     1       8.206  -3.862  -3.838  1.00  0.00    -0.269 OA
BRANCH  75  78
ATOM     78  C   UNL     1       6.381  -4.860  -4.911  1.00  0.00     0.063 A 
ATOM     79  C   UNL     1       6.885  -6.160  -5.062  1.00  0.00     0.016 A 
ATOM     80  C   UNL     1       5.366  -4.359  -5.761  1.00  0.00     0.054 A 
ATOM     81  C   UNL     1       6.354  -7.001  -6.030  1.00  0.00     0.001 A 
ATOM     82  C   UNL     1       4.840  -5.230  -6.718  1.00  0.00     0.027 A 
ATOM     83  C   UNL     1       5.329  -6.538  -6.849  1.00  0.00     0.002 A 
BRANCH  80  84
ATOM     84  N   UNL     1       4.938  -3.027  -5.575  1.00  0.00    -0.321 N 
ATOM     85  C   UNL     1       3.953  -2.239  -6.085  1.00  0.00     0.263 C 
ATOM     86  H   UNL     1       5.488  -2.549  -4.912  1.00  0.00     0.170 HD
ATOM     87  O   UNL     1       3.749  -1.153  -5.540  1.00  0.00    -0.269 OA
BRANCH  85  88
ATOM     88  C   UNL     1       3.160  -2.670  -7.266  1.00  0.00     0.126 A 
ATOM     89  C   UNL     1       1.827  -2.442  -7.244  1.00  0.00     0.033 A 
ATOM     90  C   UNL     1       3.741  -2.186  -8.549  1.00  0.00     0.349 A 
ATOM     91  C   UNL     1       1.479  -1.014  -7.419  1.00  0.00     0.021 A 
ATOM     92  O   UNL     1       3.429  -0.858  -8.857  1.00  0.00    -0.421 OA
ATOM     93  O   UNL     1       4.438  -2.893  -9.254  1.00  0.00    -0.245 OA
ATOM     94  C   UNL     1       0.354  -0.437  -6.838  1.00  0.00     0.032 A 
ATOM     95  C   UNL     1       2.347  -0.230  -8.194  1.00  0.00     0.157 A 
ATOM     96  C   UNL     1       0.130   0.931  -7.008  1.00  0.00     0.043 A 
ATOM     97  C   UNL     1       2.133   1.139  -8.344  1.00  0.00     0.085 A 
ATOM     98  Cl  UNL     1      -1.271   1.651  -6.314  1.00  0.00    -0.084 Cl
ATOM     99  C   UNL     1       1.019   1.724  -7.741  1.00  0.00     0.045 A 
ATOM    100  Cl  UNL     1       3.210   2.121  -9.258  1.00  0.00    -0.080 Cl
ENDBRANCH  85  88
ENDBRANCH  80  84
ENDBRANCH  75  78
ENDBRANCH  73  74
ENDBRANCH  72  73
ENDBRANCH   1  72
TORSDOF 16
