REMARK SMILES CCC(CC)Oc1cc(C(=O)NCCCCNC(=O)c2ccc(-c3c4nc(c(-c5cccc(S(=O)(=O)[O-])c5F)c5ccc([nH]5)c(-c5cccc(S(=O)(=O)[O-])c5F)c5nc(c(-c6cccc(S(=O)(=O)[O-])c6F)c6ccc3[nH]6)C=C5)C=C4)cc2)c(N)cc1OC
REMARK SMILES IDX 14 1 13 2 12 3 10 4 11 5 9 7 7 8 8 9 86 10 85 11 83 12 6 13
REMARK SMILES IDX 3 14 2 15 1 16 4 17 5 18 87 19 88 20 84 21 15 24 16 25 17 26
REMARK SMILES IDX 18 27 19 29 20 30 21 31 82 32 22 33 81 34 23 35 24 36 25 37
REMARK SMILES IDX 75 38 26 39 80 40 74 41 76 42 27 43 79 44 73 45 72 46 28 48
REMARK SMILES IDX 60 49 40 50 59 51 41 52 44 53 58 54 77 55 42 56 43 57 57 59
REMARK SMILES IDX 78 60 45 61 29 62 30 63 38 64 31 65 33 66 39 67 32 68 34 69
REMARK SMILES IDX 35 70 36 71 37 72 61 73 62 74 70 75 63 76 65 77 71 78 64 79
REMARK SMILES IDX 66 80 67 81 68 82 69 83 46 84 47 85 55 86 48 87 50 88 56 89
REMARK SMILES IDX 49 90 51 91 52 92 53 93 54 94
REMARK H PARENT 12 6 84 22 84 23 17 28 76 47 44 58
REMARK Flexibility Score: inf
ROOT
ATOM      1  C   UNL     1      -7.095  -2.621  -0.963  1.00  0.00     0.023 C 
ENDROOT
BRANCH   1   2
ATOM      2  C   UNL     1      -5.984  -2.786  -1.996  1.00  0.00     0.116 C 
BRANCH   2   3
ATOM      3  N   UNL     1      -5.287  -1.566  -2.361  1.00  0.00    -0.352 N 
ATOM      4  C   UNL     1      -4.011  -1.395  -2.853  1.00  0.00     0.253 C 
ATOM      5  O   UNL     1      -3.648  -0.260  -3.162  1.00  0.00    -0.269 OA
ATOM      6  H   UNL     1      -5.803  -0.736  -2.239  1.00  0.00     0.163 HD
BRANCH   4   7
ATOM      7  C   UNL     1      -3.022  -2.509  -2.925  1.00  0.00     0.066 A 
ATOM      8  C   UNL     1      -0.720  -3.155  -2.355  1.00  0.00     0.162 A 
ATOM      9  C   UNL     1      -1.725  -2.189  -2.472  1.00  0.00     0.066 A 
ATOM     10  C   UNL     1      -1.019  -4.473  -2.721  1.00  0.00     0.162 A 
ATOM     11  C   UNL     1      -2.290  -4.768  -3.242  1.00  0.00     0.076 A 
ATOM     12  C   UNL     1      -3.268  -3.786  -3.443  1.00  0.00     0.048 A 
BRANCH   8  13
ATOM     13  O   UNL     1       0.555  -2.816  -2.018  1.00  0.00    -0.487 OA
BRANCH  13  14
ATOM     14  C   UNL     1       0.867  -2.106  -0.804  1.00  0.00     0.173 C 
BRANCH  14  15
ATOM     15  C   UNL     1       0.603  -0.592  -0.871  1.00  0.00     0.042 C 
ATOM     16  C   UNL     1       1.382   0.205   0.167  1.00  0.00     0.008 C 
ENDBRANCH  14  15
BRANCH  14  17
ATOM     17  C   UNL     1       0.433  -2.821   0.490  1.00  0.00     0.042 C 
ATOM     18  C   UNL     1      -1.045  -2.757   0.844  1.00  0.00     0.008 C 
ENDBRANCH  14  17
ENDBRANCH  13  14
ENDBRANCH   8  13
BRANCH  10  19
ATOM     19  O   UNL     1      -0.226  -5.587  -2.646  1.00  0.00    -0.493 OA
ATOM     20  C   UNL     1       1.170  -5.421  -2.468  1.00  0.00     0.278 C 
ENDBRANCH  10  19
BRANCH  12  21
ATOM     21  N   UNL     1      -4.442  -4.151  -4.093  1.00  0.00    -0.398 N 
ATOM     22  H   UNL     1      -5.147  -3.482  -4.249  1.00  0.00     0.156 HD
ATOM     23  H   UNL     1      -4.567  -5.078  -4.399  1.00  0.00     0.156 HD
ENDBRANCH  12  21
ENDBRANCH   4   7
ENDBRANCH   2   3
ENDBRANCH   1   2
BRANCH   1  24
ATOM     24  C   UNL     1      -8.194  -1.608  -1.285  1.00  0.00     0.023 C 
BRANCH  24  25
ATOM     25  C   UNL     1      -8.747  -1.613  -2.707  1.00  0.00     0.116 C 
BRANCH  25  26
ATOM     26  N   UNL     1      -9.364  -2.872  -3.101  1.00  0.00    -0.352 N 
ATOM     27  C   UNL     1     -10.657  -3.150  -3.483  1.00  0.00     0.251 C 
ATOM     28  H   UNL     1      -8.760  -3.649  -3.092  1.00  0.00     0.163 HD
ATOM     29  O   UNL     1     -10.983  -4.313  -3.714  1.00  0.00    -0.269 OA
BRANCH  27  30
ATOM     30  C   UNL     1     -11.668  -2.071  -3.577  1.00  0.00     0.039 A 
ATOM     31  C   UNL     1     -12.926  -2.277  -3.000  1.00  0.00     0.014 A 
ATOM     32  C   UNL     1     -11.386  -0.859  -4.209  1.00  0.00     0.014 A 
ATOM     33  C   UNL     1     -13.857  -1.234  -2.969  1.00  0.00     0.010 A 
ATOM     34  C   UNL     1     -12.280   0.204  -4.101  1.00  0.00     0.010 A 
ATOM     35  C   UNL     1     -13.523   0.033  -3.471  1.00  0.00    -0.014 A 
BRANCH  35  36
ATOM     36  C   UNL     1     -14.436   1.199  -3.318  1.00  0.00     0.031 A 
ATOM     37  C   UNL     1     -14.962   1.923  -4.529  1.00  0.00     0.074 A 
ATOM     38  C   UNL     1     -14.706   1.676  -2.085  1.00  0.00     0.049 A 
ATOM     39  N   UNL     1     -15.695   3.005  -4.590  1.00  0.00    -0.248 NA
ATOM     40  C   UNL     1     -14.592   1.377  -5.846  1.00  0.00     0.031 C 
ATOM     41  C   UNL     1     -14.188   1.123  -0.830  1.00  0.00     0.029 A 
ATOM     42  N   UNL     1     -15.457   2.754  -1.683  1.00  0.00    -0.354 N 
ATOM     43  C   UNL     1     -15.837   3.294  -5.942  1.00  0.00     0.074 A 
ATOM     44  C   UNL     1     -15.088   2.291  -6.667  1.00  0.00     0.031 C 
ATOM     45  C   UNL     1     -14.638   1.862   0.197  1.00  0.00     0.029 A 
ATOM     46  C   UNL     1     -15.450   2.957  -0.322  1.00  0.00     0.049 A 
ATOM     47  H   UNL     1     -15.954   3.327  -2.310  1.00  0.00     0.167 HD
ATOM     48  C   UNL     1     -16.551   4.284  -6.530  1.00  0.00     0.034 A 
ATOM     49  C   UNL     1     -16.025   3.920   0.426  1.00  0.00     0.034 A 
ATOM     50  C   UNL     1     -17.341   5.246  -5.811  1.00  0.00     0.049 A 
ATOM     51  C   UNL     1     -16.860   4.974  -0.251  1.00  0.00     0.074 A 
ATOM     52  C   UNL     1     -18.176   6.226  -6.320  1.00  0.00     0.029 A 
ATOM     53  N   UNL     1     -17.394   5.354  -4.431  1.00  0.00    -0.354 N 
ATOM     54  N   UNL     1     -17.117   5.128  -1.527  1.00  0.00    -0.248 NA
ATOM     55  C   UNL     1     -17.514   5.965   0.617  1.00  0.00     0.031 C 
ATOM     56  C   UNL     1     -18.723   6.936  -5.247  1.00  0.00     0.029 A 
ATOM     57  C   UNL     1     -18.244   6.386  -4.069  1.00  0.00     0.049 A 
ATOM     58  H   UNL     1     -16.900   4.782  -3.800  1.00  0.00     0.167 HD
ATOM     59  C   UNL     1     -17.991   6.207  -1.612  1.00  0.00     0.074 A 
ATOM     60  C   UNL     1     -18.235   6.655  -0.257  1.00  0.00     0.031 C 
ATOM     61  C   UNL     1     -18.529   6.784  -2.714  1.00  0.00     0.034 A 
BRANCH  48  62
ATOM     62  C   UNL     1     -16.565   4.337  -8.036  1.00  0.00     0.023 A 
ATOM     63  C   UNL     1     -17.279   3.357  -8.756  1.00  0.00     0.012 A 
ATOM     64  C   UNL     1     -15.932   5.384  -8.735  1.00  0.00     0.148 A 
ATOM     65  C   UNL     1     -17.333   3.396 -10.149  1.00  0.00     0.002 A 
ATOM     66  C   UNL     1     -16.029   5.441 -10.121  1.00  0.00     0.091 A 
ATOM     67  F   UNL     1     -15.243   6.296  -8.036  1.00  0.00    -0.205 F 
ATOM     68  C   UNL     1     -16.718   4.443 -10.829  1.00  0.00     0.022 A 
BRANCH  66  69
ATOM     69  S   UNL     1     -15.339   6.791 -11.086  1.00  0.00     0.127 S 
ATOM     70  O   UNL     1     -14.210   6.136 -11.744  1.00  0.00    -0.237 OA
ATOM     71  O   UNL     1     -16.449   7.131 -11.976  1.00  0.00    -0.237 OA
ATOM     72  O   UNL     1     -14.989   7.830 -10.129  1.00  0.00    -0.744 OA
ENDBRANCH  66  69
ENDBRANCH  48  62
BRANCH  49  73
ATOM     73  C   UNL     1     -15.894   3.890   1.912  1.00  0.00     0.023 A 
ATOM     74  C   UNL     1     -17.021   3.571   2.695  1.00  0.00     0.012 A 
ATOM     75  C   UNL     1     -14.666   4.149   2.550  1.00  0.00     0.148 A 
ATOM     76  C   UNL     1     -16.936   3.544   4.088  1.00  0.00     0.002 A 
ATOM     77  C   UNL     1     -14.575   4.066   3.935  1.00  0.00     0.091 A 
ATOM     78  F   UNL     1     -13.608   4.463   1.789  1.00  0.00    -0.205 F 
ATOM     79  C   UNL     1     -15.712   3.781   4.707  1.00  0.00     0.022 A 
BRANCH  77  80
ATOM     80  S   UNL     1     -13.012   4.226   4.806  1.00  0.00     0.127 S 
ATOM     81  O   UNL     1     -13.147   5.542   5.424  1.00  0.00    -0.237 OA
ATOM     82  O   UNL     1     -13.067   3.099   5.739  1.00  0.00    -0.237 OA
ATOM     83  O   UNL     1     -11.982   4.105   3.784  1.00  0.00    -0.744 OA
ENDBRANCH  77  80
ENDBRANCH  49  73
BRANCH  61  84
ATOM     84  C   UNL     1     -19.470   7.942  -2.511  1.00  0.00     0.023 A 
ATOM     85  C   UNL     1     -18.961   9.197  -2.123  1.00  0.00     0.012 A 
ATOM     86  C   UNL     1     -20.845   7.807  -2.784  1.00  0.00     0.148 A 
ATOM     87  C   UNL     1     -19.812  10.293  -1.980  1.00  0.00     0.002 A 
ATOM     88  C   UNL     1     -21.679   8.914  -2.686  1.00  0.00     0.091 A 
ATOM     89  F   UNL     1     -21.313   6.600  -3.134  1.00  0.00    -0.205 F 
ATOM     90  C   UNL     1     -21.167  10.155  -2.274  1.00  0.00     0.022 A 
BRANCH  88  91
ATOM     91  S   UNL     1     -23.418   8.852  -3.137  1.00  0.00     0.127 S 
ATOM     92  O   UNL     1     -24.066   8.889  -1.827  1.00  0.00    -0.237 OA
ATOM     93  O   UNL     1     -23.578  10.069  -3.932  1.00  0.00    -0.237 OA
ATOM     94  O   UNL     1     -23.592   7.615  -3.887  1.00  0.00    -0.744 OA
ENDBRANCH  88  91
ENDBRANCH  61  84
ENDBRANCH  35  36
ENDBRANCH  27  30
ENDBRANCH  25  26
ENDBRANCH  24  25
ENDBRANCH   1  24
TORSDOF 20
