REMARK SMILES C[C@@H](Sc1nc(C[NH+]2CCCC2)nc2ccccc12)C(=O)NCCCCNC(=O)c1ccc(-c2c3nc(c(-c4cccc(S(=O)(=O)[O-])c4F)c4ccc([nH]4)c(-c4cccc(S(=O)(=O)[O-])c4F)c4nc(c(-c5cccc(S(=O)(=O)[O-])c5F)c5ccc2[nH]5)C=C4)C=C3)cc1
REMARK SMILES IDX 24 1 23 2 22 3 20 4 21 5 2 7 1 8 3 9 4 10 5 11 19 12 6 13
REMARK SMILES IDX 14 14 18 15 13 16 15 17 17 18 16 19 7 20 8 21 9 22 12 23
REMARK SMILES IDX 10 25 11 26 25 27 26 28 27 29 28 30 29 32 30 33 31 34 92 35
REMARK SMILES IDX 32 36 91 37 33 38 34 39 35 40 85 41 36 42 90 43 84 44 86 45
REMARK SMILES IDX 37 46 89 47 83 48 82 49 38 51 70 52 50 53 69 54 51 55 54 56
REMARK SMILES IDX 68 57 87 58 52 59 53 60 67 62 88 63 55 64 39 65 40 66 48 67
REMARK SMILES IDX 41 68 43 69 49 70 42 71 44 72 45 73 46 74 47 75 71 76 72 77
REMARK SMILES IDX 80 78 73 79 75 80 81 81 74 82 76 83 77 84 78 85 79 86 56 87
REMARK SMILES IDX 57 88 65 89 58 90 60 91 66 92 59 93 61 94 62 95 63 96 64 97
REMARK H PARENT 22 6 8 24 27 31 86 50 54 61
REMARK Flexibility Score: inf
ROOT
ATOM      1  C   UNL     1      -1.520  -0.614  -2.653  1.00  0.00     0.023 C 
ENDROOT
BRANCH   1   2
ATOM      2  C   UNL     1      -1.161   0.830  -2.315  1.00  0.00     0.116 C 
BRANCH   2   3
ATOM      3  N   UNL     1      -1.612   1.230  -0.991  1.00  0.00    -0.355 N 
ATOM      4  C   UNL     1      -0.872   1.614   0.097  1.00  0.00     0.233 C 
ATOM      5  O   UNL     1      -1.469   1.986   1.111  1.00  0.00    -0.274 OA
ATOM      6  H   UNL     1      -2.588   1.224  -0.858  1.00  0.00     0.163 HD
BRANCH   4   7
ATOM      7  C   UNL     1       0.661   1.550   0.071  1.00  0.00     0.139 C 
ATOM      8  C   UNL     1       1.099   0.100  -0.127  1.00  0.00     0.030 C 
BRANCH   7   9
ATOM      9  S   UNL     1       1.253   2.823  -1.135  1.00  0.00    -0.093 SA
BRANCH   9  10
ATOM     10  C   UNL     1       3.013   2.888  -0.834  1.00  0.00     0.109 A 
ATOM     11  N   UNL     1       3.634   1.696  -0.819  1.00  0.00    -0.220 NA
ATOM     12  C   UNL     1       3.699   4.109  -0.763  1.00  0.00     0.033 A 
ATOM     13  C   UNL     1       4.967   1.694  -0.691  1.00  0.00     0.185 A 
ATOM     14  C   UNL     1       5.089   3.987  -0.670  1.00  0.00     0.075 A 
ATOM     15  C   UNL     1       3.116   5.406  -0.791  1.00  0.00     0.013 A 
ATOM     16  N   UNL     1       5.717   2.808  -0.620  1.00  0.00    -0.227 NA
ATOM     17  C   UNL     1       5.860   5.143  -0.638  1.00  0.00     0.029 A 
ATOM     18  C   UNL     1       3.909   6.550  -0.745  1.00  0.00     0.001 A 
ATOM     19  C   UNL     1       5.288   6.417  -0.678  1.00  0.00     0.002 A 
BRANCH  13  20
ATOM     20  C   UNL     1       5.680   0.349  -0.634  1.00  0.00     0.340 C 
BRANCH  20  21
ATOM     21  N   UNL     1       5.699  -0.404   0.641  1.00  0.00    -0.329 N 
ATOM     22  C   UNL     1       4.403  -0.955   1.034  1.00  0.00     0.262 C 
ATOM     23  C   UNL     1       6.194   0.369   1.782  1.00  0.00     0.262 C 
ATOM     24  H   UNL     1       6.346  -1.163   0.426  1.00  0.00     0.348 HD
ATOM     25  C   UNL     1       3.806   0.028   2.021  1.00  0.00     0.067 C 
ATOM     26  C   UNL     1       5.004   0.677   2.684  1.00  0.00     0.067 C 
ENDBRANCH  20  21
ENDBRANCH  13  20
ENDBRANCH   9  10
ENDBRANCH   7   9
ENDBRANCH   4   7
ENDBRANCH   2   3
ENDBRANCH   1   2
BRANCH   1  27
ATOM     27  C   UNL     1      -2.994  -0.853  -2.948  1.00  0.00     0.023 C 
BRANCH  27  28
ATOM     28  C   UNL     1      -3.592   0.069  -4.000  1.00  0.00     0.116 C 
BRANCH  28  29
ATOM     29  N   UNL     1      -2.836   0.098  -5.247  1.00  0.00    -0.352 N 
ATOM     30  C   UNL     1      -3.322   0.141  -6.531  1.00  0.00     0.251 C 
ATOM     31  H   UNL     1      -1.856   0.085  -5.157  1.00  0.00     0.163 HD
ATOM     32  O   UNL     1      -2.563   0.067  -7.492  1.00  0.00    -0.269 OA
BRANCH  30  33
ATOM     33  C   UNL     1      -4.780   0.237  -6.729  1.00  0.00     0.039 A 
ATOM     34  C   UNL     1      -5.417  -0.706  -7.537  1.00  0.00     0.014 A 
ATOM     35  C   UNL     1      -5.517   1.202  -6.037  1.00  0.00     0.014 A 
ATOM     36  C   UNL     1      -6.811  -0.727  -7.593  1.00  0.00     0.010 A 
ATOM     37  C   UNL     1      -6.903   1.125  -6.029  1.00  0.00     0.010 A 
ATOM     38  C   UNL     1      -7.564   0.163  -6.809  1.00  0.00    -0.014 A 
BRANCH  38  39
ATOM     39  C   UNL     1      -9.045   0.104  -6.779  1.00  0.00     0.031 A 
ATOM     40  C   UNL     1      -9.851   1.283  -7.252  1.00  0.00     0.074 A 
ATOM     41  C   UNL     1      -9.660  -0.964  -6.234  1.00  0.00     0.049 A 
ATOM     42  N   UNL     1     -11.146   1.454  -7.237  1.00  0.00    -0.248 NA
ATOM     43  C   UNL     1      -9.099   2.435  -7.778  1.00  0.00     0.031 C 
ATOM     44  C   UNL     1      -8.983  -2.127  -5.654  1.00  0.00     0.029 A 
ATOM     45  N   UNL     1     -10.993  -1.232  -6.050  1.00  0.00    -0.354 N 
ATOM     46  C   UNL     1     -11.362   2.741  -7.714  1.00  0.00     0.074 A 
ATOM     47  C   UNL     1     -10.064   3.323  -7.971  1.00  0.00     0.031 C 
ATOM     48  C   UNL     1      -9.905  -2.982  -5.182  1.00  0.00     0.029 A 
ATOM     49  C   UNL     1     -11.234  -2.421  -5.403  1.00  0.00     0.049 A 
ATOM     50  H   UNL     1     -11.710  -0.629  -6.353  1.00  0.00     0.167 HD
ATOM     51  C   UNL     1     -12.537   3.370  -7.953  1.00  0.00     0.034 A 
ATOM     52  C   UNL     1     -12.395  -2.993  -5.028  1.00  0.00     0.034 A 
ATOM     53  C   UNL     1     -13.825   2.767  -7.750  1.00  0.00     0.049 A 
ATOM     54  C   UNL     1     -13.688  -2.302  -5.366  1.00  0.00     0.074 A 
ATOM     55  C   UNL     1     -15.073   3.282  -8.049  1.00  0.00     0.029 A 
ATOM     56  N   UNL     1     -14.030   1.512  -7.197  1.00  0.00    -0.354 N 
ATOM     57  N   UNL     1     -13.876  -1.155  -5.973  1.00  0.00    -0.248 NA
ATOM     58  C   UNL     1     -14.931  -3.000  -5.005  1.00  0.00     0.031 C 
ATOM     59  C   UNL     1     -16.035   2.341  -7.667  1.00  0.00     0.029 A 
ATOM     60  C   UNL     1     -15.385   1.234  -7.144  1.00  0.00     0.049 A 
ATOM     61  H   UNL     1     -13.317   0.908  -6.888  1.00  0.00     0.167 HD
ATOM     62  C   UNL     1     -15.253  -1.010  -6.097  1.00  0.00     0.074 A 
ATOM     63  C   UNL     1     -15.851  -2.197  -5.522  1.00  0.00     0.031 C 
ATOM     64  C   UNL     1     -15.960   0.021  -6.623  1.00  0.00     0.034 A 
BRANCH  51  65
ATOM     65  C   UNL     1     -12.477   4.759  -8.531  1.00  0.00     0.023 A 
ATOM     66  C   UNL     1     -12.072   4.931  -9.871  1.00  0.00     0.012 A 
ATOM     67  C   UNL     1     -12.863   5.882  -7.776  1.00  0.00     0.148 A 
ATOM     68  C   UNL     1     -12.016   6.203 -10.439  1.00  0.00     0.002 A 
ATOM     69  C   UNL     1     -12.847   7.143  -8.363  1.00  0.00     0.091 A 
ATOM     70  F   UNL     1     -13.221   5.702  -6.497  1.00  0.00    -0.205 F 
ATOM     71  C   UNL     1     -12.414   7.306  -9.689  1.00  0.00     0.022 A 
BRANCH  69  72
ATOM     72  S   UNL     1     -13.412   8.617  -7.505  1.00  0.00     0.127 S 
ATOM     73  O   UNL     1     -12.149   9.306  -7.241  1.00  0.00    -0.237 OA
ATOM     74  O   UNL     1     -14.255   9.257  -8.515  1.00  0.00    -0.237 OA
ATOM     75  O   UNL     1     -14.128   8.145  -6.329  1.00  0.00    -0.744 OA
ENDBRANCH  69  72
ENDBRANCH  51  65
BRANCH  52  76
ATOM     76  C   UNL     1     -12.387  -4.327  -4.365  1.00  0.00     0.023 A 
ATOM     77  C   UNL     1     -12.841  -5.454  -5.078  1.00  0.00     0.012 A 
ATOM     78  C   UNL     1     -11.901  -4.495  -3.054  1.00  0.00     0.148 A 
ATOM     79  C   UNL     1     -12.842  -6.718  -4.488  1.00  0.00     0.002 A 
ATOM     80  C   UNL     1     -11.854  -5.766  -2.491  1.00  0.00     0.091 A 
ATOM     81  F   UNL     1     -11.484  -3.410  -2.386  1.00  0.00    -0.205 F 
ATOM     82  C   UNL     1     -12.339  -6.876  -3.199  1.00  0.00     0.022 A 
BRANCH  80  83
ATOM     83  S   UNL     1     -11.100  -6.079  -0.890  1.00  0.00     0.127 S 
ATOM     84  O   UNL     1     -12.270  -6.314  -0.049  1.00  0.00    -0.237 OA
ATOM     85  O   UNL     1     -10.288  -7.266  -1.163  1.00  0.00    -0.237 OA
ATOM     86  O   UNL     1     -10.325  -4.884  -0.585  1.00  0.00    -0.744 OA
ENDBRANCH  80  83
ENDBRANCH  52  76
BRANCH  64  87
ATOM     87  C   UNL     1     -17.460  -0.093  -6.632  1.00  0.00     0.023 A 
ATOM     88  C   UNL     1     -18.178   0.058  -5.429  1.00  0.00     0.012 A 
ATOM     89  C   UNL     1     -18.162  -0.268  -7.841  1.00  0.00     0.148 A 
ATOM     90  C   UNL     1     -19.572   0.011  -5.426  1.00  0.00     0.002 A 
ATOM     91  C   UNL     1     -19.552  -0.268  -7.836  1.00  0.00     0.091 A 
ATOM     92  F   UNL     1     -17.459  -0.430  -8.972  1.00  0.00    -0.205 F 
ATOM     93  C   UNL     1     -20.258  -0.139  -6.629  1.00  0.00     0.022 A 
BRANCH  91  94
ATOM     94  S   UNL     1     -20.516  -0.361  -9.349  1.00  0.00     0.127 S 
ATOM     95  O   UNL     1     -21.006  -1.737  -9.306  1.00  0.00    -0.237 OA
ATOM     96  O   UNL     1     -21.542   0.659  -9.129  1.00  0.00    -0.237 OA
ATOM     97  O   UNL     1     -19.590  -0.058 -10.432  1.00  0.00    -0.744 OA
ENDBRANCH  91  94
ENDBRANCH  64  87
ENDBRANCH  38  39
ENDBRANCH  30  33
ENDBRANCH  28  29
ENDBRANCH  27  28
ENDBRANCH   1  27
TORSDOF 18
