REMARK SMILES C/C(=C\C(=O)c1c(O)n(C)c2ccccc2c1=O)Nc1ccc(C(=O)NCCCCNC(=O)c2ccc(-c3c4nc(c(-c5cccc(S(=O)(=O)[O-])c5F)c5ccc([nH]5)c(-c5cccc(S(=O)(=O)[O-])c5F)c5nc(c(-c6cccc(S(=O)(=O)[O-])c6F)c6ccc3[nH]6)C=C5)C=C4)cc2)cc1
REMARK SMILES IDX 27 1 26 2 24 3 25 4 23 6 20 7 21 8 98 9 22 10 97 11 19 12
REMARK SMILES IDX 2 14 1 15 3 16 4 17 5 18 6 19 7 20 17 21 9 22 16 23 18 24
REMARK SMILES IDX 10 25 11 26 15 27 12 28 14 29 13 30 8 31 28 33 29 34 30 35
REMARK SMILES IDX 31 36 32 37 33 39 34 40 35 41 96 42 36 43 95 44 37 45 38 46
REMARK SMILES IDX 39 47 89 48 40 49 94 50 88 51 90 52 41 53 93 54 87 55 86 56
REMARK SMILES IDX 42 58 74 59 54 60 73 61 55 62 58 63 72 64 91 65 56 66 57 67
REMARK SMILES IDX 71 69 92 70 59 71 43 72 44 73 52 74 45 75 47 76 53 77 46 78
REMARK SMILES IDX 48 79 49 80 50 81 51 82 75 83 76 84 84 85 77 86 79 87 85 88
REMARK SMILES IDX 78 89 80 90 81 91 82 92 83 93 60 94 61 95 69 96 62 97 64 98
REMARK SMILES IDX 70 99 63 100 65 101 66 102 67 103 68 104
REMARK H PARENT 26 5 19 13 8 32 31 38 90 57 58 68
REMARK Flexibility Score: inf
ROOT
ATOM      1  C   UNL     1       1.617   1.206  -6.753  1.00  0.00     0.116 C 
ENDROOT
BRANCH   1   2
ATOM      2  N   UNL     1       2.956   1.571  -6.334  1.00  0.00    -0.352 N 
ATOM      3  C   UNL     1       3.781   1.037  -5.376  1.00  0.00     0.251 C 
ATOM      4  O   UNL     1       4.924   1.482  -5.281  1.00  0.00    -0.269 OA
ATOM      5  H   UNL     1       3.341   2.335  -6.822  1.00  0.00     0.163 HD
BRANCH   3   6
ATOM      6  C   UNL     1       3.320   0.019  -4.394  1.00  0.00     0.039 A 
ATOM      7  C   UNL     1       2.318  -1.584  -2.280  1.00  0.00     0.038 A 
ATOM      8  C   UNL     1       3.401  -0.727  -2.086  1.00  0.00     0.027 A 
ATOM      9  C   UNL     1       1.847  -1.733  -3.594  1.00  0.00     0.027 A 
ATOM     10  C   UNL     1       3.885   0.080  -3.119  1.00  0.00     0.016 A 
ATOM     11  C   UNL     1       2.366  -0.966  -4.648  1.00  0.00     0.016 A 
BRANCH   7  12
ATOM     12  N   UNL     1       1.599  -2.201  -1.229  1.00  0.00    -0.359 N 
ATOM     13  H   UNL     1       1.404  -3.159  -1.345  1.00  0.00     0.166 HD
BRANCH  12  14
ATOM     14  C   UNL     1       1.129  -1.616  -0.041  1.00  0.00     0.016 C 
ATOM     15  C   UNL     1       1.942  -0.495   0.561  1.00  0.00     0.064 C 
ATOM     16  C   UNL     1      -0.021  -2.069   0.513  1.00  0.00     0.074 C 
BRANCH  16  17
ATOM     17  C   UNL     1      -0.868  -1.579   1.653  1.00  0.00     0.196 C 
ATOM     18  O   UNL     1      -1.817  -2.265   2.028  1.00  0.00    -0.289 OA
BRANCH  17  19
ATOM     19  C   UNL     1      -0.675  -0.212   2.175  1.00  0.00     0.130 A 
ATOM     20  C   UNL     1      -0.927   0.861   1.399  1.00  0.00     0.206 A 
ATOM     21  C   UNL     1      -0.080  -0.004   3.514  1.00  0.00     0.204 A 
ATOM     22  N   UNL     1      -0.546   2.157   1.736  1.00  0.00    -0.315 N 
ATOM     23  C   UNL     1       0.217   1.387   3.925  1.00  0.00     0.047 A 
ATOM     24  O   UNL     1       0.205  -0.948   4.245  1.00  0.00    -0.288 OA
ATOM     25  C   UNL     1      -0.545   3.245   0.751  1.00  0.00     0.153 C 
ATOM     26  C   UNL     1      -0.004   2.436   3.014  1.00  0.00     0.055 A 
ATOM     27  C   UNL     1       0.760   1.616   5.199  1.00  0.00     0.014 A 
ATOM     28  C   UNL     1       0.338   3.732   3.442  1.00  0.00     0.027 A 
ATOM     29  C   UNL     1       1.091   2.909   5.591  1.00  0.00     0.001 A 
ATOM     30  C   UNL     1       0.880   3.966   4.712  1.00  0.00     0.002 A 
BRANCH  20  31
ATOM     31  O   UNL     1      -1.553   0.734   0.171  1.00  0.00    -0.494 OA
ATOM     32  H   UNL     1      -1.838  -0.108  -0.125  1.00  0.00     0.295 HD
ENDBRANCH  20  31
ENDBRANCH  17  19
ENDBRANCH  16  17
ENDBRANCH  12  14
ENDBRANCH   7  12
ENDBRANCH   3   6
ENDBRANCH   1   2
BRANCH   1  33
ATOM     33  C   UNL     1       0.785   2.351  -7.325  1.00  0.00     0.023 C 
BRANCH  33  34
ATOM     34  C   UNL     1       1.440   3.215  -8.396  1.00  0.00     0.023 C 
BRANCH  34  35
ATOM     35  C   UNL     1       2.190   2.475  -9.496  1.00  0.00     0.116 C 
BRANCH  35  36
ATOM     36  N   UNL     1       1.346   1.621 -10.319  1.00  0.00    -0.352 N 
ATOM     37  C   UNL     1       1.084   1.683 -11.673  1.00  0.00     0.251 C 
ATOM     38  H   UNL     1       0.895   0.889  -9.838  1.00  0.00     0.163 HD
ATOM     39  O   UNL     1       0.296   0.899 -12.184  1.00  0.00    -0.269 OA
BRANCH  37  40
ATOM     40  C   UNL     1       1.715   2.751 -12.480  1.00  0.00     0.039 A 
ATOM     41  C   UNL     1       3.089   2.980 -12.401  1.00  0.00     0.014 A 
ATOM     42  C   UNL     1       0.900   3.604 -13.227  1.00  0.00     0.014 A 
ATOM     43  C   UNL     1       3.603   4.189 -12.857  1.00  0.00     0.010 A 
ATOM     44  C   UNL     1       1.441   4.772 -13.771  1.00  0.00     0.010 A 
ATOM     45  C   UNL     1       2.777   5.117 -13.514  1.00  0.00    -0.014 A 
BRANCH  45  46
ATOM     46  C   UNL     1       3.311   6.464 -13.855  1.00  0.00     0.031 A 
ATOM     47  C   UNL     1       2.717   7.707 -13.236  1.00  0.00     0.074 A 
ATOM     48  C   UNL     1       4.372   6.572 -14.677  1.00  0.00     0.049 A 
ATOM     49  N   UNL     1       3.058   8.958 -13.417  1.00  0.00    -0.248 NA
ATOM     50  C   UNL     1       1.596   7.531 -12.295  1.00  0.00     0.031 C 
ATOM     51  C   UNL     1       5.036   5.452 -15.347  1.00  0.00     0.029 A 
ATOM     52  N   UNL     1       5.089   7.671 -15.077  1.00  0.00    -0.354 N 
ATOM     53  C   UNL     1       2.166   9.713 -12.665  1.00  0.00     0.074 A 
ATOM     54  C   UNL     1       1.267   8.785 -12.017  1.00  0.00     0.031 C 
ATOM     55  C   UNL     1       6.088   5.915 -16.038  1.00  0.00     0.029 A 
ATOM     56  C   UNL     1       6.143   7.368 -15.906  1.00  0.00     0.049 A 
ATOM     57  H   UNL     1       4.870   8.589 -14.797  1.00  0.00     0.167 HD
ATOM     58  C   UNL     1       2.111  11.057 -12.510  1.00  0.00     0.034 A 
ATOM     59  C   UNL     1       7.048   8.165 -16.506  1.00  0.00     0.034 A 
ATOM     60  C   UNL     1       3.054  11.980 -13.080  1.00  0.00     0.049 A 
ATOM     61  C   UNL     1       6.984   9.648 -16.291  1.00  0.00     0.074 A 
ATOM     62  C   UNL     1       3.109  13.354 -12.922  1.00  0.00     0.029 A 
ATOM     63  N   UNL     1       4.111  11.627 -13.901  1.00  0.00    -0.354 N 
ATOM     64  N   UNL     1       6.171  10.331 -15.523  1.00  0.00    -0.248 NA
ATOM     65  C   UNL     1       7.963  10.470 -17.017  1.00  0.00     0.031 C 
ATOM     66  C   UNL     1       4.204  13.833 -13.647  1.00  0.00     0.029 A 
ATOM     67  C   UNL     1       4.825  12.757 -14.259  1.00  0.00     0.049 A 
ATOM     68  H   UNL     1       4.323  10.709 -14.188  1.00  0.00     0.167 HD
ATOM     69  C   UNL     1       6.538  11.663 -15.673  1.00  0.00     0.074 A 
ATOM     70  C   UNL     1       7.667  11.689 -16.581  1.00  0.00     0.031 C 
ATOM     71  C   UNL     1       5.971  12.765 -15.127  1.00  0.00     0.034 A 
BRANCH  58  72
ATOM     72  C   UNL     1       1.029  11.630 -11.638  1.00  0.00     0.023 A 
ATOM     73  C   UNL     1       1.214  11.657 -10.242  1.00  0.00     0.012 A 
ATOM     74  C   UNL     1      -0.106  12.245 -12.203  1.00  0.00     0.148 A 
ATOM     75  C   UNL     1       0.282  12.287  -9.418  1.00  0.00     0.002 A 
ATOM     76  C   UNL     1      -1.017  12.892 -11.377  1.00  0.00     0.091 A 
ATOM     77  F   UNL     1      -0.262  12.195 -13.533  1.00  0.00    -0.205 F 
ATOM     78  C   UNL     1      -0.826  12.912  -9.985  1.00  0.00     0.022 A 
BRANCH  76  79
ATOM     79  S   UNL     1      -2.452  13.773 -12.006  1.00  0.00     0.127 S 
ATOM     80  O   UNL     1      -3.549  12.984 -11.445  1.00  0.00    -0.237 OA
ATOM     81  O   UNL     1      -2.284  15.097 -11.408  1.00  0.00    -0.237 OA
ATOM     82  O   UNL     1      -2.345  13.736 -13.457  1.00  0.00    -0.744 OA
ENDBRANCH  76  79
ENDBRANCH  58  72
BRANCH  59  83
ATOM     83  C   UNL     1       8.116   7.549 -17.338  1.00  0.00     0.023 A 
ATOM     84  C   UNL     1       9.428   7.481 -16.835  1.00  0.00     0.012 A 
ATOM     85  C   UNL     1       7.818   6.957 -18.581  1.00  0.00     0.148 A 
ATOM     86  C   UNL     1      10.429   6.832 -17.558  1.00  0.00     0.002 A 
ATOM     87  C   UNL     1       8.808   6.271 -19.272  1.00  0.00     0.091 A 
ATOM     88  F   UNL     1       6.564   7.052 -19.043  1.00  0.00    -0.205 F 
ATOM     89  C   UNL     1      10.117   6.216 -18.767  1.00  0.00     0.022 A 
BRANCH  87  90
ATOM     90  S   UNL     1       8.465   5.340 -20.769  1.00  0.00     0.127 S 
ATOM     91  O   UNL     1       9.138   6.147 -21.783  1.00  0.00    -0.237 OA
ATOM     92  O   UNL     1       9.104   4.056 -20.478  1.00  0.00    -0.237 OA
ATOM     93  O   UNL     1       7.014   5.278 -20.869  1.00  0.00    -0.744 OA
ENDBRANCH  87  90
ENDBRANCH  59  83
BRANCH  71  94
ATOM     94  C   UNL     1       6.540  14.104 -15.498  1.00  0.00     0.023 A 
ATOM     95  C   UNL     1       6.162  14.688 -16.723  1.00  0.00     0.012 A 
ATOM     96  C   UNL     1       7.343  14.829 -14.597  1.00  0.00     0.148 A 
ATOM     97  C   UNL     1       6.582  15.976 -17.049  1.00  0.00     0.002 A 
ATOM     98  C   UNL     1       7.734  16.123 -14.917  1.00  0.00     0.091 A 
ATOM     99  F   UNL     1       7.696  14.243 -13.444  1.00  0.00    -0.205 F 
ATOM    100  C   UNL     1       7.357  16.697 -16.143  1.00  0.00     0.022 A 
BRANCH  98 101
ATOM    101  S   UNL     1       8.672  17.157 -13.787  1.00  0.00     0.127 S 
ATOM    102  O   UNL     1       9.969  17.231 -14.458  1.00  0.00    -0.237 OA
ATOM    103  O   UNL     1       7.907  18.404 -13.797  1.00  0.00    -0.237 OA
ATOM    104  O   UNL     1       8.673  16.458 -12.508  1.00  0.00    -0.744 OA
ENDBRANCH  98 101
ENDBRANCH  71  94
ENDBRANCH  45  46
ENDBRANCH  37  40
ENDBRANCH  35  36
ENDBRANCH  34  35
ENDBRANCH  33  34
ENDBRANCH   1  33
TORSDOF 19
