REMARK SMILES O=C(CCC(=O)Nc1ccc(N2CCN(c3ccc(F)cc3)CC2)cc1)NCCCCNC(=O)c1ccc(-c2c3nc(c(-c4cccc(S(=O)(=O)[O-])c4F)c4ccc([nH]4)c(-c4cccc(S(=O)(=O)[O-])c4F)c4nc(c(-c5cccc(S(=O)(=O)[O-])c5F)c5ccc2[nH]5)C=C4)C=C3)cc1
REMARK SMILES IDX 28 1 27 2 1 3 2 4 3 6 4 7 5 8 6 9 7 10 8 12 9 13 26 14 10 15
REMARK SMILES IDX 25 16 11 17 12 18 13 19 24 20 14 21 23 22 15 23 16 24 17 25
REMARK SMILES IDX 22 26 18 27 21 28 19 29 20 30 29 31 30 32 31 33 32 34 33 35
REMARK SMILES IDX 34 37 35 38 36 39 97 40 37 41 96 42 38 43 39 44 40 45 90 46
REMARK SMILES IDX 41 47 95 48 89 49 91 50 42 51 94 52 88 53 87 54 43 56 75 57
REMARK SMILES IDX 55 58 74 59 56 60 59 61 73 62 92 63 57 64 58 65 72 67 93 68
REMARK SMILES IDX 60 69 44 70 45 71 53 72 46 73 48 74 54 75 47 76 49 77 50 78
REMARK SMILES IDX 51 79 52 80 76 81 77 82 85 83 78 84 80 85 86 86 79 87 81 88
REMARK SMILES IDX 82 89 83 90 84 91 61 92 62 93 70 94 63 95 65 96 71 97 64 98
REMARK SMILES IDX 66 99 67 100 68 101 69 102
REMARK H PARENT 27 5 7 11 32 36 91 55 59 66
REMARK Flexibility Score: inf
ROOT
ATOM      1  C   UNL     1       2.427   1.559  -1.978  1.00  0.00     0.116 C 
ENDROOT
BRANCH   1   2
ATOM      2  N   UNL     1       3.264   1.299  -0.821  1.00  0.00    -0.356 N 
ATOM      3  O   UNL     1       1.545   1.140   0.702  1.00  0.00    -0.275 OA
ATOM      4  C   UNL     1       2.732   1.006   0.415  1.00  0.00     0.220 C 
ATOM      5  H   UNL     1       4.243   1.333  -0.924  1.00  0.00     0.163 HD
BRANCH   4   6
ATOM      6  C   UNL     1       3.729   0.449   1.412  1.00  0.00     0.110 C 
BRANCH   6   7
ATOM      7  C   UNL     1       4.049  -1.037   1.251  1.00  0.00     0.110 C 
BRANCH   7   8
ATOM      8  C   UNL     1       4.633  -1.416  -0.088  1.00  0.00     0.224 C 
ATOM      9  O   UNL     1       5.839  -1.229  -0.287  1.00  0.00    -0.275 OA
ATOM     10  N   UNL     1       3.916  -1.916  -1.131  1.00  0.00    -0.326 N 
ATOM     11  H   UNL     1       4.484  -2.329  -1.821  1.00  0.00     0.169 HD
BRANCH  10  12
ATOM     12  C   UNL     1       2.546  -1.974  -1.444  1.00  0.00     0.041 A 
ATOM     13  C   UNL     1       2.229  -2.198  -2.791  1.00  0.00     0.028 A 
ATOM     14  C   UNL     1       1.505  -1.677  -0.575  1.00  0.00     0.028 A 
ATOM     15  C   UNL     1       0.931  -1.966  -3.268  1.00  0.00     0.028 A 
ATOM     16  C   UNL     1       0.219  -1.415  -1.060  1.00  0.00     0.028 A 
ATOM     17  C   UNL     1      -0.078  -1.516  -2.415  1.00  0.00     0.037 A 
BRANCH  17  18
ATOM     18  N   UNL     1      -1.328  -1.218  -2.930  1.00  0.00    -0.368 N 
ATOM     19  C   UNL     1      -2.351  -2.264  -2.768  1.00  0.00     0.138 C 
ATOM     20  C   UNL     1      -1.825   0.174  -2.856  1.00  0.00     0.138 C 
ATOM     21  C   UNL     1      -3.198  -2.030  -1.499  1.00  0.00     0.138 C 
ATOM     22  C   UNL     1      -2.833   0.422  -1.705  1.00  0.00     0.138 C 
ATOM     23  N   UNL     1      -3.796  -0.681  -1.527  1.00  0.00    -0.368 N 
BRANCH  23  24
ATOM     24  C   UNL     1      -5.130  -0.589  -1.869  1.00  0.00     0.037 A 
ATOM     25  C   UNL     1      -6.091  -1.218  -1.057  1.00  0.00     0.029 A 
ATOM     26  C   UNL     1      -5.580   0.072  -3.019  1.00  0.00     0.029 A 
ATOM     27  C   UNL     1      -7.448  -1.204  -1.383  1.00  0.00     0.041 A 
ATOM     28  C   UNL     1      -6.938   0.079  -3.360  1.00  0.00     0.041 A 
ATOM     29  C   UNL     1      -7.858  -0.561  -2.539  1.00  0.00     0.123 A 
ATOM     30  F   UNL     1      -9.156  -0.560  -2.870  1.00  0.00    -0.207 F 
ENDBRANCH  23  24
ENDBRANCH  17  18
ENDBRANCH  10  12
ENDBRANCH   7   8
ENDBRANCH   6   7
ENDBRANCH   4   6
ENDBRANCH   1   2
BRANCH   1  31
ATOM     31  C   UNL     1       2.993   2.590  -2.949  1.00  0.00     0.023 C 
BRANCH  31  32
ATOM     32  C   UNL     1       4.413   2.316  -3.452  1.00  0.00     0.023 C 
BRANCH  32  33
ATOM     33  C   UNL     1       4.621   0.979  -4.160  1.00  0.00     0.116 C 
BRANCH  33  34
ATOM     34  N   UNL     1       4.008   0.932  -5.480  1.00  0.00    -0.352 N 
ATOM     35  C   UNL     1       4.587   0.961  -6.729  1.00  0.00     0.251 C 
ATOM     36  H   UNL     1       3.025   0.870  -5.479  1.00  0.00     0.163 HD
ATOM     37  O   UNL     1       3.875   1.083  -7.723  1.00  0.00    -0.269 OA
BRANCH  35  38
ATOM     38  C   UNL     1       6.058   0.870  -6.889  1.00  0.00     0.039 A 
ATOM     39  C   UNL     1       6.698   1.740  -7.777  1.00  0.00     0.014 A 
ATOM     40  C   UNL     1       6.809  -0.077  -6.189  1.00  0.00     0.014 A 
ATOM     41  C   UNL     1       8.093   1.716  -7.897  1.00  0.00     0.010 A 
ATOM     42  C   UNL     1       8.203  -0.045  -6.248  1.00  0.00     0.010 A 
ATOM     43  C   UNL     1       8.864   0.853  -7.100  1.00  0.00    -0.014 A 
BRANCH  43  44
ATOM     44  C   UNL     1      10.353   0.902  -7.119  1.00  0.00     0.031 A 
ATOM     45  C   UNL     1      11.158  -0.304  -7.528  1.00  0.00     0.074 A 
ATOM     46  C   UNL     1      10.989   2.008  -6.681  1.00  0.00     0.049 A 
ATOM     47  N   UNL     1      12.458  -0.463  -7.543  1.00  0.00    -0.248 NA
ATOM     48  C   UNL     1      10.407  -1.496  -7.953  1.00  0.00     0.031 C 
ATOM     49  C   UNL     1      10.333   3.219  -6.183  1.00  0.00     0.029 A 
ATOM     50  N   UNL     1      12.329   2.284  -6.554  1.00  0.00    -0.354 N 
ATOM     51  C   UNL     1      12.679  -1.775  -7.945  1.00  0.00     0.074 A 
ATOM     52  C   UNL     1      11.378  -2.381  -8.132  1.00  0.00     0.031 C 
ATOM     53  C   UNL     1      11.268   4.105  -5.806  1.00  0.00     0.029 A 
ATOM     54  C   UNL     1      12.590   3.516  -6.000  1.00  0.00     0.049 A 
ATOM     55  H   UNL     1      13.037   1.659  -6.834  1.00  0.00     0.167 HD
ATOM     56  C   UNL     1      13.855  -2.412  -8.166  1.00  0.00     0.034 A 
ATOM     57  C   UNL     1      13.757   4.104  -5.668  1.00  0.00     0.034 A 
ATOM     58  C   UNL     1      15.149  -1.802  -8.010  1.00  0.00     0.049 A 
ATOM     59  C   UNL     1      15.049   3.383  -5.944  1.00  0.00     0.074 A 
ATOM     60  C   UNL     1      16.393  -2.343  -8.287  1.00  0.00     0.029 A 
ATOM     61  N   UNL     1      15.370  -0.524  -7.522  1.00  0.00    -0.354 N 
ATOM     62  N   UNL     1      15.236   2.198  -6.471  1.00  0.00    -0.248 NA
ATOM     63  C   UNL     1      16.292   4.096  -5.615  1.00  0.00     0.031 C 
ATOM     64  C   UNL     1      17.367  -1.403  -7.937  1.00  0.00     0.029 A 
ATOM     65  C   UNL     1      16.729  -0.262  -7.479  1.00  0.00     0.049 A 
ATOM     66  H   UNL     1      14.665   0.105  -7.247  1.00  0.00     0.167 HD
ATOM     67  C   UNL     1      16.614   2.038  -6.571  1.00  0.00     0.074 A 
ATOM     68  C   UNL     1      17.213   3.257  -6.069  1.00  0.00     0.031 C 
ATOM     69  C   UNL     1      17.318   0.973  -7.026  1.00  0.00     0.034 A 
BRANCH  56  70
ATOM     70  C   UNL     1      13.798  -3.840  -8.649  1.00  0.00     0.023 A 
ATOM     71  C   UNL     1      13.346  -4.115  -9.957  1.00  0.00     0.012 A 
ATOM     72  C   UNL     1      14.250  -4.901  -7.839  1.00  0.00     0.148 A 
ATOM     73  C   UNL     1      13.306  -5.424 -10.436  1.00  0.00     0.002 A 
ATOM     74  C   UNL     1      14.252  -6.198  -8.341  1.00  0.00     0.091 A 
ATOM     75  F   UNL     1      14.662  -4.624  -6.594  1.00  0.00    -0.205 F 
ATOM     76  C   UNL     1      13.769  -6.462  -9.633  1.00  0.00     0.022 A 
BRANCH  74  77
ATOM     77  S   UNL     1      14.904  -7.594  -7.418  1.00  0.00     0.127 S 
ATOM     78  O   UNL     1      13.684  -8.347  -7.124  1.00  0.00    -0.237 OA
ATOM     79  O   UNL     1      15.787  -8.226  -8.401  1.00  0.00    -0.237 OA
ATOM     80  O   UNL     1      15.584  -7.032  -6.263  1.00  0.00    -0.744 OA
ENDBRANCH  74  77
ENDBRANCH  56  70
BRANCH  57  81
ATOM     81  C   UNL     1      13.760   5.473  -5.077  1.00  0.00     0.023 A 
ATOM     82  C   UNL     1      14.258   6.554  -5.830  1.00  0.00     0.012 A 
ATOM     83  C   UNL     1      13.257   5.712  -3.783  1.00  0.00     0.148 A 
ATOM     84  C   UNL     1      14.289   7.842  -5.293  1.00  0.00     0.002 A 
ATOM     85  C   UNL     1      13.236   7.006  -3.277  1.00  0.00     0.091 A 
ATOM     86  F   UNL     1      12.797   4.669  -3.079  1.00  0.00    -0.205 F 
ATOM     87  C   UNL     1      13.769   8.069  -4.021  1.00  0.00     0.022 A 
BRANCH  85  88
ATOM     88  S   UNL     1      12.466   7.413  -1.706  1.00  0.00     0.127 S 
ATOM     89  O   UNL     1      13.624   7.770  -0.889  1.00  0.00    -0.237 OA
ATOM     90  O   UNL     1      11.604   8.536  -2.076  1.00  0.00    -0.237 OA
ATOM     91  O   UNL     1      11.748   6.215  -1.295  1.00  0.00    -0.744 OA
ENDBRANCH  85  88
ENDBRANCH  57  81
BRANCH  69  92
ATOM     92  C   UNL     1      18.822   1.083  -7.050  1.00  0.00     0.023 A 
ATOM     93  C   UNL     1      19.551   1.067  -5.845  1.00  0.00     0.012 A 
ATOM     94  C   UNL     1      19.515   1.133  -8.276  1.00  0.00     0.148 A 
ATOM     95  C   UNL     1      20.944   1.134  -5.858  1.00  0.00     0.002 A 
ATOM     96  C   UNL     1      20.905   1.146  -8.283  1.00  0.00     0.091 A 
ATOM     97  F   UNL     1      18.804   1.165  -9.412  1.00  0.00    -0.205 F 
ATOM     98  C   UNL     1      21.621   1.161  -7.075  1.00  0.00     0.022 A 
BRANCH  96  99
ATOM     99  S   UNL     1      21.863   1.082  -9.801  1.00  0.00     0.127 S 
ATOM    100  O   UNL     1      22.429   2.429  -9.853  1.00  0.00    -0.237 OA
ATOM    101  O   UNL     1      22.831   0.024  -9.511  1.00  0.00    -0.237 OA
ATOM    102  O   UNL     1      20.917   0.763 -10.862  1.00  0.00    -0.744 OA
ENDBRANCH  96  99
ENDBRANCH  69  92
ENDBRANCH  43  44
ENDBRANCH  35  38
ENDBRANCH  33  34
ENDBRANCH  32  33
ENDBRANCH  31  32
ENDBRANCH   1  31
TORSDOF 19
