REMARK SMILES CC[C@H](C)[C@H](NC(=O)[C@H](C)Oc1ccc2c(C)c(C)c(=O)oc2c1C)C(=O)NCCCCNC(=O)c1ccc(-c2c3nc(c(-c4cccc(S(=O)(=O)[O-])c4F)c4ccc([nH]4)c(-c4cccc(S(=O)(=O)[O-])c4F)c4nc(c(-c5cccc(S(=O)(=O)[O-])c5F)c5ccc2[nH]5)C=C4)C=C3)cc1
REMARK SMILES IDX 30 1 29 2 28 3 26 4 27 5 5 7 3 8 4 9 2 10 1 11 6 12 7 13
REMARK SMILES IDX 8 15 9 16 10 17 11 18 12 19 13 20 24 21 14 22 23 23 25 24
REMARK SMILES IDX 15 25 22 26 16 27 20 28 17 29 18 30 21 31 19 32 31 33 32 34
REMARK SMILES IDX 33 35 34 36 35 38 36 39 37 40 98 41 38 42 97 43 39 44 40 45
REMARK SMILES IDX 41 46 91 47 42 48 96 49 90 50 92 51 43 52 95 53 89 54 88 55
REMARK SMILES IDX 44 57 76 58 56 59 75 60 57 61 60 62 74 63 93 64 58 65 59 66
REMARK SMILES IDX 73 68 94 69 61 70 45 71 46 72 54 73 47 74 49 75 55 76 48 77
REMARK SMILES IDX 50 78 51 79 52 80 53 81 77 82 78 83 86 84 79 85 81 86 87 87
REMARK SMILES IDX 80 88 82 89 83 90 84 91 85 92 62 93 63 94 71 95 64 96 66 97
REMARK SMILES IDX 72 98 65 99 67 100 68 101 69 102 70 103
REMARK H PARENT 28 6 6 14 33 37 92 56 60 67
REMARK Flexibility Score: inf
ROOT
ATOM      1  C   UNL     1      -0.331  -0.140   3.179  1.00  0.00     0.023 C 
ENDROOT
BRANCH   1   2
ATOM      2  C   UNL     1       0.642   0.617   4.081  1.00  0.00     0.116 C 
BRANCH   2   3
ATOM      3  N   UNL     1       1.127  -0.140   5.220  1.00  0.00    -0.354 N 
ATOM      4  C   UNL     1       2.380  -0.549   5.539  1.00  0.00     0.242 C 
ATOM      5  O   UNL     1       2.593  -0.866   6.713  1.00  0.00    -0.273 OA
ATOM      6  H   UNL     1       0.432  -0.398   5.867  1.00  0.00     0.163 HD
BRANCH   4   7
ATOM      7  C   UNL     1       3.538  -0.501   4.535  1.00  0.00     0.174 C 
BRANCH   7   8
ATOM      8  C   UNL     1       4.128   0.946   4.402  1.00  0.00     0.018 C 
ATOM      9  C   UNL     1       3.787   1.882   5.575  1.00  0.00     0.010 C 
BRANCH   8  10
ATOM     10  C   UNL     1       5.667   0.965   4.238  1.00  0.00     0.002 C 
ATOM     11  C   UNL     1       6.216   0.125   3.098  1.00  0.00     0.004 C 
ENDBRANCH   8  10
ENDBRANCH   7   8
BRANCH   7  12
ATOM     12  N   UNL     1       3.196  -1.026   3.202  1.00  0.00    -0.341 N 
ATOM     13  C   UNL     1       2.799  -2.266   2.790  1.00  0.00     0.261 C 
ATOM     14  H   UNL     1       3.268  -0.364   2.478  1.00  0.00     0.164 HD
ATOM     15  O   UNL     1       3.117  -2.537   1.626  1.00  0.00    -0.271 OA
BRANCH  13  16
ATOM     16  C   UNL     1       1.830  -3.165   3.618  1.00  0.00     0.258 C 
ATOM     17  C   UNL     1       2.216  -3.585   5.033  1.00  0.00     0.064 C 
BRANCH  16  18
ATOM     18  O   UNL     1       1.238  -4.247   2.888  1.00  0.00    -0.480 OA
BRANCH  18  19
ATOM     19  C   UNL     1       2.043  -5.205   2.335  1.00  0.00     0.127 A 
ATOM     20  C   UNL     1       3.249  -5.614   2.906  1.00  0.00     0.047 A 
ATOM     21  C   UNL     1       1.594  -5.823   1.157  1.00  0.00     0.035 A 
ATOM     22  C   UNL     1       4.007  -6.633   2.333  1.00  0.00     0.016 A 
ATOM     23  C   UNL     1       2.409  -6.813   0.573  1.00  0.00     0.145 A 
ATOM     24  C   UNL     1       0.305  -5.427   0.488  1.00  0.00     0.052 C 
ATOM     25  C   UNL     1       3.600  -7.250   1.151  1.00  0.00     0.021 A 
ATOM     26  O   UNL     1       1.999  -7.340  -0.669  1.00  0.00    -0.422 OA
ATOM     27  C   UNL     1       4.378  -8.319   0.508  1.00  0.00    -0.030 A 
ATOM     28  C   UNL     1       2.800  -8.203  -1.397  1.00  0.00     0.339 A 
ATOM     29  C   UNL     1       5.549  -8.883   1.272  1.00  0.00     0.045 C 
ATOM     30  C   UNL     1       4.007  -8.747  -0.716  1.00  0.00     0.038 A 
ATOM     31  O   UNL     1       2.509  -8.518  -2.547  1.00  0.00    -0.246 OA
ATOM     32  C   UNL     1       4.780  -9.783  -1.483  1.00  0.00     0.052 C 
ENDBRANCH  18  19
ENDBRANCH  16  18
ENDBRANCH  13  16
ENDBRANCH   7  12
ENDBRANCH   4   7
ENDBRANCH   2   3
ENDBRANCH   1   2
BRANCH   1  33
ATOM     33  C   UNL     1      -1.403  -0.967   3.889  1.00  0.00     0.023 C 
BRANCH  33  34
ATOM     34  C   UNL     1      -2.152  -0.255   5.000  1.00  0.00     0.116 C 
BRANCH  34  35
ATOM     35  N   UNL     1      -2.877   0.912   4.534  1.00  0.00    -0.352 N 
ATOM     36  C   UNL     1      -4.198   1.209   4.755  1.00  0.00     0.251 C 
ATOM     37  H   UNL     1      -2.364   1.561   4.000  1.00  0.00     0.163 HD
ATOM     38  O   UNL     1      -4.726   2.178   4.220  1.00  0.00    -0.269 OA
BRANCH  36  39
ATOM     39  C   UNL     1      -4.972   0.309   5.628  1.00  0.00     0.039 A 
ATOM     40  C   UNL     1      -6.079  -0.354   5.098  1.00  0.00     0.014 A 
ATOM     41  C   UNL     1      -4.531   0.052   6.932  1.00  0.00     0.014 A 
ATOM     42  C   UNL     1      -6.739  -1.304   5.876  1.00  0.00     0.010 A 
ATOM     43  C   UNL     1      -5.151  -0.943   7.679  1.00  0.00     0.010 A 
ATOM     44  C   UNL     1      -6.274  -1.609   7.167  1.00  0.00    -0.014 A 
BRANCH  44  45
ATOM     45  C   UNL     1      -7.012  -2.567   8.020  1.00  0.00     0.031 A 
ATOM     46  C   UNL     1      -7.755  -2.053   9.222  1.00  0.00     0.074 A 
ATOM     47  C   UNL     1      -6.991  -3.884   7.740  1.00  0.00     0.049 A 
ATOM     48  N   UNL     1      -8.501  -2.713  10.067  1.00  0.00    -0.248 NA
ATOM     49  C   UNL     1      -7.630  -0.616   9.529  1.00  0.00     0.031 C 
ATOM     50  C   UNL     1      -6.231  -4.510   6.656  1.00  0.00     0.029 A 
ATOM     51  N   UNL     1      -7.618  -4.937   8.357  1.00  0.00    -0.354 N 
ATOM     52  C   UNL     1      -8.909  -1.782  11.013  1.00  0.00     0.074 A 
ATOM     53  C   UNL     1      -8.303  -0.519  10.666  1.00  0.00     0.031 C 
ATOM     54  C   UNL     1      -6.442  -5.838   6.682  1.00  0.00     0.029 A 
ATOM     55  C   UNL     1      -7.351  -6.156   7.780  1.00  0.00     0.049 A 
ATOM     56  H   UNL     1      -8.206  -4.830   9.140  1.00  0.00     0.167 HD
ATOM     57  C   UNL     1      -9.756  -1.955  12.051  1.00  0.00     0.034 A 
ATOM     58  C   UNL     1      -7.803  -7.387   8.094  1.00  0.00     0.034 A 
ATOM     59  C   UNL     1     -10.426  -3.188  12.339  1.00  0.00     0.049 A 
ATOM     60  C   UNL     1      -8.796  -7.540   9.214  1.00  0.00     0.074 A 
ATOM     61  C   UNL     1     -11.406  -3.427  13.283  1.00  0.00     0.029 A 
ATOM     62  N   UNL     1     -10.188  -4.384  11.684  1.00  0.00    -0.354 N 
ATOM     63  N   UNL     1      -9.320  -6.612   9.978  1.00  0.00    -0.248 NA
ATOM     64  C   UNL     1      -9.290  -8.897   9.495  1.00  0.00     0.031 C 
ATOM     65  C   UNL     1     -11.761  -4.776  13.202  1.00  0.00     0.029 A 
ATOM     66  C   UNL     1     -10.995  -5.372  12.212  1.00  0.00     0.049 A 
ATOM     67  H   UNL     1      -9.540  -4.511  10.954  1.00  0.00     0.167 HD
ATOM     68  C   UNL     1     -10.214  -7.267  10.816  1.00  0.00     0.074 A 
ATOM     69  C   UNL     1     -10.177  -8.669  10.457  1.00  0.00     0.031 C 
ATOM     70  C   UNL     1     -10.983  -6.752  11.804  1.00  0.00     0.034 A 
BRANCH  57  71
ATOM     71  C   UNL     1     -10.089  -0.761  12.895  1.00  0.00     0.023 A 
ATOM     72  C   UNL     1     -11.040   0.163  12.420  1.00  0.00     0.012 A 
ATOM     73  C   UNL     1      -9.543  -0.606  14.182  1.00  0.00     0.148 A 
ATOM     74  C   UNL     1     -11.441   1.234  13.215  1.00  0.00     0.002 A 
ATOM     75  C   UNL     1      -9.968   0.450  14.979  1.00  0.00     0.091 A 
ATOM     76  F   UNL     1      -8.633  -1.496  14.602  1.00  0.00    -0.205 F 
ATOM     77  C   UNL     1     -10.913   1.372  14.496  1.00  0.00     0.022 A 
BRANCH  75  78
ATOM     78  S   UNL     1      -9.386   0.700  16.659  1.00  0.00     0.127 S 
ATOM     79  O   UNL     1      -8.786   2.032  16.569  1.00  0.00    -0.237 OA
ATOM     80  O   UNL     1     -10.631   0.641  17.423  1.00  0.00    -0.237 OA
ATOM     81  O   UNL     1      -8.443  -0.377  16.927  1.00  0.00    -0.744 OA
ENDBRANCH  75  78
ENDBRANCH  57  71
BRANCH  58  82
ATOM     82  C   UNL     1      -7.380  -8.558   7.278  1.00  0.00     0.023 A 
ATOM     83  C   UNL     1      -8.279  -9.103   6.340  1.00  0.00     0.012 A 
ATOM     84  C   UNL     1      -6.087  -9.102   7.392  1.00  0.00     0.148 A 
ATOM     85  C   UNL     1      -7.901 -10.181   5.539  1.00  0.00     0.002 A 
ATOM     86  C   UNL     1      -5.706 -10.155   6.567  1.00  0.00     0.091 A 
ATOM     87  F   UNL     1      -5.255  -8.572   8.299  1.00  0.00    -0.205 F 
ATOM     88  C   UNL     1      -6.614 -10.701   5.646  1.00  0.00     0.022 A 
BRANCH  86  89
ATOM     89  S   UNL     1      -4.042 -10.832   6.570  1.00  0.00     0.127 S 
ATOM     90  O   UNL     1      -4.259 -12.154   7.152  1.00  0.00    -0.237 OA
ATOM     91  O   UNL     1      -3.714 -10.834   5.144  1.00  0.00    -0.237 OA
ATOM     92  O   UNL     1      -3.244  -9.914   7.370  1.00  0.00    -0.744 OA
ENDBRANCH  86  89
ENDBRANCH  58  82
BRANCH  70  93
ATOM     93  C   UNL     1     -11.855  -7.683  12.597  1.00  0.00     0.023 A 
ATOM     94  C   UNL     1     -11.283  -8.400  13.665  1.00  0.00     0.012 A 
ATOM     95  C   UNL     1     -13.251  -7.691  12.414  1.00  0.00     0.148 A 
ATOM     96  C   UNL     1     -12.093  -9.108  14.550  1.00  0.00     0.002 A 
ATOM     97  C   UNL     1     -14.054  -8.372  13.320  1.00  0.00     0.091 A 
ATOM     98  F   UNL     1     -13.764  -6.994  11.390  1.00  0.00    -0.205 F 
ATOM     99  C   UNL     1     -13.477  -9.082  14.386  1.00  0.00     0.022 A 
BRANCH  97 100
ATOM    100  S   UNL     1     -15.849  -8.329  13.251  1.00  0.00     0.127 S 
ATOM    101  O   UNL     1     -16.173  -9.739  13.043  1.00  0.00    -0.237 OA
ATOM    102  O   UNL     1     -16.194  -7.810  14.574  1.00  0.00    -0.237 OA
ATOM    103  O   UNL     1     -16.191  -7.450  12.140  1.00  0.00    -0.744 OA
ENDBRANCH  97 100
ENDBRANCH  70  93
ENDBRANCH  44  45
ENDBRANCH  36  39
ENDBRANCH  34  35
ENDBRANCH  33  34
ENDBRANCH   1  33
TORSDOF 20
