REMARK SMILES C[C@H]1CC[C@H]([NH2+]Cc2c(C(=O)NCCCCNC(=O)c3ccc(-c4c5nc(c(-c6cccc(S(=O)(=O)[O-])c6F)c6ccc([nH]6)c(-c6cccc(S(=O)(=O)[O-])c6F)c6nc(c(-c7cccc(S(=O)(=O)[O-])c7F)c7ccc4[nH]7)C=C6)C=C5)cc3)n(Cc3ccccc3F)c3ccccc23)CC1
REMARK SMILES IDX 14 1 13 2 12 3 10 4 11 5 9 7 8 8 97 9 83 10 92 11 96 12
REMARK SMILES IDX 93 13 95 14 94 15 7 16 6 17 5 20 1 21 2 22 3 23 99 24 4 25
REMARK SMILES IDX 98 26 84 27 85 28 86 29 90 30 87 31 89 32 91 33 88 34 15 35
REMARK SMILES IDX 16 36 17 37 18 38 19 40 20 41 21 42 82 43 22 44 81 45 23 46
REMARK SMILES IDX 24 47 25 48 75 49 26 50 80 51 74 52 76 53 27 54 79 55 73 56
REMARK SMILES IDX 72 57 28 59 60 60 40 61 59 62 41 63 44 64 58 65 77 66 42 67
REMARK SMILES IDX 43 68 57 70 78 71 45 72 29 73 30 74 38 75 31 76 33 77 39 78
REMARK SMILES IDX 32 79 34 80 35 81 36 82 37 83 61 84 62 85 70 86 63 87 65 88
REMARK SMILES IDX 71 89 64 90 66 91 67 92 68 93 69 94 46 95 47 96 55 97 48 98
REMARK SMILES IDX 50 99 56 100 49 101 51 102 52 103 53 104 54 105
REMARK H PARENT 12 6 6 18 6 19 17 39 76 58 44 69
REMARK Flexibility Score: inf
ROOT
ATOM      1  C   UNL     1      -4.510   1.648   2.162  1.00  0.00     0.023 C 
ENDROOT
BRANCH   1   2
ATOM      2  C   UNL     1      -3.868   0.351   1.685  1.00  0.00     0.116 C 
BRANCH   2   3
ATOM      3  N   UNL     1      -2.893  -0.290   2.523  1.00  0.00    -0.351 N 
ATOM      4  C   UNL     1      -2.267  -1.512   2.347  1.00  0.00     0.268 C 
ATOM      5  O   UNL     1      -1.353  -1.727   3.142  1.00  0.00    -0.268 OA
ATOM      6  H   UNL     1      -2.634   0.208   3.332  1.00  0.00     0.163 HD
BRANCH   4   7
ATOM      7  C   UNL     1      -2.684  -2.517   1.345  1.00  0.00     0.117 A 
ATOM      8  C   UNL     1      -3.327  -2.445   0.092  1.00  0.00     0.045 A 
ATOM      9  C   UNL     1      -3.855  -3.755  -0.150  1.00  0.00     0.009 A 
ATOM     10  N   UNL     1      -2.296  -3.882   1.421  1.00  0.00    -0.331 N 
ATOM     11  C   UNL     1      -3.006  -4.636   0.493  1.00  0.00     0.049 A 
ATOM     12  C   UNL     1      -4.860  -4.263  -1.002  1.00  0.00     0.011 A 
ATOM     13  C   UNL     1      -2.981  -5.997   0.138  1.00  0.00     0.027 A 
ATOM     14  C   UNL     1      -4.962  -5.639  -1.209  1.00  0.00     0.001 A 
ATOM     15  C   UNL     1      -4.000  -6.490  -0.683  1.00  0.00     0.002 A 
BRANCH   8  16
ATOM     16  C   UNL     1      -3.565  -1.385  -0.950  1.00  0.00     0.300 C 
BRANCH  16  17
ATOM     17  N   UNL     1      -2.642  -0.268  -1.006  1.00  0.00    -0.340 N 
ATOM     18  H   UNL     1      -3.041   0.383  -1.683  1.00  0.00     0.346 HD
ATOM     19  H   UNL     1      -2.575  -0.029  -0.016  1.00  0.00     0.346 HD
BRANCH  17  20
ATOM     20  C   UNL     1      -1.227  -0.377  -1.353  1.00  0.00     0.182 C 
ATOM     21  C   UNL     1       3.062  -0.046  -0.288  1.00  0.00     0.007 C 
ATOM     22  C   UNL     1       1.545  -0.145  -0.262  1.00  0.00    -0.014 C 
ATOM     23  C   UNL     1       1.052  -1.436  -0.924  1.00  0.00     0.009 C 
ATOM     24  C   UNL     1       0.898   1.051  -0.959  1.00  0.00     0.009 C 
ATOM     25  C   UNL     1      -0.459  -1.558  -0.759  1.00  0.00     0.065 C 
ATOM     26  C   UNL     1      -0.617   0.959  -0.869  1.00  0.00     0.065 C 
ENDBRANCH  17  20
ENDBRANCH  16  17
ENDBRANCH   8  16
BRANCH  10  27
ATOM     27  C   UNL     1      -1.221  -4.463   2.246  1.00  0.00     0.161 C 
BRANCH  27  28
ATOM     28  C   UNL     1      -1.687  -5.179   3.494  1.00  0.00     0.008 A 
ATOM     29  C   UNL     1      -2.473  -6.344   3.450  1.00  0.00     0.008 A 
ATOM     30  C   UNL     1      -1.280  -4.740   4.755  1.00  0.00     0.128 A 
ATOM     31  C   UNL     1      -2.876  -7.006   4.613  1.00  0.00     0.001 A 
ATOM     32  C   UNL     1      -1.687  -5.386   5.925  1.00  0.00     0.039 A 
ATOM     33  F   UNL     1      -0.437  -3.706   4.871  1.00  0.00    -0.207 F 
ATOM     34  C   UNL     1      -2.496  -6.518   5.855  1.00  0.00     0.003 A 
ENDBRANCH  27  28
ENDBRANCH  10  27
ENDBRANCH   4   7
ENDBRANCH   2   3
ENDBRANCH   1   2
BRANCH   1  35
ATOM     35  C   UNL     1      -3.715   2.944   1.905  1.00  0.00     0.023 C 
BRANCH  35  36
ATOM     36  C   UNL     1      -3.143   3.178   0.497  1.00  0.00     0.116 C 
BRANCH  36  37
ATOM     37  N   UNL     1      -4.069   3.302  -0.612  1.00  0.00    -0.352 N 
ATOM     38  C   UNL     1      -4.490   4.423  -1.290  1.00  0.00     0.251 C 
ATOM     39  H   UNL     1      -4.457   2.454  -0.928  1.00  0.00     0.163 HD
ATOM     40  O   UNL     1      -4.729   4.322  -2.493  1.00  0.00    -0.269 OA
BRANCH  38  41
ATOM     41  C   UNL     1      -4.855   5.661  -0.565  1.00  0.00     0.039 A 
ATOM     42  C   UNL     1      -4.295   6.027   0.655  1.00  0.00     0.014 A 
ATOM     43  C   UNL     1      -5.948   6.384  -1.074  1.00  0.00     0.014 A 
ATOM     44  C   UNL     1      -4.950   6.928   1.465  1.00  0.00     0.010 A 
ATOM     45  C   UNL     1      -6.575   7.338  -0.289  1.00  0.00     0.010 A 
ATOM     46  C   UNL     1      -6.117   7.540   1.009  1.00  0.00    -0.014 A 
BRANCH  46  47
ATOM     47  C   UNL     1      -6.743   8.476   1.927  1.00  0.00     0.031 A 
ATOM     48  C   UNL     1      -5.870   9.621   2.297  1.00  0.00     0.074 A 
ATOM     49  C   UNL     1      -8.008   8.333   2.363  1.00  0.00     0.049 A 
ATOM     50  N   UNL     1      -5.412   9.931   3.467  1.00  0.00    -0.248 NA
ATOM     51  C   UNL     1      -5.304  10.417   1.196  1.00  0.00     0.031 C 
ATOM     52  C   UNL     1      -9.026   7.401   1.875  1.00  0.00     0.029 A 
ATOM     53  N   UNL     1      -8.693   9.107   3.248  1.00  0.00    -0.354 N 
ATOM     54  C   UNL     1      -4.673  11.097   3.275  1.00  0.00     0.074 A 
ATOM     55  C   UNL     1      -4.498  11.249   1.855  1.00  0.00     0.031 C 
ATOM     56  C   UNL     1     -10.242   7.844   2.260  1.00  0.00     0.029 A 
ATOM     57  C   UNL     1     -10.073   9.008   3.111  1.00  0.00     0.049 A 
ATOM     58  H   UNL     1      -8.255   9.681   3.918  1.00  0.00     0.167 HD
ATOM     59  C   UNL     1      -4.454  11.986   4.279  1.00  0.00     0.034 A 
ATOM     60  C   UNL     1     -10.985   9.902   3.568  1.00  0.00     0.034 A 
ATOM     61  C   UNL     1      -4.678  11.412   5.574  1.00  0.00     0.049 A 
ATOM     62  C   UNL     1     -10.322  10.685   4.640  1.00  0.00     0.074 A 
ATOM     63  C   UNL     1      -4.123  10.370   6.287  1.00  0.00     0.029 A 
ATOM     64  N   UNL     1      -5.867  11.713   6.191  1.00  0.00    -0.354 N 
ATOM     65  N   UNL     1      -9.939  10.181   5.780  1.00  0.00    -0.248 NA
ATOM     66  C   UNL     1      -9.712  11.956   4.280  1.00  0.00     0.031 C 
ATOM     67  C   UNL     1      -5.214   9.794   6.997  1.00  0.00     0.029 A 
ATOM     68  C   UNL     1      -6.356  10.546   6.710  1.00  0.00     0.049 A 
ATOM     69  H   UNL     1      -6.288  12.601   6.249  1.00  0.00     0.167 HD
ATOM     70  C   UNL     1      -8.745  10.831   6.063  1.00  0.00     0.074 A 
ATOM     71  C   UNL     1      -8.713  11.982   5.165  1.00  0.00     0.031 C 
ATOM     72  C   UNL     1      -7.763  10.221   6.787  1.00  0.00     0.034 A 
BRANCH  59  73
ATOM     73  C   UNL     1      -4.384  13.476   4.076  1.00  0.00     0.023 A 
ATOM     74  C   UNL     1      -3.913  14.270   5.142  1.00  0.00     0.012 A 
ATOM     75  C   UNL     1      -5.013  14.143   3.000  1.00  0.00     0.148 A 
ATOM     76  C   UNL     1      -4.082  15.659   5.146  1.00  0.00     0.002 A 
ATOM     77  C   UNL     1      -5.105  15.528   2.970  1.00  0.00     0.091 A 
ATOM     78  F   UNL     1      -5.656  13.439   2.063  1.00  0.00    -0.205 F 
ATOM     79  C   UNL     1      -4.665  16.291   4.053  1.00  0.00     0.022 A 
BRANCH  77  80
ATOM     80  S   UNL     1      -5.813  16.384   1.559  1.00  0.00     0.127 S 
ATOM     81  O   UNL     1      -7.124  16.764   2.075  1.00  0.00    -0.237 OA
ATOM     82  O   UNL     1      -4.872  17.490   1.376  1.00  0.00    -0.237 OA
ATOM     83  O   UNL     1      -5.804  15.411   0.474  1.00  0.00    -0.744 OA
ENDBRANCH  77  80
ENDBRANCH  59  73
BRANCH  60  84
ATOM     84  C   UNL     1     -12.267  10.333   2.951  1.00  0.00     0.023 A 
ATOM     85  C   UNL     1     -13.165  11.116   3.707  1.00  0.00     0.012 A 
ATOM     86  C   UNL     1     -12.508  10.218   1.562  1.00  0.00     0.148 A 
ATOM     87  C   UNL     1     -14.232  11.790   3.099  1.00  0.00     0.002 A 
ATOM     88  C   UNL     1     -13.586  10.866   0.966  1.00  0.00     0.091 A 
ATOM     89  F   UNL     1     -11.629   9.560   0.797  1.00  0.00    -0.205 F 
ATOM     90  C   UNL     1     -14.442  11.668   1.728  1.00  0.00     0.022 A 
BRANCH  88  91
ATOM     91  S   UNL     1     -13.911  10.732  -0.798  1.00  0.00     0.127 S 
ATOM     92  O   UNL     1     -15.369  10.604  -0.835  1.00  0.00    -0.237 OA
ATOM     93  O   UNL     1     -13.394  12.000  -1.301  1.00  0.00    -0.237 OA
ATOM     94  O   UNL     1     -13.201   9.535  -1.235  1.00  0.00    -0.744 OA
ENDBRANCH  88  91
ENDBRANCH  60  84
BRANCH  72  95
ATOM     95  C   UNL     1      -8.084   8.939   7.505  1.00  0.00     0.023 A 
ATOM     96  C   UNL     1      -8.307   7.733   6.808  1.00  0.00     0.012 A 
ATOM     97  C   UNL     1      -7.884   8.905   8.894  1.00  0.00     0.148 A 
ATOM     98  C   UNL     1      -8.318   6.513   7.490  1.00  0.00     0.002 A 
ATOM     99  C   UNL     1      -7.847   7.688   9.559  1.00  0.00     0.091 A 
ATOM    100  F   UNL     1      -7.662  10.067   9.527  1.00  0.00    -0.205 F 
ATOM    101  C   UNL     1      -8.068   6.489   8.861  1.00  0.00     0.022 A 
BRANCH  99 102
ATOM    102  S   UNL     1      -7.388   7.571  11.289  1.00  0.00     0.127 S 
ATOM    103  O   UNL     1      -8.624   7.086  11.901  1.00  0.00    -0.237 OA
ATOM    104  O   UNL     1      -6.298   6.594  11.254  1.00  0.00    -0.237 OA
ATOM    105  O   UNL     1      -6.981   8.910  11.695  1.00  0.00    -0.744 OA
ENDBRANCH  99 102
ENDBRANCH  72  95
ENDBRANCH  46  47
ENDBRANCH  38  41
ENDBRANCH  36  37
ENDBRANCH  35  36
ENDBRANCH   1  35
TORSDOF 19
