REMARK SMILES O=C(NCCCCNC(=O)[C@H]1CC2=c3ccccc3=N[C@H]2[C@@H](c2ccccc2)[NH2+]1)c1ccc(-c2c3nc(c(-c4cccc(S(=O)(=O)[O-])c4F)c4ccc([nH]4)c(-c4cccc(S(=O)(=O)[O-])c4F)c4nc(c(-c5cccc(S(=O)(=O)[O-])c5F)c5ccc2[nH]5)C=C4)C=C3)cc1
REMARK SMILES IDX 4 1 3 2 1 3 2 4 30 6 31 7 92 8 32 9 91 10 33 11 34 12 35 13
REMARK SMILES IDX 85 14 36 15 90 16 84 17 86 18 37 19 89 20 83 21 82 22 38 24
REMARK SMILES IDX 70 25 50 26 69 27 51 28 54 29 68 30 87 31 52 32 53 33 67 35
REMARK SMILES IDX 88 36 55 37 39 38 40 39 48 40 41 41 43 42 49 43 42 44 44 45
REMARK SMILES IDX 45 46 46 47 47 48 71 49 72 50 80 51 73 52 75 53 81 54 74 55
REMARK SMILES IDX 76 56 77 57 78 58 79 59 56 60 57 61 65 62 58 63 60 64 66 65
REMARK SMILES IDX 59 66 61 67 62 68 63 69 64 70 5 71 6 72 7 73 8 74 9 75 10 77
REMARK SMILES IDX 11 78 12 79 29 80 13 81 22 82 14 85 21 86 15 87 19 88 20 89
REMARK SMILES IDX 16 90 18 91 17 92 23 93 24 94 28 95 25 96 27 97 26 98
REMARK H PARENT 3 5 86 23 54 34 8 76 29 83 29 84
REMARK Flexibility Score: inf
ROOT
ATOM      1  C   UNL     1       4.487   0.941   0.092  1.00  0.00     0.116 C 
ENDROOT
BRANCH   1   2
ATOM      2  N   UNL     1       3.053   0.769   0.284  1.00  0.00    -0.352 N 
ATOM      3  O   UNL     1       1.026  -0.165   0.001  1.00  0.00    -0.269 OA
ATOM      4  C   UNL     1       2.242  -0.240  -0.154  1.00  0.00     0.251 C 
ATOM      5  H   UNL     1       2.607   1.478   0.800  1.00  0.00     0.163 HD
BRANCH   4   6
ATOM      6  C   UNL     1       2.844  -1.400  -0.827  1.00  0.00     0.039 A 
ATOM      7  C   UNL     1       2.321  -1.806  -2.055  1.00  0.00     0.014 A 
ATOM      8  C   UNL     1       3.920  -2.074  -0.242  1.00  0.00     0.014 A 
ATOM      9  C   UNL     1       2.895  -2.889  -2.715  1.00  0.00     0.010 A 
ATOM     10  C   UNL     1       4.529  -3.114  -0.930  1.00  0.00     0.010 A 
ATOM     11  C   UNL     1       4.006  -3.543  -2.159  1.00  0.00    -0.014 A 
BRANCH  11  12
ATOM     12  C   UNL     1       4.601  -4.727  -2.815  1.00  0.00     0.031 A 
ATOM     13  C   UNL     1       4.501  -6.066  -2.138  1.00  0.00     0.074 A 
ATOM     14  C   UNL     1       5.261  -4.588  -3.980  1.00  0.00     0.049 A 
ATOM     15  N   UNL     1       5.030  -7.206  -2.493  1.00  0.00    -0.248 NA
ATOM     16  C   UNL     1       3.721  -6.132  -0.887  1.00  0.00     0.031 C 
ATOM     17  C   UNL     1       5.441  -3.330  -4.709  1.00  0.00     0.029 A 
ATOM     18  N   UNL     1       5.914  -5.514  -4.752  1.00  0.00    -0.354 N 
ATOM     19  C   UNL     1       4.680  -8.110  -1.498  1.00  0.00     0.074 A 
ATOM     20  C   UNL     1       3.910  -7.389  -0.512  1.00  0.00     0.031 C 
ATOM     21  C   UNL     1       6.140  -3.568  -5.832  1.00  0.00     0.029 A 
ATOM     22  C   UNL     1       6.486  -4.985  -5.884  1.00  0.00     0.049 A 
ATOM     23  H   UNL     1       5.968  -6.469  -4.517  1.00  0.00     0.167 HD
ATOM     24  C   UNL     1       4.951  -9.432  -1.434  1.00  0.00     0.034 A 
ATOM     25  C   UNL     1       7.207  -5.581  -6.854  1.00  0.00     0.034 A 
ATOM     26  C   UNL     1       5.656 -10.155  -2.452  1.00  0.00     0.049 A 
ATOM     27  C   UNL     1       7.468  -7.059  -6.763  1.00  0.00     0.074 A 
ATOM     28  C   UNL     1       5.937 -11.509  -2.500  1.00  0.00     0.029 A 
ATOM     29  N   UNL     1       6.170  -9.592  -3.607  1.00  0.00    -0.354 N 
ATOM     30  N   UNL     1       7.074  -7.907  -5.846  1.00  0.00    -0.248 NA
ATOM     31  C   UNL     1       8.249  -7.667  -7.851  1.00  0.00     0.031 C 
ATOM     32  C   UNL     1       6.621 -11.766  -3.689  1.00  0.00     0.029 A 
ATOM     33  C   UNL     1       6.752 -10.574  -4.385  1.00  0.00     0.049 A 
ATOM     34  H   UNL     1       6.126  -8.637  -3.840  1.00  0.00     0.167 HD
ATOM     35  C   UNL     1       7.519  -9.154  -6.267  1.00  0.00     0.074 A 
ATOM     36  C   UNL     1       8.213  -8.952  -7.521  1.00  0.00     0.031 C 
ATOM     37  C   UNL     1       7.372 -10.357  -5.664  1.00  0.00     0.034 A 
BRANCH  24  38
ATOM     38  C   UNL     1       4.423 -10.217  -0.268  1.00  0.00     0.023 A 
ATOM     39  C   UNL     1       3.076 -10.626  -0.275  1.00  0.00     0.012 A 
ATOM     40  C   UNL     1       5.287 -10.672   0.746  1.00  0.00     0.148 A 
ATOM     41  C   UNL     1       2.595 -11.488   0.709  1.00  0.00     0.002 A 
ATOM     42  C   UNL     1       4.809 -11.555   1.705  1.00  0.00     0.091 A 
ATOM     43  F   UNL     1       6.562 -10.257   0.730  1.00  0.00    -0.205 F 
ATOM     44  C   UNL     1       3.464 -11.963   1.689  1.00  0.00     0.022 A 
BRANCH  42  45
ATOM     45  S   UNL     1       5.856 -12.275   2.974  1.00  0.00     0.127 S 
ATOM     46  O   UNL     1       5.186 -11.831   4.197  1.00  0.00    -0.237 OA
ATOM     47  O   UNL     1       5.733 -13.705   2.695  1.00  0.00    -0.237 OA
ATOM     48  O   UNL     1       7.185 -11.716   2.769  1.00  0.00    -0.744 OA
ENDBRANCH  42  45
ENDBRANCH  24  38
BRANCH  25  49
ATOM     49  C   UNL     1       7.659  -4.796  -8.035  1.00  0.00     0.023 A 
ATOM     50  C   UNL     1       7.012  -4.992  -9.271  1.00  0.00     0.012 A 
ATOM     51  C   UNL     1       8.692  -3.847  -7.939  1.00  0.00     0.148 A 
ATOM     52  C   UNL     1       7.403  -4.271 -10.399  1.00  0.00     0.002 A 
ATOM     53  C   UNL     1       9.051  -3.104  -9.059  1.00  0.00     0.091 A 
ATOM     54  F   UNL     1       9.296  -3.683  -6.754  1.00  0.00    -0.205 F 
ATOM     55  C   UNL     1       8.416  -3.323 -10.291  1.00  0.00     0.022 A 
BRANCH  53  56
ATOM     56  S   UNL     1      10.278  -1.794  -8.997  1.00  0.00     0.127 S 
ATOM     57  O   UNL     1      11.366  -2.367  -9.786  1.00  0.00    -0.237 OA
ATOM     58  O   UNL     1       9.569  -0.686  -9.638  1.00  0.00    -0.237 OA
ATOM     59  O   UNL     1      10.565  -1.588  -7.584  1.00  0.00    -0.744 OA
ENDBRANCH  53  56
ENDBRANCH  25  49
BRANCH  37  60
ATOM     60  C   UNL     1       7.911 -11.571  -6.363  1.00  0.00     0.023 A 
ATOM     61  C   UNL     1       9.287 -11.859  -6.295  1.00  0.00     0.012 A 
ATOM     62  C   UNL     1       7.029 -12.493  -6.959  1.00  0.00     0.148 A 
ATOM     63  C   UNL     1       9.780 -13.051  -6.821  1.00  0.00     0.002 A 
ATOM     64  C   UNL     1       7.523 -13.694  -7.448  1.00  0.00     0.091 A 
ATOM     65  F   UNL     1       5.725 -12.185  -7.013  1.00  0.00    -0.205 F 
ATOM     66  C   UNL     1       8.899 -13.973  -7.385  1.00  0.00     0.022 A 
BRANCH  64  67
ATOM     67  S   UNL     1       6.457 -14.976  -8.116  1.00  0.00     0.127 S 
ATOM     68  O   UNL     1       6.834 -14.969  -9.529  1.00  0.00    -0.237 OA
ATOM     69  O   UNL     1       6.893 -16.158  -7.373  1.00  0.00    -0.237 OA
ATOM     70  O   UNL     1       5.091 -14.552  -7.837  1.00  0.00    -0.744 OA
ENDBRANCH  64  67
ENDBRANCH  37  60
ENDBRANCH  11  12
ENDBRANCH   4   6
ENDBRANCH   1   2
BRANCH   1  71
ATOM     71  C   UNL     1       4.882   2.408  -0.061  1.00  0.00     0.023 C 
BRANCH  71  72
ATOM     72  C   UNL     1       4.232   3.359   0.953  1.00  0.00     0.023 C 
BRANCH  72  73
ATOM     73  C   UNL     1       4.364   2.909   2.408  1.00  0.00     0.116 C 
BRANCH  73  74
ATOM     74  N   UNL     1       5.706   3.131   2.874  1.00  0.00    -0.351 N 
ATOM     75  C   UNL     1       6.274   4.177   3.506  1.00  0.00     0.278 C 
ATOM     76  H   UNL     1       6.321   2.382   2.700  1.00  0.00     0.163 HD
ATOM     77  O   UNL     1       7.513   4.204   3.448  1.00  0.00    -0.268 OA
BRANCH  75  78
ATOM     78  C   UNL     1       5.530   5.250   4.344  1.00  0.00     0.277 C 
ATOM     79  C   UNL     1       3.988   5.466   4.323  1.00  0.00     0.109 C 
ATOM     80  N   UNL     1       6.106   5.187   5.725  1.00  0.00    -0.327 N 
ATOM     81  C   UNL     1       3.639   6.675   5.162  1.00  0.00    -0.024 C 
ATOM     82  C   UNL     1       5.353   5.907   6.782  1.00  0.00     0.243 C 
ATOM     83  H   UNL     1       7.045   5.581   5.689  1.00  0.00     0.347 HD
ATOM     84  H   UNL     1       6.073   4.202   5.990  1.00  0.00     0.347 HD
ATOM     85  C   UNL     1       2.514   7.321   5.457  1.00  0.00     0.002 A 
ATOM     86  C   UNL     1       4.753   7.160   6.056  1.00  0.00     0.196 C 
ATOM     87  C   UNL     1       1.123   7.176   5.170  1.00  0.00     0.010 A 
ATOM     88  C   UNL     1       2.976   8.330   6.439  1.00  0.00     0.066 A 
ATOM     89  N   UNL     1       4.188   8.240   6.898  1.00  0.00    -0.270 NA
ATOM     90  C   UNL     1       0.263   8.072   5.689  1.00  0.00     0.001 A 
ATOM     91  C   UNL     1       2.001   9.360   6.844  1.00  0.00     0.028 A 
ATOM     92  C   UNL     1       0.724   9.220   6.455  1.00  0.00     0.002 A 
BRANCH  82  93
ATOM     93  C   UNL     1       4.360   4.994   7.551  1.00  0.00     0.012 A 
ATOM     94  C   UNL     1       4.431   3.586   7.530  1.00  0.00     0.010 A 
ATOM     95  C   UNL     1       3.349   5.554   8.353  1.00  0.00     0.010 A 
ATOM     96  C   UNL     1       3.493   2.791   8.205  1.00  0.00     0.001 A 
ATOM     97  C   UNL     1       2.394   4.764   9.006  1.00  0.00     0.001 A 
ATOM     98  C   UNL     1       2.462   3.381   8.926  1.00  0.00     0.000 A 
ENDBRANCH  82  93
ENDBRANCH  75  78
ENDBRANCH  73  74
ENDBRANCH  72  73
ENDBRANCH  71  72
ENDBRANCH   1  71
TORSDOF 15
