REMARK SMILES COc1ccc(-c2cc(C(F)(F)F)n3nc(C(=O)NCCCCNC(=O)c4ccc(-c5c6nc(c(-c7cccc(S(=O)(=O)[O-])c7F)c7ccc([nH]7)c(-c7cccc(S(=O)(=O)[O-])c7F)c7nc(c(-c8cccc(S(=O)(=O)[O-])c8F)c8ccc5[nH]8)C=C7)C=C6)cc4)cc3n2)cc1OC
REMARK SMILES IDX 22 1 21 2 20 3 19 4 17 5 18 6 16 8 7 9 8 10 92 11 9 12 91 13
REMARK SMILES IDX 14 14 90 15 15 16 6 17 3 18 4 19 94 20 5 21 93 22 2 23 1 24
REMARK SMILES IDX 95 25 96 26 10 27 11 28 12 29 13 30 23 31 24 32 25 33 26 35
REMARK SMILES IDX 27 36 28 37 89 38 29 39 88 40 30 41 31 42 32 43 82 44 33 45
REMARK SMILES IDX 87 46 81 47 83 48 34 49 86 50 80 51 79 52 35 54 67 55 47 56
REMARK SMILES IDX 66 57 48 58 51 59 65 60 84 61 49 62 50 63 64 65 85 66 52 67
REMARK SMILES IDX 36 68 37 69 45 70 38 71 40 72 46 73 39 74 41 75 42 76 43 77
REMARK SMILES IDX 44 78 68 79 69 80 77 81 70 82 72 83 78 84 71 85 73 86 74 87
REMARK SMILES IDX 75 88 76 89 53 90 54 91 62 92 55 93 57 94 63 95 56 96 58 97
REMARK SMILES IDX 59 98 60 99 61 100
REMARK H PARENT 19 7 24 34 83 53 51 64
REMARK Flexibility Score: inf
ROOT
ATOM      1  C   UNL     1      -0.170  -5.045  12.174  1.00  0.00     0.023 C 
ENDROOT
BRANCH   1   2
ATOM      2  C   UNL     1       0.048  -3.986  11.088  1.00  0.00     0.023 C 
BRANCH   2   3
ATOM      3  C   UNL     1      -0.340  -2.571  11.522  1.00  0.00     0.116 C 
BRANCH   3   4
ATOM      4  N   UNL     1       0.723  -1.956  12.285  1.00  0.00    -0.351 N 
ATOM      5  C   UNL     1       1.743  -1.106  11.923  1.00  0.00     0.271 C 
ATOM      6  O   UNL     1       2.481  -0.727  12.836  1.00  0.00    -0.267 OA
ATOM      7  H   UNL     1       0.716  -2.188  13.242  1.00  0.00     0.163 HD
BRANCH   5   8
ATOM      8  C   UNL     1       1.926  -0.649  10.526  1.00  0.00     0.152 A 
ATOM      9  C   UNL     1       2.117   0.684   6.308  1.00  0.00     0.075 A 
ATOM     10  C   UNL     1       3.159   1.613   6.850  1.00  0.00     0.062 A 
ATOM     11  N   UNL     1       1.470  -0.198   7.009  1.00  0.00    -0.228 NA
ATOM     12  C   UNL     1       3.394   1.530   8.175  1.00  0.00     0.150 A 
ATOM     13  C   UNL     1       1.787  -0.263   8.333  1.00  0.00     0.157 A 
ATOM     14  N   UNL     1       2.690   0.607   8.940  1.00  0.00    -0.209 N 
ATOM     15  C   UNL     1       1.385  -1.134   9.313  1.00  0.00     0.085 A 
ATOM     16  N   UNL     1       2.741   0.396  10.270  1.00  0.00    -0.161 NA
BRANCH   9  17
ATOM     17  C   UNL     1       1.823   0.807   4.864  1.00  0.00     0.004 A 
ATOM     18  C   UNL     1       1.264   0.984   2.136  1.00  0.00     0.160 A 
ATOM     19  C   UNL     1       0.231   1.111   3.078  1.00  0.00     0.051 A 
ATOM     20  C   UNL     1       2.583   0.768   2.560  1.00  0.00     0.161 A 
ATOM     21  C   UNL     1       0.507   1.005   4.443  1.00  0.00     0.014 A 
ATOM     22  C   UNL     1       2.853   0.685   3.930  1.00  0.00     0.060 A 
BRANCH  18  23
ATOM     23  O   UNL     1       0.972   1.189   0.814  1.00  0.00    -0.493 OA
ATOM     24  C   UNL     1       0.193   0.126   0.262  1.00  0.00     0.278 C 
ENDBRANCH  18  23
BRANCH  20  25
ATOM     25  O   UNL     1       3.709   0.648   1.790  1.00  0.00    -0.493 OA
ATOM     26  C   UNL     1       3.542   0.237   0.442  1.00  0.00     0.278 C 
ENDBRANCH  20  25
ENDBRANCH   9  17
BRANCH  12  27
ATOM     27  C   UNL     1       4.397   2.352   8.891  1.00  0.00     0.433 C 
ATOM     28  F   UNL     1       3.852   3.161   9.832  1.00  0.00    -0.165 F 
ATOM     29  F   UNL     1       5.365   1.609   9.482  1.00  0.00    -0.165 F 
ATOM     30  F   UNL     1       5.053   3.183   8.027  1.00  0.00    -0.165 F 
ENDBRANCH  12  27
ENDBRANCH   5   8
ENDBRANCH   3   4
ENDBRANCH   2   3
ENDBRANCH   1   2
BRANCH   1  31
ATOM     31  C   UNL     1      -1.612  -5.186  12.655  1.00  0.00     0.116 C 
BRANCH  31  32
ATOM     32  N   UNL     1      -2.553  -5.455  11.578  1.00  0.00    -0.352 N 
ATOM     33  C   UNL     1      -3.709  -6.194  11.619  1.00  0.00     0.251 C 
ATOM     34  H   UNL     1      -2.332  -5.054  10.706  1.00  0.00     0.163 HD
ATOM     35  O   UNL     1      -4.328  -6.421  10.582  1.00  0.00    -0.269 OA
BRANCH  33  36
ATOM     36  C   UNL     1      -4.183  -6.738  12.908  1.00  0.00     0.039 A 
ATOM     37  C   UNL     1      -4.586  -8.073  12.967  1.00  0.00     0.014 A 
ATOM     38  C   UNL     1      -4.215  -5.941  14.055  1.00  0.00     0.014 A 
ATOM     39  C   UNL     1      -4.980  -8.620  14.188  1.00  0.00     0.010 A 
ATOM     40  C   UNL     1      -4.529  -6.510  15.285  1.00  0.00     0.010 A 
ATOM     41  C   UNL     1      -4.933  -7.850  15.363  1.00  0.00    -0.014 A 
BRANCH  41  42
ATOM     42  C   UNL     1      -5.317  -8.435  16.672  1.00  0.00     0.031 A 
ATOM     43  C   UNL     1      -6.495  -7.886  17.434  1.00  0.00     0.074 A 
ATOM     44  C   UNL     1      -4.574  -9.426  17.203  1.00  0.00     0.049 A 
ATOM     45  N   UNL     1      -6.987  -8.276  18.581  1.00  0.00    -0.248 NA
ATOM     46  C   UNL     1      -7.194  -6.731  16.846  1.00  0.00     0.031 C 
ATOM     47  C   UNL     1      -3.357  -9.982  16.607  1.00  0.00     0.029 A 
ATOM     48  N   UNL     1      -4.724 -10.132  18.370  1.00  0.00    -0.354 N 
ATOM     49  C   UNL     1      -8.028  -7.399  18.866  1.00  0.00     0.074 A 
ATOM     50  C   UNL     1      -8.068  -6.429  17.795  1.00  0.00     0.031 C 
ATOM     51  C   UNL     1      -2.881 -10.953  17.404  1.00  0.00     0.029 A 
ATOM     52  C   UNL     1      -3.743 -11.073  18.576  1.00  0.00     0.049 A 
ATOM     53  H   UNL     1      -5.464  -9.978  19.001  1.00  0.00     0.167 HD
ATOM     54  C   UNL     1      -8.895  -7.418  19.907  1.00  0.00     0.034 A 
ATOM     55  C   UNL     1      -3.562 -11.940  19.591  1.00  0.00     0.034 A 
ATOM     56  C   UNL     1      -8.876  -8.408  20.949  1.00  0.00     0.049 A 
ATOM     57  C   UNL     1      -4.574 -11.980  20.704  1.00  0.00     0.074 A 
ATOM     58  C   UNL     1      -9.760  -8.567  22.002  1.00  0.00     0.029 A 
ATOM     59  N   UNL     1      -7.921  -9.404  21.076  1.00  0.00    -0.354 N 
ATOM     60  N   UNL     1      -5.649 -11.247  20.870  1.00  0.00    -0.248 NA
ATOM     61  C   UNL     1      -4.375 -12.998  21.745  1.00  0.00     0.031 C 
ATOM     62  C   UNL     1      -9.323  -9.644  22.781  1.00  0.00     0.029 A 
ATOM     63  C   UNL     1      -8.190 -10.179  22.191  1.00  0.00     0.049 A 
ATOM     64  H   UNL     1      -7.162  -9.540  20.464  1.00  0.00     0.167 HD
ATOM     65  C   UNL     1      -6.276 -11.743  22.008  1.00  0.00     0.074 A 
ATOM     66  C   UNL     1      -5.471 -12.853  22.476  1.00  0.00     0.031 C 
ATOM     67  C   UNL     1      -7.409 -11.313  22.616  1.00  0.00     0.034 A 
BRANCH  54  68
ATOM     68  C   UNL     1      -9.971  -6.362  19.939  1.00  0.00     0.023 A 
ATOM     69  C   UNL     1     -11.015  -6.401  18.992  1.00  0.00     0.012 A 
ATOM     70  C   UNL     1      -9.979  -5.365  20.934  1.00  0.00     0.148 A 
ATOM     71  C   UNL     1     -12.028  -5.442  19.008  1.00  0.00     0.002 A 
ATOM     72  C   UNL     1     -11.019  -4.443  20.975  1.00  0.00     0.091 A 
ATOM     73  F   UNL     1      -8.969  -5.330  21.814  1.00  0.00    -0.205 F 
ATOM     74  C   UNL     1     -12.035  -4.471  20.005  1.00  0.00     0.022 A 
BRANCH  72  75
ATOM     75  S   UNL     1     -11.167  -3.204  22.267  1.00  0.00     0.127 S 
ATOM     76  O   UNL     1     -10.891  -1.973  21.528  1.00  0.00    -0.237 OA
ATOM     77  O   UNL     1     -12.559  -3.364  22.687  1.00  0.00    -0.237 OA
ATOM     78  O   UNL     1     -10.182  -3.559  23.279  1.00  0.00    -0.744 OA
ENDBRANCH  72  75
ENDBRANCH  54  68
BRANCH  55  79
ATOM     79  C   UNL     1      -2.418 -12.896  19.563  1.00  0.00     0.023 A 
ATOM     80  C   UNL     1      -2.666 -14.269  19.369  1.00  0.00     0.012 A 
ATOM     81  C   UNL     1      -1.091 -12.451  19.707  1.00  0.00     0.148 A 
ATOM     82  C   UNL     1      -1.615 -15.187  19.359  1.00  0.00     0.002 A 
ATOM     83  C   UNL     1      -0.044 -13.363  19.639  1.00  0.00     0.091 A 
ATOM     84  F   UNL     1      -0.877 -11.142  19.898  1.00  0.00    -0.205 F 
ATOM     85  C   UNL     1      -0.305 -14.734  19.485  1.00  0.00     0.022 A 
BRANCH  83  86
ATOM     86  S   UNL     1       1.678 -12.856  19.658  1.00  0.00     0.127 S 
ATOM     87  O   UNL     1       2.121 -13.352  20.959  1.00  0.00    -0.237 OA
ATOM     88  O   UNL     1       2.218 -13.579  18.506  1.00  0.00    -0.237 OA
ATOM     89  O   UNL     1       1.663 -11.408  19.504  1.00  0.00    -0.744 OA
ENDBRANCH  83  86
ENDBRANCH  55  79
BRANCH  67  90
ATOM     90  C   UNL     1      -7.880 -12.075  23.828  1.00  0.00     0.023 A 
ATOM     91  C   UNL     1      -7.162 -11.997  25.038  1.00  0.00     0.012 A 
ATOM     92  C   UNL     1      -9.068 -12.831  23.779  1.00  0.00     0.148 A 
ATOM     93  C   UNL     1      -7.591 -12.698  26.164  1.00  0.00     0.002 A 
ATOM     94  C   UNL     1      -9.520 -13.482  24.920  1.00  0.00     0.091 A 
ATOM     95  F   UNL     1      -9.730 -12.910  22.615  1.00  0.00    -0.205 F 
ATOM     96  C   UNL     1      -8.775 -13.430  26.109  1.00  0.00     0.022 A 
BRANCH  94  97
ATOM     97  S   UNL     1     -11.085 -14.362  24.963  1.00  0.00     0.127 S 
ATOM     98  O   UNL     1     -10.646 -15.755  24.920  1.00  0.00    -0.237 OA
ATOM     99  O   UNL     1     -11.646 -13.939  26.247  1.00  0.00    -0.237 OA
ATOM    100  O   UNL     1     -11.833 -13.902  23.801  1.00  0.00    -0.744 OA
ENDBRANCH  94  97
ENDBRANCH  67  90
ENDBRANCH  41  42
ENDBRANCH  33  36
ENDBRANCH  31  32
ENDBRANCH   1  31
TORSDOF 18
