REMARK SMILES Cc1cc(NC(=O)c2cccnc2)cc(C(=O)NCCCCNC(=O)c2ccc(-c3c4nc(c(-c5cccc(S(=O)(=O)[O-])c5F)c5ccc([nH]5)c(-c5cccc(S(=O)(=O)[O-])c5F)c5nc(c(-c6cccc(S(=O)(=O)[O-])c6F)c6ccc3[nH]6)C=C5)C=C4)cc2)c1O
REMARK SMILES IDX 21 1 20 2 19 3 18 4 16 5 17 6 15 8 1 9 2 10 3 11 89 12 4 13
REMARK SMILES IDX 14 14 90 15 5 17 6 18 7 20 8 21 9 22 13 23 10 24 12 25 11 26
REMARK SMILES IDX 22 27 23 28 24 29 25 31 26 32 27 33 88 34 28 35 87 36 29 37
REMARK SMILES IDX 30 38 31 39 81 40 32 41 86 42 80 43 82 44 33 45 85 46 79 47
REMARK SMILES IDX 78 48 34 50 66 51 46 52 65 53 47 54 50 55 64 56 83 57 48 58
REMARK SMILES IDX 49 59 63 61 84 62 51 63 35 64 36 65 44 66 37 67 39 68 45 69
REMARK SMILES IDX 38 70 40 71 41 72 42 73 43 74 67 75 68 76 76 77 69 78 71 79
REMARK SMILES IDX 77 80 70 81 72 82 73 83 74 84 75 85 52 86 53 87 61 88 54 89
REMARK SMILES IDX 56 90 62 91 55 92 57 93 58 94 59 95 60 96
REMARK H PARENT 18 7 90 16 5 19 23 30 82 49 50 60
REMARK Flexibility Score: inf
ROOT
ATOM      1  C   UNL     1       3.905   5.193  -1.870  1.00  0.00     0.023 C 
ENDROOT
BRANCH   1   2
ATOM      2  C   UNL     1       3.382   3.805  -1.492  1.00  0.00     0.023 C 
BRANCH   2   3
ATOM      3  C   UNL     1       2.478   3.775  -0.254  1.00  0.00     0.116 C 
BRANCH   3   4
ATOM      4  N   UNL     1       1.079   3.759  -0.635  1.00  0.00    -0.352 N 
ATOM      5  C   UNL     1       0.130   2.770  -0.727  1.00  0.00     0.255 C 
ATOM      6  O   UNL     1      -0.973   3.112  -1.159  1.00  0.00    -0.269 OA
ATOM      7  H   UNL     1       0.735   4.649  -0.881  1.00  0.00     0.163 HD
BRANCH   5   8
ATOM      8  C   UNL     1       0.363   1.328  -0.385  1.00  0.00     0.083 A 
ATOM      9  C   UNL     1      -1.852  -1.732   0.300  1.00  0.00     0.048 C 
ATOM     10  C   UNL     1      -0.645  -0.872   0.056  1.00  0.00    -0.006 A 
ATOM     11  C   UNL     1       0.613  -1.461  -0.086  1.00  0.00     0.033 A 
ATOM     12  C   UNL     1      -0.744   0.523  -0.040  1.00  0.00     0.131 A 
ATOM     13  C   UNL     1       1.749  -0.680  -0.316  1.00  0.00     0.042 A 
ATOM     14  C   UNL     1       1.607   0.695  -0.538  1.00  0.00     0.044 A 
BRANCH  12  15
ATOM     15  O   UNL     1      -1.955   1.084   0.270  1.00  0.00    -0.507 OA
ATOM     16  H   UNL     1      -2.681   0.537   0.496  1.00  0.00     0.293 HD
ENDBRANCH  12  15
BRANCH  13  17
ATOM     17  N   UNL     1       2.973  -1.368  -0.375  1.00  0.00    -0.322 N 
ATOM     18  C   UNL     1       4.272  -0.949  -0.222  1.00  0.00     0.257 C 
ATOM     19  H   UNL     1       2.882  -2.330  -0.561  1.00  0.00     0.170 HD
ATOM     20  O   UNL     1       5.191  -1.679  -0.589  1.00  0.00    -0.269 OA
BRANCH  18  21
ATOM     21  C   UNL     1       4.609   0.301   0.475  1.00  0.00     0.058 A 
ATOM     22  C   UNL     1       4.046   0.664   1.702  1.00  0.00     0.017 A 
ATOM     23  C   UNL     1       5.602   1.108  -0.056  1.00  0.00     0.124 A 
ATOM     24  C   UNL     1       4.471   1.837   2.325  1.00  0.00     0.021 A 
ATOM     25  N   UNL     1       6.000   2.273   0.510  1.00  0.00    -0.264 NA
ATOM     26  C   UNL     1       5.441   2.602   1.697  1.00  0.00     0.111 A 
ENDBRANCH  18  21
ENDBRANCH  13  17
ENDBRANCH   5   8
ENDBRANCH   3   4
ENDBRANCH   2   3
ENDBRANCH   1   2
BRANCH   1  27
ATOM     27  C   UNL     1       4.818   5.856  -0.840  1.00  0.00     0.116 C 
BRANCH  27  28
ATOM     28  N   UNL     1       6.054   5.137  -0.561  1.00  0.00    -0.352 N 
ATOM     29  C   UNL     1       7.262   5.667  -0.150  1.00  0.00     0.251 C 
ATOM     30  H   UNL     1       6.025   4.160  -0.679  1.00  0.00     0.163 HD
ATOM     31  O   UNL     1       8.256   4.972  -0.010  1.00  0.00    -0.269 OA
BRANCH  29  32
ATOM     32  C   UNL     1       7.344   7.123   0.098  1.00  0.00     0.039 A 
ATOM     33  C   UNL     1       8.308   7.871  -0.582  1.00  0.00     0.014 A 
ATOM     34  C   UNL     1       6.420   7.748   0.939  1.00  0.00     0.014 A 
ATOM     35  C   UNL     1       8.275   9.264  -0.502  1.00  0.00     0.010 A 
ATOM     36  C   UNL     1       6.349   9.136   0.966  1.00  0.00     0.010 A 
ATOM     37  C   UNL     1       7.259   9.906   0.227  1.00  0.00    -0.014 A 
BRANCH  37  38
ATOM     38  C   UNL     1       7.076  11.377   0.158  1.00  0.00     0.031 A 
ATOM     39  C   UNL     1       7.226  12.226   1.387  1.00  0.00     0.074 A 
ATOM     40  C   UNL     1       6.651  11.927  -0.998  1.00  0.00     0.049 A 
ATOM     41  N   UNL     1       7.044  13.513   1.524  1.00  0.00    -0.248 NA
ATOM     42  C   UNL     1       7.599  11.535   2.633  1.00  0.00     0.031 C 
ATOM     43  C   UNL     1       6.367  11.189  -2.232  1.00  0.00     0.029 A 
ATOM     44  N   UNL     1       6.351  13.228  -1.316  1.00  0.00    -0.354 N 
ATOM     45  C   UNL     1       7.246  13.784   2.871  1.00  0.00     0.074 A 
ATOM     46  C   UNL     1       7.535  12.521   3.517  1.00  0.00     0.031 C 
ATOM     47  C   UNL     1       5.942  12.047  -3.172  1.00  0.00     0.029 A 
ATOM     48  C   UNL     1       5.902  13.391  -2.606  1.00  0.00     0.049 A 
ATOM     49  H   UNL     1       6.450  13.974  -0.682  1.00  0.00     0.167 HD
ATOM     50  C   UNL     1       7.224  14.979   3.506  1.00  0.00     0.034 A 
ATOM     51  C   UNL     1       5.505  14.500  -3.262  1.00  0.00     0.034 A 
ATOM     52  C   UNL     1       6.987  16.236   2.849  1.00  0.00     0.049 A 
ATOM     53  C   UNL     1       5.566  15.825  -2.552  1.00  0.00     0.074 A 
ATOM     54  C   UNL     1       7.038  17.511   3.384  1.00  0.00     0.029 A 
ATOM     55  N   UNL     1       6.653  16.377   1.511  1.00  0.00    -0.354 N 
ATOM     56  N   UNL     1       5.936  16.083  -1.321  1.00  0.00    -0.248 NA
ATOM     57  C   UNL     1       5.195  17.015  -3.331  1.00  0.00     0.031 C 
ATOM     58  C   UNL     1       6.730  18.423   2.369  1.00  0.00     0.029 A 
ATOM     59  C   UNL     1       6.496  17.716   1.200  1.00  0.00     0.049 A 
ATOM     60  H   UNL     1       6.544  15.633   0.875  1.00  0.00     0.167 HD
ATOM     61  C   UNL     1       5.879  17.465  -1.188  1.00  0.00     0.074 A 
ATOM     62  C   UNL     1       5.455  17.991  -2.470  1.00  0.00     0.031 C 
ATOM     63  C   UNL     1       6.139  18.227  -0.098  1.00  0.00     0.034 A 
BRANCH  50  64
ATOM     64  C   UNL     1       7.538  14.991   4.979  1.00  0.00     0.023 A 
ATOM     65  C   UNL     1       8.867  14.782   5.399  1.00  0.00     0.012 A 
ATOM     66  C   UNL     1       6.543  15.258   5.938  1.00  0.00     0.148 A 
ATOM     67  C   UNL     1       9.197  14.805   6.753  1.00  0.00     0.002 A 
ATOM     68  C   UNL     1       6.886  15.317   7.285  1.00  0.00     0.091 A 
ATOM     69  F   UNL     1       5.280  15.430   5.523  1.00  0.00    -0.205 F 
ATOM     70  C   UNL     1       8.210  15.082   7.694  1.00  0.00     0.022 A 
BRANCH  68  71
ATOM     71  S   UNL     1       5.697  15.736   8.565  1.00  0.00     0.127 S 
ATOM     72  O   UNL     1       5.436  14.428   9.165  1.00  0.00    -0.237 OA
ATOM     73  O   UNL     1       6.460  16.654   9.412  1.00  0.00    -0.237 OA
ATOM     74  O   UNL     1       4.571  16.349   7.875  1.00  0.00    -0.744 OA
ENDBRANCH  68  71
ENDBRANCH  50  64
BRANCH  51  75
ATOM     75  C   UNL     1       5.116  14.412  -4.697  1.00  0.00     0.023 A 
ATOM     76  C   UNL     1       5.988  14.928  -5.676  1.00  0.00     0.012 A 
ATOM     77  C   UNL     1       3.923  13.785  -5.103  1.00  0.00     0.148 A 
ATOM     78  C   UNL     1       5.666  14.847  -7.031  1.00  0.00     0.002 A 
ATOM     79  C   UNL     1       3.632  13.662  -6.458  1.00  0.00     0.091 A 
ATOM     80  F   UNL     1       3.099  13.310  -4.158  1.00  0.00    -0.205 F 
ATOM     81  C   UNL     1       4.495  14.205  -7.423  1.00  0.00     0.022 A 
BRANCH  79  82
ATOM     82  S   UNL     1       2.212  12.735  -7.052  1.00  0.00     0.127 S 
ATOM     83  O   UNL     1       1.296  13.805  -7.437  1.00  0.00    -0.237 OA
ATOM     84  O   UNL     1       2.782  11.980  -8.168  1.00  0.00    -0.237 OA
ATOM     85  O   UNL     1       1.792  11.909  -5.927  1.00  0.00    -0.744 OA
ENDBRANCH  79  82
ENDBRANCH  51  75
BRANCH  63  86
ATOM     86  C   UNL     1       6.008  19.720  -0.241  1.00  0.00     0.023 A 
ATOM     87  C   UNL     1       4.728  20.305  -0.281  1.00  0.00     0.012 A 
ATOM     88  C   UNL     1       7.149  20.546  -0.240  1.00  0.00     0.148 A 
ATOM     89  C   UNL     1       4.584  21.690  -0.339  1.00  0.00     0.002 A 
ATOM     90  C   UNL     1       6.998  21.927  -0.255  1.00  0.00     0.091 A 
ATOM     91  F   UNL     1       8.359  19.967  -0.225  1.00  0.00    -0.205 F 
ATOM     92  C   UNL     1       5.717  22.501  -0.313  1.00  0.00     0.022 A 
BRANCH  90  93
ATOM     93  S   UNL     1       8.399  23.045  -0.131  1.00  0.00     0.127 S 
ATOM     94  O   UNL     1       8.528  23.516  -1.508  1.00  0.00    -0.237 OA
ATOM     95  O   UNL     1       7.913  24.052   0.815  1.00  0.00    -0.237 OA
ATOM     96  O   UNL     1       9.507  22.241   0.366  1.00  0.00    -0.744 OA
ENDBRANCH  90  93
ENDBRANCH  63  86
ENDBRANCH  37  38
ENDBRANCH  29  32
ENDBRANCH  27  28
ENDBRANCH   1  27
TORSDOF 17
