REMARK SMILES CC(C)=C1[C@H]2CC[C@@H]1[C@@H](C(=O)Nc1cc(C)cc(C)c1)[C@@H]2C(=O)NCCCCNC(=O)c1ccc(-c2c3nc(c(-c4cccc(S(=O)(=O)[O-])c4F)c4ccc([nH]4)c(-c4cccc(S(=O)(=O)[O-])c4F)c4nc(c(-c5cccc(S(=O)(=O)[O-])c5F)c5ccc2[nH]5)C=C4)C=C3)cc1
REMARK SMILES IDX 27 1 26 2 25 3 24 4 22 5 23 6 21 8 1 9 2 10 3 11 4 12 5 13
REMARK SMILES IDX 8 14 6 15 7 16 9 17 10 18 11 19 12 20 13 22 14 23 20 24
REMARK SMILES IDX 15 25 18 26 16 27 17 28 19 29 28 30 29 31 30 32 31 34 32 35
REMARK SMILES IDX 33 36 94 37 34 38 93 39 35 40 36 41 37 42 87 43 38 44 92 45
REMARK SMILES IDX 86 46 88 47 39 48 91 49 85 50 84 51 40 53 72 54 52 55 71 56
REMARK SMILES IDX 53 57 56 58 70 59 89 60 54 61 55 62 69 64 90 65 57 66 41 67
REMARK SMILES IDX 42 68 50 69 43 70 45 71 51 72 44 73 46 74 47 75 48 76 49 77
REMARK SMILES IDX 73 78 74 79 82 80 75 81 77 82 83 83 76 84 78 85 79 86 80 87
REMARK SMILES IDX 81 88 58 89 59 90 67 91 60 92 62 93 68 94 61 95 63 96 64 97
REMARK SMILES IDX 65 98 66 99
REMARK H PARENT 24 7 12 21 29 33 88 52 56 63
REMARK Flexibility Score: inf
ROOT
ATOM      1  C   UNL     1      -2.247   0.419   7.650  1.00  0.00     0.023 C 
ENDROOT
BRANCH   1   2
ATOM      2  C   UNL     1      -1.741   0.815   6.265  1.00  0.00     0.023 C 
BRANCH   2   3
ATOM      3  C   UNL     1      -0.471   1.665   6.275  1.00  0.00     0.116 C 
BRANCH   3   4
ATOM      4  N   UNL     1       0.683   0.889   6.678  1.00  0.00    -0.356 N 
ATOM      5  C   UNL     1       1.613   0.262   5.902  1.00  0.00     0.224 C 
ATOM      6  O   UNL     1       2.502  -0.373   6.467  1.00  0.00    -0.275 OA
ATOM      7  H   UNL     1       0.815   0.801   7.650  1.00  0.00     0.163 HD
BRANCH   5   8
ATOM      8  C   UNL     1       1.540   0.418   4.384  1.00  0.00     0.098 C 
ATOM      9  C   UNL     1       0.845  -0.771  -0.148  1.00  0.00     0.039 C 
ATOM     10  C   UNL     1       0.209  -0.349   1.147  1.00  0.00    -0.077 C 
ATOM     11  C   UNL     1      -1.169   0.242   1.027  1.00  0.00     0.039 C 
ATOM     12  C   UNL     1       0.799  -0.541   2.338  1.00  0.00    -0.064 C 
ATOM     13  C   UNL     1       0.314  -0.268   3.736  1.00  0.00     0.028 C 
ATOM     14  C   UNL     1       2.070  -1.244   2.707  1.00  0.00     0.028 C 
ATOM     15  C   UNL     1       0.204  -1.725   4.195  1.00  0.00     0.009 C 
ATOM     16  C   UNL     1       1.441  -2.381   3.548  1.00  0.00     0.009 C 
ATOM     17  C   UNL     1       2.732  -0.212   3.646  1.00  0.00     0.099 C 
BRANCH  17  18
ATOM     18  C   UNL     1       3.759   0.666   2.912  1.00  0.00     0.228 C 
ATOM     19  O   UNL     1       4.961   0.378   3.045  1.00  0.00    -0.274 OA
ATOM     20  N   UNL     1       3.514   1.606   1.960  1.00  0.00    -0.326 N 
ATOM     21  H   UNL     1       4.309   1.808   1.417  1.00  0.00     0.169 HD
BRANCH  20  22
ATOM     22  C   UNL     1       2.399   2.353   1.571  1.00  0.00     0.041 A 
ATOM     23  C   UNL     1       1.605   3.068   2.462  1.00  0.00     0.029 A 
ATOM     24  C   UNL     1       2.146   2.468   0.202  1.00  0.00     0.029 A 
ATOM     25  C   UNL     1       0.449   3.730   2.028  1.00  0.00    -0.049 A 
ATOM     26  C   UNL     1       1.015   3.153  -0.264  1.00  0.00    -0.049 A 
ATOM     27  C   UNL     1      -0.520   4.298   3.023  1.00  0.00     0.044 C 
ATOM     28  C   UNL     1       0.154   3.756   0.661  1.00  0.00     0.007 A 
ATOM     29  C   UNL     1       0.660   3.139  -1.720  1.00  0.00     0.044 C 
ENDBRANCH  20  22
ENDBRANCH  17  18
ENDBRANCH   5   8
ENDBRANCH   3   4
ENDBRANCH   2   3
ENDBRANCH   1   2
BRANCH   1  30
ATOM     30  C   UNL     1      -2.650   1.589   8.533  1.00  0.00     0.116 C 
BRANCH  30  31
ATOM     31  N   UNL     1      -3.692   2.415   7.936  1.00  0.00    -0.352 N 
ATOM     32  C   UNL     1      -4.765   3.006   8.558  1.00  0.00     0.251 C 
ATOM     33  H   UNL     1      -3.617   2.569   6.967  1.00  0.00     0.163 HD
ATOM     34  O   UNL     1      -5.634   3.569   7.899  1.00  0.00    -0.269 OA
BRANCH  32  35
ATOM     35  C   UNL     1      -4.868   2.922  10.027  1.00  0.00     0.039 A 
ATOM     36  C   UNL     1      -6.057   2.467  10.601  1.00  0.00     0.014 A 
ATOM     37  C   UNL     1      -3.764   3.233  10.825  1.00  0.00     0.014 A 
ATOM     38  C   UNL     1      -6.118   2.265  11.980  1.00  0.00     0.010 A 
ATOM     39  C   UNL     1      -3.803   2.956  12.185  1.00  0.00     0.010 A 
ATOM     40  C   UNL     1      -4.981   2.479  12.778  1.00  0.00    -0.014 A 
BRANCH  40  41
ATOM     41  C   UNL     1      -4.997   2.222  14.238  1.00  0.00     0.031 A 
ATOM     42  C   UNL     1      -4.764   3.357  15.197  1.00  0.00     0.074 A 
ATOM     43  C   UNL     1      -5.117   0.959  14.694  1.00  0.00     0.049 A 
ATOM     44  N   UNL     1      -4.652   3.327  16.499  1.00  0.00    -0.248 NA
ATOM     45  C   UNL     1      -4.601   4.700  14.613  1.00  0.00     0.031 C 
ATOM     46  C   UNL     1      -5.261  -0.234  13.857  1.00  0.00     0.029 A 
ATOM     47  N   UNL     1      -5.106   0.466  15.974  1.00  0.00    -0.354 N 
ATOM     48  C   UNL     1      -4.361   4.630  16.884  1.00  0.00     0.074 A 
ATOM     49  C   UNL     1      -4.278   5.421  15.676  1.00  0.00     0.031 C 
ATOM     50  C   UNL     1      -5.329  -1.319  14.646  1.00  0.00     0.029 A 
ATOM     51  C   UNL     1      -5.209  -0.904  16.040  1.00  0.00     0.049 A 
ATOM     52  H   UNL     1      -5.032   1.040  16.771  1.00  0.00     0.167 HD
ATOM     53  C   UNL     1      -4.214   5.133  18.132  1.00  0.00     0.034 A 
ATOM     54  C   UNL     1      -5.206  -1.730  17.105  1.00  0.00     0.034 A 
ATOM     55  C   UNL     1      -4.362   4.354  19.330  1.00  0.00     0.049 A 
ATOM     56  C   UNL     1      -5.107  -1.136  18.485  1.00  0.00     0.074 A 
ATOM     57  C   UNL     1      -4.328   4.784  20.645  1.00  0.00     0.029 A 
ATOM     58  N   UNL     1      -4.578   2.985  19.360  1.00  0.00    -0.354 N 
ATOM     59  N   UNL     1      -4.995   0.122  18.835  1.00  0.00    -0.248 NA
ATOM     60  C   UNL     1      -5.173  -2.071  19.617  1.00  0.00     0.031 C 
ATOM     61  C   UNL     1      -4.514   3.670  21.471  1.00  0.00     0.029 A 
ATOM     62  C   UNL     1      -4.680   2.551  20.669  1.00  0.00     0.049 A 
ATOM     63  H   UNL     1      -4.648   2.407  18.566  1.00  0.00     0.167 HD
ATOM     64  C   UNL     1      -5.015   0.135  20.225  1.00  0.00     0.074 A 
ATOM     65  C   UNL     1      -5.170  -1.241  20.652  1.00  0.00     0.031 C 
ATOM     66  C   UNL     1      -4.899   1.186  21.073  1.00  0.00     0.034 A 
BRANCH  53  67
ATOM     67  C   UNL     1      -3.946   6.609  18.262  1.00  0.00     0.023 A 
ATOM     68  C   UNL     1      -4.979   7.527  17.978  1.00  0.00     0.012 A 
ATOM     69  C   UNL     1      -2.699   7.088  18.707  1.00  0.00     0.148 A 
ATOM     70  C   UNL     1      -4.764   8.898  18.098  1.00  0.00     0.002 A 
ATOM     71  C   UNL     1      -2.507   8.456  18.867  1.00  0.00     0.091 A 
ATOM     72  F   UNL     1      -1.722   6.203  18.949  1.00  0.00    -0.205 F 
ATOM     73  C   UNL     1      -3.533   9.362  18.552  1.00  0.00     0.022 A 
BRANCH  71  74
ATOM     74  S   UNL     1      -0.983   9.149  19.518  1.00  0.00     0.127 S 
ATOM     75  O   UNL     1      -0.395   9.746  18.319  1.00  0.00    -0.237 OA
ATOM     76  O   UNL     1      -1.478  10.115  20.499  1.00  0.00    -0.237 OA
ATOM     77  O   UNL     1      -0.246   8.030  20.088  1.00  0.00    -0.744 OA
ENDBRANCH  71  74
ENDBRANCH  53  67
BRANCH  54  78
ATOM     78  C   UNL     1      -5.388  -3.196  16.912  1.00  0.00     0.023 A 
ATOM     79  C   UNL     1      -6.601  -3.795  17.304  1.00  0.00     0.012 A 
ATOM     80  C   UNL     1      -4.390  -3.993  16.319  1.00  0.00     0.148 A 
ATOM     81  C   UNL     1      -6.806  -5.165  17.141  1.00  0.00     0.002 A 
ATOM     82  C   UNL     1      -4.620  -5.349  16.111  1.00  0.00     0.091 A 
ATOM     83  F   UNL     1      -3.237  -3.409  15.963  1.00  0.00    -0.205 F 
ATOM     84  C   UNL     1      -5.820  -5.940  16.536  1.00  0.00     0.022 A 
BRANCH  82  85
ATOM     85  S   UNL     1      -3.461  -6.395  15.222  1.00  0.00     0.127 S 
ATOM     86  O   UNL     1      -2.885  -7.189  16.303  1.00  0.00    -0.237 OA
ATOM     87  O   UNL     1      -4.346  -7.132  14.319  1.00  0.00    -0.237 OA
ATOM     88  O   UNL     1      -2.550  -5.479  14.549  1.00  0.00    -0.744 OA
ENDBRANCH  82  85
ENDBRANCH  54  78
BRANCH  66  89
ATOM     89  C   UNL     1      -4.973   0.905  22.549  1.00  0.00     0.023 A 
ATOM     90  C   UNL     1      -3.882   0.298  23.200  1.00  0.00     0.012 A 
ATOM     91  C   UNL     1      -6.087   1.323  23.305  1.00  0.00     0.148 A 
ATOM     92  C   UNL     1      -3.909   0.086  24.578  1.00  0.00     0.002 A 
ATOM     93  C   UNL     1      -6.087   1.150  24.683  1.00  0.00     0.091 A 
ATOM     94  F   UNL     1      -7.123   1.881  22.662  1.00  0.00    -0.205 F 
ATOM     95  C   UNL     1      -5.004   0.522  25.320  1.00  0.00     0.022 A 
BRANCH  93  96
ATOM     96  S   UNL     1      -7.411   1.769  25.727  1.00  0.00     0.127 S 
ATOM     97  O   UNL     1      -8.122   0.538  26.069  1.00  0.00    -0.237 OA
ATOM     98  O   UNL     1      -6.676   2.377  26.837  1.00  0.00    -0.237 OA
ATOM     99  O   UNL     1      -8.155   2.716  24.908  1.00  0.00    -0.744 OA
ENDBRANCH  93  96
ENDBRANCH  66  89
ENDBRANCH  40  41
ENDBRANCH  32  35
ENDBRANCH  30  31
ENDBRANCH   1  30
TORSDOF 16
