REMARK SMILES C[C@@H](C(=O)NCCCCNC(=O)c1ccc(-c2c3nc(c(-c4cccc(S(=O)(=O)[O-])c4F)c4ccc([nH]4)c(-c4cccc(S(=O)(=O)[O-])c4F)c4nc(c(-c5cccc(S(=O)(=O)[O-])c5F)c5ccc2[nH]5)C=C4)C=C3)cc1)N1C(=O)CSc2cccn2-c2ccccc21
REMARK SMILES IDX 6 1 5 2 3 3 4 4 2 6 1 7 76 8 77 9 78 10 91 12 86 13 90 14
REMARK SMILES IDX 87 15 89 16 88 17 85 18 81 19 84 20 82 21 83 22 80 23 79 24
REMARK SMILES IDX 7 26 8 27 9 28 10 29 11 30 12 32 13 33 14 34 75 35 15 36
REMARK SMILES IDX 74 37 16 38 17 39 18 40 68 41 19 42 73 43 67 44 69 45 20 46
REMARK SMILES IDX 72 47 66 48 65 49 21 51 53 52 33 53 52 54 34 55 37 56 51 57
REMARK SMILES IDX 70 58 35 59 36 60 50 62 71 63 38 64 22 65 23 66 31 67 24 68
REMARK SMILES IDX 26 69 32 70 25 71 27 72 28 73 29 74 30 75 54 76 55 77 63 78
REMARK SMILES IDX 56 79 58 80 64 81 57 82 59 83 60 84 61 85 62 86 39 87 40 88
REMARK SMILES IDX 48 89 41 90 43 91 49 92 42 93 44 94 45 95 46 96 47 97
REMARK H PARENT 5 5 10 31 69 50 37 61
REMARK Flexibility Score: 80.00
ROOT
ATOM      1  C   UNL     1       3.061  -0.663   1.582  1.00  0.00     0.116 C 
ENDROOT
BRANCH   1   2
ATOM      2  N   UNL     1       1.806  -0.293   2.210  1.00  0.00    -0.354 N 
ATOM      3  C   UNL     1       0.518  -0.496   1.790  1.00  0.00     0.242 C 
ATOM      4  O   UNL     1      -0.347  -0.526   2.674  1.00  0.00    -0.273 OA
ATOM      5  H   UNL     1       1.893   0.175   3.071  1.00  0.00     0.163 HD
BRANCH   3   6
ATOM      6  C   UNL     1       0.174  -0.810   0.298  1.00  0.00     0.176 C 
ATOM      7  C   UNL     1       0.901   0.046  -0.742  1.00  0.00     0.042 C 
BRANCH   6   8
ATOM      8  N   UNL     1      -1.315  -0.767   0.070  1.00  0.00    -0.297 N 
BRANCH   8   9
ATOM      9  C   UNL     1      -1.981   0.390   0.486  1.00  0.00     0.238 CG0
ATOM     10  O   UNL     1      -1.395   1.448   0.731  1.00  0.00    -0.274 OA
ATOM     11  G   UNL     1      -3.458   0.237   0.794  1.00  0.00     0.000 G0
ENDBRANCH   8   9
BRANCH   8  12
ATOM     12  C   UNL     1      -1.754  -1.531  -1.077  1.00  0.00     0.069 A 
ATOM     13  C   UNL     1      -1.944  -0.929  -2.347  1.00  0.00     0.070 A 
ATOM     14  C   UNL     1      -1.520  -2.914  -1.022  1.00  0.00     0.028 A 
ATOM     15  C   UNL     1      -1.608  -1.654  -3.504  1.00  0.00     0.029 A 
ATOM     16  C   UNL     1      -1.313  -3.653  -2.187  1.00  0.00     0.002 A 
ATOM     17  C   UNL     1      -1.281  -3.007  -3.418  1.00  0.00     0.002 A 
BRANCH  13  18
ATOM     18  N   UNL     1      -2.497   0.378  -2.520  1.00  0.00    -0.310 N 
ATOM     19  C   UNL     1      -3.567   0.936  -1.832  1.00  0.00     0.080 A 
ATOM     20  C   UNL     1      -2.174   1.270  -3.533  1.00  0.00     0.092 A 
ATOM     21  C   UNL     1      -3.801   2.208  -2.302  1.00  0.00     0.035 A 
ATOM     22  C   UNL     1      -2.927   2.416  -3.388  1.00  0.00     0.021 A 
BRANCH  19  23
ATOM     23  S   UNL     1      -4.502   0.051  -0.664  1.00  0.00    -0.098 SA
BRANCH  23  24
ATOM     24  C   UNL     1      -3.458   0.237   0.794  1.00  0.00     0.177 CG0
ATOM     25  G   UNL     1      -1.981   0.390   0.486  1.00  0.00     0.000 G0
ENDBRANCH  23  24
ENDBRANCH  19  23
ENDBRANCH  13  18
ENDBRANCH   8  12
ENDBRANCH   6   8
ENDBRANCH   3   6
ENDBRANCH   1   2
BRANCH   1  26
ATOM     26  C   UNL     1       3.861   0.532   1.058  1.00  0.00     0.023 C 
BRANCH  26  27
ATOM     27  C   UNL     1       4.612   1.351   2.111  1.00  0.00     0.023 C 
BRANCH  27  28
ATOM     28  C   UNL     1       5.679   0.610   2.913  1.00  0.00     0.116 C 
BRANCH  28  29
ATOM     29  N   UNL     1       6.718   0.012   2.088  1.00  0.00    -0.352 N 
ATOM     30  C   UNL     1       8.080  -0.037   2.275  1.00  0.00     0.251 C 
ATOM     31  H   UNL     1       6.396  -0.426   1.268  1.00  0.00     0.163 HD
ATOM     32  O   UNL     1       8.780  -0.522   1.388  1.00  0.00    -0.269 OA
BRANCH  30  33
ATOM     33  C   UNL     1       8.717   0.499   3.504  1.00  0.00     0.039 A 
ATOM     34  C   UNL     1       9.954   1.143   3.387  1.00  0.00     0.014 A 
ATOM     35  C   UNL     1       8.144   0.343   4.768  1.00  0.00     0.014 A 
ATOM     36  C   UNL     1      10.588   1.662   4.521  1.00  0.00     0.010 A 
ATOM     37  C   UNL     1       8.737   0.932   5.886  1.00  0.00     0.010 A 
ATOM     38  C   UNL     1       9.975   1.582   5.782  1.00  0.00    -0.014 A 
BRANCH  38  39
ATOM     39  C   UNL     1      10.624   2.158   6.992  1.00  0.00     0.031 A 
ATOM     40  C   UNL     1      11.022   1.270   8.144  1.00  0.00     0.074 A 
ATOM     41  C   UNL     1      10.807   3.491   7.085  1.00  0.00     0.049 A 
ATOM     42  N   UNL     1      11.595   1.593   9.276  1.00  0.00    -0.248 NA
ATOM     43  C   UNL     1      10.711  -0.164   8.023  1.00  0.00     0.031 C 
ATOM     44  C   UNL     1      10.402   4.473   6.078  1.00  0.00     0.029 A 
ATOM     45  N   UNL     1      11.365   4.253   8.083  1.00  0.00    -0.354 N 
ATOM     46  C   UNL     1      11.677   0.417  10.014  1.00  0.00     0.074 A 
ATOM     47  C   UNL     1      11.063  -0.621   9.216  1.00  0.00     0.031 C 
ATOM     48  C   UNL     1      10.741   5.702   6.499  1.00  0.00     0.029 A 
ATOM     49  C   UNL     1      11.360   5.603   7.817  1.00  0.00     0.049 A 
ATOM     50  H   UNL     1      11.735   3.869   8.911  1.00  0.00     0.167 HD
ATOM     51  C   UNL     1      12.233   0.211  11.232  1.00  0.00     0.034 A 
ATOM     52  C   UNL     1      11.805   6.644   8.549  1.00  0.00     0.034 A 
ATOM     53  C   UNL     1      12.881   1.235  12.007  1.00  0.00     0.049 A 
ATOM     54  C   UNL     1      12.456   6.381   9.881  1.00  0.00     0.074 A 
ATOM     55  C   UNL     1      13.561   1.105  13.206  1.00  0.00     0.029 A 
ATOM     56  N   UNL     1      12.918   2.579  11.672  1.00  0.00    -0.354 N 
ATOM     57  N   UNL     1      12.672   5.237  10.485  1.00  0.00    -0.248 NA
ATOM     58  C   UNL     1      12.961   7.551  10.614  1.00  0.00     0.031 C 
ATOM     59  C   UNL     1      13.976   2.377  13.614  1.00  0.00     0.029 A 
ATOM     60  C   UNL     1      13.594   3.293  12.647  1.00  0.00     0.049 A 
ATOM     61  H   UNL     1      12.521   2.969  10.859  1.00  0.00     0.167 HD
ATOM     62  C   UNL     1      13.379   5.545  11.642  1.00  0.00     0.074 A 
ATOM     63  C   UNL     1      13.569   6.981  11.645  1.00  0.00     0.031 C 
ATOM     64  C   UNL     1      13.825   4.715  12.617  1.00  0.00     0.034 A 
BRANCH  51  65
ATOM     65  C   UNL     1      12.198  -1.190  11.792  1.00  0.00     0.023 A 
ATOM     66  C   UNL     1      12.982  -2.203  11.203  1.00  0.00     0.012 A 
ATOM     67  C   UNL     1      11.431  -1.490  12.935  1.00  0.00     0.148 A 
ATOM     68  C   UNL     1      12.970  -3.500  11.714  1.00  0.00     0.002 A 
ATOM     69  C   UNL     1      11.464  -2.773  13.469  1.00  0.00     0.091 A 
ATOM     70  F   UNL     1      10.677  -0.521  13.473  1.00  0.00    -0.205 F 
ATOM     71  C   UNL     1      12.220  -3.783  12.852  1.00  0.00     0.022 A 
BRANCH  69  72
ATOM     72  S   UNL     1      10.601  -3.217  14.981  1.00  0.00     0.127 S 
ATOM     73  O   UNL     1       9.534  -4.075  14.471  1.00  0.00    -0.237 OA
ATOM     74  O   UNL     1      11.641  -3.917  15.734  1.00  0.00    -0.237 OA
ATOM     75  O   UNL     1      10.162  -1.961  15.577  1.00  0.00    -0.744 OA
ENDBRANCH  69  72
ENDBRANCH  51  65
BRANCH  52  76
ATOM     76  C   UNL     1      11.722   8.030   8.007  1.00  0.00     0.023 A 
ATOM     77  C   UNL     1      12.907   8.701   7.644  1.00  0.00     0.012 A 
ATOM     78  C   UNL     1      10.486   8.682   7.840  1.00  0.00     0.148 A 
ATOM     79  C   UNL     1      12.866  10.009   7.161  1.00  0.00     0.002 A 
ATOM     80  C   UNL     1      10.448   9.965   7.305  1.00  0.00     0.091 A 
ATOM     81  F   UNL     1       9.371   8.031   8.199  1.00  0.00    -0.205 F 
ATOM     82  C   UNL     1      11.637  10.638   6.983  1.00  0.00     0.022 A 
BRANCH  80  83
ATOM     83  S   UNL     1       8.909  10.808   6.924  1.00  0.00     0.127 S 
ATOM     84  O   UNL     1       8.913  11.895   7.899  1.00  0.00    -0.237 OA
ATOM     85  O   UNL     1       9.128  11.220   5.538  1.00  0.00    -0.237 OA
ATOM     86  O   UNL     1       7.860   9.810   7.096  1.00  0.00    -0.744 OA
ENDBRANCH  80  83
ENDBRANCH  52  76
BRANCH  64  87
ATOM     87  C   UNL     1      14.615   5.322  13.748  1.00  0.00     0.023 A 
ATOM     88  C   UNL     1      13.979   6.146  14.698  1.00  0.00     0.012 A 
ATOM     89  C   UNL     1      15.985   5.027  13.899  1.00  0.00     0.148 A 
ATOM     90  C   UNL     1      14.704   6.702  15.753  1.00  0.00     0.002 A 
ATOM     91  C   UNL     1      16.687   5.539  14.983  1.00  0.00     0.091 A 
ATOM     92  F   UNL     1      16.580   4.257  12.976  1.00  0.00    -0.205 F 
ATOM     93  C   UNL     1      16.053   6.390  15.902  1.00  0.00     0.022 A 
BRANCH  91  94
ATOM     94  S   UNL     1      18.400   5.105  15.310  1.00  0.00     0.127 S 
ATOM     95  O   UNL     1      19.095   6.338  14.944  1.00  0.00    -0.237 OA
ATOM     96  O   UNL     1      18.379   4.820  16.745  1.00  0.00    -0.237 OA
ATOM     97  O   UNL     1      18.688   3.950  14.470  1.00  0.00    -0.744 OA
ENDBRANCH  91  94
ENDBRANCH  64  87
ENDBRANCH  38  39
ENDBRANCH  30  33
ENDBRANCH  28  29
ENDBRANCH  27  28
ENDBRANCH  26  27
ENDBRANCH   1  26
TORSDOF 15
