REMARK SMILES CC(C)(C)OC(=O)N[C@@H](Cc1c[nH]c2cccc(Cl)c12)C(=O)NCCCCNC(=O)c1ccc(-c2c3nc(c(-c4cccc(S(=O)(=O)[O-])c4F)c4ccc([nH]4)c(-c4cccc(S(=O)(=O)[O-])c4F)c4nc(c(-c5cccc(S(=O)(=O)[O-])c5F)c5ccc2[nH]5)C=C4)C=C3)cc1
REMARK SMILES IDX 25 1 24 2 23 3 21 4 22 5 9 7 8 8 6 9 7 10 5 12 2 13 1 14
REMARK SMILES IDX 3 15 4 16 10 17 11 18 12 19 20 20 13 21 14 22 18 23 15 25
REMARK SMILES IDX 17 26 19 27 16 28 26 29 27 30 28 31 29 32 30 34 31 35 32 36
REMARK SMILES IDX 93 37 33 38 92 39 34 40 35 41 36 42 86 43 37 44 91 45 85 46
REMARK SMILES IDX 87 47 38 48 90 49 84 50 83 51 39 53 71 54 51 55 70 56 52 57
REMARK SMILES IDX 55 58 69 59 88 60 53 61 54 62 68 64 89 65 56 66 40 67 41 68
REMARK SMILES IDX 49 69 42 70 44 71 50 72 43 73 45 74 46 75 47 76 48 77 72 78
REMARK SMILES IDX 73 79 81 80 74 81 76 82 82 83 75 84 77 85 78 86 79 87 80 88
REMARK SMILES IDX 57 89 58 90 66 91 59 92 61 93 67 94 60 95 62 96 63 97 64 98
REMARK SMILES IDX 65 99
REMARK H PARENT 23 6 8 11 13 24 28 33 87 52 55 63
REMARK Flexibility Score: inf
ROOT
ATOM      1  C   UNL     1      -0.734   4.591   6.629  1.00  0.00     0.023 C 
ENDROOT
BRANCH   1   2
ATOM      2  C   UNL     1       0.607   3.875   6.523  1.00  0.00     0.116 C 
BRANCH   2   3
ATOM      3  N   UNL     1       0.508   2.442   6.343  1.00  0.00    -0.354 N 
ATOM      4  C   UNL     1       1.224   1.612   5.523  1.00  0.00     0.243 C 
ATOM      5  O   UNL     1       1.180   0.404   5.784  1.00  0.00    -0.273 OA
ATOM      6  H   UNL     1      -0.177   1.998   6.892  1.00  0.00     0.163 HD
BRANCH   4   7
ATOM      7  C   UNL     1       2.111   2.122   4.358  1.00  0.00     0.179 C 
BRANCH   7   8
ATOM      8  N   UNL     1       1.411   3.113   3.543  1.00  0.00    -0.309 N 
ATOM      9  C   UNL     1       0.734   2.923   2.378  1.00  0.00     0.408 C 
ATOM     10  O   UNL     1       0.033   3.809   1.924  1.00  0.00    -0.225 OA
ATOM     11  H   UNL     1       1.431   4.037   3.881  1.00  0.00     0.167 HD
BRANCH   9  12
ATOM     12  O   UNL     1       0.978   1.722   1.796  1.00  0.00    -0.444 OA
BRANCH  12  13
ATOM     13  C   UNL     1       0.488   1.467   0.454  1.00  0.00     0.106 C 
ATOM     14  C   UNL     1       1.053   0.092   0.064  1.00  0.00     0.056 C 
ATOM     15  C   UNL     1       1.027   2.500  -0.547  1.00  0.00     0.056 C 
ATOM     16  C   UNL     1      -1.043   1.387   0.427  1.00  0.00     0.056 C 
ENDBRANCH  12  13
ENDBRANCH   9  12
ENDBRANCH   7   8
BRANCH   7  17
ATOM     17  C   UNL     1       3.547   2.519   4.766  1.00  0.00     0.073 C 
BRANCH  17  18
ATOM     18  C   UNL     1       3.708   3.727   5.649  1.00  0.00    -0.019 A 
ATOM     19  C   UNL     1       3.875   3.653   7.021  1.00  0.00     0.087 A 
ATOM     20  C   UNL     1       3.750   5.133   5.306  1.00  0.00     0.021 A 
ATOM     21  N   UNL     1       3.921   4.918   7.532  1.00  0.00    -0.361 N 
ATOM     22  C   UNL     1       3.768   5.838   6.521  1.00  0.00     0.047 A 
ATOM     23  C   UNL     1       3.736   5.923   4.132  1.00  0.00     0.050 A 
ATOM     24  H   UNL     1       4.044   5.139   8.483  1.00  0.00     0.166 HD
ATOM     25  C   UNL     1       3.679   7.236   6.603  1.00  0.00     0.027 A 
ATOM     26  C   UNL     1       3.683   7.319   4.185  1.00  0.00     0.021 A 
ATOM     27  Cl  UNL     1       3.827   5.133   2.619  1.00  0.00    -0.084 Cl
ATOM     28  C   UNL     1       3.630   7.966   5.413  1.00  0.00     0.004 A 
ENDBRANCH  17  18
ENDBRANCH   7  17
ENDBRANCH   4   7
ENDBRANCH   2   3
ENDBRANCH   1   2
BRANCH   1  29
ATOM     29  C   UNL     1      -1.387   4.539   8.013  1.00  0.00     0.023 C 
BRANCH  29  30
ATOM     30  C   UNL     1      -0.538   5.140   9.127  1.00  0.00     0.116 C 
BRANCH  30  31
ATOM     31  N   UNL     1      -0.258   6.560   8.924  1.00  0.00    -0.352 N 
ATOM     32  C   UNL     1       0.183   7.465   9.864  1.00  0.00     0.251 C 
ATOM     33  H   UNL     1      -0.401   6.909   8.015  1.00  0.00     0.163 HD
ATOM     34  O   UNL     1       0.088   8.672   9.680  1.00  0.00    -0.269 OA
BRANCH  32  35
ATOM     35  C   UNL     1       0.839   6.946  11.074  1.00  0.00     0.039 A 
ATOM     36  C   UNL     1       0.609   7.515  12.332  1.00  0.00     0.014 A 
ATOM     37  C   UNL     1       1.747   5.898  10.905  1.00  0.00     0.014 A 
ATOM     38  C   UNL     1       1.294   7.008  13.429  1.00  0.00     0.010 A 
ATOM     39  C   UNL     1       2.345   5.332  11.994  1.00  0.00     0.010 A 
ATOM     40  C   UNL     1       2.165   5.931  13.236  1.00  0.00    -0.014 A 
BRANCH  40  41
ATOM     41  C   UNL     1       2.905   5.347  14.334  1.00  0.00     0.031 A 
ATOM     42  C   UNL     1       2.102   4.428  15.184  1.00  0.00     0.074 A 
ATOM     43  C   UNL     1       4.253   5.426  14.339  1.00  0.00     0.049 A 
ATOM     44  N   UNL     1       1.779   4.580  16.427  1.00  0.00    -0.248 NA
ATOM     45  C   UNL     1       1.435   3.283  14.535  1.00  0.00     0.031 C 
ATOM     46  C   UNL     1       5.128   6.009  13.312  1.00  0.00     0.029 A 
ATOM     47  N   UNL     1       5.139   4.841  15.181  1.00  0.00    -0.354 N 
ATOM     48  C   UNL     1       1.075   3.427  16.765  1.00  0.00     0.074 A 
ATOM     49  C   UNL     1       0.688   2.801  15.530  1.00  0.00     0.031 C 
ATOM     50  C   UNL     1       6.377   5.513  13.458  1.00  0.00     0.029 A 
ATOM     51  C   UNL     1       6.415   4.679  14.646  1.00  0.00     0.049 A 
ATOM     52  H   UNL     1       4.902   4.556  16.093  1.00  0.00     0.167 HD
ATOM     53  C   UNL     1       1.106   2.905  18.022  1.00  0.00     0.034 A 
ATOM     54  C   UNL     1       7.366   3.820  15.097  1.00  0.00     0.034 A 
ATOM     55  C   UNL     1       1.682   3.819  18.968  1.00  0.00     0.049 A 
ATOM     56  C   UNL     1       6.995   3.483  16.497  1.00  0.00     0.074 A 
ATOM     57  C   UNL     1       1.374   5.100  19.382  1.00  0.00     0.029 A 
ATOM     58  N   UNL     1       3.005   3.621  19.292  1.00  0.00    -0.354 N 
ATOM     59  N   UNL     1       6.926   4.371  17.453  1.00  0.00    -0.248 NA
ATOM     60  C   UNL     1       6.216   2.271  16.709  1.00  0.00     0.031 C 
ATOM     61  C   UNL     1       2.632   5.765  19.458  1.00  0.00     0.029 A 
ATOM     62  C   UNL     1       3.635   4.833  19.175  1.00  0.00     0.049 A 
ATOM     63  H   UNL     1       3.421   2.769  19.558  1.00  0.00     0.167 HD
ATOM     64  C   UNL     1       5.767   4.043  18.147  1.00  0.00     0.074 A 
ATOM     65  C   UNL     1       5.417   2.696  17.692  1.00  0.00     0.031 C 
ATOM     66  C   UNL     1       5.016   4.995  18.775  1.00  0.00     0.034 A 
BRANCH  53  67
ATOM     67  C   UNL     1       0.944   1.443  18.327  1.00  0.00     0.023 A 
ATOM     68  C   UNL     1       0.590   1.068  19.637  1.00  0.00     0.012 A 
ATOM     69  C   UNL     1       1.346   0.415  17.443  1.00  0.00     0.148 A 
ATOM     70  C   UNL     1       0.620  -0.272  20.042  1.00  0.00     0.002 A 
ATOM     71  C   UNL     1       1.295  -0.919  17.822  1.00  0.00     0.091 A 
ATOM     72  F   UNL     1       1.907   0.735  16.271  1.00  0.00    -0.205 F 
ATOM     73  C   UNL     1       0.951  -1.268  19.129  1.00  0.00     0.022 A 
BRANCH  71  74
ATOM     74  S   UNL     1       1.674  -2.241  16.667  1.00  0.00     0.127 S 
ATOM     75  O   UNL     1       2.968  -2.701  17.163  1.00  0.00    -0.237 OA
ATOM     76  O   UNL     1       0.559  -3.162  16.891  1.00  0.00    -0.237 OA
ATOM     77  O   UNL     1       1.677  -1.615  15.351  1.00  0.00    -0.744 OA
ENDBRANCH  71  74
ENDBRANCH  53  67
BRANCH  54  78
ATOM     78  C   UNL     1       8.312   2.991  14.293  1.00  0.00     0.023 A 
ATOM     79  C   UNL     1       9.366   2.300  14.928  1.00  0.00     0.012 A 
ATOM     80  C   UNL     1       8.041   2.661  12.944  1.00  0.00     0.148 A 
ATOM     81  C   UNL     1      10.098   1.307  14.254  1.00  0.00     0.002 A 
ATOM     82  C   UNL     1       8.789   1.700  12.270  1.00  0.00     0.091 A 
ATOM     83  F   UNL     1       6.980   3.209  12.340  1.00  0.00    -0.205 F 
ATOM     84  C   UNL     1       9.810   1.006  12.925  1.00  0.00     0.022 A 
BRANCH  82  85
ATOM     85  S   UNL     1       8.464   1.300  10.545  1.00  0.00     0.127 S 
ATOM     86  O   UNL     1       9.814   1.242   9.985  1.00  0.00    -0.237 OA
ATOM     87  O   UNL     1       7.786   0.012  10.653  1.00  0.00    -0.237 OA
ATOM     88  O   UNL     1       7.654   2.401  10.033  1.00  0.00    -0.744 OA
ENDBRANCH  82  85
ENDBRANCH  54  78
BRANCH  66  89
ATOM     89  C   UNL     1       5.543   6.408  18.848  1.00  0.00     0.023 A 
ATOM     90  C   UNL     1       5.566   7.262  17.723  1.00  0.00     0.012 A 
ATOM     91  C   UNL     1       5.747   6.961  20.121  1.00  0.00     0.148 A 
ATOM     92  C   UNL     1       5.773   8.638  17.867  1.00  0.00     0.002 A 
ATOM     93  C   UNL     1       5.914   8.333  20.265  1.00  0.00     0.091 A 
ATOM     94  F   UNL     1       5.697   6.136  21.177  1.00  0.00    -0.205 F 
ATOM     95  C   UNL     1       5.929   9.175  19.141  1.00  0.00     0.022 A 
BRANCH  93  96
ATOM     96  S   UNL     1       5.997   9.109  21.879  1.00  0.00     0.127 S 
ATOM     97  O   UNL     1       7.346   9.671  21.877  1.00  0.00    -0.237 OA
ATOM     98  O   UNL     1       4.921  10.098  21.800  1.00  0.00    -0.237 OA
ATOM     99  O   UNL     1       5.771   8.049  22.854  1.00  0.00    -0.744 OA
ENDBRANCH  93  96
ENDBRANCH  66  89
ENDBRANCH  40  41
ENDBRANCH  32  35
ENDBRANCH  30  31
ENDBRANCH  29  30
ENDBRANCH   1  29
TORSDOF 19
