REMARK SMILES COc1ccc(C2=NO[C@](C)(C(=O)NCCCCNC(=O)c3ccc(-c4c5nc(c(-c6cccc(S(=O)(=O)[O-])c6F)c6ccc([nH]6)c(-c6cccc(S(=O)(=O)[O-])c6F)c6nc(c(-c7cccc(S(=O)(=O)[O-])c7F)c7ccc4[nH]7)C=C6)C=C5)cc3)C2)c(OC)c1OC
REMARK SMILES IDX 17 1 16 2 15 3 14 4 12 5 13 6 10 8 7 9 8 10 85 11 9 12 11 13
REMARK SMILES IDX 6 14 3 15 4 16 89 17 5 18 86 19 2 20 1 21 90 22 91 23 87 24
REMARK SMILES IDX 88 25 18 26 19 27 20 28 21 30 22 31 23 32 84 33 24 34 83 35
REMARK SMILES IDX 25 36 26 37 27 38 77 39 28 40 82 41 76 42 78 43 29 44 81 45
REMARK SMILES IDX 75 46 74 47 30 49 62 50 42 51 61 52 43 53 46 54 60 55 79 56
REMARK SMILES IDX 44 57 45 58 59 60 80 61 47 62 31 63 32 64 40 65 33 66 35 67
REMARK SMILES IDX 41 68 34 69 36 70 37 71 38 72 39 73 63 74 64 75 72 76 65 77
REMARK SMILES IDX 67 78 73 79 66 80 68 81 69 82 70 83 71 84 48 85 49 86 57 87
REMARK SMILES IDX 50 88 52 89 58 90 51 91 53 92 54 93 55 94 56 95
REMARK H PARENT 14 7 19 29 78 48 46 59
REMARK Flexibility Score: inf
ROOT
ATOM      1  C   UNL     1       1.981   3.452   8.646  1.00  0.00     0.023 C 
ENDROOT
BRANCH   1   2
ATOM      2  C   UNL     1       1.626   3.971   7.253  1.00  0.00     0.023 C 
BRANCH   2   3
ATOM      3  C   UNL     1       0.947   5.345   7.236  1.00  0.00     0.116 C 
BRANCH   3   4
ATOM      4  N   UNL     1       1.930   6.411   7.177  1.00  0.00    -0.353 N 
ATOM      5  C   UNL     1       2.490   7.072   6.116  1.00  0.00     0.267 C 
ATOM      6  O   UNL     1       3.397   7.864   6.391  1.00  0.00    -0.270 OA
ATOM      7  H   UNL     1       2.252   6.714   8.057  1.00  0.00     0.163 HD
BRANCH   5   8
ATOM      8  C   UNL     1       1.944   6.929   4.672  1.00  0.00     0.217 C 
ATOM      9  C   UNL     1       2.169   5.516   2.876  1.00  0.00     0.095 C 
ATOM     10  N   UNL     1       2.895   6.537   2.570  1.00  0.00    -0.089 NA
ATOM     11  C   UNL     1       1.619   5.514   4.247  1.00  0.00     0.122 C 
ATOM     12  O   UNL     1       2.963   7.348   3.735  1.00  0.00    -0.379 OA
ATOM     13  C   UNL     1       0.768   7.897   4.505  1.00  0.00     0.071 C 
BRANCH   9  14
ATOM     14  C   UNL     1       1.895   4.372   1.996  1.00  0.00     0.046 A 
ATOM     15  C   UNL     1       1.260   2.163   0.447  1.00  0.00     0.164 A 
ATOM     16  C   UNL     1       0.274   3.112   0.749  1.00  0.00     0.051 A 
ATOM     17  C   UNL     1       2.588   2.315   0.906  1.00  0.00     0.203 A 
ATOM     18  C   UNL     1       0.589   4.218   1.528  1.00  0.00     0.018 A 
ATOM     19  C   UNL     1       2.905   3.430   1.713  1.00  0.00     0.173 A 
BRANCH  15  20
ATOM     20  O   UNL     1       0.925   1.133  -0.398  1.00  0.00    -0.493 OA
ATOM     21  C   UNL     1      -0.051   0.260   0.176  1.00  0.00     0.278 C 
ENDBRANCH  15  20
BRANCH  17  22
ATOM     22  O   UNL     1       3.615   1.476   0.561  1.00  0.00    -0.490 OA
ATOM     23  C   UNL     1       3.327   0.101   0.355  1.00  0.00     0.278 C 
ENDBRANCH  17  22
BRANCH  19  24
ATOM     24  O   UNL     1       4.103   3.710   2.320  1.00  0.00    -0.492 OA
ATOM     25  C   UNL     1       5.201   2.823   2.194  1.00  0.00     0.278 C 
ENDBRANCH  19  24
ENDBRANCH   9  14
ENDBRANCH   5   8
ENDBRANCH   3   4
ENDBRANCH   2   3
ENDBRANCH   1   2
BRANCH   1  26
ATOM     26  C   UNL     1       0.787   3.147   9.541  1.00  0.00     0.116 C 
BRANCH  26  27
ATOM     27  N   UNL     1      -0.128   2.165   8.974  1.00  0.00    -0.352 N 
ATOM     28  C   UNL     1      -0.907   1.249   9.642  1.00  0.00     0.251 C 
ATOM     29  H   UNL     1      -0.197   2.156   7.992  1.00  0.00     0.163 HD
ATOM     30  O   UNL     1      -1.564   0.421   9.016  1.00  0.00    -0.269 OA
BRANCH  28  31
ATOM     31  C   UNL     1      -0.904   1.247  11.119  1.00  0.00     0.039 A 
ATOM     32  C   UNL     1      -0.646   0.050  11.791  1.00  0.00     0.014 A 
ATOM     33  C   UNL     1      -1.086   2.435  11.830  1.00  0.00     0.014 A 
ATOM     34  C   UNL     1      -0.496   0.060  13.179  1.00  0.00     0.010 A 
ATOM     35  C   UNL     1      -0.865   2.455  13.203  1.00  0.00     0.010 A 
ATOM     36  C   UNL     1      -0.565   1.269  13.890  1.00  0.00    -0.014 A 
BRANCH  36  37
ATOM     37  C   UNL     1      -0.298   1.322  15.349  1.00  0.00     0.031 A 
ATOM     38  C   UNL     1      -1.378   1.754  16.302  1.00  0.00     0.074 A 
ATOM     39  C   UNL     1       0.947   1.078  15.804  1.00  0.00     0.049 A 
ATOM     40  N   UNL     1      -1.316   1.916  17.598  1.00  0.00    -0.248 NA
ATOM     41  C   UNL     1      -2.692   2.075  15.720  1.00  0.00     0.031 C 
ATOM     42  C   UNL     1       2.102   0.741  14.969  1.00  0.00     0.029 A 
ATOM     43  N   UNL     1       1.457   1.106  17.078  1.00  0.00    -0.354 N 
ATOM     44  C   UNL     1      -2.564   2.390  17.981  1.00  0.00     0.074 A 
ATOM     45  C   UNL     1      -3.355   2.523  16.777  1.00  0.00     0.031 C 
ATOM     46  C   UNL     1       3.183   0.590  15.752  1.00  0.00     0.029 A 
ATOM     47  C   UNL     1       2.806   0.843  17.139  1.00  0.00     0.049 A 
ATOM     48  H   UNL     1       0.909   1.296  17.874  1.00  0.00     0.167 HD
ATOM     49  C   UNL     1      -3.024   2.658  19.226  1.00  0.00     0.034 A 
ATOM     50  C   UNL     1       3.645   0.812  18.193  1.00  0.00     0.034 A 
ATOM     51  C   UNL     1      -2.252   2.476  20.425  1.00  0.00     0.049 A 
ATOM     52  C   UNL     1       3.096   1.063  19.571  1.00  0.00     0.074 A 
ATOM     53  C   UNL     1      -2.658   2.621  21.740  1.00  0.00     0.029 A 
ATOM     54  N   UNL     1      -0.914   2.114  20.457  1.00  0.00    -0.354 N 
ATOM     55  N   UNL     1       1.865   1.337  19.931  1.00  0.00    -0.248 NA
ATOM     56  C   UNL     1       4.041   0.964  20.692  1.00  0.00     0.031 C 
ATOM     57  C   UNL     1      -1.559   2.363  22.567  1.00  0.00     0.029 A 
ATOM     58  C   UNL     1      -0.474   2.039  21.767  1.00  0.00     0.049 A 
ATOM     59  H   UNL     1      -0.358   1.936  19.664  1.00  0.00     0.167 HD
ATOM     60  C   UNL     1       1.881   1.412  21.319  1.00  0.00     0.074 A 
ATOM     61  C   UNL     1       3.240   1.130  21.736  1.00  0.00     0.031 C 
ATOM     62  C   UNL     1       0.868   1.705  22.170  1.00  0.00     0.034 A 
BRANCH  49  63
ATOM     63  C   UNL     1      -4.452   3.116  19.360  1.00  0.00     0.023 A 
ATOM     64  C   UNL     1      -5.497   2.192  19.146  1.00  0.00     0.012 A 
ATOM     65  C   UNL     1      -4.763   4.433  19.748  1.00  0.00     0.148 A 
ATOM     66  C   UNL     1      -6.828   2.581  19.282  1.00  0.00     0.002 A 
ATOM     67  C   UNL     1      -6.093   4.801  19.924  1.00  0.00     0.091 A 
ATOM     68  F   UNL     1      -3.759   5.303  19.924  1.00  0.00    -0.205 F 
ATOM     69  C   UNL     1      -7.125   3.881  19.681  1.00  0.00     0.022 A 
BRANCH  67  70
ATOM     70  S   UNL     1      -6.576   6.430  20.507  1.00  0.00     0.127 S 
ATOM     71  O   UNL     1      -7.126   7.027  19.291  1.00  0.00    -0.237 OA
ATOM     72  O   UNL     1      -7.571   6.109  21.531  1.00  0.00    -0.237 OA
ATOM     73  O   UNL     1      -5.361   7.050  21.016  1.00  0.00    -0.744 OA
ENDBRANCH  67  70
ENDBRANCH  49  63
BRANCH  50  74
ATOM     74  C   UNL     1       5.078   0.456  17.992  1.00  0.00     0.023 A 
ATOM     75  C   UNL     1       5.548  -0.790  18.449  1.00  0.00     0.012 A 
ATOM     76  C   UNL     1       5.965   1.323  17.326  1.00  0.00     0.148 A 
ATOM     77  C   UNL     1       6.883  -1.155  18.274  1.00  0.00     0.002 A 
ATOM     78  C   UNL     1       7.281   0.930  17.106  1.00  0.00     0.091 A 
ATOM     79  F   UNL     1       5.503   2.510  16.910  1.00  0.00    -0.205 F 
ATOM     80  C   UNL     1       7.747  -0.301  17.594  1.00  0.00     0.022 A 
BRANCH  78  81
ATOM     81  S   UNL     1       8.424   1.908  16.123  1.00  0.00     0.127 S 
ATOM     82  O   UNL     1       9.317   2.442  17.147  1.00  0.00    -0.237 OA
ATOM     83  O   UNL     1       9.019   0.893  15.252  1.00  0.00    -0.237 OA
ATOM     84  O   UNL     1       7.598   2.885  15.425  1.00  0.00    -0.744 OA
ENDBRANCH  78  81
ENDBRANCH  50  74
BRANCH  62  85
ATOM     85  C   UNL     1       1.175   1.715  23.644  1.00  0.00     0.023 A 
ATOM     86  C   UNL     1       1.924   2.774  24.193  1.00  0.00     0.012 A 
ATOM     87  C   UNL     1       0.657   0.719  24.495  1.00  0.00     0.148 A 
ATOM     88  C   UNL     1       2.179   2.826  25.563  1.00  0.00     0.002 A 
ATOM     89  C   UNL     1       0.875   0.802  25.865  1.00  0.00     0.091 A 
ATOM     90  F   UNL     1      -0.036  -0.292  23.951  1.00  0.00    -0.205 F 
ATOM     91  C   UNL     1       1.645   1.849  26.399  1.00  0.00     0.022 A 
BRANCH  89  92
ATOM     92  S   UNL     1       0.147  -0.359  27.026  1.00  0.00     0.127 S 
ATOM     93  O   UNL     1       1.304  -1.169  27.403  1.00  0.00    -0.237 OA
ATOM     94  O   UNL     1      -0.349   0.525  28.082  1.00  0.00    -0.237 OA
ATOM     95  O   UNL     1      -0.896  -1.059  26.289  1.00  0.00    -0.744 OA
ENDBRANCH  89  92
ENDBRANCH  62  85
ENDBRANCH  36  37
ENDBRANCH  28  31
ENDBRANCH  26  27
ENDBRANCH   1  26
TORSDOF 18
