REMARK SMILES COc1cc([N+](=O)[O-])cc2c1=N[C@H](C(=O)NCCCCNC(=O)c1ccc(-c3c4nc(c(-c5cccc(S(=O)(=O)[O-])c5F)c5ccc([nH]5)c(-c5cccc(S(=O)(=O)[O-])c5F)c5nc(c(-c6cccc(S(=O)(=O)[O-])c6F)c6ccc3[nH]6)C=C5)C=C4)cc1)C=2CC[NH3+]
REMARK SMILES IDX 18 1 17 2 16 3 14 4 15 5 13 7 3 8 4 9 11 10 5 11 10 12 12 13
REMARK SMILES IDX 9 14 87 15 2 16 1 17 6 18 7 19 8 20 88 21 89 22 90 23 19 27
REMARK SMILES IDX 20 28 21 29 22 30 23 32 24 33 25 34 86 35 26 36 85 37 27 38
REMARK SMILES IDX 28 39 29 40 79 41 30 42 84 43 78 44 80 45 31 46 83 47 77 48
REMARK SMILES IDX 76 49 32 51 64 52 44 53 63 54 45 55 48 56 62 57 81 58 46 59
REMARK SMILES IDX 47 60 61 62 82 63 49 64 33 65 34 66 42 67 35 68 37 69 43 70
REMARK SMILES IDX 36 71 38 72 39 73 40 74 41 75 65 76 66 77 74 78 67 79 69 80
REMARK SMILES IDX 75 81 68 82 70 83 71 84 72 85 73 86 50 87 51 88 59 89 52 90
REMARK SMILES IDX 54 91 60 92 53 93 55 94 56 95 57 96 58 97
REMARK H PARENT 16 6 90 24 90 25 90 26 21 31 80 50 48 61
REMARK Flexibility Score: inf
ROOT
ATOM      1  C   UNL     1      -4.582   3.002  -0.998  1.00  0.00     0.023 C 
ENDROOT
BRANCH   1   2
ATOM      2  C   UNL     1      -3.189   3.289  -0.450  1.00  0.00     0.116 C 
BRANCH   2   3
ATOM      3  N   UNL     1      -2.976   4.684  -0.097  1.00  0.00    -0.354 N 
ATOM      4  C   UNL     1      -2.272   5.229   0.943  1.00  0.00     0.249 C 
ATOM      5  O   UNL     1      -2.115   6.454   0.905  1.00  0.00    -0.272 OA
ATOM      6  H   UNL     1      -3.404   5.336  -0.698  1.00  0.00     0.163 HD
BRANCH   4   7
ATOM      7  C   UNL     1      -1.778   4.361   2.143  1.00  0.00     0.222 C 
ATOM      8  C   UNL     1       0.980   2.093   1.306  1.00  0.00     0.151 A 
ATOM      9  C   UNL     1       2.252   2.189   1.743  1.00  0.00     0.134 A 
ATOM     10  C   UNL     1       0.012   3.119   1.790  1.00  0.00     0.109 A 
ATOM     11  C   UNL     1       2.696   3.242   2.655  1.00  0.00     0.273 A 
ATOM     12  C   UNL     1       0.517   4.213   2.629  1.00  0.00     0.012 A 
ATOM     13  N   UNL     1      -1.262   3.086   1.579  1.00  0.00    -0.263 NA
ATOM     14  C   UNL     1       1.875   4.222   3.085  1.00  0.00     0.096 A 
ATOM     15  C   UNL     1      -0.587   4.921   2.902  1.00  0.00    -0.021 C 
BRANCH   8  16
ATOM     16  O   UNL     1       0.456   1.153   0.451  1.00  0.00    -0.494 OA
ATOM     17  C   UNL     1       1.214  -0.008   0.156  1.00  0.00     0.278 C 
ENDBRANCH   8  16
BRANCH  11  18
ATOM     18  N   UNL     1       4.079   3.249   3.152  1.00  0.00     0.062 N 
ATOM     19  O   UNL     1       4.409   4.119   3.972  1.00  0.00    -0.258 OA
ATOM     20  O   UNL     1       4.838   2.367   2.726  1.00  0.00    -0.258 OA
ENDBRANCH  11  18
BRANCH  15  21
ATOM     21  C   UNL     1      -0.726   5.962   3.984  1.00  0.00     0.096 C 
BRANCH  21  22
ATOM     22  C   UNL     1      -1.144   7.385   3.591  1.00  0.00     0.263 C 
BRANCH  22  23
ATOM     23  N   UNL     1      -2.594   7.511   3.441  1.00  0.00    -0.357 N 
ATOM     24  H   UNL     1      -2.914   6.888   2.700  1.00  0.00     0.344 HD
ATOM     25  H   UNL     1      -2.828   8.475   3.201  1.00  0.00     0.344 HD
ATOM     26  H   UNL     1      -3.050   7.259   4.318  1.00  0.00     0.344 HD
ENDBRANCH  22  23
ENDBRANCH  21  22
ENDBRANCH  15  21
ENDBRANCH   4   7
ENDBRANCH   2   3
ENDBRANCH   1   2
BRANCH   1  27
ATOM     27  C   UNL     1      -5.052   3.885  -2.147  1.00  0.00     0.023 C 
BRANCH  27  28
ATOM     28  C   UNL     1      -4.088   4.023  -3.316  1.00  0.00     0.116 C 
BRANCH  28  29
ATOM     29  N   UNL     1      -3.799   2.766  -3.989  1.00  0.00    -0.352 N 
ATOM     30  C   UNL     1      -3.928   2.440  -5.323  1.00  0.00     0.251 C 
ATOM     31  H   UNL     1      -3.464   2.045  -3.409  1.00  0.00     0.163 HD
ATOM     32  O   UNL     1      -3.715   1.296  -5.700  1.00  0.00    -0.269 OA
BRANCH  30  33
ATOM     33  C   UNL     1      -4.375   3.477  -6.283  1.00  0.00     0.039 A 
ATOM     34  C   UNL     1      -3.791   4.744  -6.282  1.00  0.00     0.014 A 
ATOM     35  C   UNL     1      -5.438   3.193  -7.143  1.00  0.00     0.014 A 
ATOM     36  C   UNL     1      -4.397   5.778  -6.989  1.00  0.00     0.010 A 
ATOM     37  C   UNL     1      -5.989   4.215  -7.924  1.00  0.00     0.010 A 
ATOM     38  C   UNL     1      -5.514   5.530  -7.806  1.00  0.00    -0.014 A 
BRANCH  38  39
ATOM     39  C   UNL     1      -6.174   6.664  -8.508  1.00  0.00     0.031 A 
ATOM     40  C   UNL     1      -7.595   7.054  -8.185  1.00  0.00     0.074 A 
ATOM     41  C   UNL     1      -5.467   7.386  -9.402  1.00  0.00     0.049 A 
ATOM     42  N   UNL     1      -8.309   8.033  -8.682  1.00  0.00    -0.248 NA
ATOM     43  C   UNL     1      -8.312   6.250  -7.180  1.00  0.00     0.031 C 
ATOM     44  C   UNL     1      -4.085   7.112  -9.802  1.00  0.00     0.029 A 
ATOM     45  N   UNL     1      -5.801   8.510 -10.115  1.00  0.00    -0.354 N 
ATOM     46  C   UNL     1      -9.562   7.936  -8.088  1.00  0.00     0.074 A 
ATOM     47  C   UNL     1      -9.518   6.805  -7.189  1.00  0.00     0.031 C 
ATOM     48  C   UNL     1      -3.670   8.074 -10.640  1.00  0.00     0.029 A 
ATOM     49  C   UNL     1      -4.770   9.002 -10.881  1.00  0.00     0.049 A 
ATOM     50  H   UNL     1      -6.693   8.925 -10.082  1.00  0.00     0.167 HD
ATOM     51  C   UNL     1     -10.645   8.731  -8.260  1.00  0.00     0.034 A 
ATOM     52  C   UNL     1      -4.711  10.079 -11.688  1.00  0.00     0.034 A 
ATOM     53  C   UNL     1     -10.671   9.899  -9.097  1.00  0.00     0.049 A 
ATOM     54  C   UNL     1      -5.927  10.942 -11.852  1.00  0.00     0.074 A 
ATOM     55  C   UNL     1     -11.716  10.785  -9.295  1.00  0.00     0.029 A 
ATOM     56  N   UNL     1      -9.609  10.352  -9.860  1.00  0.00    -0.354 N 
ATOM     57  N   UNL     1      -7.080  10.862 -11.235  1.00  0.00    -0.248 NA
ATOM     58  C   UNL     1      -5.834  12.047 -12.818  1.00  0.00     0.031 C 
ATOM     59  C   UNL     1     -11.284  11.778 -10.178  1.00  0.00     0.029 A 
ATOM     60  C   UNL     1      -9.972  11.508 -10.528  1.00  0.00     0.049 A 
ATOM     61  H   UNL     1      -8.727   9.918  -9.918  1.00  0.00     0.167 HD
ATOM     62  C   UNL     1      -7.844  11.914 -11.724  1.00  0.00     0.074 A 
ATOM     63  C   UNL     1      -7.018  12.629 -12.675  1.00  0.00     0.031 C 
ATOM     64  C   UNL     1      -9.123  12.242 -11.426  1.00  0.00     0.034 A 
BRANCH  51  65
ATOM     65  C   UNL     1     -11.896   8.421  -7.486  1.00  0.00     0.023 A 
ATOM     66  C   UNL     1     -12.012   8.881  -6.160  1.00  0.00     0.012 A 
ATOM     67  C   UNL     1     -13.005   7.822  -8.115  1.00  0.00     0.148 A 
ATOM     68  C   UNL     1     -13.216   8.752  -5.470  1.00  0.00     0.002 A 
ATOM     69  C   UNL     1     -14.210   7.721  -7.429  1.00  0.00     0.091 A 
ATOM     70  F   UNL     1     -12.867   7.394  -9.378  1.00  0.00    -0.205 F 
ATOM     71  C   UNL     1     -14.316   8.183  -6.107  1.00  0.00     0.022 A 
BRANCH  69  72
ATOM     72  S   UNL     1     -15.706   7.058  -8.173  1.00  0.00     0.127 S 
ATOM     73  O   UNL     1     -15.996   5.926  -7.292  1.00  0.00    -0.237 OA
ATOM     74  O   UNL     1     -16.633   8.181  -8.047  1.00  0.00    -0.237 OA
ATOM     75  O   UNL     1     -15.353   6.696  -9.539  1.00  0.00    -0.744 OA
ENDBRANCH  69  72
ENDBRANCH  51  65
BRANCH  52  76
ATOM     76  C   UNL     1      -3.428  10.433 -12.353  1.00  0.00     0.023 A 
ATOM     77  C   UNL     1      -2.705  11.548 -11.888  1.00  0.00     0.012 A 
ATOM     78  C   UNL     1      -2.900   9.654 -13.399  1.00  0.00     0.148 A 
ATOM     79  C   UNL     1      -1.480  11.888 -12.462  1.00  0.00     0.002 A 
ATOM     80  C   UNL     1      -1.659   9.972 -13.936  1.00  0.00     0.091 A 
ATOM     81  F   UNL     1      -3.616   8.607 -13.834  1.00  0.00    -0.205 F 
ATOM     82  C   UNL     1      -0.952  11.094 -13.477  1.00  0.00     0.022 A 
BRANCH  80  83
ATOM     83  S   UNL     1      -0.852   8.943 -15.168  1.00  0.00     0.127 S 
ATOM     84  O   UNL     1      -0.956   9.774 -16.364  1.00  0.00    -0.237 OA
ATOM     85  O   UNL     1       0.498   8.817 -14.619  1.00  0.00    -0.237 OA
ATOM     86  O   UNL     1      -1.608   7.698 -15.194  1.00  0.00    -0.744 OA
ENDBRANCH  80  83
ENDBRANCH  52  76
BRANCH  64  87
ATOM     87  C   UNL     1      -9.725  13.432 -12.116  1.00  0.00     0.023 A 
ATOM     88  C   UNL     1     -10.219  13.288 -13.426  1.00  0.00     0.012 A 
ATOM     89  C   UNL     1      -9.916  14.644 -11.426  1.00  0.00     0.148 A 
ATOM     90  C   UNL     1     -10.892  14.339 -14.045  1.00  0.00     0.002 A 
ATOM     91  C   UNL     1     -10.616  15.677 -12.037  1.00  0.00     0.091 A 
ATOM     92  F   UNL     1      -9.427  14.755 -10.182  1.00  0.00    -0.205 F 
ATOM     93  C   UNL     1     -11.100  15.527 -13.348  1.00  0.00     0.022 A 
BRANCH  91  94
ATOM     94  S   UNL     1     -11.000  17.217 -11.197  1.00  0.00     0.127 S 
ATOM     95  O   UNL     1     -10.189  18.175 -11.946  1.00  0.00    -0.237 OA
ATOM     96  O   UNL     1     -12.442  17.336 -11.414  1.00  0.00    -0.237 OA
ATOM     97  O   UNL     1     -10.609  17.027  -9.806  1.00  0.00    -0.744 OA
ENDBRANCH  91  94
ENDBRANCH  64  87
ENDBRANCH  38  39
ENDBRANCH  30  33
ENDBRANCH  28  29
ENDBRANCH  27  28
ENDBRANCH   1  27
TORSDOF 19
