REMARK SMILES C[C@H]1C[C@H]([N@@H+]2CCOC[C@@H]2C(=O)NCCCCNC(=O)c2ccc(-c3c4nc(c(-c5cccc(S(=O)(=O)[O-])c5F)c5ccc([nH]5)c(-c5cccc(S(=O)(=O)[O-])c5F)c5nc(c(-c6cccc(S(=O)(=O)[O-])c6F)c6ccc3[nH]6)C=C5)C=C4)cc2)CS1
REMARK SMILES IDX 16 1 15 2 14 3 13 4 11 5 12 6 10 8 5 9 6 10 7 12 9 13 8 14
REMARK SMILES IDX 4 15 1 16 2 17 3 18 85 19 84 20 17 21 18 22 19 23 20 25
REMARK SMILES IDX 21 26 22 27 83 28 23 29 82 30 24 31 25 32 26 33 76 34 27 35
REMARK SMILES IDX 81 36 75 37 77 38 28 39 80 40 74 41 73 42 29 44 61 45 41 46
REMARK SMILES IDX 60 47 42 48 45 49 59 50 78 51 43 52 44 53 58 55 79 56 46 57
REMARK SMILES IDX 30 58 31 59 39 60 32 61 34 62 40 63 33 64 35 65 36 66 37 67
REMARK SMILES IDX 38 68 62 69 63 70 71 71 64 72 66 73 72 74 65 75 67 76 68 77
REMARK SMILES IDX 69 78 70 79 47 80 48 81 56 82 49 83 51 84 57 85 50 86 52 87
REMARK SMILES IDX 53 88 54 89 55 90
REMARK H PARENT 13 7 5 11 18 24 77 43 45 54
REMARK Flexibility Score: inf
ROOT
ATOM      1  C   UNL     1      -4.933   3.384  -3.844  1.00  0.00     0.023 C 
ENDROOT
BRANCH   1   2
ATOM      2  C   UNL     1      -3.785   4.140  -3.171  1.00  0.00     0.023 C 
BRANCH   2   3
ATOM      3  C   UNL     1      -3.929   4.308  -1.660  1.00  0.00     0.116 C 
BRANCH   3   4
ATOM      4  N   UNL     1      -3.878   3.049  -0.936  1.00  0.00    -0.351 N 
ATOM      5  C   UNL     1      -2.857   2.547  -0.165  1.00  0.00     0.280 C 
ATOM      6  O   UNL     1      -3.052   1.510   0.469  1.00  0.00    -0.268 OA
ATOM      7  H   UNL     1      -4.679   2.481  -1.008  1.00  0.00     0.163 HD
BRANCH   5   8
ATOM      8  C   UNL     1      -1.556   3.339  -0.063  1.00  0.00     0.300 C 
ATOM      9  N   UNL     1      -0.817   3.534  -1.347  1.00  0.00    -0.318 N 
ATOM     10  C   UNL     1       0.219   4.559  -1.077  1.00  0.00     0.292 C 
ATOM     11  H   UNL     1      -1.524   3.825  -2.022  1.00  0.00     0.349 HD
ATOM     12  C   UNL     1       1.046   4.378   0.220  1.00  0.00     0.221 C 
ATOM     13  C   UNL     1      -0.648   2.924   1.095  1.00  0.00     0.235 C 
ATOM     14  O   UNL     1       0.281   3.992   1.371  1.00  0.00    -0.369 OA
BRANCH   9  15
ATOM     15  C   UNL     1      -0.326   2.372  -2.136  1.00  0.00     0.195 C 
ATOM     16  C   UNL     1       1.453  -0.586  -2.816  1.00  0.00     0.019 C 
ATOM     17  C   UNL     1       0.778   0.111  -1.644  1.00  0.00     0.049 C 
ATOM     18  C   UNL     1       0.951   1.631  -1.669  1.00  0.00     0.080 C 
ATOM     19  S   UNL     1      -0.998  -0.173  -1.670  1.00  0.00    -0.152 SA
ATOM     20  C   UNL     1      -1.345   1.318  -2.612  1.00  0.00     0.134 C 
ENDBRANCH   9  15
ENDBRANCH   5   8
ENDBRANCH   3   4
ENDBRANCH   2   3
ENDBRANCH   1   2
BRANCH   1  21
ATOM     21  C   UNL     1      -6.320   3.983  -3.625  1.00  0.00     0.116 C 
BRANCH  21  22
ATOM     22  N   UNL     1      -6.396   5.386  -4.003  1.00  0.00    -0.352 N 
ATOM     23  C   UNL     1      -7.415   6.077  -4.607  1.00  0.00     0.251 C 
ATOM     24  H   UNL     1      -5.596   5.920  -3.793  1.00  0.00     0.163 HD
ATOM     25  O   UNL     1      -7.229   7.240  -4.954  1.00  0.00    -0.269 OA
BRANCH  23  26
ATOM     26  C   UNL     1      -8.719   5.425  -4.865  1.00  0.00     0.039 A 
ATOM     27  C   UNL     1      -9.354   5.673  -6.085  1.00  0.00     0.014 A 
ATOM     28  C   UNL     1      -9.327   4.599  -3.916  1.00  0.00     0.014 A 
ATOM     29  C   UNL     1     -10.574   5.057  -6.370  1.00  0.00     0.010 A 
ATOM     30  C   UNL     1     -10.508   3.929  -4.230  1.00  0.00     0.010 A 
ATOM     31  C   UNL     1     -11.150   4.160  -5.454  1.00  0.00    -0.014 A 
BRANCH  31  32
ATOM     32  C   UNL     1     -12.411   3.453  -5.785  1.00  0.00     0.031 A 
ATOM     33  C   UNL     1     -13.668   3.708  -5.001  1.00  0.00     0.074 A 
ATOM     34  C   UNL     1     -12.409   2.535  -6.772  1.00  0.00     0.049 A 
ATOM     35  N   UNL     1     -14.872   3.236  -5.200  1.00  0.00    -0.248 NA
ATOM     36  C   UNL     1     -13.557   4.586  -3.825  1.00  0.00     0.031 C 
ATOM     37  C   UNL     1     -11.232   2.125  -7.539  1.00  0.00     0.029 A 
ATOM     38  N   UNL     1     -13.427   1.779  -7.295  1.00  0.00    -0.354 N 
ATOM     39  C   UNL     1     -15.654   3.736  -4.167  1.00  0.00     0.074 A 
ATOM     40  C   UNL     1     -14.778   4.512  -3.316  1.00  0.00     0.031 C 
ATOM     41  C   UNL     1     -11.599   1.216  -8.455  1.00  0.00     0.029 A 
ATOM     42  C   UNL     1     -13.033   0.970  -8.334  1.00  0.00     0.049 A 
ATOM     43  H   UNL     1     -14.352   1.812  -6.958  1.00  0.00     0.167 HD
ATOM     44  C   UNL     1     -16.986   3.595  -3.963  1.00  0.00     0.034 A 
ATOM     45  C   UNL     1     -13.751   0.143  -9.119  1.00  0.00     0.034 A 
ATOM     46  C   UNL     1     -17.858   2.854  -4.835  1.00  0.00     0.049 A 
ATOM     47  C   UNL     1     -15.239   0.058  -8.920  1.00  0.00     0.074 A 
ATOM     48  C   UNL     1     -19.234   2.723  -4.772  1.00  0.00     0.029 A 
ATOM     49  N   UNL     1     -17.436   2.113  -5.929  1.00  0.00    -0.354 N 
ATOM     50  N   UNL     1     -15.992   0.685  -8.050  1.00  0.00    -0.248 NA
ATOM     51  C   UNL     1     -15.982  -0.811  -9.844  1.00  0.00     0.031 C 
ATOM     52  C   UNL     1     -19.642   1.891  -5.822  1.00  0.00     0.029 A 
ATOM     53  C   UNL     1     -18.523   1.518  -6.548  1.00  0.00     0.049 A 
ATOM     54  H   UNL     1     -16.501   2.023  -6.223  1.00  0.00     0.167 HD
ATOM     55  C   UNL     1     -17.301   0.318  -8.342  1.00  0.00     0.074 A 
ATOM     56  C   UNL     1     -17.236  -0.572  -9.484  1.00  0.00     0.031 C 
ATOM     57  C   UNL     1     -18.449   0.675  -7.715  1.00  0.00     0.034 A 
BRANCH  44  58
ATOM     58  C   UNL     1     -17.585   4.314  -2.781  1.00  0.00     0.023 A 
ATOM     59  C   UNL     1     -17.681   5.722  -2.805  1.00  0.00     0.012 A 
ATOM     60  C   UNL     1     -18.076   3.611  -1.665  1.00  0.00     0.148 A 
ATOM     61  C   UNL     1     -18.213   6.419  -1.722  1.00  0.00     0.002 A 
ATOM     62  C   UNL     1     -18.646   4.311  -0.606  1.00  0.00     0.091 A 
ATOM     63  F   UNL     1     -17.956   2.276  -1.642  1.00  0.00    -0.205 F 
ATOM     64  C   UNL     1     -18.703   5.714  -0.627  1.00  0.00     0.022 A 
BRANCH  62  65
ATOM     65  S   UNL     1     -19.373   3.479   0.811  1.00  0.00     0.127 S 
ATOM     66  O   UNL     1     -18.311   3.608   1.808  1.00  0.00    -0.237 OA
ATOM     67  O   UNL     1     -20.560   4.293   1.078  1.00  0.00    -0.237 OA
ATOM     68  O   UNL     1     -19.663   2.124   0.364  1.00  0.00    -0.744 OA
ENDBRANCH  62  65
ENDBRANCH  44  58
BRANCH  45  69
ATOM     69  C   UNL     1     -13.080  -0.562 -10.247  1.00  0.00     0.023 A 
ATOM     70  C   UNL     1     -13.321  -0.126 -11.564  1.00  0.00     0.012 A 
ATOM     71  C   UNL     1     -12.165  -1.608 -10.025  1.00  0.00     0.148 A 
ATOM     72  C   UNL     1     -12.678  -0.732 -12.643  1.00  0.00     0.002 A 
ATOM     73  C   UNL     1     -11.489  -2.173 -11.100  1.00  0.00     0.091 A 
ATOM     74  F   UNL     1     -11.956  -2.012  -8.764  1.00  0.00    -0.205 F 
ATOM     75  C   UNL     1     -11.754  -1.747 -12.411  1.00  0.00     0.022 A 
BRANCH  73  76
ATOM     76  S   UNL     1     -10.186  -3.393 -10.891  1.00  0.00     0.127 S 
ATOM     77  O   UNL     1     -10.804  -4.590 -11.456  1.00  0.00    -0.237 OA
ATOM     78  O   UNL     1      -9.105  -2.820 -11.693  1.00  0.00    -0.237 OA
ATOM     79  O   UNL     1      -9.915  -3.439  -9.461  1.00  0.00    -0.744 OA
ENDBRANCH  73  76
ENDBRANCH  45  69
BRANCH  57  80
ATOM     80  C   UNL     1     -19.740   0.126  -8.265  1.00  0.00     0.023 A 
ATOM     81  C   UNL     1     -20.059  -1.233  -8.073  1.00  0.00     0.012 A 
ATOM     82  C   UNL     1     -20.662   0.967  -8.917  1.00  0.00     0.148 A 
ATOM     83  C   UNL     1     -21.259  -1.754  -8.554  1.00  0.00     0.002 A 
ATOM     84  C   UNL     1     -21.877   0.450  -9.353  1.00  0.00     0.091 A 
ATOM     85  F   UNL     1     -20.333   2.252  -9.112  1.00  0.00    -0.205 F 
ATOM     86  C   UNL     1     -22.173  -0.912  -9.183  1.00  0.00     0.022 A 
BRANCH  84  87
ATOM     87  S   UNL     1     -23.145   1.491 -10.088  1.00  0.00     0.127 S 
ATOM     88  O   UNL     1     -22.965   1.221 -11.513  1.00  0.00    -0.237 OA
ATOM     89  O   UNL     1     -24.375   0.943  -9.515  1.00  0.00    -0.237 OA
ATOM     90  O   UNL     1     -22.837   2.848  -9.657  1.00  0.00    -0.744 OA
ENDBRANCH  84  87
ENDBRANCH  57  80
ENDBRANCH  31  32
ENDBRANCH  23  26
ENDBRANCH  21  22
ENDBRANCH   1  21
TORSDOF 15
