REMARK SMILES CC[C@@H](O)C[NH+]1CC(n2cc(C(=O)NCCCCNC(=O)c3ccc(-c4c5nc(c(-c6cccc(S(=O)(=O)[O-])c6F)c6ccc([nH]6)c(-c6cccc(S(=O)(=O)[O-])c6F)c6nc(c(-c7cccc(S(=O)(=O)[O-])c7F)c7ccc4[nH]7)C=C6)C=C5)cc3)nn2)C1
REMARK SMILES IDX 16 1 15 2 14 3 12 4 13 5 11 7 9 8 10 9 86 10 85 11 8 12 6 13
REMARK SMILES IDX 7 14 87 15 5 17 3 18 2 19 1 20 4 21 17 23 18 24 19 25 20 26
REMARK SMILES IDX 21 28 22 29 23 30 84 31 24 32 83 33 25 34 26 35 27 36 77 37
REMARK SMILES IDX 28 38 82 39 76 40 78 41 29 42 81 43 75 44 74 45 30 47 62 48
REMARK SMILES IDX 42 49 61 50 43 51 46 52 60 53 79 54 44 55 45 56 59 58 80 59
REMARK SMILES IDX 47 60 31 61 32 62 40 63 33 64 35 65 41 66 34 67 36 68 37 69
REMARK SMILES IDX 38 70 39 71 63 72 64 73 72 74 65 75 67 76 73 77 66 78 68 79
REMARK SMILES IDX 69 80 70 81 71 82 48 83 49 84 57 85 50 86 52 87 58 88 51 89
REMARK SMILES IDX 53 90 54 91 55 92 56 93
REMARK H PARENT 14 6 6 16 4 22 19 27 78 46 46 57
REMARK Flexibility Score: inf
ROOT
ATOM      1  C   UNL     1      -0.732   3.986   7.891  1.00  0.00     0.023 C 
ENDROOT
BRANCH   1   2
ATOM      2  C   UNL     1      -2.017   4.117   7.057  1.00  0.00     0.116 C 
BRANCH   2   3
ATOM      3  N   UNL     1      -2.553   5.463   7.107  1.00  0.00    -0.351 N 
ATOM      4  C   UNL     1      -2.448   6.546   6.258  1.00  0.00     0.273 C 
ATOM      5  O   UNL     1      -3.000   7.585   6.618  1.00  0.00    -0.267 OA
ATOM      6  H   UNL     1      -3.100   5.640   7.906  1.00  0.00     0.163 HD
BRANCH   4   7
ATOM      7  C   UNL     1      -1.686   6.487   5.011  1.00  0.00     0.170 A 
ATOM      8  N   UNL     1      -0.393   6.028   3.325  1.00  0.00    -0.237 N 
ATOM      9  C   UNL     1      -0.698   5.621   4.593  1.00  0.00     0.145 A 
ATOM     10  N   UNL     1      -1.049   7.143   2.995  1.00  0.00    -0.066 NA
ATOM     11  N   UNL     1      -1.843   7.442   4.018  1.00  0.00    -0.125 NA
BRANCH   8  12
ATOM     12  C   UNL     1       0.637   5.428   2.551  1.00  0.00     0.218 C 
ATOM     13  N   UNL     1       1.123   4.334   0.855  1.00  0.00    -0.329 N 
ATOM     14  C   UNL     1       0.740   5.781   1.058  1.00  0.00     0.296 C 
ATOM     15  C   UNL     1       0.235   4.035   2.029  1.00  0.00     0.296 C 
ATOM     16  H   UNL     1       2.091   4.018   0.803  1.00  0.00     0.348 HD
BRANCH  13  17
ATOM     17  C   UNL     1       0.552   3.810  -0.393  1.00  0.00     0.294 C 
BRANCH  17  18
ATOM     18  C   UNL     1       1.051   2.381  -0.731  1.00  0.00     0.169 C 
BRANCH  18  19
ATOM     19  C   UNL     1       0.582   1.313   0.268  1.00  0.00     0.034 C 
ATOM     20  C   UNL     1       1.086  -0.089  -0.055  1.00  0.00     0.007 C 
ENDBRANCH  18  19
BRANCH  18  21
ATOM     21  O   UNL     1       0.583   2.055  -2.045  1.00  0.00    -0.387 OA
ATOM     22  H   UNL     1      -0.387   2.063  -2.054  1.00  0.00     0.211 HD
ENDBRANCH  18  21
ENDBRANCH  17  18
ENDBRANCH  13  17
ENDBRANCH   8  12
ENDBRANCH   4   7
ENDBRANCH   2   3
ENDBRANCH   1   2
BRANCH   1  23
ATOM     23  C   UNL     1      -0.936   3.879   9.413  1.00  0.00     0.023 C 
BRANCH  23  24
ATOM     24  C   UNL     1      -1.623   2.599   9.874  1.00  0.00     0.116 C 
BRANCH  24  25
ATOM     25  N   UNL     1      -0.856   1.379   9.574  1.00  0.00    -0.352 N 
ATOM     26  C   UNL     1      -1.256   0.056   9.732  1.00  0.00     0.251 C 
ATOM     27  H   UNL     1       0.052   1.517   9.219  1.00  0.00     0.163 HD
ATOM     28  O   UNL     1      -0.451  -0.854   9.806  1.00  0.00    -0.269 OA
BRANCH  26  29
ATOM     29  C   UNL     1      -2.704  -0.211   9.760  1.00  0.00     0.039 A 
ATOM     30  C   UNL     1      -3.315  -1.099  10.653  1.00  0.00     0.014 A 
ATOM     31  C   UNL     1      -3.455   0.545   8.873  1.00  0.00     0.014 A 
ATOM     32  C   UNL     1      -4.708  -1.163  10.673  1.00  0.00     0.010 A 
ATOM     33  C   UNL     1      -4.787   0.687   9.096  1.00  0.00     0.010 A 
ATOM     34  C   UNL     1      -5.427  -0.257   9.886  1.00  0.00    -0.014 A 
BRANCH  34  35
ATOM     35  C   UNL     1      -6.876  -0.211   9.826  1.00  0.00     0.031 A 
ATOM     36  C   UNL     1      -7.544   0.237  11.075  1.00  0.00     0.074 A 
ATOM     37  C   UNL     1      -7.484  -0.242   8.617  1.00  0.00     0.049 A 
ATOM     38  N   UNL     1      -8.367  -0.434  11.808  1.00  0.00    -0.248 NA
ATOM     39  C   UNL     1      -7.152   1.530  11.661  1.00  0.00     0.031 C 
ATOM     40  C   UNL     1      -6.862  -0.300   7.281  1.00  0.00     0.029 A 
ATOM     41  N   UNL     1      -8.785  -0.009   8.317  1.00  0.00    -0.354 N 
ATOM     42  C   UNL     1      -8.770   0.433  12.823  1.00  0.00     0.074 A 
ATOM     43  C   UNL     1      -7.833   1.524  12.808  1.00  0.00     0.031 C 
ATOM     44  C   UNL     1      -7.726   0.182   6.362  1.00  0.00     0.029 A 
ATOM     45  C   UNL     1      -9.000   0.419   7.010  1.00  0.00     0.049 A 
ATOM     46  H   UNL     1      -9.514  -0.132   8.966  1.00  0.00     0.167 HD
ATOM     47  C   UNL     1      -9.985   0.303  13.428  1.00  0.00     0.034 A 
ATOM     48  C   UNL     1     -10.122   1.015   6.534  1.00  0.00     0.034 A 
ATOM     49  C   UNL     1     -10.611  -0.944  13.061  1.00  0.00     0.049 A 
ATOM     50  C   UNL     1     -11.214   0.693   7.486  1.00  0.00     0.074 A 
ATOM     51  C   UNL     1     -10.271  -2.276  13.188  1.00  0.00     0.029 A 
ATOM     52  N   UNL     1     -11.568  -0.891  12.073  1.00  0.00    -0.354 N 
ATOM     53  N   UNL     1     -11.631  -0.526   7.700  1.00  0.00    -0.248 NA
ATOM     54  C   UNL     1     -11.469   1.639   8.562  1.00  0.00     0.031 C 
ATOM     55  C   UNL     1     -10.646  -2.862  11.943  1.00  0.00     0.029 A 
ATOM     56  C   UNL     1     -11.272  -1.880  11.171  1.00  0.00     0.049 A 
ATOM     57  H   UNL     1     -12.322  -0.261  12.023  1.00  0.00     0.167 HD
ATOM     58  C   UNL     1     -11.761  -0.610   9.081  1.00  0.00     0.074 A 
ATOM     59  C   UNL     1     -11.743   0.779   9.549  1.00  0.00     0.031 C 
ATOM     60  C   UNL     1     -11.545  -1.783   9.752  1.00  0.00     0.034 A 
BRANCH  47  61
ATOM     61  C   UNL     1     -10.792   1.411  14.066  1.00  0.00     0.023 A 
ATOM     62  C   UNL     1     -11.951   1.026  14.781  1.00  0.00     0.012 A 
ATOM     63  C   UNL     1     -10.642   2.788  13.789  1.00  0.00     0.148 A 
ATOM     64  C   UNL     1     -12.938   1.949  15.139  1.00  0.00     0.002 A 
ATOM     65  C   UNL     1     -11.593   3.713  14.210  1.00  0.00     0.091 A 
ATOM     66  F   UNL     1      -9.649   3.210  13.003  1.00  0.00    -0.205 F 
ATOM     67  C   UNL     1     -12.758   3.296  14.855  1.00  0.00     0.022 A 
BRANCH  65  68
ATOM     68  S   UNL     1     -11.396   5.474  13.906  1.00  0.00     0.127 S 
ATOM     69  O   UNL     1     -12.376   5.699  12.847  1.00  0.00    -0.237 OA
ATOM     70  O   UNL     1     -11.747   6.044  15.207  1.00  0.00    -0.237 OA
ATOM     71  O   UNL     1      -9.998   5.652  13.534  1.00  0.00    -0.744 OA
ENDBRANCH  65  68
ENDBRANCH  47  61
BRANCH  48  72
ATOM     72  C   UNL     1     -10.212   2.095   5.521  1.00  0.00     0.023 A 
ATOM     73  C   UNL     1     -11.413   2.341   4.829  1.00  0.00     0.012 A 
ATOM     74  C   UNL     1      -9.173   3.048   5.397  1.00  0.00     0.148 A 
ATOM     75  C   UNL     1     -11.573   3.495   4.046  1.00  0.00     0.002 A 
ATOM     76  C   UNL     1      -9.326   4.178   4.601  1.00  0.00     0.091 A 
ATOM     77  F   UNL     1      -8.067   2.897   6.139  1.00  0.00    -0.205 F 
ATOM     78  C   UNL     1     -10.530   4.413   3.930  1.00  0.00     0.022 A 
BRANCH  76  79
ATOM     79  S   UNL     1      -8.006   5.385   4.417  1.00  0.00     0.127 S 
ATOM     80  O   UNL     1      -8.001   5.606   2.971  1.00  0.00    -0.237 OA
ATOM     81  O   UNL     1      -8.511   6.500   5.212  1.00  0.00    -0.237 OA
ATOM     82  O   UNL     1      -6.805   4.731   4.926  1.00  0.00    -0.744 OA
ENDBRANCH  76  79
ENDBRANCH  48  72
BRANCH  60  83
ATOM     83  C   UNL     1     -11.311  -3.045   8.949  1.00  0.00     0.023 A 
ATOM     84  C   UNL     1     -10.194  -3.206   8.100  1.00  0.00     0.012 A 
ATOM     85  C   UNL     1     -12.107  -4.167   9.224  1.00  0.00     0.148 A 
ATOM     86  C   UNL     1      -9.887  -4.445   7.529  1.00  0.00     0.002 A 
ATOM     87  C   UNL     1     -11.775  -5.408   8.693  1.00  0.00     0.091 A 
ATOM     88  F   UNL     1     -13.160  -4.009  10.041  1.00  0.00    -0.205 F 
ATOM     89  C   UNL     1     -10.671  -5.551   7.838  1.00  0.00     0.022 A 
BRANCH  87  90
ATOM     90  S   UNL     1     -12.666  -6.893   9.158  1.00  0.00     0.127 S 
ATOM     91  O   UNL     1     -13.460  -7.159   7.961  1.00  0.00    -0.237 OA
ATOM     92  O   UNL     1     -11.582  -7.848   9.398  1.00  0.00    -0.237 OA
ATOM     93  O   UNL     1     -13.426  -6.547  10.353  1.00  0.00    -0.744 OA
ENDBRANCH  87  90
ENDBRANCH  60  83
ENDBRANCH  34  35
ENDBRANCH  26  29
ENDBRANCH  24  25
ENDBRANCH  23  24
ENDBRANCH   1  23
TORSDOF 19
