REMARK SMILES COCc1cc(C)nc(N/N=C\c2ccc(-c3cccc(C(=O)NCCCCNC(=O)c4ccc(-c5c6nc(c(-c7cccc(S(=O)(=O)[O-])c7F)c7ccc([nH]7)c(-c7cccc(S(=O)(=O)[O-])c7F)c7nc(c(-c8cccc(S(=O)(=O)[O-])c8F)c8ccc5[nH]8)C=C7)C=C6)cc4)c3)o2)c1C#N
REMARK SMILES IDX 25 1 24 2 22 3 23 4 21 6 17 7 18 8 95 9 19 10 20 11 16 12
REMARK SMILES IDX 13 13 14 14 96 15 15 16 12 17 11 18 10 19 9 21 4 22 5 23
REMARK SMILES IDX 97 24 6 25 7 26 8 27 3 28 2 29 1 30 98 31 99 32 26 33 27 34
REMARK SMILES IDX 28 35 29 36 30 37 31 39 32 40 33 41 94 42 34 43 93 44 35 45
REMARK SMILES IDX 36 46 37 47 87 48 38 49 92 50 86 51 88 52 39 53 91 54 85 55
REMARK SMILES IDX 84 56 40 58 72 59 52 60 71 61 53 62 56 63 70 64 89 65 54 66
REMARK SMILES IDX 55 67 69 69 90 70 57 71 41 72 42 73 50 74 43 75 45 76 51 77
REMARK SMILES IDX 44 78 46 79 47 80 48 81 49 82 73 83 74 84 82 85 75 86 77 87
REMARK SMILES IDX 83 88 76 89 78 90 79 91 80 92 81 93 58 94 59 95 67 96 60 97
REMARK SMILES IDX 62 98 68 99 61 100 63 101 64 102 65 103 66 104
REMARK H PARENT 24 5 10 20 29 38 88 57 56 68
REMARK Flexibility Score: inf
ROOT
ATOM      1  C   UNL     1      -0.379   0.852   6.378  1.00  0.00     0.116 C 
ENDROOT
BRANCH   1   2
ATOM      2  N   UNL     1      -1.689   0.302   6.691  1.00  0.00    -0.352 N 
ATOM      3  C   UNL     1      -2.957   0.558   6.213  1.00  0.00     0.251 C 
ATOM      4  O   UNL     1      -3.857  -0.212   6.549  1.00  0.00    -0.269 OA
ATOM      5  H   UNL     1      -1.665  -0.394   7.387  1.00  0.00     0.163 HD
BRANCH   3   6
ATOM      6  C   UNL     1      -3.299   1.708   5.322  1.00  0.00     0.040 A 
ATOM      7  C   UNL     1      -2.675   3.797   4.184  1.00  0.00     0.018 A 
ATOM      8  C   UNL     1      -3.958   3.888   3.649  1.00  0.00     0.012 A 
ATOM      9  C   UNL     1      -2.410   2.736   5.048  1.00  0.00     0.025 A 
ATOM     10  C   UNL     1      -4.899   2.882   3.919  1.00  0.00     0.002 A 
ATOM     11  C   UNL     1      -4.565   1.790   4.736  1.00  0.00     0.014 A 
BRANCH   7  12
ATOM     12  C   UNL     1      -1.518   4.590   3.764  1.00  0.00     0.134 A 
ATOM     13  C   UNL     1      -0.537   6.109   2.530  1.00  0.00     0.147 A 
ATOM     14  C   UNL     1       0.478   5.325   3.032  1.00  0.00     0.053 A 
ATOM     15  O   UNL     1      -1.745   5.722   3.049  1.00  0.00    -0.455 OA
ATOM     16  C   UNL     1      -0.154   4.341   3.818  1.00  0.00     0.051 A 
BRANCH  13  17
ATOM     17  C   UNL     1      -0.570   7.144   1.549  1.00  0.00     0.180 C 
ATOM     18  N   UNL     1      -0.045   7.185   0.359  1.00  0.00    -0.178 NA
BRANCH  18  19
ATOM     19  N   UNL     1       0.658   6.157  -0.207  1.00  0.00    -0.260 N 
ATOM     20  H   UNL     1       1.570   6.361  -0.516  1.00  0.00     0.192 HD
BRANCH  19  21
ATOM     21  C   UNL     1       0.196   4.811  -0.397  1.00  0.00     0.164 A 
ATOM     22  C   UNL     1       0.629   2.569  -1.285  1.00  0.00     0.001 A 
ATOM     23  C   UNL     1      -0.478   2.125  -0.576  1.00  0.00     0.031 A 
ATOM     24  C   UNL     1       0.940   3.943  -1.230  1.00  0.00     0.102 A 
ATOM     25  C   UNL     1      -1.154   3.003   0.240  1.00  0.00     0.040 A 
ATOM     26  C   UNL     1      -2.124   2.411   1.216  1.00  0.00     0.067 C 
ATOM     27  N   UNL     1      -0.847   4.323   0.320  1.00  0.00    -0.233 NA
BRANCH  22  28
ATOM     28  C   UNL     1       1.474   1.561  -2.035  1.00  0.00     0.196 C 
BRANCH  28  29
ATOM     29  O   UNL     1       1.158   0.208  -1.678  1.00  0.00    -0.380 OA
ATOM     30  C   UNL     1       1.710  -0.202  -0.427  1.00  0.00     0.195 C 
ENDBRANCH  28  29
ENDBRANCH  22  28
BRANCH  24  31
ATOM     31  C   UNL     1       1.980   4.464  -2.066  1.00  0.00     0.103 C 
ATOM     32  N   UNL     1       2.787   4.905  -2.769  1.00  0.00    -0.192 NA
ENDBRANCH  24  31
ENDBRANCH  19  21
ENDBRANCH  18  19
ENDBRANCH  13  17
ENDBRANCH   7  12
ENDBRANCH   3   6
ENDBRANCH   1   2
BRANCH   1  33
ATOM     33  C   UNL     1      -0.037   2.088   7.229  1.00  0.00     0.023 C 
BRANCH  33  34
ATOM     34  C   UNL     1       0.631   1.795   8.563  1.00  0.00     0.023 C 
BRANCH  34  35
ATOM     35  C   UNL     1       1.922   1.005   8.453  1.00  0.00     0.116 C 
BRANCH  35  36
ATOM     36  N   UNL     1       2.906   1.622   7.574  1.00  0.00    -0.352 N 
ATOM     37  C   UNL     1       4.275   1.573   7.685  1.00  0.00     0.251 C 
ATOM     38  H   UNL     1       2.550   2.134   6.812  1.00  0.00     0.163 HD
ATOM     39  O   UNL     1       4.983   2.248   6.946  1.00  0.00    -0.269 OA
BRANCH  37  40
ATOM     40  C   UNL     1       4.867   0.722   8.736  1.00  0.00     0.039 A 
ATOM     41  C   UNL     1       5.833   1.268   9.579  1.00  0.00     0.014 A 
ATOM     42  C   UNL     1       4.410  -0.586   8.929  1.00  0.00     0.014 A 
ATOM     43  C   UNL     1       6.306   0.510  10.649  1.00  0.00     0.010 A 
ATOM     44  C   UNL     1       4.803  -1.294  10.058  1.00  0.00     0.010 A 
ATOM     45  C   UNL     1       5.768  -0.762  10.921  1.00  0.00    -0.014 A 
BRANCH  45  46
ATOM     46  C   UNL     1       6.220  -1.527  12.111  1.00  0.00     0.031 A 
ATOM     47  C   UNL     1       6.881  -2.872  11.952  1.00  0.00     0.074 A 
ATOM     48  C   UNL     1       6.026  -1.008  13.340  1.00  0.00     0.049 A 
ATOM     49  N   UNL     1       7.400  -3.643  12.872  1.00  0.00    -0.248 NA
ATOM     50  C   UNL     1       6.955  -3.435  10.593  1.00  0.00     0.031 C 
ATOM     51  C   UNL     1       5.316   0.242  13.629  1.00  0.00     0.029 A 
ATOM     52  N   UNL     1       6.409  -1.462  14.575  1.00  0.00    -0.354 N 
ATOM     53  C   UNL     1       7.858  -4.775  12.207  1.00  0.00     0.074 A 
ATOM     54  C   UNL     1       7.498  -4.623  10.816  1.00  0.00     0.031 C 
ATOM     55  C   UNL     1       5.351   0.473  14.951  1.00  0.00     0.029 A 
ATOM     56  C   UNL     1       6.047  -0.627  15.607  1.00  0.00     0.049 A 
ATOM     57  H   UNL     1       6.898  -2.306  14.712  1.00  0.00     0.167 HD
ATOM     58  C   UNL     1       8.555  -5.826  12.700  1.00  0.00     0.034 A 
ATOM     59  C   UNL     1       6.252  -0.739  16.934  1.00  0.00     0.034 A 
ATOM     60  C   UNL     1       8.922  -5.970  14.082  1.00  0.00     0.049 A 
ATOM     61  C   UNL     1       7.028  -1.921  17.448  1.00  0.00     0.074 A 
ATOM     62  C   UNL     1       9.662  -6.978  14.674  1.00  0.00     0.029 A 
ATOM     63  N   UNL     1       8.573  -5.086  15.090  1.00  0.00    -0.354 N 
ATOM     64  N   UNL     1       7.575  -2.908  16.780  1.00  0.00    -0.248 NA
ATOM     65  C   UNL     1       7.251  -1.982  18.899  1.00  0.00     0.031 C 
ATOM     66  C   UNL     1       9.731  -6.721  16.047  1.00  0.00     0.029 A 
ATOM     67  C   UNL     1       9.079  -5.526  16.301  1.00  0.00     0.049 A 
ATOM     68  H   UNL     1       8.043  -4.266  14.964  1.00  0.00     0.167 HD
ATOM     69  C   UNL     1       8.244  -3.679  17.724  1.00  0.00     0.074 A 
ATOM     70  C   UNL     1       8.064  -3.022  19.002  1.00  0.00     0.031 C 
ATOM     71  C   UNL     1       8.931  -4.837  17.556  1.00  0.00     0.034 A 
BRANCH  58  72
ATOM     72  C   UNL     1       9.022  -6.877  11.725  1.00  0.00     0.023 A 
ATOM     73  C   UNL     1      10.040  -6.560  10.801  1.00  0.00     0.012 A 
ATOM     74  C   UNL     1       8.520  -8.191  11.774  1.00  0.00     0.148 A 
ATOM     75  C   UNL     1      10.532  -7.526   9.925  1.00  0.00     0.002 A 
ATOM     76  C   UNL     1       9.049  -9.161  10.931  1.00  0.00     0.091 A 
ATOM     77  F   UNL     1       7.542  -8.469  12.648  1.00  0.00    -0.205 F 
ATOM     78  C   UNL     1      10.046  -8.828   9.998  1.00  0.00     0.022 A 
BRANCH  76  79
ATOM     79  S   UNL     1       8.550 -10.885  10.994  1.00  0.00     0.127 S 
ATOM     80  O   UNL     1       7.950 -11.067   9.672  1.00  0.00    -0.237 OA
ATOM     81  O   UNL     1       9.830 -11.566  11.182  1.00  0.00    -0.237 OA
ATOM     82  O   UNL     1       7.624 -10.998  12.112  1.00  0.00    -0.744 OA
ENDBRANCH  76  79
ENDBRANCH  58  72
BRANCH  59  83
ATOM     83  C   UNL     1       5.747   0.302  17.876  1.00  0.00     0.023 A 
ATOM     84  C   UNL     1       6.657   1.068  18.633  1.00  0.00     0.012 A 
ATOM     85  C   UNL     1       4.366   0.500  18.062  1.00  0.00     0.148 A 
ATOM     86  C   UNL     1       6.200   1.960  19.605  1.00  0.00     0.002 A 
ATOM     87  C   UNL     1       3.918   1.438  18.983  1.00  0.00     0.091 A 
ATOM     88  F   UNL     1       3.515  -0.241  17.339  1.00  0.00    -0.205 F 
ATOM     89  C   UNL     1       4.832   2.148  19.776  1.00  0.00     0.022 A 
BRANCH  87  90
ATOM     90  S   UNL     1       2.178   1.835  19.174  1.00  0.00     0.127 S 
ATOM     91  O   UNL     1       1.877   1.243  20.474  1.00  0.00    -0.237 OA
ATOM     92  O   UNL     1       2.200   3.298  19.151  1.00  0.00    -0.237 OA
ATOM     93  O   UNL     1       1.510   1.229  18.030  1.00  0.00    -0.744 OA
ENDBRANCH  87  90
ENDBRANCH  59  83
BRANCH  71  94
ATOM     94  C   UNL     1       9.591  -5.429  18.775  1.00  0.00     0.023 A 
ATOM     95  C   UNL     1       8.809  -5.946  19.829  1.00  0.00     0.012 A 
ATOM     96  C   UNL     1      10.996  -5.483  18.868  1.00  0.00     0.148 A 
ATOM     97  C   UNL     1       9.414  -6.442  20.983  1.00  0.00     0.002 A 
ATOM     98  C   UNL     1      11.591  -6.037  19.994  1.00  0.00     0.091 A 
ATOM     99  F   UNL     1      11.725  -4.977  17.863  1.00  0.00    -0.205 F 
ATOM    100  C   UNL     1      10.803  -6.495  21.061  1.00  0.00     0.022 A 
BRANCH  98 101
ATOM    101  S   UNL     1      13.369  -6.243  20.139  1.00  0.00     0.127 S 
ATOM    102  O   UNL     1      13.702  -5.239  21.149  1.00  0.00    -0.237 OA
ATOM    103  O   UNL     1      13.482  -7.629  20.595  1.00  0.00    -0.237 OA
ATOM    104  O   UNL     1      13.913  -5.997  18.811  1.00  0.00    -0.744 OA
ENDBRANCH  98 101
ENDBRANCH  71  94
ENDBRANCH  45  46
ENDBRANCH  37  40
ENDBRANCH  35  36
ENDBRANCH  34  35
ENDBRANCH  33  34
ENDBRANCH   1  33
TORSDOF 21
