REMARK SMILES O=C(NCCCCNC(=O)C1(NC(=O)c2c[nH]c(=O)c(Cl)c2)CCCCC1)c1ccc(-c2c3nc(c(-c4cccc(S(=O)(=O)[O-])c4F)c4ccc([nH]4)c(-c4cccc(S(=O)(=O)[O-])c4F)c4nc(c(-c5cccc(S(=O)(=O)[O-])c5F)c5ccc2[nH]5)C=C4)C=C3)cc1
REMARK SMILES IDX 5 1 4 2 3 3 1 4 2 5 28 7 29 8 90 9 30 10 89 11 31 12 32 13
REMARK SMILES IDX 33 14 83 15 34 16 88 17 82 18 84 19 35 20 87 21 81 22 80 23
REMARK SMILES IDX 36 25 68 26 48 27 67 28 49 29 52 30 66 31 85 32 50 33 51 34
REMARK SMILES IDX 65 36 86 37 53 38 37 39 38 40 46 41 39 42 41 43 47 44 40 45
REMARK SMILES IDX 42 46 43 47 44 48 45 49 69 50 70 51 78 52 71 53 73 54 79 55
REMARK SMILES IDX 72 56 74 57 75 58 76 59 77 60 54 61 55 62 63 63 56 64 58 65
REMARK SMILES IDX 64 66 57 67 59 68 60 69 61 70 62 71 6 72 7 73 8 74 9 75
REMARK SMILES IDX 10 77 11 78 23 79 27 80 24 81 26 82 25 83 12 84 13 85 14 87
REMARK SMILES IDX 15 88 16 89 22 90 17 91 20 92 18 93 21 95 19 96
REMARK H PARENT 3 6 84 24 52 35 8 76 12 86 17 94
REMARK Flexibility Score: inf
ROOT
ATOM      1  C   UNL     1       4.507   2.197  -1.162  1.00  0.00     0.023 C 
ENDROOT
BRANCH   1   2
ATOM      2  C   UNL     1       4.266   1.242  -0.014  1.00  0.00     0.116 C 
BRANCH   2   3
ATOM      3  N   UNL     1       2.854   1.040   0.247  1.00  0.00    -0.352 N 
ATOM      4  O   UNL     1       0.937  -0.137   0.351  1.00  0.00    -0.269 OA
ATOM      5  C   UNL     1       2.162  -0.146   0.308  1.00  0.00     0.251 C 
ATOM      6  H   UNL     1       2.323   1.855   0.399  1.00  0.00     0.163 HD
BRANCH   5   7
ATOM      7  C   UNL     1       2.915  -1.419   0.292  1.00  0.00     0.039 A 
ATOM      8  C   UNL     1       4.072  -1.562   1.064  1.00  0.00     0.014 A 
ATOM      9  C   UNL     1       2.476  -2.466  -0.520  1.00  0.00     0.014 A 
ATOM     10  C   UNL     1       4.864  -2.691   0.917  1.00  0.00     0.010 A 
ATOM     11  C   UNL     1       3.218  -3.648  -0.582  1.00  0.00     0.010 A 
ATOM     12  C   UNL     1       4.427  -3.762   0.122  1.00  0.00    -0.014 A 
BRANCH  12  13
ATOM     13  C   UNL     1       5.191  -5.033   0.149  1.00  0.00     0.031 A 
ATOM     14  C   UNL     1       5.830  -5.597  -1.086  1.00  0.00     0.074 A 
ATOM     15  C   UNL     1       5.286  -5.683   1.327  1.00  0.00     0.049 A 
ATOM     16  N   UNL     1       6.524  -6.698  -1.216  1.00  0.00    -0.248 NA
ATOM     17  C   UNL     1       5.665  -4.841  -2.338  1.00  0.00     0.031 C 
ATOM     18  C   UNL     1       4.660  -5.246   2.580  1.00  0.00     0.029 A 
ATOM     19  N   UNL     1       5.936  -6.838   1.670  1.00  0.00    -0.354 N 
ATOM     20  C   UNL     1       6.842  -6.794  -2.565  1.00  0.00     0.074 A 
ATOM     21  C   UNL     1       6.263  -5.637  -3.216  1.00  0.00     0.031 C 
ATOM     22  C   UNL     1       4.983  -6.102   3.558  1.00  0.00     0.029 A 
ATOM     23  C   UNL     1       5.780  -7.181   2.993  1.00  0.00     0.049 A 
ATOM     24  H   UNL     1       6.464  -7.371   1.032  1.00  0.00     0.167 HD
ATOM     25  C   UNL     1       7.560  -7.754  -3.197  1.00  0.00     0.034 A 
ATOM     26  C   UNL     1       6.210  -8.258   3.676  1.00  0.00     0.034 A 
ATOM     27  C   UNL     1       8.161  -8.880  -2.530  1.00  0.00     0.049 A 
ATOM     28  C   UNL     1       7.029  -9.286   2.953  1.00  0.00     0.074 A 
ATOM     29  C   UNL     1       8.960  -9.873  -3.069  1.00  0.00     0.029 A 
ATOM     30  N   UNL     1       8.026  -9.168  -1.179  1.00  0.00    -0.354 N 
ATOM     31  N   UNL     1       7.420  -9.294   1.702  1.00  0.00    -0.248 NA
ATOM     32  C   UNL     1       7.486 -10.439   3.739  1.00  0.00     0.031 C 
ATOM     33  C   UNL     1       9.291 -10.771  -2.049  1.00  0.00     0.029 A 
ATOM     34  C   UNL     1       8.718 -10.326  -0.869  1.00  0.00     0.049 A 
ATOM     35  H   UNL     1       7.513  -8.627  -0.536  1.00  0.00     0.167 HD
ATOM     36  C   UNL     1       8.189 -10.440   1.553  1.00  0.00     0.074 A 
ATOM     37  C   UNL     1       8.232 -11.085   2.852  1.00  0.00     0.031 C 
ATOM     38  C   UNL     1       8.788 -10.927   0.439  1.00  0.00     0.034 A 
BRANCH  25  39
ATOM     39  C   UNL     1       7.771  -7.617  -4.683  1.00  0.00     0.023 A 
ATOM     40  C   UNL     1       8.671  -6.649  -5.173  1.00  0.00     0.012 A 
ATOM     41  C   UNL     1       7.140  -8.493  -5.589  1.00  0.00     0.148 A 
ATOM     42  C   UNL     1       8.921  -6.538  -6.541  1.00  0.00     0.002 A 
ATOM     43  C   UNL     1       7.423  -8.402  -6.948  1.00  0.00     0.091 A 
ATOM     44  F   UNL     1       6.271  -9.393  -5.108  1.00  0.00    -0.205 F 
ATOM     45  C   UNL     1       8.306  -7.421  -7.426  1.00  0.00     0.022 A 
BRANCH  43  46
ATOM     46  S   UNL     1       6.739  -9.542  -8.158  1.00  0.00     0.127 S 
ATOM     47  O   UNL     1       5.770  -8.692  -8.848  1.00  0.00    -0.237 OA
ATOM     48  O   UNL     1       7.917  -9.893  -8.953  1.00  0.00    -0.237 OA
ATOM     49  O   UNL     1       6.173 -10.645  -7.394  1.00  0.00    -0.744 OA
ENDBRANCH  43  46
ENDBRANCH  25  39
BRANCH  26  50
ATOM     50  C   UNL     1       5.904  -8.380   5.127  1.00  0.00     0.023 A 
ATOM     51  C   UNL     1       6.942  -8.248   6.068  1.00  0.00     0.012 A 
ATOM     52  C   UNL     1       4.582  -8.557   5.582  1.00  0.00     0.148 A 
ATOM     53  C   UNL     1       6.673  -8.314   7.436  1.00  0.00     0.002 A 
ATOM     54  C   UNL     1       4.313  -8.559   6.945  1.00  0.00     0.091 A 
ATOM     55  F   UNL     1       3.608  -8.693   4.670  1.00  0.00    -0.205 F 
ATOM     56  C   UNL     1       5.359  -8.455   7.874  1.00  0.00     0.022 A 
BRANCH  54  57
ATOM     57  S   UNL     1       2.635  -8.579   7.587  1.00  0.00     0.127 S 
ATOM     58  O   UNL     1       2.515  -9.952   8.067  1.00  0.00    -0.237 OA
ATOM     59  O   UNL     1       2.697  -7.561   8.636  1.00  0.00    -0.237 OA
ATOM     60  O   UNL     1       1.784  -8.220   6.460  1.00  0.00    -0.744 OA
ENDBRANCH  54  57
ENDBRANCH  26  50
BRANCH  38  61
ATOM     61  C   UNL     1       9.563 -12.208   0.580  1.00  0.00     0.023 A 
ATOM     62  C   UNL     1       8.874 -13.428   0.730  1.00  0.00     0.012 A 
ATOM     63  C   UNL     1      10.970 -12.211   0.505  1.00  0.00     0.148 A 
ATOM     64  C   UNL     1       9.574 -14.628   0.835  1.00  0.00     0.002 A 
ATOM     65  C   UNL     1      11.658 -13.416   0.563  1.00  0.00     0.091 A 
ATOM     66  F   UNL     1      11.607 -11.037   0.386  1.00  0.00    -0.205 F 
ATOM     67  C   UNL     1      10.964 -14.624   0.740  1.00  0.00     0.022 A 
BRANCH  65  68
ATOM     68  S   UNL     1      13.440 -13.513   0.359  1.00  0.00     0.127 S 
ATOM     69  O   UNL     1      13.883 -13.774   1.728  1.00  0.00    -0.237 OA
ATOM     70  O   UNL     1      13.587 -14.646  -0.556  1.00  0.00    -0.237 OA
ATOM     71  O   UNL     1      13.849 -12.231  -0.198  1.00  0.00    -0.744 OA
ENDBRANCH  65  68
ENDBRANCH  38  61
ENDBRANCH  12  13
ENDBRANCH   5   7
ENDBRANCH   2   3
ENDBRANCH   1   2
BRANCH   1  72
ATOM     72  C   UNL     1       3.993   3.612  -0.948  1.00  0.00     0.023 C 
BRANCH  72  73
ATOM     73  C   UNL     1       4.200   4.251   0.427  1.00  0.00     0.116 C 
BRANCH  73  74
ATOM     74  N   UNL     1       5.571   4.383   0.916  1.00  0.00    -0.354 N 
ATOM     75  C   UNL     1       6.502   5.394   0.832  1.00  0.00     0.245 C 
ATOM     76  H   UNL     1       5.893   3.591   1.404  1.00  0.00     0.163 HD
ATOM     77  O   UNL     1       7.553   5.243   1.460  1.00  0.00    -0.272 OA
BRANCH  75  78
ATOM     78  C   UNL     1       6.202   6.701   0.058  1.00  0.00     0.119 C 
ATOM     79  C   UNL     1       5.145   7.408   0.973  1.00  0.00     0.038 C 
ATOM     80  C   UNL     1       7.409   7.670  -0.048  1.00  0.00     0.038 C 
ATOM     81  C   UNL     1       4.734   8.805   0.547  1.00  0.00     0.003 C 
ATOM     82  C   UNL     1       6.996   9.091  -0.483  1.00  0.00     0.003 C 
ATOM     83  C   UNL     1       5.949   9.704   0.442  1.00  0.00     0.000 C 
BRANCH  78  84
ATOM     84  N   UNL     1       5.710   6.411  -1.313  1.00  0.00    -0.338 N 
ATOM     85  C   UNL     1       6.312   5.899  -2.434  1.00  0.00     0.253 C 
ATOM     86  H   UNL     1       4.760   6.631  -1.444  1.00  0.00     0.164 HD
ATOM     87  O   UNL     1       5.842   6.293  -3.508  1.00  0.00    -0.269 OA
BRANCH  85  88
ATOM     88  C   UNL     1       7.436   4.878  -2.488  1.00  0.00     0.057 A 
ATOM     89  C   UNL     1       7.606   3.886  -1.599  1.00  0.00     0.099 A 
ATOM     90  C   UNL     1       8.231   4.767  -3.719  1.00  0.00     0.041 A 
ATOM     91  N   UNL     1       8.496   2.857  -1.778  1.00  0.00    -0.327 N 
ATOM     92  C   UNL     1       9.082   3.749  -3.941  1.00  0.00     0.106 A 
ATOM     93  C   UNL     1       9.270   2.689  -2.902  1.00  0.00     0.266 A 
ATOM     94  H   UNL     1       8.586   2.196  -1.055  1.00  0.00     0.169 HD
ATOM     95  Cl  UNL     1       9.954   3.592  -5.413  1.00  0.00    -0.078 Cl
ATOM     96  O   UNL     1      10.024   1.738  -3.017  1.00  0.00    -0.268 OA
ENDBRANCH  85  88
ENDBRANCH  78  84
ENDBRANCH  75  78
ENDBRANCH  73  74
ENDBRANCH  72  73
ENDBRANCH   1  72
TORSDOF 16
