REMARK SMILES CC[C@](C)(NC(=O)CCOc1ccc(Cl)c(Cl)c1)C(=O)NCCCCNC(=O)c1ccc(-c2c3nc(c(-c4cccc(S(=O)(=O)[O-])c4F)c4ccc([nH]4)c(-c4cccc(S(=O)(=O)[O-])c4F)c4nc(c(-c5cccc(S(=O)(=O)[O-])c5F)c5ccc2[nH]5)C=C4)C=C3)cc1
REMARK SMILES IDX 22 1 21 2 19 3 20 4 3 6 4 7 2 8 1 9 5 10 6 11 7 13 8 14 9 15
REMARK SMILES IDX 10 16 11 17 12 18 18 19 13 20 16 21 14 22 17 23 15 24 23 25
REMARK SMILES IDX 24 26 25 27 26 28 27 29 28 31 29 32 30 33 91 34 31 35 90 36
REMARK SMILES IDX 32 37 33 38 34 39 84 40 35 41 89 42 83 43 85 44 36 45 88 46
REMARK SMILES IDX 82 47 81 48 37 50 69 51 49 52 68 53 50 54 53 55 67 56 86 57
REMARK SMILES IDX 51 58 52 59 66 61 87 62 54 63 38 64 39 65 47 66 40 67 42 68
REMARK SMILES IDX 48 69 41 70 43 71 44 72 45 73 46 74 70 75 71 76 79 77 72 78
REMARK SMILES IDX 74 79 80 80 73 81 75 82 76 83 77 84 78 85 55 86 56 87 64 88
REMARK SMILES IDX 57 89 59 90 65 91 58 92 60 93 61 94 62 95 63 96
REMARK H PARENT 21 5 5 12 26 30 85 49 53 60
REMARK Flexibility Score: inf
ROOT
ATOM      1  C   UNL     1       2.456   3.169  -4.604  1.00  0.00     0.116 C 
ENDROOT
BRANCH   1   2
ATOM      2  N   UNL     1       3.185   2.291  -3.708  1.00  0.00    -0.354 N 
ATOM      3  C   UNL     1       2.745   1.518  -2.672  1.00  0.00     0.245 C 
ATOM      4  O   UNL     1       3.534   0.685  -2.220  1.00  0.00    -0.272 OA
ATOM      5  H   UNL     1       4.154   2.246  -3.873  1.00  0.00     0.163 HD
BRANCH   3   6
ATOM      6  C   UNL     1       1.270   1.597  -2.177  1.00  0.00     0.116 C 
ATOM      7  C   UNL     1       1.145   0.893  -0.821  1.00  0.00     0.045 C 
BRANCH   6   8
ATOM      8  C   UNL     1       0.382   0.906  -3.275  1.00  0.00     0.035 C 
ATOM      9  C   UNL     1      -0.307  -0.402  -2.900  1.00  0.00     0.007 C 
ENDBRANCH   6   8
BRANCH   6  10
ATOM     10  N   UNL     1       0.848   3.017  -2.054  1.00  0.00    -0.342 N 
ATOM     11  C   UNL     1       1.360   4.066  -1.354  1.00  0.00     0.224 C 
ATOM     12  H   UNL     1       0.046   3.242  -2.578  1.00  0.00     0.164 HD
ATOM     13  O   UNL     1       0.765   5.144  -1.452  1.00  0.00    -0.275 OA
BRANCH  11  14
ATOM     14  C   UNL     1       2.647   3.961  -0.568  1.00  0.00     0.141 C 
BRANCH  14  15
ATOM     15  C   UNL     1       2.491   4.418   0.884  1.00  0.00     0.239 C 
BRANCH  15  16
ATOM     16  O   UNL     1       1.839   3.456   1.730  1.00  0.00    -0.493 OA
BRANCH  16  17
ATOM     17  C   UNL     1       0.480   3.336   1.658  1.00  0.00     0.120 A 
ATOM     18  C   UNL     1      -0.390   4.285   1.129  1.00  0.00     0.048 A 
ATOM     19  C   UNL     1      -0.037   2.119   2.109  1.00  0.00     0.068 A 
ATOM     20  C   UNL     1      -1.725   3.960   0.881  1.00  0.00     0.026 A 
ATOM     21  C   UNL     1      -1.383   1.799   1.898  1.00  0.00     0.063 A 
ATOM     22  C   UNL     1      -2.219   2.708   1.243  1.00  0.00     0.059 A 
ATOM     23  Cl  UNL     1      -1.933   0.243   2.410  1.00  0.00    -0.083 Cl
ATOM     24  Cl  UNL     1      -3.854   2.339   0.825  1.00  0.00    -0.083 Cl
ENDBRANCH  16  17
ENDBRANCH  15  16
ENDBRANCH  14  15
ENDBRANCH  11  14
ENDBRANCH   6  10
ENDBRANCH   3   6
ENDBRANCH   1   2
BRANCH   1  25
ATOM     25  C   UNL     1       2.764   4.651  -4.402  1.00  0.00     0.023 C 
BRANCH  25  26
ATOM     26  C   UNL     1       4.242   5.023  -4.459  1.00  0.00     0.023 C 
BRANCH  26  27
ATOM     27  C   UNL     1       4.981   4.476  -5.667  1.00  0.00     0.116 C 
BRANCH  27  28
ATOM     28  N   UNL     1       4.307   4.769  -6.925  1.00  0.00    -0.352 N 
ATOM     29  C   UNL     1       4.873   5.069  -8.137  1.00  0.00     0.251 C 
ATOM     30  H   UNL     1       3.323   4.749  -6.902  1.00  0.00     0.163 HD
ATOM     31  O   UNL     1       4.174   5.384  -9.094  1.00  0.00    -0.269 OA
BRANCH  29  32
ATOM     32  C   UNL     1       6.341   5.042  -8.246  1.00  0.00     0.039 A 
ATOM     33  C   UNL     1       6.998   6.172  -8.734  1.00  0.00     0.014 A 
ATOM     34  C   UNL     1       7.057   3.936  -7.781  1.00  0.00     0.014 A 
ATOM     35  C   UNL     1       8.391   6.211  -8.709  1.00  0.00     0.010 A 
ATOM     36  C   UNL     1       8.437   4.016  -7.673  1.00  0.00     0.010 A 
ATOM     37  C   UNL     1       9.117   5.146  -8.151  1.00  0.00    -0.014 A 
BRANCH  37  38
ATOM     38  C   UNL     1      10.596   5.180  -8.081  1.00  0.00     0.031 A 
ATOM     39  C   UNL     1      11.397   4.153  -8.832  1.00  0.00     0.074 A 
ATOM     40  C   UNL     1      11.204   6.074  -7.278  1.00  0.00     0.049 A 
ATOM     41  N   UNL     1      12.691   3.973  -8.854  1.00  0.00    -0.248 NA
ATOM     42  C   UNL     1      10.643   3.176  -9.637  1.00  0.00     0.031 C 
ATOM     43  C   UNL     1      10.521   7.055  -6.430  1.00  0.00     0.029 A 
ATOM     44  N   UNL     1      12.535   6.284  -7.022  1.00  0.00    -0.354 N 
ATOM     45  C   UNL     1      12.901   2.846  -9.638  1.00  0.00     0.074 A 
ATOM     46  C   UNL     1      11.602   2.354 -10.035  1.00  0.00     0.031 C 
ATOM     47  C   UNL     1      11.438   7.765  -5.753  1.00  0.00     0.029 A 
ATOM     48  C   UNL     1      12.769   7.276  -6.099  1.00  0.00     0.049 A 
ATOM     49  H   UNL     1      13.255   5.774  -7.459  1.00  0.00     0.167 HD
ATOM     50  C   UNL     1      14.073   2.293 -10.027  1.00  0.00     0.034 A 
ATOM     51  C   UNL     1      13.929   7.736  -5.590  1.00  0.00     0.034 A 
ATOM     52  C   UNL     1      15.360   2.823  -9.672  1.00  0.00     0.049 A 
ATOM     53  C   UNL     1      15.220   7.147  -6.090  1.00  0.00     0.074 A 
ATOM     54  C   UNL     1      16.610   2.398 -10.084  1.00  0.00     0.029 A 
ATOM     55  N   UNL     1      15.560   3.900  -8.821  1.00  0.00    -0.354 N 
ATOM     56  N   UNL     1      15.405   6.184  -6.961  1.00  0.00    -0.248 NA
ATOM     57  C   UNL     1      16.464   7.734  -5.572  1.00  0.00     0.031 C 
ATOM     58  C   UNL     1      17.568   3.211  -9.468  1.00  0.00     0.029 A 
ATOM     59  C   UNL     1      16.914   4.154  -8.692  1.00  0.00     0.049 A 
ATOM     60  H   UNL     1      14.845   4.407  -8.374  1.00  0.00     0.167 HD
ATOM     61  C   UNL     1      16.780   6.071  -7.120  1.00  0.00     0.074 A 
ATOM     62  C   UNL     1      17.381   7.082  -6.273  1.00  0.00     0.031 C 
ATOM     63  C   UNL     1      17.486   5.201  -7.885  1.00  0.00     0.034 A 
BRANCH  50  64
ATOM     64  C   UNL     1      14.010   1.092 -10.933  1.00  0.00     0.023 A 
ATOM     65  C   UNL     1      13.582   1.252 -12.268  1.00  0.00     0.012 A 
ATOM     66  C   UNL     1      14.409  -0.182 -10.485  1.00  0.00     0.148 A 
ATOM     67  C   UNL     1      13.513   0.159 -13.130  1.00  0.00     0.002 A 
ATOM     68  C   UNL     1      14.383  -1.259 -11.364  1.00  0.00     0.091 A 
ATOM     69  F   UNL     1      14.790  -0.321  -9.207  1.00  0.00    -0.205 F 
ATOM     70  C   UNL     1      13.923  -1.093 -12.681  1.00  0.00     0.022 A 
BRANCH  68  71
ATOM     71  S   UNL     1      14.963  -2.896 -10.908  1.00  0.00     0.127 S 
ATOM     72  O   UNL     1      13.710  -3.647 -10.845  1.00  0.00    -0.237 OA
ATOM     73  O   UNL     1      15.824  -3.243 -12.040  1.00  0.00    -0.237 OA
ATOM     74  O   UNL     1      15.662  -2.736  -9.641  1.00  0.00    -0.744 OA
ENDBRANCH  68  71
ENDBRANCH  50  64
BRANCH  51  75
ATOM     75  C   UNL     1      13.918   8.860  -4.612  1.00  0.00     0.023 A 
ATOM     76  C   UNL     1      14.384  10.128  -5.009  1.00  0.00     0.012 A 
ATOM     77  C   UNL     1      13.417   8.692  -3.306  1.00  0.00     0.148 A 
ATOM     78  C   UNL     1      14.382  11.200  -4.116  1.00  0.00     0.002 A 
ATOM     79  C   UNL     1      13.366   9.777  -2.439  1.00  0.00     0.091 A 
ATOM     80  F   UNL     1      12.987   7.475  -2.942  1.00  0.00    -0.205 F 
ATOM     81  C   UNL     1      13.864  11.028  -2.835  1.00  0.00     0.022 A 
BRANCH  79  82
ATOM     82  S   UNL     1      12.592   9.678  -0.821  1.00  0.00     0.127 S 
ATOM     83  O   UNL     1      13.750   9.714   0.068  1.00  0.00    -0.237 OA
ATOM     84  O   UNL     1      11.764  10.885  -0.805  1.00  0.00    -0.237 OA
ATOM     85  O   UNL     1      11.833   8.434  -0.826  1.00  0.00    -0.744 OA
ENDBRANCH  79  82
ENDBRANCH  51  75
BRANCH  63  86
ATOM     86  C   UNL     1      18.986   5.319  -7.869  1.00  0.00     0.023 A 
ATOM     87  C   UNL     1      19.709   4.890  -6.739  1.00  0.00     0.012 A 
ATOM     88  C   UNL     1      19.681   5.774  -9.007  1.00  0.00     0.148 A 
ATOM     89  C   UNL     1      21.102   4.942  -6.730  1.00  0.00     0.002 A 
ATOM     90  C   UNL     1      21.070   5.777  -9.008  1.00  0.00     0.091 A 
ATOM     91  F   UNL     1      18.971   6.194 -10.065  1.00  0.00    -0.205 F 
ATOM     92  C   UNL     1      21.782   5.372  -7.867  1.00  0.00     0.022 A 
BRANCH  90  93
ATOM     93  S   UNL     1      22.027   6.221 -10.462  1.00  0.00     0.127 S 
ATOM     94  O   UNL     1      22.547   7.534 -10.086  1.00  0.00    -0.237 OA
ATOM     95  O   UNL     1      23.032   5.158 -10.508  1.00  0.00    -0.237 OA
ATOM     96  O   UNL     1      21.090   6.213 -11.577  1.00  0.00    -0.744 OA
ENDBRANCH  90  93
ENDBRANCH  63  86
ENDBRANCH  37  38
ENDBRANCH  29  32
ENDBRANCH  27  28
ENDBRANCH  26  27
ENDBRANCH  25  26
ENDBRANCH   1  25
TORSDOF 20
