REMARK SMILES O=C(NCCCCNC(=O)c1cccc(Br)c1O[C@@H]1CCOC2(CCC2)C1)c1ccc(-c2c3nc(c(-c4cccc(S(=O)(=O)[O-])c4F)c4ccc([nH]4)c(-c4cccc(S(=O)(=O)[O-])c4F)c4nc(c(-c5cccc(S(=O)(=O)[O-])c5F)c5ccc2[nH]5)C=C4)C=C3)cc1
REMARK SMILES IDX 5 1 4 2 3 3 1 4 2 5 28 7 29 8 90 9 30 10 89 11 31 12 32 13
REMARK SMILES IDX 33 14 83 15 34 16 88 17 82 18 84 19 35 20 87 21 81 22 80 23
REMARK SMILES IDX 36 25 68 26 48 27 67 28 49 29 52 30 66 31 85 32 50 33 51 34
REMARK SMILES IDX 65 36 86 37 53 38 37 39 38 40 46 41 39 42 41 43 47 44 40 45
REMARK SMILES IDX 42 46 43 47 44 48 45 49 69 50 70 51 78 52 71 53 73 54 79 55
REMARK SMILES IDX 72 56 74 57 75 58 76 59 77 60 54 61 55 62 63 63 56 64 58 65
REMARK SMILES IDX 64 66 57 67 59 68 60 69 61 70 62 71 6 72 7 73 8 74 9 75
REMARK SMILES IDX 10 77 11 78 12 79 17 80 13 81 15 82 14 83 16 84 18 85 19 86
REMARK SMILES IDX 20 87 27 88 21 89 23 90 22 91 24 92 26 93 25 94
REMARK H PARENT 3 6 84 24 52 35 8 76
REMARK Flexibility Score: inf
ROOT
ATOM      1  C   UNL     1       4.966   0.703   2.462  1.00  0.00     0.023 C 
ENDROOT
BRANCH   1   2
ATOM      2  C   UNL     1       4.601  -0.256   1.337  1.00  0.00     0.116 C 
BRANCH   2   3
ATOM      3  N   UNL     1       3.163  -0.404   1.169  1.00  0.00    -0.352 N 
ATOM      4  O   UNL     1       1.160  -0.138   0.173  1.00  0.00    -0.269 OA
ATOM      5  C   UNL     1       2.382  -0.108   0.074  1.00  0.00     0.251 C 
ATOM      6  H   UNL     1       2.682  -0.767   1.947  1.00  0.00     0.163 HD
BRANCH   5   7
ATOM      7  C   UNL     1       3.025   0.273  -1.203  1.00  0.00     0.039 A 
ATOM      8  C   UNL     1       4.118  -0.448  -1.690  1.00  0.00     0.014 A 
ATOM      9  C   UNL     1       2.537   1.371  -1.915  1.00  0.00     0.014 A 
ATOM     10  C   UNL     1       4.819   0.020  -2.796  1.00  0.00     0.010 A 
ATOM     11  C   UNL     1       3.186   1.782  -3.083  1.00  0.00     0.010 A 
ATOM     12  C   UNL     1       4.352   1.131  -3.515  1.00  0.00    -0.014 A 
BRANCH  12  13
ATOM     13  C   UNL     1       5.049   1.542  -4.761  1.00  0.00     0.031 A 
ATOM     14  C   UNL     1       5.683   2.898  -4.894  1.00  0.00     0.074 A 
ATOM     15  C   UNL     1       5.077   0.680  -5.796  1.00  0.00     0.049 A 
ATOM     16  N   UNL     1       6.302   3.417  -5.923  1.00  0.00    -0.248 NA
ATOM     17  C   UNL     1       5.604   3.793  -3.730  1.00  0.00     0.031 C 
ATOM     18  C   UNL     1       4.452  -0.645  -5.800  1.00  0.00     0.029 A 
ATOM     19  N   UNL     1       5.628   0.792  -7.046  1.00  0.00    -0.354 N 
ATOM     20  C   UNL     1       6.647   4.711  -5.552  1.00  0.00     0.074 A 
ATOM     21  C   UNL     1       6.163   4.900  -4.201  1.00  0.00     0.031 C 
ATOM     22  C   UNL     1       4.652  -1.222  -6.992  1.00  0.00     0.029 A 
ATOM     23  C   UNL     1       5.364  -0.287  -7.856  1.00  0.00     0.049 A 
ATOM     24  H   UNL     1       6.160   1.569  -7.336  1.00  0.00     0.167 HD
ATOM     25  C   UNL     1       7.313   5.650  -6.268  1.00  0.00     0.034 A 
ATOM     26  C   UNL     1       5.624  -0.492  -9.161  1.00  0.00     0.034 A 
ATOM     27  C   UNL     1       7.808   5.444  -7.605  1.00  0.00     0.049 A 
ATOM     28  C   UNL     1       6.371   0.557  -9.929  1.00  0.00     0.074 A 
ATOM     29  C   UNL     1       8.567   6.301  -8.382  1.00  0.00     0.029 A 
ATOM     30  N   UNL     1       7.574   4.313  -8.374  1.00  0.00    -0.354 N 
ATOM     31  N   UNL     1       6.816   1.718  -9.514  1.00  0.00    -0.248 NA
ATOM     32  C   UNL     1       6.680   0.259 -11.333  1.00  0.00     0.031 C 
ATOM     33  C   UNL     1       8.755   5.707  -9.635  1.00  0.00     0.029 A 
ATOM     34  C   UNL     1       8.151   4.460  -9.624  1.00  0.00     0.049 A 
ATOM     35  H   UNL     1       7.070   3.522  -8.074  1.00  0.00     0.167 HD
ATOM     36  C   UNL     1       7.480   2.280 -10.597  1.00  0.00     0.074 A 
ATOM     37  C   UNL     1       7.395   1.321 -11.680  1.00  0.00     0.031 C 
ATOM     38  C   UNL     1       8.094   3.485 -10.685  1.00  0.00     0.034 A 
BRANCH  25  39
ATOM     39  C   UNL     1       7.558   6.988  -5.616  1.00  0.00     0.023 A 
ATOM     40  C   UNL     1       8.478   7.096  -4.553  1.00  0.00     0.012 A 
ATOM     41  C   UNL     1       6.914   8.149  -6.089  1.00  0.00     0.148 A 
ATOM     42  C   UNL     1       8.720   8.327  -3.943  1.00  0.00     0.002 A 
ATOM     43  C   UNL     1       7.194   9.380  -5.506  1.00  0.00     0.091 A 
ATOM     44  F   UNL     1       6.028   8.029  -7.088  1.00  0.00    -0.205 F 
ATOM     45  C   UNL     1       8.085   9.469  -4.425  1.00  0.00     0.022 A 
BRANCH  43  46
ATOM     46  S   UNL     1       6.489  10.918  -6.111  1.00  0.00     0.127 S 
ATOM     47  O   UNL     1       5.505  11.219  -5.072  1.00  0.00    -0.237 OA
ATOM     48  O   UNL     1       7.651  11.807  -6.125  1.00  0.00    -0.237 OA
ATOM     49  O   UNL     1       5.942  10.617  -7.426  1.00  0.00    -0.744 OA
ENDBRANCH  43  46
ENDBRANCH  25  39
BRANCH  26  50
ATOM     50  C   UNL     1       5.173  -1.759  -9.799  1.00  0.00     0.023 A 
ATOM     51  C   UNL     1       6.118  -2.737 -10.159  1.00  0.00     0.012 A 
ATOM     52  C   UNL     1       3.800  -2.028  -9.972  1.00  0.00     0.148 A 
ATOM     53  C   UNL     1       5.705  -3.955 -10.698  1.00  0.00     0.002 A 
ATOM     54  C   UNL     1       3.393  -3.265 -10.452  1.00  0.00     0.091 A 
ATOM     55  F   UNL     1       2.920  -1.077  -9.627  1.00  0.00    -0.205 F 
ATOM     56  C   UNL     1       4.344  -4.224 -10.832  1.00  0.00     0.022 A 
BRANCH  54  57
ATOM     57  S   UNL     1       1.666  -3.753 -10.516  1.00  0.00     0.127 S 
ATOM     58  O   UNL     1       1.434  -3.841 -11.955  1.00  0.00    -0.237 OA
ATOM     59  O   UNL     1       1.692  -5.038  -9.816  1.00  0.00    -0.237 OA
ATOM     60  O   UNL     1       0.932  -2.704  -9.821  1.00  0.00    -0.744 OA
ENDBRANCH  54  57
ENDBRANCH  26  50
BRANCH  38  61
ATOM     61  C   UNL     1       8.760   3.835 -11.990  1.00  0.00     0.023 A 
ATOM     62  C   UNL     1       7.977   4.162 -13.115  1.00  0.00     0.012 A 
ATOM     63  C   UNL     1      10.164   3.919 -12.075  1.00  0.00     0.148 A 
ATOM     64  C   UNL     1       8.583   4.543 -14.312  1.00  0.00     0.002 A 
ATOM     65  C   UNL     1      10.758   4.349 -13.255  1.00  0.00     0.091 A 
ATOM     66  F   UNL     1      10.890   3.584 -10.998  1.00  0.00    -0.205 F 
ATOM     67  C   UNL     1       9.971   4.649 -14.378  1.00  0.00     0.022 A 
BRANCH  65  68
ATOM     68  S   UNL     1      12.529   4.610 -13.403  1.00  0.00     0.127 S 
ATOM     69  O   UNL     1      12.912   3.540 -14.324  1.00  0.00    -0.237 OA
ATOM     70  O   UNL     1      12.596   5.956 -13.971  1.00  0.00    -0.237 OA
ATOM     71  O   UNL     1      13.070   4.492 -12.056  1.00  0.00    -0.744 OA
ENDBRANCH  65  68
ENDBRANCH  38  61
ENDBRANCH  12  13
ENDBRANCH   5   7
ENDBRANCH   2   3
ENDBRANCH   1   2
BRANCH   1  72
ATOM     72  C   UNL     1       4.596   0.225   3.862  1.00  0.00     0.023 C 
BRANCH  72  73
ATOM     73  C   UNL     1       5.135  -1.150   4.245  1.00  0.00     0.116 C 
BRANCH  73  74
ATOM     74  N   UNL     1       6.584  -1.262   4.127  1.00  0.00    -0.352 N 
ATOM     75  C   UNL     1       7.502  -1.757   5.030  1.00  0.00     0.255 C 
ATOM     76  H   UNL     1       6.963  -0.935   3.279  1.00  0.00     0.163 HD
ATOM     77  O   UNL     1       8.693  -1.794   4.751  1.00  0.00    -0.269 OA
BRANCH  75  78
ATOM     78  C   UNL     1       7.006  -2.284   6.318  1.00  0.00     0.083 A 
ATOM     79  C   UNL     1       6.073  -3.315   6.267  1.00  0.00     0.018 A 
ATOM     80  C   UNL     1       7.420  -1.727   7.550  1.00  0.00     0.146 A 
ATOM     81  C   UNL     1       5.452  -3.715   7.426  1.00  0.00     0.002 A 
ATOM     82  C   UNL     1       6.784  -2.017   8.844  1.00  0.00     0.060 A 
ATOM     83  C   UNL     1       5.759  -3.084   8.645  1.00  0.00     0.019 A 
ATOM     84  Br  UNL     1       7.531  -0.862  11.034  1.00  0.00    -0.047 Br
BRANCH  80  85
ATOM     85  O   UNL     1       8.506  -0.907   7.510  1.00  0.00    -0.488 OA
BRANCH  85  86
ATOM     86  C   UNL     1       8.497  -0.664   8.878  1.00  0.00     0.178 C 
ATOM     87  C   UNL     1       8.775  -2.411   9.690  1.00  0.00     0.074 C 
ATOM     88  C   UNL     1       6.806   0.258   9.052  1.00  0.00     0.080 C 
ATOM     89  C   UNL     1       7.305  -3.191  10.659  1.00  0.00     0.165 C 
ATOM     90  C   UNL     1       5.393  -0.676   9.917  1.00  0.00     0.072 C 
ATOM     91  O   UNL     1       5.734  -2.239  10.778  1.00  0.00    -0.375 OA
ATOM     92  C   UNL     1       4.522   0.260  10.853  1.00  0.00     0.036 C 
ATOM     93  C   UNL     1       4.135  -0.616   8.961  1.00  0.00     0.036 C 
ATOM     94  C   UNL     1       3.274  -0.352  10.193  1.00  0.00     0.006 C 
ENDBRANCH  85  86
ENDBRANCH  80  85
ENDBRANCH  75  78
ENDBRANCH  73  74
ENDBRANCH  72  73
ENDBRANCH   1  72
TORSDOF 16
