REMARK SMILES O=C(NCCCCNC(=O)[C@H]1Cc2c([nH]c3ccccc23)[C@@H](c2ccc(OC(F)(F)F)cc2)[NH2+]1)c1ccc(-c2c3nc(c(-c4cccc(S(=O)(=O)[O-])c4F)c4ccc([nH]4)c(-c4cccc(S(=O)(=O)[O-])c4F)c4nc(c(-c5cccc(S(=O)(=O)[O-])c5F)c5ccc2[nH]5)C=C4)C=C3)cc1
REMARK SMILES IDX 5 1 4 2 3 3 1 4 2 5 35 7 36 8 97 9 37 10 96 11 38 12 39 13
REMARK SMILES IDX 40 14 90 15 41 16 95 17 89 18 91 19 42 20 94 21 88 22 87 23
REMARK SMILES IDX 43 25 75 26 55 27 74 28 56 29 59 30 73 31 92 32 57 33 58 34
REMARK SMILES IDX 72 36 93 37 60 38 44 39 45 40 53 41 46 42 48 43 54 44 47 45
REMARK SMILES IDX 49 46 50 47 51 48 52 49 76 50 77 51 85 52 78 53 80 54 86 55
REMARK SMILES IDX 79 56 81 57 82 58 83 59 84 60 61 61 62 62 70 63 63 64 65 65
REMARK SMILES IDX 71 66 64 67 66 68 67 69 68 70 69 71 6 72 7 73 8 74 9 75
REMARK SMILES IDX 10 77 11 78 12 79 34 80 13 81 22 82 14 85 21 86 15 87 16 88
REMARK SMILES IDX 20 89 17 91 19 92 18 93 23 94 24 95 33 96 25 97 32 98 26 99
REMARK SMILES IDX 27 100 28 101 29 102 30 103 31 104
REMARK H PARENT 3 6 91 24 59 35 8 76 34 83 34 84 15 90
REMARK Flexibility Score: inf
ROOT
ATOM      1  C   UNL     1       4.767  -2.356   1.185  1.00  0.00     0.023 C 
ENDROOT
BRANCH   1   2
ATOM      2  C   UNL     1       4.474  -1.271   0.156  1.00  0.00     0.116 C 
BRANCH   2   3
ATOM      3  N   UNL     1       3.051  -1.099  -0.094  1.00  0.00    -0.352 N 
ATOM      4  O   UNL     1       1.078  -0.015  -0.155  1.00  0.00    -0.269 OA
ATOM      5  C   UNL     1       2.300   0.052  -0.061  1.00  0.00     0.251 C 
ATOM      6  H   UNL     1       2.558  -1.921  -0.317  1.00  0.00     0.163 HD
BRANCH   5   7
ATOM      7  C   UNL     1       2.969   1.359   0.121  1.00  0.00     0.039 A 
ATOM      8  C   UNL     1       4.116   1.681  -0.609  1.00  0.00     0.014 A 
ATOM      9  C   UNL     1       2.448   2.268   1.047  1.00  0.00     0.014 A 
ATOM     10  C   UNL     1       4.822   2.841  -0.310  1.00  0.00     0.010 A 
ATOM     11  C   UNL     1       3.116   3.472   1.287  1.00  0.00     0.010 A 
ATOM     12  C   UNL     1       4.329   3.752   0.639  1.00  0.00    -0.014 A 
BRANCH  12  13
ATOM     13  C   UNL     1       5.066   5.017   0.888  1.00  0.00     0.031 A 
ATOM     14  C   UNL     1       5.683   5.313   2.227  1.00  0.00     0.074 A 
ATOM     15  C   UNL     1       5.178   5.906  -0.118  1.00  0.00     0.049 A 
ATOM     16  N   UNL     1       6.391   6.352   2.592  1.00  0.00    -0.248 NA
ATOM     17  C   UNL     1       5.476   4.325   3.297  1.00  0.00     0.031 C 
ATOM     18  C   UNL     1       4.582   5.748  -1.446  1.00  0.00     0.029 A 
ATOM     19  N   UNL     1       5.827   7.112  -0.185  1.00  0.00    -0.354 N 
ATOM     20  C   UNL     1       6.679   6.166   3.939  1.00  0.00     0.074 A 
ATOM     21  C   UNL     1       6.063   4.916   4.330  1.00  0.00     0.031 C 
ATOM     22  C   UNL     1       4.917   6.801  -2.206  1.00  0.00     0.029 A 
ATOM     23  C   UNL     1       5.711   7.728  -1.408  1.00  0.00     0.049 A 
ATOM     24  H   UNL     1       6.328   7.498   0.569  1.00  0.00     0.167 HD
ATOM     25  C   UNL     1       7.407   6.954   4.767  1.00  0.00     0.034 A 
ATOM     26  C   UNL     1       6.184   8.912  -1.842  1.00  0.00     0.034 A 
ATOM     27  C   UNL     1       8.053   8.175   4.362  1.00  0.00     0.049 A 
ATOM     28  C   UNL     1       7.011   9.750  -0.911  1.00  0.00     0.074 A 
ATOM     29  C   UNL     1       8.873   9.004   5.108  1.00  0.00     0.029 A 
ATOM     30  N   UNL     1       7.947   8.748   3.103  1.00  0.00    -0.354 N 
ATOM     31  N   UNL     1       7.387   9.489   0.317  1.00  0.00    -0.248 NA
ATOM     32  C   UNL     1       7.501  11.033  -1.433  1.00  0.00     0.031 C 
ATOM     33  C   UNL     1       9.250  10.086   4.304  1.00  0.00     0.029 A 
ATOM     34  C   UNL     1       8.676   9.925   3.053  1.00  0.00     0.049 A 
ATOM     35  H   UNL     1       7.429   8.373   2.354  1.00  0.00     0.167 HD
ATOM     36  C   UNL     1       8.176  10.563   0.709  1.00  0.00     0.074 A 
ATOM     37  C   UNL     1       8.244  11.466  -0.423  1.00  0.00     0.031 C 
ATOM     38  C   UNL     1       8.772  10.791   1.905  1.00  0.00     0.034 A 
BRANCH  25  39
ATOM     39  C   UNL     1       7.584   6.497   6.192  1.00  0.00     0.023 A 
ATOM     40  C   UNL     1       8.460   5.428   6.474  1.00  0.00     0.012 A 
ATOM     41  C   UNL     1       6.936   7.155   7.255  1.00  0.00     0.148 A 
ATOM     42  C   UNL     1       8.663   5.002   7.787  1.00  0.00     0.002 A 
ATOM     43  C   UNL     1       7.172   6.749   8.565  1.00  0.00     0.091 A 
ATOM     44  F   UNL     1       6.087   8.153   6.970  1.00  0.00    -0.205 F 
ATOM     45  C   UNL     1       8.028   5.668   8.832  1.00  0.00     0.022 A 
BRANCH  43  46
ATOM     46  S   UNL     1       6.451   7.596   9.976  1.00  0.00     0.127 S 
ATOM     47  O   UNL     1       5.346   6.705  10.323  1.00  0.00    -0.237 OA
ATOM     48  O   UNL     1       7.554   7.600  10.938  1.00  0.00    -0.237 OA
ATOM     49  O   UNL     1       6.073   8.917   9.491  1.00  0.00    -0.744 OA
ENDBRANCH  43  46
ENDBRANCH  25  39
BRANCH  26  50
ATOM     50  C   UNL     1       5.933   9.327  -3.250  1.00  0.00     0.023 A 
ATOM     51  C   UNL     1       6.999   9.324  -4.169  1.00  0.00     0.012 A 
ATOM     52  C   UNL     1       4.637   9.646  -3.699  1.00  0.00     0.148 A 
ATOM     53  C   UNL     1       6.781   9.643  -5.509  1.00  0.00     0.002 A 
ATOM     54  C   UNL     1       4.417   9.907  -5.046  1.00  0.00     0.091 A 
ATOM     55  F   UNL     1       3.639   9.658  -2.803  1.00  0.00    -0.205 F 
ATOM     56  C   UNL     1       5.489   9.920  -5.950  1.00  0.00     0.022 A 
BRANCH  54  57
ATOM     57  S   UNL     1       2.767  10.126  -5.723  1.00  0.00     0.127 S 
ATOM     58  O   UNL     1       2.749  11.559  -6.008  1.00  0.00    -0.237 OA
ATOM     59  O   UNL     1       2.806   9.263  -6.904  1.00  0.00    -0.237 OA
ATOM     60  O   UNL     1       1.854   9.674  -4.682  1.00  0.00    -0.744 OA
ENDBRANCH  54  57
ENDBRANCH  26  50
BRANCH  38  61
ATOM     61  C   UNL     1       9.564  12.062   2.051  1.00  0.00     0.023 A 
ATOM     62  C   UNL     1       8.887  13.291   2.182  1.00  0.00     0.012 A 
ATOM     63  C   UNL     1      10.970  12.036   2.123  1.00  0.00     0.148 A 
ATOM     64  C   UNL     1       9.598  14.478   2.352  1.00  0.00     0.002 A 
ATOM     65  C   UNL     1      11.671  13.218   2.337  1.00  0.00     0.091 A 
ATOM     66  F   UNL     1      11.598  10.861   1.974  1.00  0.00    -0.205 F 
ATOM     67  C   UNL     1      10.987  14.440   2.441  1.00  0.00     0.022 A 
BRANCH  65  68
ATOM     68  S   UNL     1      13.454  13.247   2.551  1.00  0.00     0.127 S 
ATOM     69  O   UNL     1      13.903  13.743   1.251  1.00  0.00    -0.237 OA
ATOM     70  O   UNL     1      13.622  14.193   3.655  1.00  0.00    -0.237 OA
ATOM     71  O   UNL     1      13.838  11.879   2.870  1.00  0.00    -0.744 OA
ENDBRANCH  65  68
ENDBRANCH  38  61
ENDBRANCH  12  13
ENDBRANCH   5   7
ENDBRANCH   2   3
ENDBRANCH   1   2
BRANCH   1  72
ATOM     72  C   UNL     1       4.294  -3.759   0.808  1.00  0.00     0.023 C 
BRANCH  72  73
ATOM     73  C   UNL     1       4.769  -4.256  -0.555  1.00  0.00     0.116 C 
BRANCH  73  74
ATOM     74  N   UNL     1       6.217  -4.313  -0.646  1.00  0.00    -0.351 N 
ATOM     75  C   UNL     1       7.027  -5.376  -0.934  1.00  0.00     0.278 C 
ATOM     76  H   UNL     1       6.683  -3.462  -0.476  1.00  0.00     0.163 HD
ATOM     77  O   UNL     1       8.245  -5.206  -0.859  1.00  0.00    -0.268 OA
BRANCH  75  78
ATOM     78  C   UNL     1       6.386  -6.729  -1.278  1.00  0.00     0.277 C 
ATOM     79  C   UNL     1       5.727  -6.667  -2.677  1.00  0.00     0.114 C 
ATOM     80  N   UNL     1       7.410  -7.806  -1.260  1.00  0.00    -0.325 N 
ATOM     81  C   UNL     1       5.165  -8.011  -2.977  1.00  0.00    -0.006 A 
ATOM     82  C   UNL     1       6.856  -9.164  -1.409  1.00  0.00     0.262 C 
ATOM     83  H   UNL     1       7.910  -7.760  -0.372  1.00  0.00     0.347 HD
ATOM     84  H   UNL     1       8.019  -7.647  -2.063  1.00  0.00     0.347 HD
ATOM     85  C   UNL     1       5.686  -9.133  -2.361  1.00  0.00     0.083 A 
ATOM     86  C   UNL     1       4.131  -8.424  -3.849  1.00  0.00     0.003 A 
ATOM     87  N   UNL     1       4.931 -10.207  -2.753  1.00  0.00    -0.353 N 
ATOM     88  C   UNL     1       4.009  -9.809  -3.701  1.00  0.00     0.046 A 
ATOM     89  C   UNL     1       3.291  -7.759  -4.762  1.00  0.00     0.010 A 
ATOM     90  H   UNL     1       5.030 -11.124  -2.410  1.00  0.00     0.166 HD
ATOM     91  C   UNL     1       3.087 -10.562  -4.437  1.00  0.00     0.026 A 
ATOM     92  C   UNL     1       2.372  -8.500  -5.511  1.00  0.00     0.001 A 
ATOM     93  C   UNL     1       2.275  -9.881  -5.351  1.00  0.00     0.002 A 
BRANCH  82  94
ATOM     94  C   UNL     1       7.990 -10.097  -1.836  1.00  0.00     0.016 A 
ATOM     95  C   UNL     1       8.135 -10.566  -3.151  1.00  0.00     0.014 A 
ATOM     96  C   UNL     1       8.990 -10.439  -0.908  1.00  0.00     0.014 A 
ATOM     97  C   UNL     1       9.216 -11.373  -3.512  1.00  0.00     0.047 A 
ATOM     98  C   UNL     1      10.092 -11.221  -1.280  1.00  0.00     0.047 A 
ATOM     99  C   UNL     1      10.210 -11.692  -2.587  1.00  0.00     0.129 A 
BRANCH  99 100
ATOM    100  O   UNL     1      11.220 -12.458  -3.090  1.00  0.00    -0.406 OA
BRANCH 100 101
ATOM    101  C   UNL     1      12.399 -12.576  -2.315  1.00  0.00     0.573 C 
ATOM    102  F   UNL     1      12.925 -11.368  -2.025  1.00  0.00    -0.132 F 
ATOM    103  F   UNL     1      12.163 -13.255  -1.171  1.00  0.00    -0.132 F 
ATOM    104  F   UNL     1      13.314 -13.272  -3.028  1.00  0.00    -0.132 F 
ENDBRANCH 100 101
ENDBRANCH  99 100
ENDBRANCH  82  94
ENDBRANCH  75  78
ENDBRANCH  73  74
ENDBRANCH  72  73
ENDBRANCH   1  72
TORSDOF 17
