REMARK SMILES CC(C)C[NH+]1CC[NH+]([C@H](C)[C@@H](C)C(=O)NCCCCNC(=O)c2ccc(-c3c4nc(c(-c5cccc(S(=O)(=O)[O-])c5F)c5ccc([nH]5)c(-c5cccc(S(=O)(=O)[O-])c5F)c5nc(c(-c6cccc(S(=O)(=O)[O-])c6F)c6ccc3[nH]6)C=C5)C=C4)cc2)CC1
REMARK SMILES IDX 17 1 16 2 15 3 13 4 14 5 11 7 12 8 9 9 10 10 8 11 5 12 6 13
REMARK SMILES IDX 87 14 7 16 86 17 4 19 2 20 1 21 3 22 18 23 19 24 20 25 21 26
REMARK SMILES IDX 22 28 23 29 24 30 85 31 25 32 84 33 26 34 27 35 28 36 78 37
REMARK SMILES IDX 29 38 83 39 77 40 79 41 30 42 82 43 76 44 75 45 31 47 63 48
REMARK SMILES IDX 43 49 62 50 44 51 47 52 61 53 80 54 45 55 46 56 60 58 81 59
REMARK SMILES IDX 48 60 32 61 33 62 41 63 34 64 36 65 42 66 35 67 37 68 38 69
REMARK SMILES IDX 39 70 40 71 64 72 65 73 73 74 66 75 68 76 74 77 67 78 69 79
REMARK SMILES IDX 70 80 71 81 72 82 49 83 50 84 58 85 51 86 53 87 59 88 52 89
REMARK SMILES IDX 54 90 55 91 56 92 57 93
REMARK H PARENT 15 6 5 15 8 18 20 27 79 46 47 57
REMARK Flexibility Score: inf
ROOT
ATOM      1  C   UNL     1      -4.790   5.653  -4.003  1.00  0.00     0.023 C 
ENDROOT
BRANCH   1   2
ATOM      2  C   UNL     1      -3.501   6.469  -3.925  1.00  0.00     0.116 C 
BRANCH   2   3
ATOM      3  N   UNL     1      -3.201   6.890  -2.572  1.00  0.00    -0.356 N 
ATOM      4  C   UNL     1      -2.244   6.482  -1.695  1.00  0.00     0.228 C 
ATOM      5  O   UNL     1      -2.201   7.047  -0.596  1.00  0.00    -0.275 OA
ATOM      6  H   UNL     1      -3.794   7.596  -2.226  1.00  0.00     0.163 HD
BRANCH   4   7
ATOM      7  C   UNL     1      -1.192   5.430  -2.050  1.00  0.00     0.133 C 
ATOM      8  C   UNL     1      -0.237   6.003  -3.104  1.00  0.00     0.024 C 
BRANCH   7   9
ATOM      9  C   UNL     1      -1.798   4.032  -2.369  1.00  0.00     0.193 C 
ATOM     10  C   UNL     1      -0.734   3.006  -2.809  1.00  0.00     0.076 C 
BRANCH   9  11
ATOM     11  N   UNL     1      -2.678   3.530  -1.285  1.00  0.00    -0.323 N 
ATOM     12  N   UNL     1      -3.564   1.438   0.670  1.00  0.00    -0.325 N 
ATOM     13  C   UNL     1      -2.859   2.644   1.116  1.00  0.00     0.324 C 
ATOM     14  C   UNL     1      -4.351   1.810  -0.521  1.00  0.00     0.324 C 
ATOM     15  H   UNL     1      -4.134   1.158   1.468  1.00  0.00     0.348 HD
ATOM     16  C   UNL     1      -2.039   3.404   0.040  1.00  0.00     0.324 C 
ATOM     17  C   UNL     1      -3.470   2.351  -1.666  1.00  0.00     0.324 C 
ATOM     18  H   UNL     1      -3.350   4.287  -1.158  1.00  0.00     0.348 HD
BRANCH  12  19
ATOM     19  C   UNL     1      -2.817   0.185   0.476  1.00  0.00     0.265 C 
BRANCH  19  20
ATOM     20  C   UNL     1      -1.270   0.113   0.418  1.00  0.00     0.038 C 
ATOM     21  C   UNL     1      -0.605   0.180   1.795  1.00  0.00     0.013 C 
ATOM     22  C   UNL     1      -0.845  -1.203  -0.255  1.00  0.00     0.013 C 
ENDBRANCH  19  20
ENDBRANCH  12  19
ENDBRANCH   9  11
ENDBRANCH   7   9
ENDBRANCH   4   7
ENDBRANCH   2   3
ENDBRANCH   1   2
BRANCH   1  23
ATOM     23  C   UNL     1      -6.073   6.461  -3.812  1.00  0.00     0.023 C 
BRANCH  23  24
ATOM     24  C   UNL     1      -6.238   7.660  -4.742  1.00  0.00     0.116 C 
BRANCH  24  25
ATOM     25  N   UNL     1      -6.123   7.316  -6.152  1.00  0.00    -0.352 N 
ATOM     26  C   UNL     1      -6.852   7.788  -7.217  1.00  0.00     0.251 C 
ATOM     27  H   UNL     1      -5.427   6.655  -6.373  1.00  0.00     0.163 HD
ATOM     28  O   UNL     1      -6.688   7.307  -8.335  1.00  0.00    -0.269 OA
BRANCH  26  29
ATOM     29  C   UNL     1      -7.859   8.848  -7.001  1.00  0.00     0.039 A 
ATOM     30  C   UNL     1      -9.140   8.678  -7.531  1.00  0.00     0.014 A 
ATOM     31  C   UNL     1      -7.553   9.986  -6.250  1.00  0.00     0.014 A 
ATOM     32  C   UNL     1     -10.136   9.615  -7.246  1.00  0.00     0.010 A 
ATOM     33  C   UNL     1      -8.563  10.881  -5.910  1.00  0.00     0.010 A 
ATOM     34  C   UNL     1      -9.865  10.705  -6.401  1.00  0.00    -0.014 A 
BRANCH  34  35
ATOM     35  C   UNL     1     -10.941  11.645  -5.992  1.00  0.00     0.031 A 
ATOM     36  C   UNL     1     -10.866  13.101  -6.364  1.00  0.00     0.074 A 
ATOM     37  C   UNL     1     -11.937  11.204  -5.198  1.00  0.00     0.049 A 
ATOM     38  N   UNL     1     -11.689  14.070  -6.060  1.00  0.00    -0.248 NA
ATOM     39  C   UNL     1      -9.700  13.534  -7.154  1.00  0.00     0.031 C 
ATOM     40  C   UNL     1     -12.066   9.839  -4.680  1.00  0.00     0.029 A 
ATOM     41  N   UNL     1     -13.012  11.864  -4.656  1.00  0.00    -0.354 N 
ATOM     42  C   UNL     1     -11.124  15.229  -6.579  1.00  0.00     0.074 A 
ATOM     43  C   UNL     1      -9.876  14.847  -7.201  1.00  0.00     0.031 C 
ATOM     44  C   UNL     1     -13.151   9.766  -3.893  1.00  0.00     0.029 A 
ATOM     45  C   UNL     1     -13.784  11.079  -3.830  1.00  0.00     0.049 A 
ATOM     46  H   UNL     1     -13.213  12.810  -4.841  1.00  0.00     0.167 HD
ATOM     47  C   UNL     1     -11.613  16.491  -6.561  1.00  0.00     0.034 A 
ATOM     48  C   UNL     1     -14.873  11.383  -3.096  1.00  0.00     0.034 A 
ATOM     49  C   UNL     1     -12.884  16.856  -5.997  1.00  0.00     0.049 A 
ATOM     50  C   UNL     1     -15.435  12.777  -3.165  1.00  0.00     0.074 A 
ATOM     51  C   UNL     1     -13.525  18.081  -6.050  1.00  0.00     0.029 A 
ATOM     52  N   UNL     1     -13.700  16.008  -5.267  1.00  0.00    -0.354 N 
ATOM     53  N   UNL     1     -14.995  13.812  -3.839  1.00  0.00    -0.248 NA
ATOM     54  C   UNL     1     -16.668  13.037  -2.406  1.00  0.00     0.031 C 
ATOM     55  C   UNL     1     -14.719  17.980  -5.329  1.00  0.00     0.029 A 
ATOM     56  C   UNL     1     -14.832  16.686  -4.849  1.00  0.00     0.049 A 
ATOM     57  H   UNL     1     -13.504  15.062  -5.074  1.00  0.00     0.167 HD
ATOM     58  C   UNL     1     -15.910  14.833  -3.611  1.00  0.00     0.074 A 
ATOM     59  C   UNL     1     -16.946  14.284  -2.761  1.00  0.00     0.031 C 
ATOM     60  C   UNL     1     -15.885  16.115  -4.050  1.00  0.00     0.034 A 
BRANCH  47  61
ATOM     61  C   UNL     1     -10.803  17.575  -7.223  1.00  0.00     0.023 A 
ATOM     62  C   UNL     1     -10.735  17.632  -8.629  1.00  0.00     0.012 A 
ATOM     63  C   UNL     1     -10.194  18.589  -6.457  1.00  0.00     0.148 A 
ATOM     64  C   UNL     1     -10.055  18.670  -9.264  1.00  0.00     0.002 A 
ATOM     65  C   UNL     1      -9.555  19.643  -7.099  1.00  0.00     0.091 A 
ATOM     66  F   UNL     1     -10.254  18.504  -5.121  1.00  0.00    -0.205 F 
ATOM     67  C   UNL     1      -9.477  19.680  -8.501  1.00  0.00     0.022 A 
BRANCH  65  68
ATOM     68  S   UNL     1      -8.848  21.035  -6.211  1.00  0.00     0.127 S 
ATOM     69  O   UNL     1      -7.418  20.837  -6.443  1.00  0.00    -0.237 OA
ATOM     70  O   UNL     1      -9.428  22.177  -6.919  1.00  0.00    -0.237 OA
ATOM     71  O   UNL     1      -9.279  20.893  -4.827  1.00  0.00    -0.744 OA
ENDBRANCH  65  68
ENDBRANCH  47  61
BRANCH  48  72
ATOM     72  C   UNL     1     -15.539  10.332  -2.275  1.00  0.00     0.023 A 
ATOM     73  C   UNL     1     -16.808   9.854  -2.656  1.00  0.00     0.012 A 
ATOM     74  C   UNL     1     -14.920   9.796  -1.131  1.00  0.00     0.148 A 
ATOM     75  C   UNL     1     -17.465   8.890  -1.890  1.00  0.00     0.002 A 
ATOM     76  C   UNL     1     -15.554   8.794  -0.405  1.00  0.00     0.091 A 
ATOM     77  F   UNL     1     -13.719  10.274  -0.773  1.00  0.00    -0.205 F 
ATOM     78  C   UNL     1     -16.834   8.353  -0.771  1.00  0.00     0.022 A 
BRANCH  76  79
ATOM     79  S   UNL     1     -14.750   7.955   0.965  1.00  0.00     0.127 S 
ATOM     80  O   UNL     1     -15.405   8.568   2.118  1.00  0.00    -0.237 OA
ATOM     81  O   UNL     1     -15.111   6.557   0.722  1.00  0.00    -0.237 OA
ATOM     82  O   UNL     1     -13.330   8.238   0.810  1.00  0.00    -0.744 OA
ENDBRANCH  76  79
ENDBRANCH  48  72
BRANCH  60  83
ATOM     83  C   UNL     1     -17.023  17.015  -3.648  1.00  0.00     0.023 A 
ATOM     84  C   UNL     1     -17.118  17.471  -2.318  1.00  0.00     0.012 A 
ATOM     85  C   UNL     1     -17.955  17.467  -4.603  1.00  0.00     0.148 A 
ATOM     86  C   UNL     1     -18.142  18.337  -1.937  1.00  0.00     0.002 A 
ATOM     87  C   UNL     1     -18.944  18.369  -4.227  1.00  0.00     0.091 A 
ATOM     88  F   UNL     1     -17.860  17.008  -5.859  1.00  0.00    -0.205 F 
ATOM     89  C   UNL     1     -19.047  18.795  -2.892  1.00  0.00     0.022 A 
BRANCH  87  90
ATOM     90  S   UNL     1     -20.090  19.085  -5.410  1.00  0.00     0.127 S 
ATOM     91  O   UNL     1     -21.325  18.367  -5.103  1.00  0.00    -0.237 OA
ATOM     92  O   UNL     1     -20.094  20.497  -5.026  1.00  0.00    -0.237 OA
ATOM     93  O   UNL     1     -19.522  18.822  -6.726  1.00  0.00    -0.744 OA
ENDBRANCH  87  90
ENDBRANCH  60  83
ENDBRANCH  34  35
ENDBRANCH  26  29
ENDBRANCH  24  25
ENDBRANCH  23  24
ENDBRANCH   1  23
TORSDOF 18
