REMARK SMILES O=C(NCCCCNC(=O)c1ccc(-c2c3nc(c(-c4cccc(S(=O)(=O)[O-])c4F)c4ccc([nH]4)c(-c4cccc(S(=O)(=O)[O-])c4F)c4nc(c(-c5cccc(S(=O)(=O)[O-])c5F)c5ccc2[nH]5)C=C4)C=C3)cc1)c1ccc(C[C@H]2SC(=O)N(c3ccccc3)C2=O)cc1
REMARK SMILES IDX 5 1 4 2 3 3 1 4 2 5 74 7 75 8 93 9 76 10 92 11 77 12 78 13
REMARK SMILES IDX 79 14 80 15 90 16 81 17 83 18 91 19 82 20 84 21 85 22 89 23
REMARK SMILES IDX 86 24 88 25 87 26 6 27 7 28 8 29 9 30 10 32 11 33 12 34
REMARK SMILES IDX 73 35 13 36 72 37 14 38 15 39 16 40 66 41 17 42 71 43 65 44
REMARK SMILES IDX 67 45 18 46 70 47 64 48 63 49 19 51 51 52 31 53 50 54 32 55
REMARK SMILES IDX 35 56 49 57 68 58 33 59 34 60 48 62 69 63 36 64 20 65 21 66
REMARK SMILES IDX 29 67 22 68 24 69 30 70 23 71 25 72 26 73 27 74 28 75 52 76
REMARK SMILES IDX 53 77 61 78 54 79 56 80 62 81 55 82 57 83 58 84 59 85 60 86
REMARK SMILES IDX 37 87 38 88 46 89 39 90 41 91 47 92 40 93 42 94 43 95 44 96
REMARK SMILES IDX 45 97
REMARK H PARENT 3 6 8 31 67 50 35 61
REMARK Flexibility Score: inf
ROOT
ATOM      1  C   UNL     1       6.226   4.297   7.295  1.00  0.00     0.023 C 
ENDROOT
BRANCH   1   2
ATOM      2  C   UNL     1       7.575   3.586   7.315  1.00  0.00     0.116 C 
BRANCH   2   3
ATOM      3  N   UNL     1       8.018   3.250   8.661  1.00  0.00    -0.352 N 
ATOM      4  O   UNL     1       8.553   1.863  10.376  1.00  0.00    -0.269 OA
ATOM      5  C   UNL     1       8.301   2.011   9.187  1.00  0.00     0.251 C 
ATOM      6  H   UNL     1       8.129   4.010   9.276  1.00  0.00     0.163 HD
BRANCH   5   7
ATOM      7  C   UNL     1       8.268   0.837   8.295  1.00  0.00     0.039 A 
ATOM      8  C   UNL     1       9.095   0.785   7.172  1.00  0.00     0.014 A 
ATOM      9  C   UNL     1       7.365  -0.193   8.560  1.00  0.00     0.014 A 
ATOM     10  C   UNL     1       8.938  -0.248   6.252  1.00  0.00     0.004 A 
ATOM     11  C   UNL     1       7.202  -1.222   7.629  1.00  0.00     0.004 A 
ATOM     12  C   UNL     1       7.956  -1.234   6.445  1.00  0.00    -0.046 A 
BRANCH  12  13
ATOM     13  C   UNL     1       7.691  -2.264   5.369  1.00  0.00     0.060 C 
BRANCH  13  14
ATOM     14  C   UNL     1       6.750  -1.782   4.247  1.00  0.00     0.151 C 
ATOM     15  S   UNL     1       7.449  -0.446   3.238  1.00  0.00    -0.050 SA
ATOM     16  C   UNL     1       6.519  -2.917   3.265  1.00  0.00     0.248 C 
ATOM     17  C   UNL     1       7.869  -1.527   1.930  1.00  0.00     0.293 C 
ATOM     18  N   UNL     1       7.222  -2.733   2.083  1.00  0.00    -0.240 N 
ATOM     19  O   UNL     1       5.856  -3.905   3.578  1.00  0.00    -0.273 OA
ATOM     20  O   UNL     1       8.598  -1.156   1.029  1.00  0.00    -0.261 OA
BRANCH  18  21
ATOM     21  C   UNL     1       7.268  -3.727   1.065  1.00  0.00     0.053 A 
ATOM     22  C   UNL     1       6.119  -4.452   0.717  1.00  0.00     0.027 A 
ATOM     23  C   UNL     1       8.459  -3.991   0.370  1.00  0.00     0.027 A 
ATOM     24  C   UNL     1       6.156  -5.399  -0.310  1.00  0.00     0.002 A 
ATOM     25  C   UNL     1       8.504  -4.964  -0.631  1.00  0.00     0.002 A 
ATOM     26  C   UNL     1       7.350  -5.662  -0.977  1.00  0.00     0.000 A 
ENDBRANCH  18  21
ENDBRANCH  13  14
ENDBRANCH  12  13
ENDBRANCH   5   7
ENDBRANCH   2   3
ENDBRANCH   1   2
BRANCH   1  27
ATOM     27  C   UNL     1       6.205   5.670   7.963  1.00  0.00     0.023 C 
BRANCH  27  28
ATOM     28  C   UNL     1       7.246   6.660   7.453  1.00  0.00     0.116 C 
BRANCH  28  29
ATOM     29  N   UNL     1       7.108   6.956   6.033  1.00  0.00    -0.352 N 
ATOM     30  C   UNL     1       7.004   8.176   5.405  1.00  0.00     0.251 C 
ATOM     31  H   UNL     1       7.087   6.172   5.439  1.00  0.00     0.163 HD
ATOM     32  O   UNL     1       6.760   8.229   4.203  1.00  0.00    -0.269 OA
BRANCH  30  33
ATOM     33  C   UNL     1       7.151   9.422   6.189  1.00  0.00     0.039 A 
ATOM     34  C   UNL     1       6.209  10.441   6.025  1.00  0.00     0.014 A 
ATOM     35  C   UNL     1       8.193   9.570   7.108  1.00  0.00     0.014 A 
ATOM     36  C   UNL     1       6.265  11.572   6.843  1.00  0.00     0.010 A 
ATOM     37  C   UNL     1       8.196  10.657   7.979  1.00  0.00     0.010 A 
ATOM     38  C   UNL     1       7.230  11.668   7.859  1.00  0.00    -0.014 A 
BRANCH  38  39
ATOM     39  C   UNL     1       7.229  12.800   8.824  1.00  0.00     0.031 A 
ATOM     40  C   UNL     1       8.415  13.722   8.917  1.00  0.00     0.074 A 
ATOM     41  C   UNL     1       6.198  12.943   9.682  1.00  0.00     0.049 A 
ATOM     42  N   UNL     1       8.623  14.717   9.741  1.00  0.00    -0.248 NA
ATOM     43  C   UNL     1       9.524  13.481   7.979  1.00  0.00     0.031 C 
ATOM     44  C   UNL     1       5.022  12.073   9.745  1.00  0.00     0.029 A 
ATOM     45  N   UNL     1       5.986  13.857  10.685  1.00  0.00    -0.354 N 
ATOM     46  C   UNL     1       9.893  15.197   9.445  1.00  0.00     0.074 A 
ATOM     47  C   UNL     1      10.424  14.362   8.390  1.00  0.00     0.031 C 
ATOM     48  C   UNL     1       4.209  12.499  10.725  1.00  0.00     0.029 A 
ATOM     49  C   UNL     1       4.822  13.645  11.388  1.00  0.00     0.049 A 
ATOM     50  H   UNL     1       6.607  14.595  10.882  1.00  0.00     0.167 HD
ATOM     51  C   UNL     1      10.549  16.253   9.983  1.00  0.00     0.034 A 
ATOM     52  C   UNL     1       4.311  14.289  12.457  1.00  0.00     0.034 A 
ATOM     53  C   UNL     1      10.007  17.100  11.011  1.00  0.00     0.049 A 
ATOM     54  C   UNL     1       5.056  15.466  13.027  1.00  0.00     0.074 A 
ATOM     55  C   UNL     1      10.561  18.242  11.563  1.00  0.00     0.029 A 
ATOM     56  N   UNL     1       8.796  16.893  11.653  1.00  0.00    -0.354 N 
ATOM     57  N   UNL     1       6.188  15.997  12.633  1.00  0.00    -0.248 NA
ATOM     58  C   UNL     1       4.437  16.154  14.169  1.00  0.00     0.031 C 
ATOM     59  C   UNL     1       9.702  18.704  12.566  1.00  0.00     0.029 A 
ATOM     60  C   UNL     1       8.592  17.876  12.607  1.00  0.00     0.049 A 
ATOM     61  H   UNL     1       8.173  16.156  11.459  1.00  0.00     0.167 HD
ATOM     62  C   UNL     1       6.397  17.101  13.451  1.00  0.00     0.074 A 
ATOM     63  C   UNL     1       5.264  17.175  14.350  1.00  0.00     0.031 C 
ATOM     64  C   UNL     1       7.438  17.969  13.463  1.00  0.00     0.034 A 
BRANCH  51  65
ATOM     65  C   UNL     1      11.916  16.581   9.439  1.00  0.00     0.023 A 
ATOM     66  C   UNL     1      12.042  17.104   8.135  1.00  0.00     0.012 A 
ATOM     67  C   UNL     1      13.068  16.433  10.237  1.00  0.00     0.148 A 
ATOM     68  C   UNL     1      13.294  17.439   7.621  1.00  0.00     0.002 A 
ATOM     69  C   UNL     1      14.306  16.815   9.736  1.00  0.00     0.091 A 
ATOM     70  F   UNL     1      12.931  15.919  11.468  1.00  0.00    -0.205 F 
ATOM     71  C   UNL     1      14.423  17.305   8.424  1.00  0.00     0.022 A 
BRANCH  69  72
ATOM     72  S   UNL     1      15.810  16.762  10.716  1.00  0.00     0.127 S 
ATOM     73  O   UNL     1      16.558  15.696  10.050  1.00  0.00    -0.237 OA
ATOM     74  O   UNL     1      16.354  18.105  10.517  1.00  0.00    -0.237 OA
ATOM     75  O   UNL     1      15.392  16.470  12.080  1.00  0.00    -0.744 OA
ENDBRANCH  69  72
ENDBRANCH  51  65
BRANCH  52  76
ATOM     76  C   UNL     1       3.000  13.868  13.029  1.00  0.00     0.023 A 
ATOM     77  C   UNL     1       1.883  14.716  12.898  1.00  0.00     0.012 A 
ATOM     78  C   UNL     1       2.851  12.633  13.688  1.00  0.00     0.148 A 
ATOM     79  C   UNL     1       0.650  14.359  13.445  1.00  0.00     0.002 A 
ATOM     80  C   UNL     1       1.606  12.257  14.180  1.00  0.00     0.091 A 
ATOM     81  F   UNL     1       3.928  11.844  13.810  1.00  0.00    -0.205 F 
ATOM     82  C   UNL     1       0.509  13.127  14.078  1.00  0.00     0.022 A 
BRANCH  80  83
ATOM     83  S   UNL     1       1.299  10.638  14.895  1.00  0.00     0.127 S 
ATOM     84  O   UNL     1       1.049  10.972  16.295  1.00  0.00    -0.237 OA
ATOM     85  O   UNL     1       0.122  10.198  14.146  1.00  0.00    -0.237 OA
ATOM     86  O   UNL     1       2.502   9.858  14.637  1.00  0.00    -0.744 OA
ENDBRANCH  80  83
ENDBRANCH  52  76
BRANCH  64  87
ATOM     87  C   UNL     1       7.390  19.110  14.447  1.00  0.00     0.023 A 
ATOM     88  C   UNL     1       7.566  18.865  15.823  1.00  0.00     0.012 A 
ATOM     89  C   UNL     1       7.247  20.437  13.995  1.00  0.00     0.148 A 
ATOM     90  C   UNL     1       7.566  19.919  16.737  1.00  0.00     0.002 A 
ATOM     91  C   UNL     1       7.302  21.486  14.904  1.00  0.00     0.091 A 
ATOM     92  F   UNL     1       7.064  20.648  12.683  1.00  0.00    -0.205 F 
ATOM     93  C   UNL     1       7.447  21.228  16.276  1.00  0.00     0.022 A 
BRANCH  91  94
ATOM     94  S   UNL     1       7.258  23.208  14.395  1.00  0.00     0.127 S 
ATOM     95  O   UNL     1       5.957  23.636  14.906  1.00  0.00    -0.237 OA
ATOM     96  O   UNL     1       8.407  23.769  15.106  1.00  0.00    -0.237 OA
ATOM     97  O   UNL     1       7.385  23.205  12.944  1.00  0.00    -0.744 OA
ENDBRANCH  91  94
ENDBRANCH  64  87
ENDBRANCH  38  39
ENDBRANCH  30  33
ENDBRANCH  28  29
ENDBRANCH  27  28
ENDBRANCH   1  27
TORSDOF 17
