REMARK SMILES CCCCCCCCNC(=O)Oc1cccc(-c2ccc([C@@H](C)C(=O)NCCCCNC(=O)c3ccc(-c4c5nc(c(-c6cccc(S(=O)(=O)[O-])c6F)c6ccc([nH]6)c(-c6cccc(S(=O)(=O)[O-])c6F)c6nc(c(-c7cccc(S(=O)(=O)[O-])c7F)c7ccc4[nH]7)C=C6)C=C5)cc3)cc2F)c1
REMARK SMILES IDX 18 1 19 2 20 3 21 4 97 5 98 6 99 7 17 8 13 9 14 10 100 11
REMARK SMILES IDX 15 12 16 13 12 14 10 15 9 16 11 18 8 19 7 20 6 21 5 22 4 23
REMARK SMILES IDX 3 24 2 25 1 26 22 27 23 28 24 29 25 30 26 31 27 33 28 34
REMARK SMILES IDX 29 35 30 36 31 37 32 38 33 40 34 41 35 42 96 43 36 44 95 45
REMARK SMILES IDX 37 46 38 47 39 48 89 49 40 50 94 51 88 52 90 53 41 54 93 55
REMARK SMILES IDX 87 56 86 57 42 59 74 60 54 61 73 62 55 63 58 64 72 65 91 66
REMARK SMILES IDX 56 67 57 68 71 70 92 71 59 72 43 73 44 74 52 75 45 76 47 77
REMARK SMILES IDX 53 78 46 79 48 80 49 81 50 82 51 83 75 84 76 85 84 86 77 87
REMARK SMILES IDX 79 88 85 89 78 90 80 91 81 92 82 93 83 94 60 95 61 96 69 97
REMARK SMILES IDX 62 98 64 99 70 100 63 101 65 102 66 103 67 104 68 105
REMARK H PARENT 9 17 26 32 31 39 90 58 58 69
REMARK Flexibility Score: inf
ROOT
ATOM      1  C   UNL     1      -5.980   5.215  10.401  1.00  0.00     0.018 A 
ATOM      2  C   UNL     1      -6.895   6.005  11.116  1.00  0.00     0.012 A 
ATOM      3  C   UNL     1      -7.867   5.441  11.949  1.00  0.00     0.005 A 
ATOM      4  C   UNL     1      -8.034   4.058  12.032  1.00  0.00    -0.033 A 
ATOM      5  C   UNL     1      -7.120   3.255  11.336  1.00  0.00     0.044 A 
ATOM      6  C   UNL     1      -6.103   3.826  10.562  1.00  0.00     0.131 A 
ATOM      7  F   UNL     1      -5.230   2.988   9.981  1.00  0.00    -0.206 F 
ENDROOT
BRANCH   1   8
ATOM      8  C   UNL     1      -4.959   5.846   9.531  1.00  0.00    -0.012 A 
ATOM      9  C   UNL     1      -3.542   5.849   7.554  1.00  0.00     0.133 A 
ATOM     10  C   UNL     1      -3.016   7.094   7.883  1.00  0.00     0.047 A 
ATOM     11  C   UNL     1      -4.503   5.227   8.355  1.00  0.00     0.056 A 
ATOM     12  C   UNL     1      -3.460   7.730   9.032  1.00  0.00     0.004 A 
ATOM     13  C   UNL     1      -4.408   7.106   9.849  1.00  0.00     0.009 A 
BRANCH   9  14
ATOM     14  O   UNL     1      -2.940   5.185   6.476  1.00  0.00    -0.410 OA
BRANCH  14  15
ATOM     15  C   UNL     1      -3.728   4.568   5.518  1.00  0.00     0.412 C 
ATOM     16  N   UNL     1      -2.988   3.814   4.649  1.00  0.00    -0.321 N 
ATOM     17  H   UNL     1      -3.473   3.385   3.907  1.00  0.00     0.167 HD
ATOM     18  O   UNL     1      -4.942   4.662   5.412  1.00  0.00    -0.224 OA
BRANCH  16  19
ATOM     19  C   UNL     1      -1.559   3.590   4.718  1.00  0.00     0.119 C 
BRANCH  19  20
ATOM     20  C   UNL     1      -1.222   2.103   4.822  1.00  0.00     0.021 C 
BRANCH  20  21
ATOM     21  C   UNL     1      -1.620   1.275   3.595  1.00  0.00     0.002 C 
BRANCH  21  22
ATOM     22  C   UNL     1      -1.033   1.763   2.267  1.00  0.00     0.000 C 
BRANCH  22  23
ATOM     23  C   UNL     1       0.498   1.773   2.205  1.00  0.00    -0.000 C 
BRANCH  23  24
ATOM     24  C   UNL     1       1.156   0.394   2.323  1.00  0.00    -0.000 C 
BRANCH  24  25
ATOM     25  C   UNL     1       0.733  -0.621   1.258  1.00  0.00    -0.003 C 
ATOM     26  C   UNL     1       1.055  -0.176  -0.161  1.00  0.00     0.004 C 
ENDBRANCH  24  25
ENDBRANCH  23  24
ENDBRANCH  22  23
ENDBRANCH  21  22
ENDBRANCH  20  21
ENDBRANCH  19  20
ENDBRANCH  16  19
ENDBRANCH  14  15
ENDBRANCH   9  14
ENDBRANCH   1   8
BRANCH   4  27
ATOM     27  C   UNL     1      -9.173   3.409  12.801  1.00  0.00     0.105 C 
ATOM     28  C   UNL     1      -9.459   3.998  14.182  1.00  0.00     0.023 C 
BRANCH  27  29
ATOM     29  C   UNL     1     -10.431   3.158  11.955  1.00  0.00     0.227 C 
ATOM     30  O   UNL     1     -10.723   2.001  11.628  1.00  0.00    -0.274 OA
ATOM     31  N   UNL     1     -11.279   4.141  11.545  1.00  0.00    -0.356 N 
ATOM     32  H   UNL     1     -12.071   3.813  11.061  1.00  0.00     0.163 HD
BRANCH  31  33
ATOM     33  C   UNL     1     -11.229   5.580  11.691  1.00  0.00     0.116 C 
BRANCH  33  34
ATOM     34  C   UNL     1     -10.634   6.265  10.459  1.00  0.00     0.023 C 
BRANCH  34  35
ATOM     35  C   UNL     1     -11.642   6.617   9.368  1.00  0.00     0.023 C 
BRANCH  35  36
ATOM     36  C   UNL     1     -12.737   7.591   9.788  1.00  0.00     0.116 C 
BRANCH  36  37
ATOM     37  N   UNL     1     -12.239   8.860  10.306  1.00  0.00    -0.352 N 
ATOM     38  C   UNL     1     -12.823  10.102  10.196  1.00  0.00     0.251 C 
ATOM     39  H   UNL     1     -11.385   8.824  10.794  1.00  0.00     0.163 HD
ATOM     40  O   UNL     1     -12.251  11.102  10.616  1.00  0.00    -0.269 OA
BRANCH  38  41
ATOM     41  C   UNL     1     -14.132  10.211   9.520  1.00  0.00     0.039 A 
ATOM     42  C   UNL     1     -14.277  11.107   8.459  1.00  0.00     0.014 A 
ATOM     43  C   UNL     1     -15.178   9.357   9.877  1.00  0.00     0.014 A 
ATOM     44  C   UNL     1     -15.451  11.089   7.703  1.00  0.00     0.010 A 
ATOM     45  C   UNL     1     -16.305   9.279   9.069  1.00  0.00     0.010 A 
ATOM     46  C   UNL     1     -16.456  10.145   7.975  1.00  0.00    -0.014 A 
BRANCH  46  47
ATOM     47  C   UNL     1     -17.669  10.036   7.127  1.00  0.00     0.031 A 
ATOM     48  C   UNL     1     -19.030  10.263   7.727  1.00  0.00     0.074 A 
ATOM     49  C   UNL     1     -17.555   9.634   5.845  1.00  0.00     0.049 A 
ATOM     50  N   UNL     1     -20.207  10.150   7.169  1.00  0.00    -0.248 NA
ATOM     51  C   UNL     1     -19.076  10.631   9.152  1.00  0.00     0.031 C 
ATOM     52  C   UNL     1     -16.299   9.294   5.171  1.00  0.00     0.029 A 
ATOM     53  N   UNL     1     -18.513   9.418   4.886  1.00  0.00    -0.354 N 
ATOM     54  C   UNL     1     -21.130  10.392   8.179  1.00  0.00     0.074 A 
ATOM     55  C   UNL     1     -20.378  10.615   9.394  1.00  0.00     0.031 C 
ATOM     56  C   UNL     1     -16.563   8.925   3.908  1.00  0.00     0.029 A 
ATOM     57  C   UNL     1     -18.005   8.971   3.688  1.00  0.00     0.049 A 
ATOM     58  H   UNL     1     -19.473   9.568   5.040  1.00  0.00     0.167 HD
ATOM     59  C   UNL     1     -22.480  10.460   8.098  1.00  0.00     0.034 A 
ATOM     60  C   UNL     1     -18.630   8.636   2.542  1.00  0.00     0.034 A 
ATOM     61  C   UNL     1     -23.219  10.287   6.879  1.00  0.00     0.049 A 
ATOM     62  C   UNL     1     -20.128   8.766   2.464  1.00  0.00     0.074 A 
ATOM     63  C   UNL     1     -24.579  10.431   6.669  1.00  0.00     0.029 A 
ATOM     64  N   UNL     1     -22.662   9.925   5.662  1.00  0.00    -0.354 N 
ATOM     65  N   UNL     1     -20.971   9.160   3.387  1.00  0.00    -0.248 NA
ATOM     66  C   UNL     1     -20.756   8.441   1.175  1.00  0.00     0.031 C 
ATOM     67  C   UNL     1     -24.847  10.134   5.328  1.00  0.00     0.029 A 
ATOM     68  C   UNL     1     -23.651   9.832   4.697  1.00  0.00     0.049 A 
ATOM     69  H   UNL     1     -21.704   9.759   5.506  1.00  0.00     0.167 HD
ATOM     70  C   UNL     1     -22.223   9.166   2.782  1.00  0.00     0.074 A 
ATOM     71  C   UNL     1     -22.024   8.755   1.407  1.00  0.00     0.031 C 
ATOM     72  C   UNL     1     -23.430   9.472   3.320  1.00  0.00     0.034 A 
BRANCH  59  73
ATOM     73  C   UNL     1     -23.236  10.791   9.359  1.00  0.00     0.023 A 
ATOM     74  C   UNL     1     -23.140  12.088   9.908  1.00  0.00     0.012 A 
ATOM     75  C   UNL     1     -24.066   9.839   9.981  1.00  0.00     0.148 A 
ATOM     76  C   UNL     1     -23.822  12.418  11.078  1.00  0.00     0.002 A 
ATOM     77  C   UNL     1     -24.781  10.191  11.121  1.00  0.00     0.091 A 
ATOM     78  F   UNL     1     -24.128   8.606   9.461  1.00  0.00    -0.205 F 
ATOM     79  C   UNL     1     -24.649  11.474  11.678  1.00  0.00     0.022 A 
BRANCH  77  80
ATOM     80  S   UNL     1     -25.935   9.072  11.923  1.00  0.00     0.127 S 
ATOM     81  O   UNL     1     -25.205   8.718  13.139  1.00  0.00    -0.237 OA
ATOM     82  O   UNL     1     -27.099   9.932  12.139  1.00  0.00    -0.237 OA
ATOM     83  O   UNL     1     -26.154   7.982  10.982  1.00  0.00    -0.744 OA
ENDBRANCH  77  80
ENDBRANCH  59  73
BRANCH  60  84
ATOM     84  C   UNL     1     -17.834   8.221   1.353  1.00  0.00     0.023 A 
ATOM     85  C   UNL     1     -17.742   9.091   0.248  1.00  0.00     0.012 A 
ATOM     86  C   UNL     1     -17.143   6.994   1.319  1.00  0.00     0.148 A 
ATOM     87  C   UNL     1     -17.002   8.735  -0.880  1.00  0.00     0.002 A 
ATOM     88  C   UNL     1     -16.364   6.669   0.214  1.00  0.00     0.091 A 
ATOM     89  F   UNL     1     -17.250   6.177   2.376  1.00  0.00    -0.205 F 
ATOM     90  C   UNL     1     -16.305   7.530  -0.893  1.00  0.00     0.022 A 
BRANCH  88  91
ATOM     91  S   UNL     1     -15.333   5.199   0.158  1.00  0.00     0.127 S 
ATOM     92  O   UNL     1     -16.014   4.395  -0.854  1.00  0.00    -0.237 OA
ATOM     93  O   UNL     1     -14.044   5.752  -0.258  1.00  0.00    -0.237 OA
ATOM     94  O   UNL     1     -15.347   4.657   1.510  1.00  0.00    -0.744 OA
ENDBRANCH  88  91
ENDBRANCH  60  84
BRANCH  72  95
ATOM     95  C   UNL     1     -24.634   9.412   2.416  1.00  0.00     0.023 A 
ATOM     96  C   UNL     1     -25.139   8.164   2.002  1.00  0.00     0.012 A 
ATOM     97  C   UNL     1     -25.310  10.591   2.044  1.00  0.00     0.148 A 
ATOM     98  C   UNL     1     -26.282   8.091   1.206  1.00  0.00     0.002 A 
ATOM     99  C   UNL     1     -26.476  10.508   1.293  1.00  0.00     0.091 A 
ATOM    100  F   UNL     1     -24.802  11.770   2.433  1.00  0.00    -0.205 F 
ATOM    101  C   UNL     1     -26.956   9.261   0.863  1.00  0.00     0.022 A 
BRANCH  99 102
ATOM    102  S   UNL     1     -27.465  11.953   0.889  1.00  0.00     0.127 S 
ATOM    103  O   UNL     1     -27.200  12.104  -0.541  1.00  0.00    -0.237 OA
ATOM    104  O   UNL     1     -28.819  11.503   1.214  1.00  0.00    -0.237 OA
ATOM    105  O   UNL     1     -26.967  13.029   1.734  1.00  0.00    -0.744 OA
ENDBRANCH  99 102
ENDBRANCH  72  95
ENDBRANCH  46  47
ENDBRANCH  38  41
ENDBRANCH  36  37
ENDBRANCH  35  36
ENDBRANCH  34  35
ENDBRANCH  33  34
ENDBRANCH  31  33
ENDBRANCH  27  29
ENDBRANCH   4  27
TORSDOF 25
