REMARK SMILES O=C(NCCCCNC(=O)[C@H]1CC[C@H]2CCCC[C@@H]2[N@H+]1[C@@H]1CCCSC1)c1ccc(-c2c3nc(c(-c4cccc(S(=O)(=O)[O-])c4F)c4ccc([nH]4)c(-c4cccc(S(=O)(=O)[O-])c4F)c4nc(c(-c5cccc(S(=O)(=O)[O-])c5F)c5ccc2[nH]5)C=C4)C=C3)cc1
REMARK SMILES IDX 4 1 3 2 1 3 2 4 27 6 28 7 89 8 29 9 88 10 30 11 31 12 32 13
REMARK SMILES IDX 82 14 33 15 87 16 81 17 83 18 34 19 86 20 80 21 79 22 35 24
REMARK SMILES IDX 67 25 47 26 66 27 48 28 51 29 65 30 84 31 49 32 50 33 64 35
REMARK SMILES IDX 85 36 52 37 36 38 37 39 45 40 38 41 40 42 46 43 39 44 41 45
REMARK SMILES IDX 42 46 43 47 44 48 68 49 69 50 77 51 70 52 72 53 78 54 71 55
REMARK SMILES IDX 73 56 74 57 75 58 76 59 53 60 54 61 62 62 55 63 57 64 63 65
REMARK SMILES IDX 56 66 58 67 59 68 60 69 61 70 5 71 6 72 7 73 8 74 9 75 10 77
REMARK SMILES IDX 11 78 12 79 20 80 13 81 19 82 14 84 18 85 15 86 17 87 16 88
REMARK SMILES IDX 21 89 22 90 26 91 23 92 25 93 24 94
REMARK H PARENT 3 5 83 23 51 34 8 76 20 83
REMARK Flexibility Score: inf
ROOT
ATOM      1  C   UNL     1       4.676  -0.138  -1.201  1.00  0.00     0.116 C 
ENDROOT
BRANCH   1   2
ATOM      2  N   UNL     1       3.241   0.100  -1.088  1.00  0.00    -0.352 N 
ATOM      3  O   UNL     1       1.219   0.044  -0.068  1.00  0.00    -0.269 OA
ATOM      4  C   UNL     1       2.426  -0.160  -0.006  1.00  0.00     0.251 C 
ATOM      5  H   UNL     1       2.803   0.492  -1.877  1.00  0.00     0.163 HD
BRANCH   4   6
ATOM      6  C   UNL     1       3.042  -0.739   1.206  1.00  0.00     0.039 A 
ATOM      7  C   UNL     1       4.173  -0.136   1.756  1.00  0.00     0.014 A 
ATOM      8  C   UNL     1       2.573  -1.958   1.701  1.00  0.00     0.014 A 
ATOM      9  C   UNL     1       4.946  -0.848   2.663  1.00  0.00     0.010 A 
ATOM     10  C   UNL     1       3.303  -2.625   2.690  1.00  0.00     0.010 A 
ATOM     11  C   UNL     1       4.525  -2.103   3.138  1.00  0.00    -0.014 A 
BRANCH  11  12
ATOM     12  C   UNL     1       5.378  -2.811   4.130  1.00  0.00     0.031 A 
ATOM     13  C   UNL     1       6.017  -4.141   3.825  1.00  0.00     0.074 A 
ATOM     14  C   UNL     1       5.622  -2.201   5.306  1.00  0.00     0.049 A 
ATOM     15  N   UNL     1       6.856  -4.831   4.555  1.00  0.00    -0.248 NA
ATOM     16  C   UNL     1       5.669  -4.786   2.549  1.00  0.00     0.031 C 
ATOM     17  C   UNL     1       5.014  -0.938   5.734  1.00  0.00     0.029 A 
ATOM     18  N   UNL     1       6.453  -2.537   6.342  1.00  0.00    -0.354 N 
ATOM     19  C   UNL     1       7.108  -6.003   3.852  1.00  0.00     0.074 A 
ATOM     20  C   UNL     1       6.326  -5.937   2.635  1.00  0.00     0.031 C 
ATOM     21  C   UNL     1       5.532  -0.578   6.915  1.00  0.00     0.029 A 
ATOM     22  C   UNL     1       6.469  -1.607   7.354  1.00  0.00     0.049 A 
ATOM     23  H   UNL     1       6.987  -3.364   6.359  1.00  0.00     0.167 HD
ATOM     24  C   UNL     1       7.930  -7.030   4.179  1.00  0.00     0.034 A 
ATOM     25  C   UNL     1       7.158  -1.578   8.510  1.00  0.00     0.034 A 
ATOM     26  C   UNL     1       8.741  -7.071   5.370  1.00  0.00     0.049 A 
ATOM     27  C   UNL     1       8.118  -2.691   8.808  1.00  0.00     0.074 A 
ATOM     28  C   UNL     1       9.627  -8.055   5.775  1.00  0.00     0.029 A 
ATOM     29  N   UNL     1       8.774  -6.082   6.341  1.00  0.00    -0.354 N 
ATOM     30  N   UNL     1       8.416  -3.738   8.077  1.00  0.00    -0.248 NA
ATOM     31  C   UNL     1       8.857  -2.607  10.074  1.00  0.00     0.031 C 
ATOM     32  C   UNL     1      10.197  -7.659   6.990  1.00  0.00     0.029 A 
ATOM     33  C   UNL     1       9.670  -6.427   7.340  1.00  0.00     0.049 A 
ATOM     34  H   UNL     1       8.240  -5.255   6.323  1.00  0.00     0.167 HD
ATOM     35  C   UNL     1       9.376  -4.439   8.794  1.00  0.00     0.074 A 
ATOM     36  C   UNL     1       9.646  -3.671   9.993  1.00  0.00     0.031 C 
ATOM     37  C   UNL     1       9.955  -5.630   8.505  1.00  0.00     0.034 A 
BRANCH  24  38
ATOM     38  C   UNL     1       8.049  -8.178   3.210  1.00  0.00     0.023 A 
ATOM     39  C   UNL     1       8.822  -8.013   2.042  1.00  0.00     0.012 A 
ATOM     40  C   UNL     1       7.480  -9.437   3.489  1.00  0.00     0.148 A 
ATOM     41  C   UNL     1       9.012  -9.076   1.159  1.00  0.00     0.002 A 
ATOM     42  C   UNL     1       7.702 -10.501   2.620  1.00  0.00     0.091 A 
ATOM     43  F   UNL     1       6.731  -9.570   4.593  1.00  0.00    -0.205 F 
ATOM     44  C   UNL     1       8.463 -10.320   1.453  1.00  0.00     0.022 A 
BRANCH  42  45
ATOM     45  S   UNL     1       7.093 -12.161   2.946  1.00  0.00     0.127 S 
ATOM     46  O   UNL     1       5.994 -12.265   1.987  1.00  0.00    -0.237 OA
ATOM     47  O   UNL     1       8.258 -12.988   2.628  1.00  0.00    -0.237 OA
ATOM     48  O   UNL     1       6.707 -12.175   4.349  1.00  0.00    -0.744 OA
ENDBRANCH  42  45
ENDBRANCH  24  38
BRANCH  25  49
ATOM     49  C   UNL     1       6.993  -0.418   9.428  1.00  0.00     0.023 A 
ATOM     50  C   UNL     1       8.045   0.503   9.584  1.00  0.00     0.012 A 
ATOM     51  C   UNL     1       5.769  -0.178  10.081  1.00  0.00     0.148 A 
ATOM     52  C   UNL     1       7.884   1.635  10.385  1.00  0.00     0.002 A 
ATOM     53  C   UNL     1       5.594   0.984  10.823  1.00  0.00     0.091 A 
ATOM     54  F   UNL     1       4.782  -1.077   9.944  1.00  0.00    -0.205 F 
ATOM     55  C   UNL     1       6.654   1.885  10.990  1.00  0.00     0.022 A 
BRANCH  53  56
ATOM     56  S   UNL     1       3.979   1.433  11.469  1.00  0.00     0.127 S 
ATOM     57  O   UNL     1       4.024   0.872  12.815  1.00  0.00    -0.237 OA
ATOM     58  O   UNL     1       4.010   2.896  11.410  1.00  0.00    -0.237 OA
ATOM     59  O   UNL     1       3.029   0.826  10.545  1.00  0.00    -0.744 OA
ENDBRANCH  53  56
ENDBRANCH  25  49
BRANCH  37  60
ATOM     60  C   UNL     1      10.926  -6.178   9.515  1.00  0.00     0.023 A 
ATOM     61  C   UNL     1      10.430  -6.729  10.714  1.00  0.00     0.012 A 
ATOM     62  C   UNL     1      12.311  -6.186   9.269  1.00  0.00     0.148 A 
ATOM     63  C   UNL     1      11.303  -7.248  11.669  1.00  0.00     0.002 A 
ATOM     64  C   UNL     1      13.172  -6.740  10.210  1.00  0.00     0.091 A 
ATOM     65  F   UNL     1      12.766  -5.634   8.134  1.00  0.00    -0.205 F 
ATOM     66  C   UNL     1      12.671  -7.263  11.413  1.00  0.00     0.022 A 
BRANCH  64  67
ATOM     67  S   UNL     1      14.941  -6.861   9.918  1.00  0.00     0.127 S 
ATOM     68  O   UNL     1      15.443  -5.687  10.627  1.00  0.00    -0.237 OA
ATOM     69  O   UNL     1      15.280  -8.142  10.541  1.00  0.00    -0.237 OA
ATOM     70  O   UNL     1      15.097  -6.843   8.469  1.00  0.00    -0.744 OA
ENDBRANCH  64  67
ENDBRANCH  37  60
ENDBRANCH  11  12
ENDBRANCH   4   6
ENDBRANCH   1   2
BRANCH   1  71
ATOM     71  C   UNL     1       5.127  -0.643  -2.567  1.00  0.00     0.023 C 
BRANCH  71  72
ATOM     72  C   UNL     1       4.712   0.212  -3.757  1.00  0.00     0.023 C 
BRANCH  72  73
ATOM     73  C   UNL     1       5.041   1.689  -3.625  1.00  0.00     0.116 C 
BRANCH  73  74
ATOM     74  N   UNL     1       6.421   2.020  -3.873  1.00  0.00    -0.351 N 
ATOM     75  C   UNL     1       6.949   3.015  -4.644  1.00  0.00     0.278 C 
ATOM     76  H   UNL     1       7.080   1.445  -3.421  1.00  0.00     0.163 HD
ATOM     77  O   UNL     1       8.148   3.267  -4.466  1.00  0.00    -0.268 OA
BRANCH  75  78
ATOM     78  C   UNL     1       6.143   3.783  -5.727  1.00  0.00     0.274 C 
ATOM     79  C   UNL     1       5.365   2.914  -6.732  1.00  0.00     0.076 C 
ATOM     80  N   UNL     1       5.468   5.029  -5.269  1.00  0.00    -0.319 N 
ATOM     81  C   UNL     1       4.491   3.742  -7.682  1.00  0.00     0.016 C 
ATOM     82  C   UNL     1       4.984   5.858  -6.390  1.00  0.00     0.188 C 
ATOM     83  H   UNL     1       6.234   5.538  -4.828  1.00  0.00     0.349 HD
ATOM     84  C   UNL     1       5.023   5.168  -7.777  1.00  0.00     0.048 C 
ATOM     85  C   UNL     1       5.781   7.168  -6.502  1.00  0.00     0.065 C 
ATOM     86  C   UNL     1       4.250   6.032  -8.777  1.00  0.00     0.010 C 
ATOM     87  C   UNL     1       5.135   8.090  -7.544  1.00  0.00     0.006 C 
ATOM     88  C   UNL     1       4.905   7.410  -8.897  1.00  0.00     0.001 C 
BRANCH  80  89
ATOM     89  C   UNL     1       4.547   4.948  -4.110  1.00  0.00     0.194 C 
ATOM     90  C   UNL     1       3.114   4.457  -4.439  1.00  0.00     0.067 C 
ATOM     91  C   UNL     1       4.463   6.305  -3.369  1.00  0.00     0.134 C 
ATOM     92  C   UNL     1       2.294   4.162  -3.182  1.00  0.00     0.017 C 
ATOM     93  S   UNL     1       3.573   6.183  -1.778  1.00  0.00    -0.156 SA
ATOM     94  C   UNL     1       2.034   5.408  -2.349  1.00  0.00     0.070 C 
ENDBRANCH  80  89
ENDBRANCH  75  78
ENDBRANCH  73  74
ENDBRANCH  72  73
ENDBRANCH  71  72
ENDBRANCH   1  71
TORSDOF 15
