REMARK SMILES Cc1c(CCC(=O)N2CCC(C(=O)NCCCCNC(=O)c3ccc(-c4c5nc(c(-c6cccc(S(=O)(=O)[O-])c6F)c6ccc([nH]6)c(-c6cccc(S(=O)(=O)[O-])c6F)c6nc(c(-c7cccc(S(=O)(=O)[O-])c7F)c7ccc4[nH]7)C=C6)C=C5)cc3)CC2)c(=O)oc2cc3oc4c(c3cc12)CCCC4
REMARK SMILES IDX 16 1 15 2 14 3 12 4 13 5 11 7 6 8 7 9 8 10 9 11 86 12 10 13
REMARK SMILES IDX 85 14 5 15 4 16 3 17 1 18 2 19 98 20 87 21 90 22 97 23 88 24
REMARK SMILES IDX 89 25 91 26 96 27 92 28 95 29 93 30 94 31 99 32 102 33
REMARK SMILES IDX 100 34 101 35 17 36 18 37 19 38 20 39 21 41 22 42 23 43
REMARK SMILES IDX 84 44 24 45 83 46 25 47 26 48 27 49 77 50 28 51 82 52 76 53
REMARK SMILES IDX 78 54 29 55 81 56 75 57 74 58 30 60 62 61 42 62 61 63 43 64
REMARK SMILES IDX 46 65 60 66 79 67 44 68 45 69 59 71 80 72 47 73 31 74 32 75
REMARK SMILES IDX 40 76 33 77 35 78 41 79 34 80 36 81 37 82 38 83 39 84 63 85
REMARK SMILES IDX 64 86 72 87 65 88 67 89 73 90 66 91 68 92 69 93 70 94 71 95
REMARK SMILES IDX 48 96 49 97 57 98 50 99 52 100 58 101 51 102 53 103 54 104
REMARK SMILES IDX 55 105 56 106
REMARK H PARENT 14 6 19 40 78 59 46 70
REMARK Flexibility Score: inf
ROOT
ATOM      1  C   UNL     1       0.720  -2.812  -4.192  1.00  0.00     0.023 C 
ENDROOT
BRANCH   1   2
ATOM      2  C   UNL     1       0.692  -2.294  -2.763  1.00  0.00     0.116 C 
BRANCH   2   3
ATOM      3  N   UNL     1       0.813  -3.395  -1.826  1.00  0.00    -0.356 N 
ATOM      4  C   UNL     1       1.735  -3.651  -0.868  1.00  0.00     0.223 C 
ATOM      5  O   UNL     1       1.645  -4.720  -0.257  1.00  0.00    -0.275 OA
ATOM      6  H   UNL     1       0.103  -4.073  -1.899  1.00  0.00     0.163 HD
BRANCH   4   7
ATOM      7  C   UNL     1       2.699  -2.580  -0.385  1.00  0.00     0.082 C 
ATOM      8  C   UNL     1       3.145   1.420  -0.365  1.00  0.00     0.222 C 
ATOM      9  O   UNL     1       3.266   1.774  -1.538  1.00  0.00    -0.275 OA
ATOM     10  N   UNL     1       3.548   0.154   0.069  1.00  0.00    -0.343 N 
ATOM     11  C   UNL     1       4.439  -0.723  -0.728  1.00  0.00     0.120 C 
ATOM     12  C   UNL     1       2.736  -0.569   1.017  1.00  0.00     0.120 C 
ATOM     13  C   UNL     1       3.779  -2.012  -1.302  1.00  0.00     0.035 C 
ATOM     14  C   UNL     1       1.855  -1.441   0.145  1.00  0.00     0.035 C 
BRANCH   8  15
ATOM     15  C   UNL     1       2.638   2.426   0.703  1.00  0.00     0.105 C 
BRANCH  15  16
ATOM     16  C   UNL     1       1.123   2.752   0.782  1.00  0.00     0.053 C 
BRANCH  16  17
ATOM     17  C   UNL     1       0.396   2.010   1.890  1.00  0.00     0.042 A 
ATOM     18  C   UNL     1      -0.789   0.352   0.384  1.00  0.00     0.046 C 
ATOM     19  C   UNL     1      -0.257   0.859   1.693  1.00  0.00    -0.030 A 
ATOM     20  C   UNL     1      -0.454   0.051   2.884  1.00  0.00     0.022 A 
ATOM     21  C   UNL     1       0.254   2.610   3.265  1.00  0.00     0.339 A 
ATOM     22  C   UNL     1      -0.981   0.647   4.002  1.00  0.00     0.142 A 
ATOM     23  C   UNL     1      -0.087  -1.275   2.962  1.00  0.00     0.024 A 
ATOM     24  O   UNL     1       0.858   3.629   3.583  1.00  0.00    -0.246 OA
ATOM     25  O   UNL     1      -0.733   2.032   4.119  1.00  0.00    -0.422 OA
ATOM     26  C   UNL     1      -1.660  -0.114   4.974  1.00  0.00     0.095 A 
ATOM     27  C   UNL     1      -0.753  -2.089   3.854  1.00  0.00     0.025 A 
ATOM     28  C   UNL     1      -1.639  -1.503   4.746  1.00  0.00     0.138 A 
ATOM     29  C   UNL     1      -0.920  -3.482   3.882  1.00  0.00     0.001 A 
ATOM     30  O   UNL     1      -2.489  -2.489   5.204  1.00  0.00    -0.461 OA
ATOM     31  C   UNL     1      -2.122  -3.628   4.534  1.00  0.00     0.108 A 
ATOM     32  C   UNL     1      -0.405  -4.520   2.943  1.00  0.00     0.040 C 
ATOM     33  C   UNL     1      -3.112  -4.647   4.088  1.00  0.00     0.076 C 
ATOM     34  C   UNL     1      -1.536  -5.000   2.014  1.00  0.00     0.005 C 
ATOM     35  C   UNL     1      -2.977  -4.728   2.534  1.00  0.00     0.008 C 
ENDBRANCH  16  17
ENDBRANCH  15  16
ENDBRANCH   8  15
ENDBRANCH   4   7
ENDBRANCH   2   3
ENDBRANCH   1   2
BRANCH   1  36
ATOM     36  C   UNL     1      -0.439  -3.755  -4.506  1.00  0.00     0.023 C 
BRANCH  36  37
ATOM     37  C   UNL     1      -1.815  -3.123  -4.296  1.00  0.00     0.116 C 
BRANCH  37  38
ATOM     38  N   UNL     1      -2.137  -2.095  -5.276  1.00  0.00    -0.352 N 
ATOM     39  C   UNL     1      -2.539  -2.270  -6.592  1.00  0.00     0.251 C 
ATOM     40  H   UNL     1      -2.060  -1.163  -4.967  1.00  0.00     0.163 HD
ATOM     41  O   UNL     1      -2.750  -1.333  -7.326  1.00  0.00    -0.269 OA
BRANCH  39  42
ATOM     42  C   UNL     1      -2.670  -3.670  -7.050  1.00  0.00     0.039 A 
ATOM     43  C   UNL     1      -3.629  -4.477  -6.434  1.00  0.00     0.014 A 
ATOM     44  C   UNL     1      -1.654  -4.211  -7.841  1.00  0.00     0.014 A 
ATOM     45  C   UNL     1      -3.445  -5.850  -6.439  1.00  0.00     0.010 A 
ATOM     46  C   UNL     1      -1.505  -5.594  -7.886  1.00  0.00     0.010 A 
ATOM     47  C   UNL     1      -2.350  -6.403  -7.116  1.00  0.00    -0.014 A 
BRANCH  47  48
ATOM     48  C   UNL     1      -2.156  -7.850  -6.954  1.00  0.00     0.031 A 
ATOM     49  C   UNL     1      -2.486  -8.628  -8.180  1.00  0.00     0.074 A 
ATOM     50  C   UNL     1      -1.223  -8.342  -6.111  1.00  0.00     0.049 A 
ATOM     51  N   UNL     1      -1.653  -8.776  -9.165  1.00  0.00    -0.248 NA
ATOM     52  C   UNL     1      -3.858  -9.027  -8.492  1.00  0.00     0.031 C 
ATOM     53  C   UNL     1       0.097  -7.738  -5.883  1.00  0.00     0.029 A 
ATOM     54  N   UNL     1      -1.146  -9.569  -5.492  1.00  0.00    -0.354 N 
ATOM     55  C   UNL     1      -2.387  -9.212 -10.252  1.00  0.00     0.074 A 
ATOM     56  C   UNL     1      -3.747  -9.368  -9.785  1.00  0.00     0.031 C 
ATOM     57  C   UNL     1       0.909  -8.666  -5.338  1.00  0.00     0.029 A 
ATOM     58  C   UNL     1       0.137  -9.866  -5.036  1.00  0.00     0.049 A 
ATOM     59  H   UNL     1      -1.916 -10.173  -5.383  1.00  0.00     0.167 HD
ATOM     60  C   UNL     1      -1.840  -9.410 -11.480  1.00  0.00     0.034 A 
ATOM     61  C   UNL     1       0.644 -11.126  -4.940  1.00  0.00     0.034 A 
ATOM     62  C   UNL     1      -0.426  -9.183 -11.565  1.00  0.00     0.049 A 
ATOM     63  C   UNL     1       0.929 -11.429  -6.388  1.00  0.00     0.074 A 
ATOM     64  C   UNL     1       0.402  -8.153 -11.950  1.00  0.00     0.029 A 
ATOM     65  N   UNL     1       0.414 -10.149 -11.063  1.00  0.00    -0.354 N 
ATOM     66  N   UNL     1       1.969 -10.999  -7.058  1.00  0.00    -0.248 NA
ATOM     67  C   UNL     1      -0.181 -11.886  -7.226  1.00  0.00     0.031 C 
ATOM     68  C   UNL     1       1.643  -8.382 -11.275  1.00  0.00     0.029 A 
ATOM     69  C   UNL     1       1.481  -9.514 -10.478  1.00  0.00     0.049 A 
ATOM     70  H   UNL     1       0.276 -11.122 -11.114  1.00  0.00     0.167 HD
ATOM     71  C   UNL     1       1.510 -10.813  -8.366  1.00  0.00     0.074 A 
ATOM     72  C   UNL     1       0.198 -11.425  -8.410  1.00  0.00     0.031 C 
ATOM     73  C   UNL     1       2.128 -10.006  -9.278  1.00  0.00     0.034 A 
BRANCH  60  74
ATOM     74  C   UNL     1      -2.571  -9.987 -12.629  1.00  0.00     0.023 A 
ATOM     75  C   UNL     1      -2.355 -11.355 -12.887  1.00  0.00     0.012 A 
ATOM     76  C   UNL     1      -3.316  -9.218 -13.538  1.00  0.00     0.148 A 
ATOM     77  C   UNL     1      -2.830 -11.946 -14.052  1.00  0.00     0.002 A 
ATOM     78  C   UNL     1      -3.796  -9.818 -14.701  1.00  0.00     0.091 A 
ATOM     79  F   UNL     1      -3.502  -7.916 -13.281  1.00  0.00    -0.205 F 
ATOM     80  C   UNL     1      -3.544 -11.177 -14.963  1.00  0.00     0.022 A 
BRANCH  78  81
ATOM     81  S   UNL     1      -4.742  -8.926 -15.941  1.00  0.00     0.127 S 
ATOM     82  O   UNL     1      -3.757  -8.747 -17.005  1.00  0.00    -0.237 OA
ATOM     83  O   UNL     1      -5.811  -9.877 -16.255  1.00  0.00    -0.237 OA
ATOM     84  O   UNL     1      -5.200  -7.708 -15.287  1.00  0.00    -0.744 OA
ENDBRANCH  78  81
ENDBRANCH  60  74
BRANCH  61  85
ATOM     85  C   UNL     1      -0.103 -12.001  -3.980  1.00  0.00     0.023 A 
ATOM     86  C   UNL     1      -0.205 -11.508  -2.653  1.00  0.00     0.012 A 
ATOM     87  C   UNL     1      -0.746 -13.216  -4.267  1.00  0.00     0.148 A 
ATOM     88  C   UNL     1      -0.999 -12.130  -1.689  1.00  0.00     0.002 A 
ATOM     89  C   UNL     1      -1.589 -13.802  -3.322  1.00  0.00     0.091 A 
ATOM     90  F   UNL     1      -0.545 -13.799  -5.453  1.00  0.00    -0.205 F 
ATOM     91  C   UNL     1      -1.719 -13.263  -2.034  1.00  0.00     0.022 A 
BRANCH  89  92
ATOM     92  S   UNL     1      -2.641 -15.208  -3.712  1.00  0.00     0.127 S 
ATOM     93  O   UNL     1      -2.380 -16.108  -2.590  1.00  0.00    -0.237 OA
ATOM     94  O   UNL     1      -3.963 -14.585  -3.710  1.00  0.00    -0.237 OA
ATOM     95  O   UNL     1      -2.186 -15.693  -5.008  1.00  0.00    -0.744 OA
ENDBRANCH  89  92
ENDBRANCH  61  85
BRANCH  73  96
ATOM     96  C   UNL     1       3.467  -9.459  -8.883  1.00  0.00     0.023 A 
ATOM     97  C   UNL     1       4.555 -10.346  -8.788  1.00  0.00     0.012 A 
ATOM     98  C   UNL     1       3.685  -8.081  -8.680  1.00  0.00     0.148 A 
ATOM     99  C   UNL     1       5.840  -9.874  -8.527  1.00  0.00     0.002 A 
ATOM    100  C   UNL     1       4.976  -7.610  -8.468  1.00  0.00     0.091 A 
ATOM    101  F   UNL     1       2.635  -7.247  -8.712  1.00  0.00    -0.205 F 
ATOM    102  C   UNL     1       6.054  -8.505  -8.387  1.00  0.00     0.022 A 
BRANCH 100 103
ATOM    103  S   UNL     1       5.368  -5.860  -8.353  1.00  0.00     0.127 S 
ATOM    104  O   UNL     1       6.043  -5.780  -7.057  1.00  0.00    -0.237 OA
ATOM    105  O   UNL     1       6.246  -5.672  -9.508  1.00  0.00    -0.237 OA
ATOM    106  O   UNL     1       4.099  -5.148  -8.422  1.00  0.00    -0.744 OA
ENDBRANCH 100 103
ENDBRANCH  73  96
ENDBRANCH  47  48
ENDBRANCH  39  42
ENDBRANCH  37  38
ENDBRANCH  36  37
ENDBRANCH   1  36
TORSDOF 17
