REMARK SMILES NS(=O)(=O)c1ccc(-n2nc(C(F)(F)F)cc2-c2ccc(CC(=O)NCCCCNC(=O)c3ccc(-c4c5nc(c(-c6cccc(S(=O)(=O)[O-])c6F)c6ccc([nH]6)c(-c6cccc(S(=O)(=O)[O-])c6F)c6nc(c(-c7cccc(S(=O)(=O)[O-])c7F)c7ccc4[nH]7)C=C6)C=C5)cc3)cc2)cc1
REMARK SMILES IDX 26 1 25 2 23 3 24 4 22 6 21 7 18 8 19 9 97 10 20 11 96 12
REMARK SMILES IDX 17 13 9 14 10 15 11 16 16 17 8 18 5 19 6 20 99 21 7 22 98 23
REMARK SMILES IDX 2 24 3 25 4 26 1 27 12 30 13 31 14 32 15 33 27 34 28 35
REMARK SMILES IDX 29 36 30 37 31 38 32 40 33 41 34 42 95 43 35 44 94 45 36 46
REMARK SMILES IDX 37 47 38 48 88 49 39 50 93 51 87 52 89 53 40 54 92 55 86 56
REMARK SMILES IDX 85 57 41 59 73 60 53 61 72 62 54 63 57 64 71 65 90 66 55 67
REMARK SMILES IDX 56 68 70 70 91 71 58 72 42 73 43 74 51 75 44 76 46 77 52 78
REMARK SMILES IDX 45 79 47 80 48 81 49 82 50 83 74 84 75 85 83 86 76 87 78 88
REMARK SMILES IDX 84 89 77 90 79 91 80 92 81 93 82 94 59 95 60 96 68 97 61 98
REMARK SMILES IDX 63 99 69 100 62 101 64 102 65 103 66 104 67 105
REMARK H PARENT 25 5 1 28 1 29 30 39 89 58 57 69
REMARK Flexibility Score: inf
ROOT
ATOM      1  C   UNL     1       5.684   1.381   3.691  1.00  0.00     0.116 C 
ENDROOT
BRANCH   1   2
ATOM      2  N   UNL     1       6.563   1.352   2.537  1.00  0.00    -0.356 N 
ATOM      3  C   UNL     1       7.349   2.345   2.026  1.00  0.00     0.224 C 
ATOM      4  O   UNL     1       7.851   2.191   0.911  1.00  0.00    -0.275 OA
ATOM      5  H   UNL     1       6.598   0.495   2.054  1.00  0.00     0.163 HD
BRANCH   3   6
ATOM      6  C   UNL     1       7.575   3.622   2.820  1.00  0.00     0.135 C 
BRANCH   6   7
ATOM      7  C   UNL     1       6.376   4.541   2.826  1.00  0.00    -0.039 A 
ATOM      8  C   UNL     1       4.024   6.094   2.843  1.00  0.00     0.000 A 
ATOM      9  C   UNL     1       4.626   5.722   1.633  1.00  0.00     0.010 A 
ATOM     10  C   UNL     1       4.646   5.737   4.044  1.00  0.00     0.010 A 
ATOM     11  C   UNL     1       5.791   4.953   1.623  1.00  0.00     0.005 A 
ATOM     12  C   UNL     1       5.816   4.972   4.035  1.00  0.00     0.005 A 
BRANCH   8  13
ATOM     13  C   UNL     1       2.794   6.888   2.851  1.00  0.00     0.075 A 
ATOM     14  N   UNL     1       1.674   6.662   2.059  1.00  0.00    -0.233 N 
ATOM     15  N   UNL     1       0.835   7.731   2.052  1.00  0.00    -0.163 NA
ATOM     16  C   UNL     1       1.280   8.520   3.048  1.00  0.00     0.167 A 
ATOM     17  C   UNL     1       2.515   8.044   3.552  1.00  0.00     0.064 A 
BRANCH  14  18
ATOM     18  C   UNL     1       1.298   5.480   1.372  1.00  0.00     0.065 A 
ATOM     19  C   UNL     1       0.574   3.160   0.009  1.00  0.00     0.082 A 
ATOM     20  C   UNL     1       1.051   3.079   1.318  1.00  0.00     0.024 A 
ATOM     21  C   UNL     1       0.406   4.404  -0.604  1.00  0.00     0.024 A 
ATOM     22  C   UNL     1       1.462   4.233   1.987  1.00  0.00     0.030 A 
ATOM     23  C   UNL     1       0.724   5.571   0.097  1.00  0.00     0.030 A 
BRANCH  19  24
ATOM     24  S   UNL     1       0.235   1.695  -0.927  1.00  0.00     0.238 S 
ATOM     25  O   UNL     1       0.874   1.823  -2.214  1.00  0.00    -0.207 OA
ATOM     26  O   UNL     1      -1.168   1.383  -0.778  1.00  0.00    -0.207 OA
BRANCH  24  27
ATOM     27  N   UNL     1       1.072   0.473  -0.133  1.00  0.00    -0.225 NA
ATOM     28  H   UNL     1       0.923  -0.412  -0.618  1.00  0.00     0.137 HD
ATOM     29  H   UNL     1       0.732   0.395   0.826  1.00  0.00     0.137 HD
ENDBRANCH  24  27
ENDBRANCH  19  24
ENDBRANCH  14  18
BRANCH  16  30
ATOM     30  C   UNL     1       0.541   9.743   3.515  1.00  0.00     0.435 C 
ATOM     31  F   UNL     1       0.135  10.544   2.495  1.00  0.00    -0.164 F 
ATOM     32  F   UNL     1      -0.567   9.426   4.238  1.00  0.00    -0.164 F 
ATOM     33  F   UNL     1       1.313  10.520   4.327  1.00  0.00    -0.164 F 
ENDBRANCH  16  30
ENDBRANCH   8  13
ENDBRANCH   6   7
ENDBRANCH   3   6
ENDBRANCH   1   2
BRANCH   1  34
ATOM     34  C   UNL     1       4.234   1.657   3.282  1.00  0.00     0.023 C 
BRANCH  34  35
ATOM     35  C   UNL     1       3.585   0.539   2.458  1.00  0.00     0.023 C 
BRANCH  35  36
ATOM     36  C   UNL     1       3.256  -0.727   3.232  1.00  0.00     0.116 C 
BRANCH  36  37
ATOM     37  N   UNL     1       2.280  -0.505   4.302  1.00  0.00    -0.352 N 
ATOM     38  C   UNL     1       1.981  -1.352   5.352  1.00  0.00     0.251 C 
ATOM     39  H   UNL     1       1.781   0.343   4.270  1.00  0.00     0.163 HD
ATOM     40  O   UNL     1       0.940  -1.239   5.987  1.00  0.00    -0.269 OA
BRANCH  38  41
ATOM     41  C   UNL     1       2.953  -2.407   5.676  1.00  0.00     0.039 A 
ATOM     42  C   UNL     1       2.566  -3.748   5.727  1.00  0.00     0.014 A 
ATOM     43  C   UNL     1       4.290  -2.034   5.783  1.00  0.00     0.014 A 
ATOM     44  C   UNL     1       3.554  -4.729   5.770  1.00  0.00     0.010 A 
ATOM     45  C   UNL     1       5.261  -3.005   5.697  1.00  0.00     0.010 A 
ATOM     46  C   UNL     1       4.906  -4.356   5.716  1.00  0.00    -0.014 A 
BRANCH  46  47
ATOM     47  C   UNL     1       5.949  -5.372   5.554  1.00  0.00     0.031 A 
ATOM     48  C   UNL     1       5.802  -6.304   4.395  1.00  0.00     0.074 A 
ATOM     49  C   UNL     1       7.115  -5.337   6.235  1.00  0.00     0.049 A 
ATOM     50  N   UNL     1       5.681  -7.592   4.427  1.00  0.00    -0.248 NA
ATOM     51  C   UNL     1       5.712  -5.735   3.042  1.00  0.00     0.031 C 
ATOM     52  C   UNL     1       7.575  -4.305   7.172  1.00  0.00     0.029 A 
ATOM     53  N   UNL     1       8.214  -6.130   6.092  1.00  0.00    -0.354 N 
ATOM     54  C   UNL     1       5.715  -8.018   3.098  1.00  0.00     0.074 A 
ATOM     55  C   UNL     1       5.572  -6.832   2.294  1.00  0.00     0.031 C 
ATOM     56  C   UNL     1       8.919  -4.365   7.274  1.00  0.00     0.029 A 
ATOM     57  C   UNL     1       9.381  -5.546   6.572  1.00  0.00     0.049 A 
ATOM     58  H   UNL     1       8.185  -7.027   5.688  1.00  0.00     0.167 HD
ATOM     59  C   UNL     1       6.077  -9.289   2.759  1.00  0.00     0.034 A 
ATOM     60  C   UNL     1      10.648  -5.974   6.371  1.00  0.00     0.034 A 
ATOM     61  C   UNL     1       6.109 -10.158   3.906  1.00  0.00     0.049 A 
ATOM     62  C   UNL     1      10.579  -7.407   6.017  1.00  0.00     0.074 A 
ATOM     63  C   UNL     1       5.206 -10.562   4.868  1.00  0.00     0.029 A 
ATOM     64  N   UNL     1       7.349 -10.501   4.387  1.00  0.00    -0.354 N 
ATOM     65  N   UNL     1      10.189  -8.336   6.845  1.00  0.00    -0.248 NA
ATOM     66  C   UNL     1      10.593  -7.785   4.615  1.00  0.00     0.031 C 
ATOM     67  C   UNL     1       5.974 -10.680   6.064  1.00  0.00     0.029 A 
ATOM     68  C   UNL     1       7.303 -10.385   5.749  1.00  0.00     0.049 A 
ATOM     69  H   UNL     1       8.126 -10.778   3.851  1.00  0.00     0.167 HD
ATOM     70  C   UNL     1       9.481  -9.227   6.052  1.00  0.00     0.074 A 
ATOM     71  C   UNL     1       9.895  -8.921   4.686  1.00  0.00     0.031 C 
ATOM     72  C   UNL     1       8.411  -9.916   6.552  1.00  0.00     0.034 A 
BRANCH  59  73
ATOM     73  C   UNL     1       6.740  -9.713   1.464  1.00  0.00     0.023 A 
ATOM     74  C   UNL     1       6.871 -11.103   1.224  1.00  0.00     0.012 A 
ATOM     75  C   UNL     1       7.479  -8.852   0.624  1.00  0.00     0.148 A 
ATOM     76  C   UNL     1       7.736 -11.608   0.247  1.00  0.00     0.002 A 
ATOM     77  C   UNL     1       8.272  -9.357  -0.403  1.00  0.00     0.091 A 
ATOM     78  F   UNL     1       7.538  -7.544   0.892  1.00  0.00    -0.205 F 
ATOM     79  C   UNL     1       8.432 -10.733  -0.575  1.00  0.00     0.022 A 
BRANCH  77  80
ATOM     80  S   UNL     1       9.136  -8.263  -1.537  1.00  0.00     0.127 S 
ATOM     81  O   UNL     1      10.492  -8.294  -0.998  1.00  0.00    -0.237 OA
ATOM     82  O   UNL     1       8.960  -8.951  -2.817  1.00  0.00    -0.237 OA
ATOM     83  O   UNL     1       8.430  -6.990  -1.445  1.00  0.00    -0.744 OA
ENDBRANCH  77  80
ENDBRANCH  59  73
BRANCH  60  84
ATOM     84  C   UNL     1      11.901  -5.196   6.295  1.00  0.00     0.023 A 
ATOM     85  C   UNL     1      13.131  -5.833   6.542  1.00  0.00     0.012 A 
ATOM     86  C   UNL     1      11.918  -3.901   5.729  1.00  0.00     0.148 A 
ATOM     87  C   UNL     1      14.340  -5.218   6.201  1.00  0.00     0.002 A 
ATOM     88  C   UNL     1      13.124  -3.289   5.400  1.00  0.00     0.091 A 
ATOM     89  F   UNL     1      10.753  -3.311   5.427  1.00  0.00    -0.205 F 
ATOM     90  C   UNL     1      14.337  -3.951   5.622  1.00  0.00     0.022 A 
BRANCH  88  91
ATOM     91  S   UNL     1      13.187  -1.661   4.640  1.00  0.00     0.127 S 
ATOM     92  O   UNL     1      14.280  -1.021   5.374  1.00  0.00    -0.237 OA
ATOM     93  O   UNL     1      13.490  -1.989   3.251  1.00  0.00    -0.237 OA
ATOM     94  O   UNL     1      11.879  -1.064   4.884  1.00  0.00    -0.744 OA
ENDBRANCH  88  91
ENDBRANCH  60  84
BRANCH  72  95
ATOM     95  C   UNL     1       8.202  -9.927   8.047  1.00  0.00     0.023 A 
ATOM     96  C   UNL     1       7.984  -8.745   8.784  1.00  0.00     0.012 A 
ATOM     97  C   UNL     1       8.055 -11.164   8.698  1.00  0.00     0.148 A 
ATOM     98  C   UNL     1       7.663  -8.792  10.143  1.00  0.00     0.002 A 
ATOM     99  C   UNL     1       7.687 -11.209  10.038  1.00  0.00     0.091 A 
ATOM    100  F   UNL     1       8.257 -12.286   7.989  1.00  0.00    -0.205 F 
ATOM    101  C   UNL     1       7.502 -10.025  10.768  1.00  0.00     0.022 A 
BRANCH  99 102
ATOM    102  S   UNL     1       7.335 -12.769  10.853  1.00  0.00     0.127 S 
ATOM    103  O   UNL     1       8.589 -13.040  11.552  1.00  0.00    -0.237 OA
ATOM    104  O   UNL     1       6.210 -12.428  11.725  1.00  0.00    -0.237 OA
ATOM    105  O   UNL     1       6.991 -13.699   9.784  1.00  0.00    -0.744 OA
ENDBRANCH  99 102
ENDBRANCH  72  95
ENDBRANCH  46  47
ENDBRANCH  38  41
ENDBRANCH  36  37
ENDBRANCH  35  36
ENDBRANCH  34  35
ENDBRANCH   1  34
TORSDOF 20
