REMARK SMILES CC(C)c1ccc(-c2cnc([C@@H]3[NH2+][C@H](C(=O)NCCCCNC(=O)c4ccc(-c5c6nc(c(-c7cccc(S(=O)(=O)[O-])c7F)c7ccc([nH]7)c(-c7cccc(S(=O)(=O)[O-])c7F)c7nc(c(-c8cccc(S(=O)(=O)[O-])c8F)c8ccc5[nH]8)C=C7)C=C6)cc4)C(C)(C)S3)s2)cc1
REMARK SMILES IDX 19 1 18 2 17 3 15 4 16 5 14 7 12 8 13 9 91 10 88 13 89 14
REMARK SMILES IDX 90 15 11 16 8 17 9 18 92 19 10 20 7 21 4 22 5 23 94 24 6 25
REMARK SMILES IDX 93 26 2 27 1 28 3 29 20 30 21 31 22 32 23 33 24 35 25 36
REMARK SMILES IDX 26 37 87 38 27 39 86 40 28 41 29 42 30 43 80 44 31 45 85 46
REMARK SMILES IDX 79 47 81 48 32 49 84 50 78 51 77 52 33 54 65 55 45 56 64 57
REMARK SMILES IDX 46 58 49 59 63 60 82 61 47 62 48 63 62 65 83 66 50 67 34 68
REMARK SMILES IDX 35 69 43 70 36 71 38 72 44 73 37 74 39 75 40 76 41 77 42 78
REMARK SMILES IDX 66 79 67 80 75 81 68 82 70 83 76 84 69 85 71 86 72 87 73 88
REMARK SMILES IDX 74 89 51 90 52 91 60 92 53 93 55 94 61 95 54 96 56 97 57 98
REMARK SMILES IDX 58 99 59 100
REMARK H PARENT 17 6 13 11 13 12 22 34 81 53 49 64
REMARK Flexibility Score: inf
ROOT
ATOM      1  C   UNL     1     -15.329   0.613  -0.787  1.00  0.00     0.023 C 
ENDROOT
BRANCH   1   2
ATOM      2  C   UNL     1     -14.118  -0.161  -1.318  1.00  0.00     0.116 C 
BRANCH   2   3
ATOM      3  N   UNL     1     -13.229   0.714  -2.050  1.00  0.00    -0.351 N 
ATOM      4  C   UNL     1     -12.218   1.494  -1.570  1.00  0.00     0.279 C 
ATOM      5  O   UNL     1     -12.100   2.586  -2.116  1.00  0.00    -0.268 OA
ATOM      6  H   UNL     1     -13.373   0.751  -3.024  1.00  0.00     0.163 HD
BRANCH   4   7
ATOM      7  C   UNL     1     -11.283   0.950  -0.464  1.00  0.00     0.289 C 
ATOM      8  C   UNL     1      -9.099   1.974  -0.746  1.00  0.00     0.304 C 
ATOM      9  N   UNL     1      -9.893   0.749  -0.993  1.00  0.00    -0.318 N 
ATOM     10  S   UNL     1      -9.724   2.762   0.769  1.00  0.00    -0.079 SA
ATOM     11  H   UNL     1      -9.458  -0.042  -0.518  1.00  0.00     0.348 HD
ATOM     12  H   UNL     1      -9.931   0.559  -1.994  1.00  0.00     0.348 HD
ATOM     13  C   UNL     1     -11.223   1.731   0.868  1.00  0.00     0.078 C 
ATOM     14  C   UNL     1     -10.996   0.763   2.045  1.00  0.00     0.030 C 
ATOM     15  C   UNL     1     -12.442   2.601   1.171  1.00  0.00     0.030 C 
BRANCH   8  16
ATOM     16  C   UNL     1      -9.015   2.940  -1.910  1.00  0.00     0.162 A 
ATOM     17  C   UNL     1      -8.344   4.210  -3.891  1.00  0.00     0.055 A 
ATOM     18  C   UNL     1      -9.545   4.563  -3.306  1.00  0.00     0.132 A 
ATOM     19  S   UNL     1      -7.694   2.870  -3.028  1.00  0.00    -0.112 S 
ATOM     20  N   UNL     1      -9.854   3.928  -2.132  1.00  0.00    -0.242 NA
BRANCH  17  21
ATOM     21  C   UNL     1      -7.668   4.863  -5.019  1.00  0.00    -0.007 A 
ATOM     22  C   UNL     1      -6.459   6.259  -7.186  1.00  0.00    -0.045 A 
ATOM     23  C   UNL     1      -6.244   4.883  -6.991  1.00  0.00     0.004 A 
ATOM     24  C   UNL     1      -7.283   6.924  -6.276  1.00  0.00     0.004 A 
ATOM     25  C   UNL     1      -6.837   4.194  -5.920  1.00  0.00     0.010 A 
ATOM     26  C   UNL     1      -7.876   6.237  -5.215  1.00  0.00     0.010 A 
BRANCH  22  27
ATOM     27  C   UNL     1      -5.806   6.967  -8.365  1.00  0.00     0.013 C 
ATOM     28  C   UNL     1      -6.367   8.363  -8.674  1.00  0.00     0.012 C 
ATOM     29  C   UNL     1      -4.291   7.068  -8.160  1.00  0.00     0.012 C 
ENDBRANCH  22  27
ENDBRANCH  17  21
ENDBRANCH   8  16
ENDBRANCH   4   7
ENDBRANCH   2   3
ENDBRANCH   1   2
BRANCH   1  30
ATOM     30  C   UNL     1     -16.107   1.423  -1.833  1.00  0.00     0.023 C 
BRANCH  30  31
ATOM     31  C   UNL     1     -16.560   0.650  -3.067  1.00  0.00     0.116 C 
BRANCH  31  32
ATOM     32  N   UNL     1     -17.400  -0.490  -2.736  1.00  0.00    -0.352 N 
ATOM     33  C   UNL     1     -18.581  -0.894  -3.303  1.00  0.00     0.251 C 
ATOM     34  H   UNL     1     -17.073  -1.053  -1.998  1.00  0.00     0.163 HD
ATOM     35  O   UNL     1     -19.210  -1.823  -2.791  1.00  0.00    -0.269 OA
BRANCH  33  36
ATOM     36  C   UNL     1     -19.117  -0.210  -4.500  1.00  0.00     0.039 A 
ATOM     37  C   UNL     1     -20.480   0.102  -4.540  1.00  0.00     0.014 A 
ATOM     38  C   UNL     1     -18.296   0.113  -5.584  1.00  0.00     0.014 A 
ATOM     39  C   UNL     1     -21.007   0.787  -5.638  1.00  0.00     0.010 A 
ATOM     40  C   UNL     1     -18.810   0.850  -6.650  1.00  0.00     0.010 A 
ATOM     41  C   UNL     1     -20.170   1.192  -6.690  1.00  0.00    -0.014 A 
BRANCH  41  42
ATOM     42  C   UNL     1     -20.695   1.982  -7.833  1.00  0.00     0.031 A 
ATOM     43  C   UNL     1     -20.689   1.403  -9.223  1.00  0.00     0.074 A 
ATOM     44  C   UNL     1     -21.099   3.253  -7.635  1.00  0.00     0.049 A 
ATOM     45  N   UNL     1     -21.044   1.962 -10.350  1.00  0.00    -0.248 NA
ATOM     46  C   UNL     1     -20.198   0.023  -9.367  1.00  0.00     0.031 C 
ATOM     47  C   UNL     1     -21.084   3.955  -6.350  1.00  0.00     0.029 A 
ATOM     48  N   UNL     1     -21.574   4.190  -8.519  1.00  0.00    -0.354 N 
ATOM     49  C   UNL     1     -20.788   1.021 -11.340  1.00  0.00     0.074 A 
ATOM     50  C   UNL     1     -20.220  -0.137 -10.683  1.00  0.00     0.031 C 
ATOM     51  C   UNL     1     -21.530   5.209  -6.528  1.00  0.00     0.029 A 
ATOM     52  C   UNL     1     -21.840   5.410  -7.940  1.00  0.00     0.049 A 
ATOM     53  H   UNL     1     -21.711   4.007  -9.476  1.00  0.00     0.167 HD
ATOM     54  C   UNL     1     -21.032   1.098 -12.670  1.00  0.00     0.034 A 
ATOM     55  C   UNL     1     -22.282   6.560  -8.486  1.00  0.00     0.034 A 
ATOM     56  C   UNL     1     -21.647   2.228 -13.314  1.00  0.00     0.049 A 
ATOM     57  C   UNL     1     -22.591   6.601  -9.959  1.00  0.00     0.074 A 
ATOM     58  C   UNL     1     -22.010   2.369 -14.642  1.00  0.00     0.029 A 
ATOM     59  N   UNL     1     -21.994   3.409 -12.677  1.00  0.00    -0.354 N 
ATOM     60  N   UNL     1     -22.488   5.645 -10.850  1.00  0.00    -0.248 NA
ATOM     61  C   UNL     1     -23.112   7.867 -10.494  1.00  0.00     0.031 C 
ATOM     62  C   UNL     1     -22.573   3.638 -14.809  1.00  0.00     0.029 A 
ATOM     63  C   UNL     1     -22.568   4.284 -13.583  1.00  0.00     0.049 A 
ATOM     64  H   UNL     1     -21.853   3.598 -11.721  1.00  0.00     0.167 HD
ATOM     65  C   UNL     1     -22.963   6.182 -12.041  1.00  0.00     0.074 A 
ATOM     66  C   UNL     1     -23.375   7.541 -11.752  1.00  0.00     0.031 C 
ATOM     67  C   UNL     1     -23.035   5.609 -13.267  1.00  0.00     0.034 A 
BRANCH  54  68
ATOM     68  C   UNL     1     -20.702  -0.106 -13.511  1.00  0.00     0.023 A 
ATOM     69  C   UNL     1     -21.525  -1.248 -13.428  1.00  0.00     0.012 A 
ATOM     70  C   UNL     1     -19.628  -0.092 -14.422  1.00  0.00     0.148 A 
ATOM     71  C   UNL     1     -21.268  -2.368 -14.216  1.00  0.00     0.002 A 
ATOM     72  C   UNL     1     -19.401  -1.199 -15.233  1.00  0.00     0.091 A 
ATOM     73  F   UNL     1     -18.843   0.994 -14.472  1.00  0.00    -0.205 F 
ATOM     74  C   UNL     1     -20.214  -2.341 -15.125  1.00  0.00     0.022 A 
BRANCH  72  75
ATOM     75  S   UNL     1     -18.113  -1.236 -16.485  1.00  0.00     0.127 S 
ATOM     76  O   UNL     1     -17.126  -2.119 -15.868  1.00  0.00    -0.237 OA
ATOM     77  O   UNL     1     -18.811  -1.810 -17.634  1.00  0.00    -0.237 OA
ATOM     78  O   UNL     1     -17.692   0.149 -16.663  1.00  0.00    -0.744 OA
ENDBRANCH  72  75
ENDBRANCH  54  68
BRANCH  55  79
ATOM     79  C   UNL     1     -22.544   7.744  -7.620  1.00  0.00     0.023 A 
ATOM     80  C   UNL     1     -23.875   8.133  -7.375  1.00  0.00     0.012 A 
ATOM     81  C   UNL     1     -21.496   8.467  -7.019  1.00  0.00     0.148 A 
ATOM     82  C   UNL     1     -24.159   9.239  -6.574  1.00  0.00     0.002 A 
ATOM     83  C   UNL     1     -21.787   9.538  -6.180  1.00  0.00     0.091 A 
ATOM     84  F   UNL     1     -20.234   8.095  -7.277  1.00  0.00    -0.205 F 
ATOM     85  C   UNL     1     -23.116   9.935  -5.968  1.00  0.00     0.022 A 
BRANCH  83  86
ATOM     86  S   UNL     1     -20.510  10.407  -5.262  1.00  0.00     0.127 S 
ATOM     87  O   UNL     1     -20.359  11.630  -6.043  1.00  0.00    -0.237 OA
ATOM     88  O   UNL     1     -21.138  10.584  -3.952  1.00  0.00    -0.237 OA
ATOM     89  O   UNL     1     -19.363   9.505  -5.254  1.00  0.00    -0.744 OA
ENDBRANCH  83  86
ENDBRANCH  55  79
BRANCH  67  90
ATOM     90  C   UNL     1     -23.608   6.431 -14.391  1.00  0.00     0.023 A 
ATOM     91  C   UNL     1     -22.836   7.463 -14.960  1.00  0.00     0.012 A 
ATOM     92  C   UNL     1     -24.872   6.131 -14.934  1.00  0.00     0.148 A 
ATOM     93  C   UNL     1     -23.325   8.202 -16.036  1.00  0.00     0.002 A 
ATOM     94  C   UNL     1     -25.335   6.843 -16.035  1.00  0.00     0.091 A 
ATOM     95  F   UNL     1     -25.600   5.159 -14.365  1.00  0.00    -0.205 F 
ATOM     96  C   UNL     1     -24.568   7.885 -16.581  1.00  0.00     0.022 A 
BRANCH  94  97
ATOM     97  S   UNL     1     -26.883   6.440 -16.853  1.00  0.00     0.127 S 
ATOM     98  O   UNL     1     -27.765   7.497 -16.363  1.00  0.00    -0.237 OA
ATOM     99  O   UNL     1     -26.528   6.551 -18.269  1.00  0.00    -0.237 OA
ATOM    100  O   UNL     1     -27.219   5.089 -16.424  1.00  0.00    -0.744 OA
ENDBRANCH  94  97
ENDBRANCH  67  90
ENDBRANCH  41  42
ENDBRANCH  33  36
ENDBRANCH  31  32
ENDBRANCH  30  31
ENDBRANCH   1  30
TORSDOF 17
