REMARK SMILES Cc1ccc([N+](=O)[O-])c(N[C@H]2[C@@H]3CC[C@@H](C3)[C@@H]2C(=O)NCCCCNC(=O)c2ccc(-c3c4nc(c(-c5cccc(S(=O)(=O)[O-])c5F)c5ccc([nH]5)c(-c5cccc(S(=O)(=O)[O-])c5F)c5nc(c(-c6cccc(S(=O)(=O)[O-])c6F)c6ccc3[nH]6)C=C5)C=C4)cc2)c1
REMARK SMILES IDX 22 1 21 2 20 3 18 4 19 5 17 7 11 8 12 9 13 10 16 11 15 12
REMARK SMILES IDX 14 13 10 14 9 16 1 17 2 18 3 19 91 20 4 21 5 22 6 23 7 24
REMARK SMILES IDX 8 25 23 26 24 27 25 28 26 29 27 31 28 32 29 33 90 34 30 35
REMARK SMILES IDX 89 36 31 37 32 38 33 39 83 40 34 41 88 42 82 43 84 44 35 45
REMARK SMILES IDX 87 46 81 47 80 48 36 50 68 51 48 52 67 53 49 54 52 55 66 56
REMARK SMILES IDX 85 57 50 58 51 59 65 61 86 62 53 63 37 64 38 65 46 66 39 67
REMARK SMILES IDX 41 68 47 69 40 70 42 71 43 72 44 73 45 74 69 75 70 76 78 77
REMARK SMILES IDX 71 78 73 79 79 80 72 81 74 82 75 83 76 84 77 85 54 86 55 87
REMARK SMILES IDX 63 88 56 89 58 90 64 91 57 92 59 93 60 94 61 95 62 96
REMARK H PARENT 20 6 10 15 25 30 84 49 52 60
REMARK Flexibility Score: inf
ROOT
ATOM      1  C   UNL     1      -6.858   4.733  -0.426  1.00  0.00     0.023 C 
ENDROOT
BRANCH   1   2
ATOM      2  C   UNL     1      -5.456   4.685   0.218  1.00  0.00     0.116 C 
BRANCH   2   3
ATOM      3  N   UNL     1      -5.383   3.905   1.445  1.00  0.00    -0.356 N 
ATOM      4  C   UNL     1      -4.863   2.713   1.828  1.00  0.00     0.225 C 
ATOM      5  O   UNL     1      -5.014   2.462   3.034  1.00  0.00    -0.275 OA
ATOM      6  H   UNL     1      -5.827   4.364   2.194  1.00  0.00     0.163 HD
BRANCH   4   7
ATOM      7  C   UNL     1      -4.199   1.636   0.950  1.00  0.00     0.104 C 
ATOM      8  C   UNL     1      -3.274   2.049  -0.183  1.00  0.00     0.095 C 
ATOM      9  C   UNL     1      -3.922   1.396  -1.439  1.00  0.00     0.012 C 
ATOM     10  C   UNL     1      -5.352   1.927  -1.720  1.00  0.00     0.006 C 
ATOM     11  C   UNL     1      -4.329   0.036  -0.915  1.00  0.00     0.010 C 
ATOM     12  C   UNL     1      -5.142   0.612   0.257  1.00  0.00     0.004 C 
ATOM     13  C   UNL     1      -6.194   1.352  -0.555  1.00  0.00     0.005 C 
BRANCH   8  14
ATOM     14  N   UNL     1      -1.847   1.708   0.060  1.00  0.00    -0.376 N 
ATOM     15  H   UNL     1      -1.318   2.533   0.152  1.00  0.00     0.161 HD
BRANCH  14  16
ATOM     16  C   UNL     1      -1.024   0.606   0.197  1.00  0.00     0.114 A 
ATOM     17  C   UNL     1       2.787   0.193  -0.290  1.00  0.00     0.044 C 
ATOM     18  C   UNL     1       1.332  -0.150  -0.164  1.00  0.00    -0.049 A 
ATOM     19  C   UNL     1       0.954  -1.483  -0.060  1.00  0.00     0.010 A 
ATOM     20  C   UNL     1       0.344   0.855  -0.094  1.00  0.00     0.036 A 
ATOM     21  C   UNL     1      -0.354  -1.782   0.283  1.00  0.00     0.088 A 
ATOM     22  C   UNL     1      -1.293  -0.744   0.494  1.00  0.00     0.292 A 
BRANCH  22  23
ATOM     23  N   UNL     1      -2.377  -1.175   1.369  1.00  0.00     0.064 N 
ATOM     24  O   UNL     1      -3.098  -2.106   0.970  1.00  0.00    -0.258 OA
ATOM     25  O   UNL     1      -2.402  -0.707   2.515  1.00  0.00    -0.258 OA
ENDBRANCH  22  23
ENDBRANCH  14  16
ENDBRANCH   8  14
ENDBRANCH   4   7
ENDBRANCH   2   3
ENDBRANCH   1   2
BRANCH   1  26
ATOM     26  C   UNL     1      -7.956   5.426   0.378  1.00  0.00     0.023 C 
BRANCH  26  27
ATOM     27  C   UNL     1      -7.645   6.890   0.576  1.00  0.00     0.116 C 
BRANCH  27  28
ATOM     28  N   UNL     1      -7.688   7.650  -0.656  1.00  0.00    -0.352 N 
ATOM     29  C   UNL     1      -7.473   8.995  -0.868  1.00  0.00     0.251 C 
ATOM     30  H   UNL     1      -7.904   7.128  -1.463  1.00  0.00     0.163 HD
ATOM     31  O   UNL     1      -8.034   9.506  -1.840  1.00  0.00    -0.269 OA
BRANCH  29  32
ATOM     32  C   UNL     1      -6.474   9.755  -0.071  1.00  0.00     0.039 A 
ATOM     33  C   UNL     1      -5.842  10.850  -0.683  1.00  0.00     0.014 A 
ATOM     34  C   UNL     1      -5.962   9.261   1.118  1.00  0.00     0.014 A 
ATOM     35  C   UNL     1      -4.566  11.236  -0.280  1.00  0.00     0.010 A 
ATOM     36  C   UNL     1      -4.670   9.547   1.450  1.00  0.00     0.010 A 
ATOM     37  C   UNL     1      -3.950  10.471   0.693  1.00  0.00    -0.014 A 
BRANCH  37  38
ATOM     38  C   UNL     1      -2.566  10.524   1.101  1.00  0.00     0.031 A 
ATOM     39  C   UNL     1      -2.226  11.370   2.257  1.00  0.00     0.074 A 
ATOM     40  C   UNL     1      -1.853   9.423   0.767  1.00  0.00     0.049 A 
ATOM     41  N   UNL     1      -1.036  11.546   2.706  1.00  0.00    -0.248 NA
ATOM     42  C   UNL     1      -3.247  12.066   3.033  1.00  0.00     0.031 C 
ATOM     43  C   UNL     1      -0.754   8.820   1.505  1.00  0.00     0.029 A 
ATOM     44  N   UNL     1      -1.962   8.612  -0.372  1.00  0.00    -0.354 N 
ATOM     45  C   UNL     1      -1.160  12.057   3.984  1.00  0.00     0.074 A 
ATOM     46  C   UNL     1      -2.531  12.491   4.077  1.00  0.00     0.031 C 
ATOM     47  C   UNL     1      -0.117   7.956   0.696  1.00  0.00     0.029 A 
ATOM     48  C   UNL     1      -0.665   8.148  -0.636  1.00  0.00     0.049 A 
ATOM     49  H   UNL     1      -2.780   8.410  -0.881  1.00  0.00     0.167 HD
ATOM     50  C   UNL     1      -0.125  11.876   4.854  1.00  0.00     0.034 A 
ATOM     51  C   UNL     1       0.057   8.582  -1.716  1.00  0.00     0.034 A 
ATOM     52  C   UNL     1       0.995  11.198   4.165  1.00  0.00     0.049 A 
ATOM     53  C   UNL     1       1.272   9.412  -1.315  1.00  0.00     0.074 A 
ATOM     54  C   UNL     1       1.460   9.892   4.170  1.00  0.00     0.029 A 
ATOM     55  N   UNL     1       1.592  11.814   3.067  1.00  0.00    -0.354 N 
ATOM     56  N   UNL     1       1.552   9.768  -0.089  1.00  0.00    -0.248 NA
ATOM     57  C   UNL     1       2.274   9.900  -2.257  1.00  0.00     0.031 C 
ATOM     58  C   UNL     1       2.258   9.706   3.004  1.00  0.00     0.029 A 
ATOM     59  C   UNL     1       2.315  10.903   2.308  1.00  0.00     0.049 A 
ATOM     60  H   UNL     1       1.510  12.772   2.855  1.00  0.00     0.167 HD
ATOM     61  C   UNL     1       2.619  10.627  -0.066  1.00  0.00     0.074 A 
ATOM     62  C   UNL     1       3.092  10.593  -1.443  1.00  0.00     0.031 C 
ATOM     63  C   UNL     1       2.973  11.326   1.065  1.00  0.00     0.034 A 
BRANCH  50  64
ATOM     64  C   UNL     1      -0.167  12.046   6.375  1.00  0.00     0.023 A 
ATOM     65  C   UNL     1       0.933  11.537   7.105  1.00  0.00     0.012 A 
ATOM     66  C   UNL     1      -1.195  12.623   7.161  1.00  0.00     0.148 A 
ATOM     67  C   UNL     1       0.985  11.537   8.506  1.00  0.00     0.002 A 
ATOM     68  C   UNL     1      -1.160  12.604   8.562  1.00  0.00     0.091 A 
ATOM     69  F   UNL     1      -2.213  13.252   6.580  1.00  0.00    -0.205 F 
ATOM     70  C   UNL     1      -0.071  12.055   9.238  1.00  0.00     0.022 A 
BRANCH  68  71
ATOM     71  S   UNL     1      -2.506  13.246   9.582  1.00  0.00     0.127 S 
ATOM     72  O   UNL     1      -2.831  12.092  10.422  1.00  0.00    -0.237 OA
ATOM     73  O   UNL     1      -1.861  14.350  10.291  1.00  0.00    -0.237 OA
ATOM     74  O   UNL     1      -3.571  13.637   8.666  1.00  0.00    -0.744 OA
ENDBRANCH  68  71
ENDBRANCH  50  64
BRANCH  51  75
ATOM     75  C   UNL     1      -0.784   8.767  -2.940  1.00  0.00     0.023 A 
ATOM     76  C   UNL     1      -1.314   7.584  -3.512  1.00  0.00     0.012 A 
ATOM     77  C   UNL     1      -1.419   9.994  -3.212  1.00  0.00     0.148 A 
ATOM     78  C   UNL     1      -2.540   7.596  -4.179  1.00  0.00     0.002 A 
ATOM     79  C   UNL     1      -2.650   9.995  -3.869  1.00  0.00     0.091 A 
ATOM     80  F   UNL     1      -0.869  11.115  -2.730  1.00  0.00    -0.205 F 
ATOM     81  C   UNL     1      -3.231   8.794  -4.310  1.00  0.00     0.022 A 
BRANCH  79  82
ATOM     82  S   UNL     1      -3.647  11.482  -4.041  1.00  0.00     0.127 S 
ATOM     83  O   UNL     1      -3.449  11.808  -5.450  1.00  0.00    -0.237 OA
ATOM     84  O   UNL     1      -4.983  10.992  -3.709  1.00  0.00    -0.237 OA
ATOM     85  O   UNL     1      -3.095  12.427  -3.082  1.00  0.00    -0.744 OA
ENDBRANCH  79  82
ENDBRANCH  51  75
BRANCH  63  86
ATOM     86  C   UNL     1       3.968  12.487   1.116  1.00  0.00     0.023 A 
ATOM     87  C   UNL     1       4.444  13.133  -0.040  1.00  0.00     0.012 A 
ATOM     88  C   UNL     1       4.378  13.058   2.354  1.00  0.00     0.148 A 
ATOM     89  C   UNL     1       5.330  14.216   0.013  1.00  0.00     0.002 A 
ATOM     90  C   UNL     1       5.149  14.218   2.402  1.00  0.00     0.091 A 
ATOM     91  F   UNL     1       4.058  12.464   3.512  1.00  0.00    -0.205 F 
ATOM     92  C   UNL     1       5.665  14.776   1.235  1.00  0.00     0.022 A 
BRANCH  90  93
ATOM     93  S   UNL     1       5.373  15.126   3.939  1.00  0.00     0.127 S 
ATOM     94  O   UNL     1       6.672  14.636   4.394  1.00  0.00    -0.237 OA
ATOM     95  O   UNL     1       5.373  16.518   3.482  1.00  0.00    -0.237 OA
ATOM     96  O   UNL     1       4.224  14.771   4.761  1.00  0.00    -0.744 OA
ENDBRANCH  90  93
ENDBRANCH  63  86
ENDBRANCH  37  38
ENDBRANCH  29  32
ENDBRANCH  27  28
ENDBRANCH  26  27
ENDBRANCH   1  26
TORSDOF 17
