REMARK SMILES Cc1cc(NCc2ccco2)cc(C(=O)NCCCCNC(=O)c2ccc(-c3c4nc(c(-c5cccc(S(=O)(=O)[O-])c5F)c5ccc([nH]5)c(-c5cccc(S(=O)(=O)[O-])c5F)c5nc(c(-c6cccc(S(=O)(=O)[O-])c6F)c6ccc3[nH]6)C=C5)C=C4)cc2)c1N
REMARK SMILES IDX 18 1 17 2 16 3 14 4 15 5 13 7 1 8 2 9 3 10 87 11 4 12 12 13
REMARK SMILES IDX 88 14 5 17 6 19 7 20 8 21 11 22 9 23 10 24 19 25 20 26 21 27
REMARK SMILES IDX 22 28 23 30 24 31 25 32 86 33 26 34 85 35 27 36 28 37 29 38
REMARK SMILES IDX 79 39 30 40 84 41 78 42 80 43 31 44 83 45 77 46 76 47 32 49
REMARK SMILES IDX 64 50 44 51 63 52 45 53 48 54 62 55 81 56 46 57 47 58 61 60
REMARK SMILES IDX 82 61 49 62 33 63 34 64 42 65 35 66 37 67 43 68 36 69 38 70
REMARK SMILES IDX 39 71 40 72 41 73 65 74 66 75 74 76 67 77 69 78 75 79 68 80
REMARK SMILES IDX 70 81 71 82 72 83 73 84 50 85 51 86 59 87 52 88 54 89 60 90
REMARK SMILES IDX 53 91 55 92 56 93 57 94 58 95
REMARK H PARENT 16 6 88 15 88 16 5 18 21 29 80 48 48 59
REMARK Flexibility Score: inf
ROOT
ATOM      1  C   UNL     1      -3.908  -3.222  -0.781  1.00  0.00     0.023 C 
ENDROOT
BRANCH   1   2
ATOM      2  C   UNL     1      -2.992  -3.268   0.447  1.00  0.00     0.116 C 
BRANCH   2   3
ATOM      3  N   UNL     1      -1.622  -3.519   0.050  1.00  0.00    -0.352 N 
ATOM      4  C   UNL     1      -0.555  -2.696  -0.225  1.00  0.00     0.253 C 
ATOM      5  O   UNL     1       0.493  -3.263  -0.547  1.00  0.00    -0.269 OA
ATOM      6  H   UNL     1      -1.410  -4.476  -0.042  1.00  0.00     0.163 HD
BRANCH   4   7
ATOM      7  C   UNL     1      -0.586  -1.194  -0.127  1.00  0.00     0.065 A 
ATOM      8  C   UNL     1       1.864   1.725   0.273  1.00  0.00     0.046 C 
ATOM      9  C   UNL     1       0.602   0.919   0.120  1.00  0.00    -0.025 A 
ATOM     10  C   UNL     1      -0.629   1.597   0.051  1.00  0.00     0.031 A 
ATOM     11  C   UNL     1       0.634  -0.487   0.026  1.00  0.00     0.047 A 
ATOM     12  C   UNL     1      -1.841   0.923  -0.117  1.00  0.00     0.036 A 
ATOM     13  C   UNL     1      -1.778  -0.462  -0.268  1.00  0.00     0.041 A 
BRANCH  11  14
ATOM     14  N   UNL     1       1.847  -1.158   0.232  1.00  0.00    -0.398 N 
ATOM     15  H   UNL     1       2.681  -0.646   0.336  1.00  0.00     0.156 HD
ATOM     16  H   UNL     1       1.864  -2.142   0.273  1.00  0.00     0.156 HD
ENDBRANCH  11  14
BRANCH  12  17
ATOM     17  N   UNL     1      -3.008   1.658  -0.209  1.00  0.00    -0.378 N 
ATOM     18  H   UNL     1      -2.911   2.632  -0.313  1.00  0.00     0.161 HD
BRANCH  17  19
ATOM     19  C   UNL     1      -4.367   1.133  -0.167  1.00  0.00     0.188 C 
BRANCH  19  20
ATOM     20  C   UNL     1      -5.014   1.177   1.177  1.00  0.00     0.122 A 
ATOM     21  C   UNL     1      -5.542   0.214   2.014  1.00  0.00     0.047 A 
ATOM     22  O   UNL     1      -5.183   2.415   1.731  1.00  0.00    -0.467 OA
ATOM     23  C   UNL     1      -6.066   0.902   3.136  1.00  0.00     0.042 A 
ATOM     24  C   UNL     1      -5.818   2.236   2.918  1.00  0.00     0.195 A 
ENDBRANCH  19  20
ENDBRANCH  17  19
ENDBRANCH  12  17
ENDBRANCH   4   7
ENDBRANCH   2   3
ENDBRANCH   1   2
BRANCH   1  25
ATOM     25  C   UNL     1      -4.319  -4.596  -1.315  1.00  0.00     0.023 C 
BRANCH  25  26
ATOM     26  C   UNL     1      -5.191  -5.416  -0.371  1.00  0.00     0.116 C 
BRANCH  26  27
ATOM     27  N   UNL     1      -6.423  -4.738   0.008  1.00  0.00    -0.352 N 
ATOM     28  C   UNL     1      -7.633  -5.300   0.354  1.00  0.00     0.251 C 
ATOM     29  H   UNL     1      -6.386  -3.755   0.019  1.00  0.00     0.163 HD
ATOM     30  O   UNL     1      -8.605  -4.598   0.565  1.00  0.00    -0.269 OA
BRANCH  28  31
ATOM     31  C   UNL     1      -7.733  -6.775   0.412  1.00  0.00     0.039 A 
ATOM     32  C   UNL     1      -8.721  -7.409  -0.345  1.00  0.00     0.014 A 
ATOM     33  C   UNL     1      -6.812  -7.520   1.151  1.00  0.00     0.014 A 
ATOM     34  C   UNL     1      -8.735  -8.802  -0.424  1.00  0.00     0.010 A 
ATOM     35  C   UNL     1      -6.790  -8.904   1.021  1.00  0.00     0.010 A 
ATOM     36  C   UNL     1      -7.744  -9.557   0.225  1.00  0.00    -0.014 A 
BRANCH  36  37
ATOM     37  C   UNL     1      -7.656 -11.027   0.049  1.00  0.00     0.031 A 
ATOM     38  C   UNL     1      -7.863 -11.944   1.220  1.00  0.00     0.074 A 
ATOM     39  C   UNL     1      -7.277 -11.525  -1.144  1.00  0.00     0.049 A 
ATOM     40  N   UNL     1      -7.761 -13.246   1.273  1.00  0.00    -0.248 NA
ATOM     41  C   UNL     1      -8.201 -11.315   2.508  1.00  0.00     0.031 C 
ATOM     42  C   UNL     1      -6.954 -10.728  -2.330  1.00  0.00     0.029 A 
ATOM     43  N   UNL     1      -7.066 -12.820  -1.548  1.00  0.00    -0.354 N 
ATOM     44  C   UNL     1      -7.984 -13.590   2.600  1.00  0.00     0.074 A 
ATOM     45  C   UNL     1      -8.199 -12.357   3.326  1.00  0.00     0.031 C 
ATOM     46  C   UNL     1      -6.586 -11.550  -3.326  1.00  0.00     0.029 A 
ATOM     47  C   UNL     1      -6.628 -12.928  -2.847  1.00  0.00     0.049 A 
ATOM     48  H   UNL     1      -7.215 -13.598  -0.963  1.00  0.00     0.167 HD
ATOM     49  C   UNL     1      -8.037 -14.823   3.157  1.00  0.00     0.034 A 
ATOM     50  C   UNL     1      -6.299 -14.016  -3.571  1.00  0.00     0.034 A 
ATOM     51  C   UNL     1      -7.879 -16.047   2.421  1.00  0.00     0.049 A 
ATOM     52  C   UNL     1      -6.435 -15.377  -2.946  1.00  0.00     0.074 A 
ATOM     53  C   UNL     1      -8.017 -17.348   2.873  1.00  0.00     0.029 A 
ATOM     54  N   UNL     1      -7.548 -16.123   1.077  1.00  0.00    -0.354 N 
ATOM     55  N   UNL     1      -6.822 -15.692  -1.734  1.00  0.00    -0.248 NA
ATOM     56  C   UNL     1      -6.128 -16.535  -3.798  1.00  0.00     0.031 C 
ATOM     57  C   UNL     1      -7.764 -18.211   1.801  1.00  0.00     0.029 A 
ATOM     58  C   UNL     1      -7.475 -17.448   0.681  1.00  0.00     0.049 A 
ATOM     59  H   UNL     1      -7.388 -15.349   0.490  1.00  0.00     0.167 HD
ATOM     60  C   UNL     1      -6.839 -17.081  -1.687  1.00  0.00     0.074 A 
ATOM     61  C   UNL     1      -6.441 -17.547  -2.999  1.00  0.00     0.031 C 
ATOM     62  C   UNL     1      -7.138 -17.895  -0.646  1.00  0.00     0.034 A 
BRANCH  49  63
ATOM     63  C   UNL     1      -8.353 -14.908   4.626  1.00  0.00     0.023 A 
ATOM     64  C   UNL     1      -9.669 -14.650   5.062  1.00  0.00     0.012 A 
ATOM     65  C   UNL     1      -7.375 -15.285   5.565  1.00  0.00     0.148 A 
ATOM     66  C   UNL     1     -10.000 -14.735   6.413  1.00  0.00     0.002 A 
ATOM     67  C   UNL     1      -7.722 -15.405   6.907  1.00  0.00     0.091 A 
ATOM     68  F   UNL     1      -6.123 -15.499   5.137  1.00  0.00    -0.205 F 
ATOM     69  C   UNL     1      -9.030 -15.122   7.333  1.00  0.00     0.022 A 
BRANCH  67  70
ATOM     70  S   UNL     1      -6.556 -15.965   8.154  1.00  0.00     0.127 S 
ATOM     71  O   UNL     1      -6.195 -14.707   8.807  1.00  0.00    -0.237 OA
ATOM     72  O   UNL     1      -7.376 -16.861   8.970  1.00  0.00    -0.237 OA
ATOM     73  O   UNL     1      -5.484 -16.628   7.423  1.00  0.00    -0.744 OA
ENDBRANCH  67  70
ENDBRANCH  49  63
BRANCH  50  74
ATOM     74  C   UNL     1      -5.901 -13.860  -4.998  1.00  0.00     0.023 A 
ATOM     75  C   UNL     1      -6.801 -14.256  -6.006  1.00  0.00     0.012 A 
ATOM     76  C   UNL     1      -4.670 -13.283  -5.363  1.00  0.00     0.148 A 
ATOM     77  C   UNL     1      -6.472 -14.103  -7.354  1.00  0.00     0.002 A 
ATOM     78  C   UNL     1      -4.370 -13.087  -6.707  1.00  0.00     0.091 A 
ATOM     79  F   UNL     1      -3.820 -12.926  -4.389  1.00  0.00    -0.205 F 
ATOM     80  C   UNL     1      -5.263 -13.508  -7.704  1.00  0.00     0.022 A 
BRANCH  78  81
ATOM     81  S   UNL     1      -2.895 -12.209  -7.241  1.00  0.00     0.127 S 
ATOM     82  O   UNL     1      -2.050 -13.303  -7.711  1.00  0.00    -0.237 OA
ATOM     83  O   UNL     1      -3.421 -11.339  -8.294  1.00  0.00    -0.237 OA
ATOM     84  O   UNL     1      -2.422 -11.497  -6.061  1.00  0.00    -0.744 OA
ENDBRANCH  78  81
ENDBRANCH  50  74
BRANCH  62  85
ATOM     85  C   UNL     1      -7.075 -19.381  -0.881  1.00  0.00     0.023 A 
ATOM     86  C   UNL     1      -5.821 -20.018  -0.957  1.00  0.00     0.012 A 
ATOM     87  C   UNL     1      -8.251 -20.154  -0.940  1.00  0.00     0.148 A 
ATOM     88  C   UNL     1      -5.738 -21.401  -1.111  1.00  0.00     0.002 A 
ATOM     89  C   UNL     1      -8.160 -21.536  -1.052  1.00  0.00     0.091 A 
ATOM     90  F   UNL     1      -9.434 -19.526  -0.889  1.00  0.00    -0.205 F 
ATOM     91  C   UNL     1      -6.906 -22.160  -1.146  1.00  0.00     0.022 A 
BRANCH  89  92
ATOM     92  S   UNL     1      -9.612 -22.594  -1.014  1.00  0.00     0.127 S 
ATOM     93  O   UNL     1      -9.784 -22.918  -2.429  1.00  0.00    -0.237 OA
ATOM     94  O   UNL     1      -9.165 -23.713  -0.183  1.00  0.00    -0.237 OA
ATOM     95  O   UNL     1     -10.671 -21.790  -0.417  1.00  0.00    -0.744 OA
ENDBRANCH  89  92
ENDBRANCH  62  85
ENDBRANCH  36  37
ENDBRANCH  28  31
ENDBRANCH  26  27
ENDBRANCH  25  26
ENDBRANCH   1  25
TORSDOF 18
