REMARK SMILES CC(C)(C)c1cc2c(cc1Cl)C=C(C(=O)NCCCCNC(=O)c1ccc(-c3c4nc(c(-c5cccc(S(=O)(=O)[O-])c5F)c5ccc([nH]5)c(-c5cccc(S(=O)(=O)[O-])c5F)c5nc(c(-c6cccc(S(=O)(=O)[O-])c6F)c6ccc3[nH]6)C=C5)C=C4)cc1)[C@H](C(F)(F)F)O2
REMARK SMILES IDX 19 1 18 2 17 3 16 4 14 5 15 6 13 8 5 9 6 10 10 11 7 12 9 13
REMARK SMILES IDX 11 14 8 15 92 16 12 17 87 18 2 19 1 20 3 21 4 22 88 23 89 24
REMARK SMILES IDX 90 25 91 26 20 27 21 28 22 29 23 31 24 32 25 33 86 34 26 35
REMARK SMILES IDX 85 36 27 37 28 38 29 39 79 40 30 41 84 42 78 43 80 44 31 45
REMARK SMILES IDX 83 46 77 47 76 48 32 50 64 51 44 52 63 53 45 54 48 55 62 56
REMARK SMILES IDX 81 57 46 58 47 59 61 61 82 62 49 63 33 64 34 65 42 66 35 67
REMARK SMILES IDX 37 68 43 69 36 70 38 71 39 72 40 73 41 74 65 75 66 76 74 77
REMARK SMILES IDX 67 78 69 79 75 80 68 81 70 82 71 83 72 84 73 85 50 86 51 87
REMARK SMILES IDX 59 88 52 89 54 90 60 91 53 92 55 93 56 94 57 95 58 96
REMARK H PARENT 16 7 21 30 80 49 48 60
REMARK Flexibility Score: inf
ROOT
ATOM      1  C   UNL     1       2.856   1.749  11.770  1.00  0.00     0.023 C 
ENDROOT
BRANCH   1   2
ATOM      2  C   UNL     1       2.835   1.850  10.244  1.00  0.00     0.023 C 
BRANCH   2   3
ATOM      3  C   UNL     1       3.852   0.962   9.529  1.00  0.00     0.116 C 
BRANCH   3   4
ATOM      4  N   UNL     1       3.334  -0.374   9.296  1.00  0.00    -0.352 N 
ATOM      5  C   UNL     1       2.781  -1.053   8.265  1.00  0.00     0.251 C 
ATOM      6  O   UNL     1       2.539  -2.244   8.492  1.00  0.00    -0.270 OA
ATOM      7  H   UNL     1       3.402  -0.934  10.102  1.00  0.00     0.163 HD
BRANCH   5   8
ATOM      8  C   UNL     1       2.449  -0.485   6.923  1.00  0.00     0.067 C 
ATOM      9  C   UNL     1       0.826   0.091   2.139  1.00  0.00    -0.020 A 
ATOM     10  C   UNL     1       1.503   0.895   3.084  1.00  0.00     0.053 A 
ATOM     11  C   UNL     1       0.596  -1.253   2.522  1.00  0.00     0.045 A 
ATOM     12  C   UNL     1       1.890   0.406   4.333  1.00  0.00     0.128 A 
ATOM     13  C   UNL     1       1.018  -1.745   3.772  1.00  0.00     0.032 A 
ATOM     14  Cl  UNL     1      -0.224  -2.420   1.540  1.00  0.00    -0.084 Cl
ATOM     15  C   UNL     1       1.659  -0.914   4.685  1.00  0.00     0.019 A 
ATOM     16  O   UNL     1       2.521   1.284   5.171  1.00  0.00    -0.475 OA
ATOM     17  C   UNL     1       2.096  -1.390   5.990  1.00  0.00     0.025 C 
ATOM     18  C   UNL     1       2.386   0.983   6.592  1.00  0.00     0.314 C 
BRANCH   9  19
ATOM     19  C   UNL     1       0.365   0.719   0.799  1.00  0.00    -0.012 C 
ATOM     20  C   UNL     1       0.959  -0.030  -0.414  1.00  0.00     0.016 C 
ATOM     21  C   UNL     1       0.810   2.199   0.621  1.00  0.00     0.016 C 
ATOM     22  C   UNL     1      -1.177   0.738   0.722  1.00  0.00     0.016 C 
ENDBRANCH   9  19
BRANCH  18  23
ATOM     23  C   UNL     1       1.147   1.696   7.165  1.00  0.00     0.429 C 
ATOM     24  F   UNL     1       0.571   1.012   8.178  1.00  0.00    -0.167 F 
ATOM     25  F   UNL     1       1.493   2.914   7.652  1.00  0.00    -0.167 F 
ATOM     26  F   UNL     1       0.183   1.900   6.237  1.00  0.00    -0.167 F 
ENDBRANCH  18  23
ENDBRANCH   5   8
ENDBRANCH   3   4
ENDBRANCH   2   3
ENDBRANCH   1   2
BRANCH   1  27
ATOM     27  C   UNL     1       4.171   2.146  12.429  1.00  0.00     0.116 C 
BRANCH  27  28
ATOM     28  N   UNL     1       4.649   3.470  12.058  1.00  0.00    -0.352 N 
ATOM     29  C   UNL     1       5.462   4.311  12.789  1.00  0.00     0.251 C 
ATOM     30  H   UNL     1       4.358   3.805  11.180  1.00  0.00     0.163 HD
ATOM     31  O   UNL     1       5.729   5.431  12.374  1.00  0.00    -0.269 OA
BRANCH  29  32
ATOM     32  C   UNL     1       5.948   3.851  14.107  1.00  0.00     0.039 A 
ATOM     33  C   UNL     1       6.531   2.590  14.237  1.00  0.00     0.014 A 
ATOM     34  C   UNL     1       5.719   4.646  15.232  1.00  0.00     0.014 A 
ATOM     35  C   UNL     1       6.707   2.049  15.503  1.00  0.00     0.010 A 
ATOM     36  C   UNL     1       5.984   4.132  16.504  1.00  0.00     0.010 A 
ATOM     37  C   UNL     1       6.421   2.807  16.652  1.00  0.00    -0.014 A 
BRANCH  37  38
ATOM     38  C   UNL     1       6.582   2.175  17.987  1.00  0.00     0.031 A 
ATOM     39  C   UNL     1       5.397   1.945  18.888  1.00  0.00     0.074 A 
ATOM     40  C   UNL     1       7.802   1.736  18.354  1.00  0.00     0.049 A 
ATOM     41  N   UNL     1       5.356   1.332  20.043  1.00  0.00    -0.248 NA
ATOM     42  C   UNL     1       4.093   2.467  18.446  1.00  0.00     0.031 C 
ATOM     43  C   UNL     1       9.028   1.922  17.575  1.00  0.00     0.029 A 
ATOM     44  N   UNL     1       8.208   1.019  19.450  1.00  0.00    -0.354 N 
ATOM     45  C   UNL     1       4.043   1.436  20.486  1.00  0.00     0.074 A 
ATOM     46  C   UNL     1       3.312   2.168  19.476  1.00  0.00     0.031 C 
ATOM     47  C   UNL     1      10.034   1.276  18.181  1.00  0.00     0.029 A 
ATOM     48  C   UNL     1       9.538   0.674  19.415  1.00  0.00     0.049 A 
ATOM     49  H   UNL     1       7.606   0.775  20.189  1.00  0.00     0.167 HD
ATOM     50  C   UNL     1       3.492   0.945  21.621  1.00  0.00     0.034 A 
ATOM     51  C   UNL     1      10.280  -0.051  20.274  1.00  0.00     0.034 A 
ATOM     52  C   UNL     1       4.199   0.152  22.589  1.00  0.00     0.049 A 
ATOM     53  C   UNL     1       9.636  -0.614  21.505  1.00  0.00     0.074 A 
ATOM     54  C   UNL     1       3.704  -0.440  23.737  1.00  0.00     0.029 A 
ATOM     55  N   UNL     1       5.545  -0.167  22.520  1.00  0.00    -0.354 N 
ATOM     56  N   UNL     1       8.375  -0.573  21.861  1.00  0.00    -0.248 NA
ATOM     57  C   UNL     1      10.509  -1.324  22.450  1.00  0.00     0.031 C 
ATOM     58  C   UNL     1       4.753  -1.121  24.363  1.00  0.00     0.029 A 
ATOM     59  C   UNL     1       5.900  -0.946  23.606  1.00  0.00     0.049 A 
ATOM     60  H   UNL     1       6.158   0.118  21.804  1.00  0.00     0.167 HD
ATOM     61  C   UNL     1       8.302  -1.246  23.073  1.00  0.00     0.074 A 
ATOM     62  C   UNL     1       9.640  -1.713  23.376  1.00  0.00     0.031 C 
ATOM     63  C   UNL     1       7.227  -1.434  23.875  1.00  0.00     0.034 A 
BRANCH  50  64
ATOM     64  C   UNL     1       2.029   1.192  21.863  1.00  0.00     0.023 A 
ATOM     65  C   UNL     1       1.081   0.354  21.243  1.00  0.00     0.012 A 
ATOM     66  C   UNL     1       1.600   2.172  22.779  1.00  0.00     0.148 A 
ATOM     67  C   UNL     1      -0.276   0.492  21.527  1.00  0.00     0.002 A 
ATOM     68  C   UNL     1       0.246   2.287  23.075  1.00  0.00     0.091 A 
ATOM     69  F   UNL     1       2.521   2.965  23.344  1.00  0.00    -0.205 F 
ATOM     70  C   UNL     1      -0.692   1.450  22.448  1.00  0.00     0.022 A 
BRANCH  68  71
ATOM     71  S   UNL     1      -0.391   3.454  24.284  1.00  0.00     0.127 S 
ATOM     72  O   UNL     1      -1.141   4.378  23.433  1.00  0.00    -0.237 OA
ATOM     73  O   UNL     1      -1.220   2.596  25.131  1.00  0.00    -0.237 OA
ATOM     74  O   UNL     1       0.773   4.025  24.945  1.00  0.00    -0.744 OA
ENDBRANCH  68  71
ENDBRANCH  50  64
BRANCH  51  75
ATOM     75  C   UNL     1      11.704  -0.326  19.944  1.00  0.00     0.023 A 
ATOM     76  C   UNL     1      12.066  -1.608  19.491  1.00  0.00     0.012 A 
ATOM     77  C   UNL     1      12.671   0.697  19.973  1.00  0.00     0.148 A 
ATOM     78  C   UNL     1      13.370  -1.867  19.068  1.00  0.00     0.002 A 
ATOM     79  C   UNL     1      13.954   0.446  19.505  1.00  0.00     0.091 A 
ATOM     80  F   UNL     1      12.301   1.905  20.421  1.00  0.00    -0.205 F 
ATOM     81  C   UNL     1      14.309  -0.838  19.061  1.00  0.00     0.022 A 
BRANCH  79  82
ATOM     82  S   UNL     1      15.187   1.741  19.332  1.00  0.00     0.127 S 
ATOM     83  O   UNL     1      16.149   1.377  20.368  1.00  0.00    -0.237 OA
ATOM     84  O   UNL     1      15.649   1.536  17.959  1.00  0.00    -0.237 OA
ATOM     85  O   UNL     1      14.473   2.993  19.544  1.00  0.00    -0.744 OA
ENDBRANCH  79  82
ENDBRANCH  51  75
BRANCH  63  86
ATOM     86  C   UNL     1       7.438  -2.154  25.175  1.00  0.00     0.023 A 
ATOM     87  C   UNL     1       7.932  -1.430  26.277  1.00  0.00     0.012 A 
ATOM     88  C   UNL     1       7.032  -3.491  25.342  1.00  0.00     0.148 A 
ATOM     89  C   UNL     1       8.023  -2.030  27.532  1.00  0.00     0.002 A 
ATOM     90  C   UNL     1       7.099  -4.074  26.601  1.00  0.00     0.091 A 
ATOM     91  F   UNL     1       6.570  -4.155  24.272  1.00  0.00    -0.205 F 
ATOM     92  C   UNL     1       7.597  -3.346  27.696  1.00  0.00     0.022 A 
BRANCH  90  93
ATOM     93  S   UNL     1       6.514  -5.739  26.933  1.00  0.00     0.127 S 
ATOM     94  O   UNL     1       7.754  -6.422  27.302  1.00  0.00    -0.237 OA
ATOM     95  O   UNL     1       5.583  -5.524  28.040  1.00  0.00    -0.237 OA
ATOM     96  O   UNL     1       5.898  -6.205  25.698  1.00  0.00    -0.744 OA
ENDBRANCH  90  93
ENDBRANCH  63  86
ENDBRANCH  37  38
ENDBRANCH  29  32
ENDBRANCH  27  28
ENDBRANCH   1  27
TORSDOF 16
