REMARK SMILES CC(=O)N(c1ccccc1)c1nc(/C=C(/C#N)C(=O)NCCCCNC(=O)c2ccc(-c3c4nc(c(-c5cccc(S(=O)(=O)[O-])c5F)c5ccc([nH]5)c(-c5cccc(S(=O)(=O)[O-])c5F)c5nc(c(-c6cccc(S(=O)(=O)[O-])c6F)c6ccc3[nH]6)C=C5)C=C4)cc2)cs1
REMARK SMILES IDX 22 1 21 2 20 3 18 4 19 5 15 7 14 8 13 9 11 10 12 11 92 12
REMARK SMILES IDX 91 13 4 14 2 15 1 16 3 17 5 18 6 19 10 20 7 21 9 22 8 23
REMARK SMILES IDX 16 24 17 25 23 26 24 27 25 28 26 29 27 31 28 32 29 33 90 34
REMARK SMILES IDX 30 35 89 36 31 37 32 38 33 39 83 40 34 41 88 42 82 43 84 44
REMARK SMILES IDX 35 45 87 46 81 47 80 48 36 50 68 51 48 52 67 53 49 54 52 55
REMARK SMILES IDX 66 56 85 57 50 58 51 59 65 61 86 62 53 63 37 64 38 65 46 66
REMARK SMILES IDX 39 67 41 68 47 69 40 70 42 71 43 72 44 73 45 74 69 75 70 76
REMARK SMILES IDX 78 77 71 78 73 79 79 80 72 81 74 82 75 83 76 84 77 85 54 86
REMARK SMILES IDX 55 87 63 88 56 89 58 90 64 91 57 92 59 93 60 94 61 95 62 96
REMARK H PARENT 20 6 25 30 84 49 52 60
REMARK Flexibility Score: inf
ROOT
ATOM      1  C   UNL     1      -2.952  -6.618   9.372  1.00  0.00     0.023 C 
ENDROOT
BRANCH   1   2
ATOM      2  C   UNL     1      -2.321  -5.220   9.406  1.00  0.00     0.116 C 
BRANCH   2   3
ATOM      3  N   UNL     1      -1.317  -5.112   8.353  1.00  0.00    -0.351 N 
ATOM      4  C   UNL     1      -1.458  -4.953   7.001  1.00  0.00     0.262 C 
ATOM      5  O   UNL     1      -0.683  -5.598   6.295  1.00  0.00    -0.268 OA
ATOM      6  H   UNL     1      -0.386  -5.162   8.667  1.00  0.00     0.163 HD
BRANCH   4   7
ATOM      7  C   UNL     1      -2.493  -4.033   6.392  1.00  0.00     0.119 C 
ATOM      8  C   UNL     1      -2.252  -3.305   5.278  1.00  0.00     0.054 C 
BRANCH   8   9
ATOM      9  C   UNL     1      -1.022  -3.163   4.525  1.00  0.00     0.078 A 
ATOM     10  C   UNL     1       0.116  -2.654   2.679  1.00  0.00     0.197 A 
ATOM     11  N   UNL     1      -1.087  -2.645   3.233  1.00  0.00    -0.220 NA
ATOM     12  S   UNL     1       1.378  -3.274   3.674  1.00  0.00    -0.104 S 
ATOM     13  C   UNL     1       0.265  -3.410   4.961  1.00  0.00     0.097 A 
BRANCH  10  14
ATOM     14  N   UNL     1       0.528  -2.064   1.480  1.00  0.00    -0.256 N 
BRANCH  14  15
ATOM     15  C   UNL     1       0.193  -0.722   1.319  1.00  0.00     0.230 C 
ATOM     16  C   UNL     1       0.510  -0.075  -0.012  1.00  0.00     0.115 C 
ATOM     17  O   UNL     1      -0.322  -0.014   2.191  1.00  0.00    -0.274 OA
ENDBRANCH  14  15
BRANCH  14  18
ATOM     18  C   UNL     1       1.399  -2.822   0.633  1.00  0.00     0.051 A 
ATOM     19  C   UNL     1       1.064  -4.142   0.284  1.00  0.00     0.027 A 
ATOM     20  C   UNL     1       2.604  -2.294   0.148  1.00  0.00     0.027 A 
ATOM     21  C   UNL     1       1.896  -4.896  -0.551  1.00  0.00     0.002 A 
ATOM     22  C   UNL     1       3.441  -3.053  -0.679  1.00  0.00     0.002 A 
ATOM     23  C   UNL     1       3.083  -4.351  -1.034  1.00  0.00     0.000 A 
ENDBRANCH  14  18
ENDBRANCH  10  14
ENDBRANCH   8   9
BRANCH   7  24
ATOM     24  C   UNL     1      -3.824  -4.112   7.121  1.00  0.00     0.105 C 
ATOM     25  N   UNL     1      -4.929  -4.177   7.725  1.00  0.00    -0.192 NA
ENDBRANCH   7  24
ENDBRANCH   4   7
ENDBRANCH   2   3
ENDBRANCH   1   2
BRANCH   1  26
ATOM     26  C   UNL     1      -2.081  -7.692  10.036  1.00  0.00     0.023 C 
BRANCH  26  27
ATOM     27  C   UNL     1      -1.752  -7.421  11.500  1.00  0.00     0.116 C 
BRANCH  27  28
ATOM     28  N   UNL     1      -2.933  -7.165  12.313  1.00  0.00    -0.352 N 
ATOM     29  C   UNL     1      -3.116  -7.434  13.646  1.00  0.00     0.251 C 
ATOM     30  H   UNL     1      -3.693  -6.746  11.849  1.00  0.00     0.163 HD
ATOM     31  O   UNL     1      -4.214  -7.274  14.171  1.00  0.00    -0.269 OA
BRANCH  29  32
ATOM     32  C   UNL     1      -1.980  -7.957  14.424  1.00  0.00     0.039 A 
ATOM     33  C   UNL     1      -2.151  -9.131  15.159  1.00  0.00     0.014 A 
ATOM     34  C   UNL     1      -0.737  -7.321  14.371  1.00  0.00     0.014 A 
ATOM     35  C   UNL     1      -1.052  -9.702  15.798  1.00  0.00     0.010 A 
ATOM     36  C   UNL     1       0.371  -7.933  14.943  1.00  0.00     0.010 A 
ATOM     37  C   UNL     1       0.224  -9.126  15.666  1.00  0.00    -0.014 A 
BRANCH  37  38
ATOM     38  C   UNL     1       1.416  -9.772  16.265  1.00  0.00     0.031 A 
ATOM     39  C   UNL     1       2.210  -9.065  17.327  1.00  0.00     0.074 A 
ATOM     40  C   UNL     1       1.830 -10.963  15.790  1.00  0.00     0.049 A 
ATOM     41  N   UNL     1       3.291  -9.461  17.946  1.00  0.00    -0.248 NA
ATOM     42  C   UNL     1       1.748  -7.725  17.724  1.00  0.00     0.031 C 
ATOM     43  C   UNL     1       1.201 -11.698  14.690  1.00  0.00     0.029 A 
ATOM     44  N   UNL     1       2.892 -11.751  16.153  1.00  0.00    -0.354 N 
ATOM     45  C   UNL     1       3.652  -8.413  18.784  1.00  0.00     0.074 A 
ATOM     46  C   UNL     1       2.705  -7.344  18.555  1.00  0.00     0.031 C 
ATOM     47  C   UNL     1       1.889 -12.829  14.469  1.00  0.00     0.029 A 
ATOM     48  C   UNL     1       3.018 -12.889  15.392  1.00  0.00     0.049 A 
ATOM     49  H   UNL     1       3.506 -11.524  16.888  1.00  0.00     0.167 HD
ATOM     50  C   UNL     1       4.658  -8.358  19.690  1.00  0.00     0.034 A 
ATOM     51  C   UNL     1       3.943 -13.867  15.427  1.00  0.00     0.034 A 
ATOM     52  C   UNL     1       5.580  -9.435  19.930  1.00  0.00     0.049 A 
ATOM     53  C   UNL     1       5.022 -13.810  16.472  1.00  0.00     0.074 A 
ATOM     54  C   UNL     1       6.583  -9.515  20.880  1.00  0.00     0.029 A 
ATOM     55  N   UNL     1       5.621 -10.617  19.206  1.00  0.00    -0.354 N 
ATOM     56  N   UNL     1       5.248 -12.886  17.374  1.00  0.00    -0.248 NA
ATOM     57  C   UNL     1       5.949 -14.949  16.533  1.00  0.00     0.031 C 
ATOM     58  C   UNL     1       7.247 -10.736  20.712  1.00  0.00     0.029 A 
ATOM     59  C   UNL     1       6.637 -11.430  19.678  1.00  0.00     0.049 A 
ATOM     60  H   UNL     1       5.015 -10.845  18.463  1.00  0.00     0.167 HD
ATOM     61  C   UNL     1       6.324 -13.340  18.127  1.00  0.00     0.074 A 
ATOM     62  C   UNL     1       6.686 -14.637  17.590  1.00  0.00     0.031 C 
ATOM     63  C   UNL     1       6.964 -12.734  19.157  1.00  0.00     0.034 A 
BRANCH  50  64
ATOM     64  C   UNL     1       4.771  -7.106  20.521  1.00  0.00     0.023 A 
ATOM     65  C   UNL     1       3.776  -6.816  21.480  1.00  0.00     0.012 A 
ATOM     66  C   UNL     1       5.862  -6.228  20.376  1.00  0.00     0.148 A 
ATOM     67  C   UNL     1       3.839  -5.652  22.244  1.00  0.00     0.002 A 
ATOM     68  C   UNL     1       5.944  -5.094  21.177  1.00  0.00     0.091 A 
ATOM     69  F   UNL     1       6.787  -6.503  19.446  1.00  0.00    -0.205 F 
ATOM     70  C   UNL     1       4.927  -4.797  22.099  1.00  0.00     0.022 A 
BRANCH  68  71
ATOM     71  S   UNL     1       7.345  -3.971  21.124  1.00  0.00     0.127 S 
ATOM     72  O   UNL     1       6.767  -2.810  20.449  1.00  0.00    -0.237 OA
ATOM     73  O   UNL     1       7.633  -3.770  22.544  1.00  0.00    -0.237 OA
ATOM     74  O   UNL     1       8.389  -4.670  20.388  1.00  0.00    -0.744 OA
ENDBRANCH  68  71
ENDBRANCH  50  64
BRANCH  51  75
ATOM     75  C   UNL     1       3.842 -15.008  14.475  1.00  0.00     0.023 A 
ATOM     76  C   UNL     1       3.457 -16.278  14.946  1.00  0.00     0.012 A 
ATOM     77  C   UNL     1       4.067 -14.824  13.097  1.00  0.00     0.148 A 
ATOM     78  C   UNL     1       3.323 -17.351  14.065  1.00  0.00     0.002 A 
ATOM     79  C   UNL     1       3.876 -15.883  12.218  1.00  0.00     0.091 A 
ATOM     80  F   UNL     1       4.439 -13.608  12.672  1.00  0.00    -0.205 F 
ATOM     81  C   UNL     1       3.521 -17.152  12.701  1.00  0.00     0.022 A 
BRANCH  79  82
ATOM     82  S   UNL     1       3.971 -15.684  10.435  1.00  0.00     0.127 S 
ATOM     83  O   UNL     1       5.164 -16.461  10.111  1.00  0.00    -0.237 OA
ATOM     84  O   UNL     1       2.708 -16.282  10.000  1.00  0.00    -0.237 OA
ATOM     85  O   UNL     1       4.069 -14.250  10.202  1.00  0.00    -0.744 OA
ENDBRANCH  79  82
ENDBRANCH  51  75
BRANCH  63  86
ATOM     86  C   UNL     1       8.115 -13.473  19.791  1.00  0.00     0.023 A 
ATOM     87  C   UNL     1       9.330 -13.612  19.091  1.00  0.00     0.012 A 
ATOM     88  C   UNL     1       8.012 -13.975  21.104  1.00  0.00     0.148 A 
ATOM     89  C   UNL     1      10.412 -14.271  19.673  1.00  0.00     0.002 A 
ATOM     90  C   UNL     1       9.110 -14.585  21.696  1.00  0.00     0.091 A 
ATOM     91  F   UNL     1       6.841 -13.850  21.747  1.00  0.00    -0.205 F 
ATOM     92  C   UNL     1      10.306 -14.747  20.978  1.00  0.00     0.022 A 
BRANCH  90  93
ATOM     93  S   UNL     1       9.097 -15.142  23.404  1.00  0.00     0.127 S 
ATOM     94  O   UNL     1       9.054 -16.595  23.243  1.00  0.00    -0.237 OA
ATOM     95  O   UNL     1      10.368 -14.622  23.909  1.00  0.00    -0.237 OA
ATOM     96  O   UNL     1       7.916 -14.544  24.012  1.00  0.00    -0.744 OA
ENDBRANCH  90  93
ENDBRANCH  63  86
ENDBRANCH  37  38
ENDBRANCH  29  32
ENDBRANCH  27  28
ENDBRANCH  26  27
ENDBRANCH   1  26
TORSDOF 19
