REMARK SMILES O=C(NCCCCNC(=O)[C@H](NC(=O)[C@H]1CC[C@@H](CNC(=O)[C@@H]2Cc3ccccc3C[NH2+]2)CC1)c1ccccc1)c1ccc(-c2c3nc(c(-c4cccc(S(=O)(=O)[O-])c4F)c4ccc([nH]4)c(-c4cccc(S(=O)(=O)[O-])c4F)c4nc(c(-c5cccc(S(=O)(=O)[O-])c5F)c5ccc2[nH]5)C=C4)C=C3)cc1
REMARK SMILES IDX 6 1 5 2 4 3 3 4 1 5 2 6 41 8 42 9 103 10 43 11 102 12 44 13
REMARK SMILES IDX 45 14 46 15 96 16 47 17 101 18 95 19 97 20 48 21 100 22
REMARK SMILES IDX 94 23 93 24 49 26 81 27 61 28 80 29 62 30 65 31 79 32 98 33
REMARK SMILES IDX 63 34 64 35 78 37 99 38 66 39 50 40 51 41 59 42 52 43 54 44
REMARK SMILES IDX 60 45 53 46 55 47 56 48 57 49 58 50 82 51 83 52 91 53 84 54
REMARK SMILES IDX 86 55 92 56 85 57 87 58 88 59 89 60 90 61 67 62 68 63 76 64
REMARK SMILES IDX 69 65 71 66 77 67 70 68 72 69 73 70 74 71 75 72 7 73 8 74
REMARK SMILES IDX 9 75 10 77 11 78 35 79 36 80 40 81 37 82 39 83 38 84 12 85
REMARK SMILES IDX 13 86 14 88 15 89 34 90 16 91 33 92 17 93 18 94 19 95 20 96
REMARK SMILES IDX 21 97 22 99 23 100 24 101 32 102 25 103 31 104 26 107 30 108
REMARK SMILES IDX 27 109 29 110 28 111
REMARK H PARENT 3 7 97 25 65 36 8 76 12 87 20 98 32 105 32 106
REMARK Flexibility Score: inf
ROOT
ATOM      1  C   UNL     1       8.802  -5.712   9.128  1.00  0.00     0.023 C 
ENDROOT
BRANCH   1   2
ATOM      2  C   UNL     1       9.956  -6.159  10.022  1.00  0.00     0.023 C 
BRANCH   2   3
ATOM      3  C   UNL     1       9.712  -7.445  10.801  1.00  0.00     0.116 C 
BRANCH   3   4
ATOM      4  N   UNL     1       9.550  -8.598   9.934  1.00  0.00    -0.352 N 
ATOM      5  O   UNL     1      10.161 -10.505   8.904  1.00  0.00    -0.269 OA
ATOM      6  C   UNL     1      10.346  -9.711   9.824  1.00  0.00     0.251 C 
ATOM      7  H   UNL     1       8.761  -8.579   9.346  1.00  0.00     0.163 HD
BRANCH   6   8
ATOM      8  C   UNL     1      11.438  -9.925  10.797  1.00  0.00     0.039 A 
ATOM      9  C   UNL     1      11.207  -9.770  12.167  1.00  0.00     0.014 A 
ATOM     10  C   UNL     1      12.706 -10.276  10.331  1.00  0.00     0.014 A 
ATOM     11  C   UNL     1      12.273  -9.823  13.059  1.00  0.00     0.010 A 
ATOM     12  C   UNL     1      13.757 -10.419  11.239  1.00  0.00     0.010 A 
ATOM     13  C   UNL     1      13.556 -10.167  12.607  1.00  0.00    -0.014 A 
BRANCH  13  14
ATOM     14  C   UNL     1      14.662 -10.343  13.580  1.00  0.00     0.031 A 
ATOM     15  C   UNL     1      15.893  -9.486  13.521  1.00  0.00     0.074 A 
ATOM     16  C   UNL     1      14.570 -11.334  14.488  1.00  0.00     0.049 A 
ATOM     17  N   UNL     1      16.982  -9.560  14.241  1.00  0.00    -0.248 NA
ATOM     18  C   UNL     1      15.911  -8.412  12.515  1.00  0.00     0.031 C 
ATOM     19  C   UNL     1      13.439 -12.257  14.611  1.00  0.00     0.029 A 
ATOM     20  N   UNL     1      15.450 -11.754  15.452  1.00  0.00    -0.354 N 
ATOM     21  C   UNL     1      17.835  -8.581  13.748  1.00  0.00     0.074 A 
ATOM     22  C   UNL     1      17.136  -7.925  12.662  1.00  0.00     0.031 C 
ATOM     23  C   UNL     1      13.698 -13.142  15.581  1.00  0.00     0.029 A 
ATOM     24  C   UNL     1      15.035 -12.891  16.105  1.00  0.00     0.049 A 
ATOM     25  H   UNL     1      16.293 -11.289  15.657  1.00  0.00     0.167 HD
ATOM     26  C   UNL     1      19.084  -8.258  14.164  1.00  0.00     0.034 A 
ATOM     27  C   UNL     1      15.674 -13.679  16.990  1.00  0.00     0.034 A 
ATOM     28  C   UNL     1      19.762  -8.911  15.252  1.00  0.00     0.049 A 
ATOM     29  C   UNL     1      17.055 -13.304  17.436  1.00  0.00     0.074 A 
ATOM     30  C   UNL     1      20.993  -8.604  15.805  1.00  0.00     0.029 A 
ATOM     31  N   UNL     1      19.284 -10.019  15.935  1.00  0.00    -0.354 N 
ATOM     32  N   UNL     1      17.794 -12.291  17.054  1.00  0.00    -0.248 NA
ATOM     33  C   UNL     1      17.682 -14.157  18.455  1.00  0.00     0.031 C 
ATOM     34  C   UNL     1      21.279  -9.556  16.790  1.00  0.00     0.029 A 
ATOM     35  C   UNL     1      20.205 -10.425  16.886  1.00  0.00     0.049 A 
ATOM     36  H   UNL     1      18.416 -10.454  15.768  1.00  0.00     0.167 HD
ATOM     37  C   UNL     1      18.959 -12.364  17.806  1.00  0.00     0.074 A 
ATOM     38  C   UNL     1      18.823 -13.517  18.674  1.00  0.00     0.031 C 
ATOM     39  C   UNL     1      20.042 -11.550  17.775  1.00  0.00     0.034 A 
BRANCH  26  40
ATOM     40  C   UNL     1      19.799  -7.146  13.437  1.00  0.00     0.023 A 
ATOM     41  C   UNL     1      19.356  -5.814  13.573  1.00  0.00     0.012 A 
ATOM     42  C   UNL     1      20.935  -7.417  12.648  1.00  0.00     0.148 A 
ATOM     43  C   UNL     1      20.000  -4.778  12.896  1.00  0.00     0.002 A 
ATOM     44  C   UNL     1      21.600  -6.373  12.015  1.00  0.00     0.091 A 
ATOM     45  F   UNL     1      21.334  -8.690  12.514  1.00  0.00    -0.205 F 
ATOM     46  C   UNL     1      21.125  -5.056  12.125  1.00  0.00     0.022 A 
BRANCH  44  47
ATOM     47  S   UNL     1      23.106  -6.624  11.068  1.00  0.00     0.127 S 
ATOM     48  O   UNL     1      22.616  -6.487   9.697  1.00  0.00    -0.237 OA
ATOM     49  O   UNL     1      23.948  -5.518  11.527  1.00  0.00    -0.237 OA
ATOM     50  O   UNL     1      23.592  -7.946  11.434  1.00  0.00    -0.744 OA
ENDBRANCH  44  47
ENDBRANCH  26  40
BRANCH  27  51
ATOM     51  C   UNL     1      14.985 -14.894  17.502  1.00  0.00     0.023 A 
ATOM     52  C   UNL     1      14.509 -14.924  18.825  1.00  0.00     0.012 A 
ATOM     53  C   UNL     1      14.718 -15.983  16.647  1.00  0.00     0.148 A 
ATOM     54  C   UNL     1      13.791 -16.024  19.294  1.00  0.00     0.002 A 
ATOM     55  C   UNL     1      13.952 -17.047  17.101  1.00  0.00     0.091 A 
ATOM     56  F   UNL     1      15.184 -15.930  15.391  1.00  0.00    -0.205 F 
ATOM     57  C   UNL     1      13.501 -17.078  18.430  1.00  0.00     0.022 A 
BRANCH  55  58
ATOM     58  S   UNL     1      13.405 -18.374  16.021  1.00  0.00     0.127 S 
ATOM     59  O   UNL     1      14.102 -19.526  16.587  1.00  0.00    -0.237 OA
ATOM     60  O   UNL     1      11.958 -18.359  16.242  1.00  0.00    -0.237 OA
ATOM     61  O   UNL     1      13.814 -17.988  14.678  1.00  0.00    -0.744 OA
ENDBRANCH  55  58
ENDBRANCH  27  51
BRANCH  39  62
ATOM     62  C   UNL     1      21.164 -11.834  18.739  1.00  0.00     0.023 A 
ATOM     63  C   UNL     1      22.026 -12.925  18.522  1.00  0.00     0.012 A 
ATOM     64  C   UNL     1      21.423 -10.946  19.802  1.00  0.00     0.148 A 
ATOM     65  C   UNL     1      23.121 -13.138  19.359  1.00  0.00     0.002 A 
ATOM     66  C   UNL     1      22.544 -11.134  20.599  1.00  0.00     0.091 A 
ATOM     67  F   UNL     1      20.576  -9.925  20.001  1.00  0.00    -0.205 F 
ATOM     68  C   UNL     1      23.388 -12.236  20.387  1.00  0.00     0.022 A 
BRANCH  66  69
ATOM     69  S   UNL     1      23.025  -9.968  21.878  1.00  0.00     0.127 S 
ATOM     70  O   UNL     1      22.841 -10.764  23.091  1.00  0.00    -0.237 OA
ATOM     71  O   UNL     1      24.420  -9.694  21.534  1.00  0.00    -0.237 OA
ATOM     72  O   UNL     1      22.130  -8.827  21.745  1.00  0.00    -0.744 OA
ENDBRANCH  66  69
ENDBRANCH  39  62
ENDBRANCH  13  14
ENDBRANCH   6   8
ENDBRANCH   3   4
ENDBRANCH   2   3
ENDBRANCH   1   2
BRANCH   1  73
ATOM     73  C   UNL     1       7.428  -5.713   9.785  1.00  0.00     0.116 C 
BRANCH  73  74
ATOM     74  N   UNL     1       7.398  -5.054  11.079  1.00  0.00    -0.354 N 
ATOM     75  C   UNL     1       6.285  -4.585  11.728  1.00  0.00     0.247 C 
ATOM     76  H   UNL     1       8.262  -4.932  11.535  1.00  0.00     0.163 HD
ATOM     77  O   UNL     1       6.331  -4.502  12.956  1.00  0.00    -0.272 OA
BRANCH  75  78
ATOM     78  C   UNL     1       5.022  -4.222  10.884  1.00  0.00     0.202 C 
BRANCH  78  79
ATOM     79  C   UNL     1       4.259  -5.513  10.617  1.00  0.00    -0.016 A 
ATOM     80  C   UNL     1       4.011  -6.410  11.670  1.00  0.00     0.006 A 
ATOM     81  C   UNL     1       3.940  -5.898   9.306  1.00  0.00     0.006 A 
ATOM     82  C   UNL     1       3.573  -7.704  11.406  1.00  0.00     0.000 A 
ATOM     83  C   UNL     1       3.488  -7.193   9.048  1.00  0.00     0.000 A 
ATOM     84  C   UNL     1       3.331  -8.101  10.094  1.00  0.00     0.000 A 
ENDBRANCH  78  79
BRANCH  78  85
ATOM     85  N   UNL     1       4.140  -3.195  11.434  1.00  0.00    -0.340 N 
ATOM     86  C   UNL     1       4.437  -1.896  11.743  1.00  0.00     0.224 C 
ATOM     87  H   UNL     1       3.211  -3.474  11.604  1.00  0.00     0.164 HD
ATOM     88  O   UNL     1       3.529  -1.064  11.691  1.00  0.00    -0.275 OA
BRANCH  86  89
ATOM     89  C   UNL     1       5.850  -1.519  12.184  1.00  0.00     0.078 C 
ATOM     90  C   UNL     1       6.828  -1.435  11.007  1.00  0.00     0.014 C 
ATOM     91  C   UNL     1       5.868  -0.224  13.017  1.00  0.00     0.014 C 
ATOM     92  C   UNL     1       8.238  -1.125  11.505  1.00  0.00     0.006 C 
ATOM     93  C   UNL     1       7.295   0.152  13.444  1.00  0.00     0.006 C 
ATOM     94  C   UNL     1       8.274   0.212  12.258  1.00  0.00     0.008 C 
BRANCH  94  95
ATOM     95  C   UNL     1       7.934   1.359  11.294  1.00  0.00     0.119 C 
BRANCH  95  96
ATOM     96  N   UNL     1       8.368   2.646  11.778  1.00  0.00    -0.351 N 
ATOM     97  C   UNL     1       9.272   3.546  11.325  1.00  0.00     0.278 C 
ATOM     98  H   UNL     1       7.917   2.926  12.607  1.00  0.00     0.163 HD
ATOM     99  O   UNL     1       9.190   4.667  11.850  1.00  0.00    -0.268 OA
BRANCH  97 100
ATOM    100  C   UNL     1      10.427   3.245  10.332  1.00  0.00     0.277 C 
ATOM    101  C   UNL     1      10.333   2.036   9.391  1.00  0.00     0.111 C 
ATOM    102  N   UNL     1      11.712   3.352  11.078  1.00  0.00    -0.332 N 
ATOM    103  C   UNL     1      11.545   2.001   8.496  1.00  0.00    -0.033 A 
ATOM    104  C   UNL     1      12.788   2.485  10.602  1.00  0.00     0.298 C 
ATOM    105  H   UNL     1      11.530   3.120  12.054  1.00  0.00     0.347 HD
ATOM    106  H   UNL     1      12.040   4.308  10.938  1.00  0.00     0.347 HD
ATOM    107  C   UNL     1      11.480   1.698   7.135  1.00  0.00     0.004 A 
ATOM    108  C   UNL     1      12.778   2.283   9.107  1.00  0.00     0.010 A 
ATOM    109  C   UNL     1      12.648   1.712   6.373  1.00  0.00     0.000 A 
ATOM    110  C   UNL     1      13.942   2.290   8.338  1.00  0.00     0.010 A 
ATOM    111  C   UNL     1      13.873   2.016   6.971  1.00  0.00     0.001 A 
ENDBRANCH  97 100
ENDBRANCH  95  96
ENDBRANCH  94  95
ENDBRANCH  86  89
ENDBRANCH  78  85
ENDBRANCH  75  78
ENDBRANCH  73  74
ENDBRANCH   1  73
TORSDOF 20
