REMARK SMILES CC[C@@H](C)[C@H](NC(=O)NCc1ccc(C)cc1)C(=O)NCCCCNC(=O)c1ccc(-c2c3nc(c(-c4cccc(S(=O)(=O)[O-])c4F)c4ccc([nH]4)c(-c4cccc(S(=O)(=O)[O-])c4F)c4nc(c(-c5cccc(S(=O)(=O)[O-])c5F)c5ccc2[nH]5)C=C4)C=C3)cc1
REMARK SMILES IDX 22 1 21 2 20 3 18 4 19 5 5 7 3 8 4 9 2 10 1 11 6 12 7 13
REMARK SMILES IDX 8 15 9 16 10 18 11 19 12 20 17 21 13 22 16 23 14 24 15 25
REMARK SMILES IDX 23 26 24 27 25 28 26 29 27 31 28 32 29 33 90 34 30 35 89 36
REMARK SMILES IDX 31 37 32 38 33 39 83 40 34 41 88 42 82 43 84 44 35 45 87 46
REMARK SMILES IDX 81 47 80 48 36 50 68 51 48 52 67 53 49 54 52 55 66 56 85 57
REMARK SMILES IDX 50 58 51 59 65 61 86 62 53 63 37 64 38 65 46 66 39 67 41 68
REMARK SMILES IDX 47 69 40 70 42 71 43 72 44 73 45 74 69 75 70 76 78 77 71 78
REMARK SMILES IDX 73 79 79 80 72 81 74 82 75 83 76 84 77 85 54 86 55 87 63 88
REMARK SMILES IDX 56 89 58 90 64 91 57 92 59 93 60 94 61 95 62 96
REMARK H PARENT 20 6 6 14 9 17 25 30 84 49 52 60
REMARK Flexibility Score: inf
ROOT
ATOM      1  C   UNL     1       4.174   2.501  -2.566  1.00  0.00     0.023 C 
ENDROOT
BRANCH   1   2
ATOM      2  C   UNL     1       3.725   3.698  -1.722  1.00  0.00     0.116 C 
BRANCH   2   3
ATOM      3  N   UNL     1       2.506   4.332  -2.195  1.00  0.00    -0.354 N 
ATOM      4  C   UNL     1       1.217   4.296  -1.754  1.00  0.00     0.242 C 
ATOM      5  O   UNL     1       0.427   5.089  -2.282  1.00  0.00    -0.273 OA
ATOM      6  H   UNL     1       2.637   4.899  -2.990  1.00  0.00     0.163 HD
BRANCH   4   7
ATOM      7  C   UNL     1       0.739   3.433  -0.556  1.00  0.00     0.175 C 
BRANCH   7   8
ATOM      8  C   UNL     1       0.919   4.154   0.816  1.00  0.00     0.018 C 
ATOM      9  C   UNL     1       2.352   4.156   1.353  1.00  0.00     0.010 C 
BRANCH   8  10
ATOM     10  C   UNL     1      -0.078   3.574   1.848  1.00  0.00     0.002 C 
ATOM     11  C   UNL     1       0.016   4.205   3.232  1.00  0.00     0.004 C 
ENDBRANCH   8  10
ENDBRANCH   7   8
BRANCH   7  12
ATOM     12  N   UNL     1       1.270   2.069  -0.587  1.00  0.00    -0.326 N 
ATOM     13  C   UNL     1       0.814   0.833  -0.748  1.00  0.00     0.315 C 
ATOM     14  H   UNL     1       2.244   2.069  -0.448  1.00  0.00     0.166 HD
ATOM     15  O   UNL     1       1.659  -0.067  -0.783  1.00  0.00    -0.249 OA
ATOM     16  N   UNL     1      -0.457   0.466  -0.845  1.00  0.00    -0.334 N 
ATOM     17  H   UNL     1      -0.560  -0.513  -0.861  1.00  0.00     0.165 HD
BRANCH  16  18
ATOM     18  C   UNL     1      -1.727   1.146  -0.934  1.00  0.00     0.153 C 
BRANCH  18  19
ATOM     19  C   UNL     1      -2.696   0.504  -1.906  1.00  0.00    -0.029 A 
ATOM     20  C   UNL     1      -4.019   0.973  -1.929  1.00  0.00     0.006 A 
ATOM     21  C   UNL     1      -2.320  -0.466  -2.846  1.00  0.00     0.006 A 
ATOM     22  C   UNL     1      -4.937   0.486  -2.861  1.00  0.00     0.004 A 
ATOM     23  C   UNL     1      -3.243  -0.964  -3.771  1.00  0.00     0.004 A 
ATOM     24  C   UNL     1      -4.557  -0.488  -3.789  1.00  0.00    -0.051 A 
ATOM     25  C   UNL     1      -5.544  -0.983  -4.802  1.00  0.00     0.044 C 
ENDBRANCH  18  19
ENDBRANCH  16  18
ENDBRANCH   7  12
ENDBRANCH   4   7
ENDBRANCH   2   3
ENDBRANCH   1   2
BRANCH   1  26
ATOM     26  C   UNL     1       4.651   2.792  -3.997  1.00  0.00     0.023 C 
BRANCH  26  27
ATOM     27  C   UNL     1       5.737   3.843  -4.075  1.00  0.00     0.116 C 
BRANCH  27  28
ATOM     28  N   UNL     1       6.950   3.464  -3.365  1.00  0.00    -0.352 N 
ATOM     29  C   UNL     1       8.156   4.134  -3.321  1.00  0.00     0.251 C 
ATOM     30  H   UNL     1       6.905   2.625  -2.852  1.00  0.00     0.163 HD
ATOM     31  O   UNL     1       9.186   3.451  -3.414  1.00  0.00    -0.269 OA
BRANCH  29  32
ATOM     32  C   UNL     1       8.223   5.585  -3.038  1.00  0.00     0.039 A 
ATOM     33  C   UNL     1       9.441   6.184  -2.678  1.00  0.00     0.014 A 
ATOM     34  C   UNL     1       7.057   6.321  -2.897  1.00  0.00     0.014 A 
ATOM     35  C   UNL     1       9.428   7.370  -1.945  1.00  0.00     0.010 A 
ATOM     36  C   UNL     1       7.054   7.559  -2.354  1.00  0.00     0.010 A 
ATOM     37  C   UNL     1       8.200   7.960  -1.699  1.00  0.00    -0.014 A 
BRANCH  37  38
ATOM     38  C   UNL     1       7.883   8.992  -0.747  1.00  0.00     0.031 A 
ATOM     39  C   UNL     1       8.107  10.370  -1.159  1.00  0.00     0.074 A 
ATOM     40  C   UNL     1       7.013   8.612   0.219  1.00  0.00     0.049 A 
ATOM     41  N   UNL     1       7.990  11.374  -0.373  1.00  0.00    -0.248 NA
ATOM     42  C   UNL     1       8.533  10.723  -2.514  1.00  0.00     0.031 C 
ATOM     43  C   UNL     1       5.964   9.383   0.872  1.00  0.00     0.029 A 
ATOM     44  N   UNL     1       6.868   7.363   0.801  1.00  0.00    -0.354 N 
ATOM     45  C   UNL     1       7.926  12.473  -1.195  1.00  0.00     0.074 A 
ATOM     46  C   UNL     1       8.526  12.055  -2.432  1.00  0.00     0.031 C 
ATOM     47  C   UNL     1       5.484   8.676   1.917  1.00  0.00     0.029 A 
ATOM     48  C   UNL     1       6.331   7.503   2.076  1.00  0.00     0.049 A 
ATOM     49  H   UNL     1       7.108   6.507   0.376  1.00  0.00     0.167 HD
ATOM     50  C   UNL     1       7.141  13.513  -0.805  1.00  0.00     0.034 A 
ATOM     51  C   UNL     1       7.149   7.279   3.156  1.00  0.00     0.034 A 
ATOM     52  C   UNL     1       6.666  13.295   0.580  1.00  0.00     0.049 A 
ATOM     53  C   UNL     1       7.563   8.572   3.848  1.00  0.00     0.074 A 
ATOM     54  C   UNL     1       5.439  12.950   1.119  1.00  0.00     0.029 A 
ATOM     55  N   UNL     1       7.603  13.077   1.593  1.00  0.00    -0.354 N 
ATOM     56  N   UNL     1       7.279   9.767   3.403  1.00  0.00    -0.248 NA
ATOM     57  C   UNL     1       8.290   8.627   5.112  1.00  0.00     0.031 C 
ATOM     58  C   UNL     1       5.671  12.393   2.416  1.00  0.00     0.029 A 
ATOM     59  C   UNL     1       7.030  12.442   2.687  1.00  0.00     0.049 A 
ATOM     60  H   UNL     1       8.550  13.341   1.538  1.00  0.00     0.167 HD
ATOM     61  C   UNL     1       7.854  10.726   4.187  1.00  0.00     0.074 A 
ATOM     62  C   UNL     1       8.403   9.956   5.295  1.00  0.00     0.031 C 
ATOM     63  C   UNL     1       7.863  12.053   3.833  1.00  0.00     0.034 A 
BRANCH  50  64
ATOM     64  C   UNL     1       6.604  14.603  -1.723  1.00  0.00     0.023 A 
ATOM     65  C   UNL     1       5.817  15.604  -1.117  1.00  0.00     0.012 A 
ATOM     66  C   UNL     1       6.744  14.703  -3.135  1.00  0.00     0.148 A 
ATOM     67  C   UNL     1       5.213  16.634  -1.851  1.00  0.00     0.002 A 
ATOM     68  C   UNL     1       6.202  15.770  -3.859  1.00  0.00     0.091 A 
ATOM     69  F   UNL     1       7.319  13.726  -3.834  1.00  0.00    -0.205 F 
ATOM     70  C   UNL     1       5.421  16.731  -3.220  1.00  0.00     0.022 A 
BRANCH  68  71
ATOM     71  S   UNL     1       6.480  15.983  -5.631  1.00  0.00     0.127 S 
ATOM     72  O   UNL     1       5.139  15.780  -6.180  1.00  0.00    -0.237 OA
ATOM     73  O   UNL     1       6.965  17.362  -5.706  1.00  0.00    -0.237 OA
ATOM     74  O   UNL     1       7.464  14.980  -6.020  1.00  0.00    -0.744 OA
ENDBRANCH  68  71
ENDBRANCH  50  64
BRANCH  51  75
ATOM     75  C   UNL     1       8.013   6.065   2.935  1.00  0.00     0.023 A 
ATOM     76  C   UNL     1       7.316   4.840   2.761  1.00  0.00     0.012 A 
ATOM     77  C   UNL     1       9.310   6.181   2.403  1.00  0.00     0.148 A 
ATOM     78  C   UNL     1       7.800   3.858   1.892  1.00  0.00     0.002 A 
ATOM     79  C   UNL     1       9.792   5.188   1.547  1.00  0.00     0.091 A 
ATOM     80  F   UNL     1      10.023   7.281   2.679  1.00  0.00    -0.205 F 
ATOM     81  C   UNL     1       9.012   4.060   1.242  1.00  0.00     0.022 A 
BRANCH  79  82
ATOM     82  S   UNL     1      11.372   5.369   0.705  1.00  0.00     0.127 S 
ATOM     83  O   UNL     1      12.277   4.690   1.631  1.00  0.00    -0.237 OA
ATOM     84  O   UNL     1      11.153   4.655  -0.553  1.00  0.00    -0.237 OA
ATOM     85  O   UNL     1      11.562   6.801   0.556  1.00  0.00    -0.744 OA
ENDBRANCH  79  82
ENDBRANCH  51  75
BRANCH  63  86
ATOM     86  C   UNL     1       8.673  13.132   4.538  1.00  0.00     0.023 A 
ATOM     87  C   UNL     1       9.761  12.838   5.382  1.00  0.00     0.012 A 
ATOM     88  C   UNL     1       8.443  14.508   4.269  1.00  0.00     0.148 A 
ATOM     89  C   UNL     1      10.518  13.840   5.998  1.00  0.00     0.002 A 
ATOM     90  C   UNL     1       9.288  15.493   4.768  1.00  0.00     0.091 A 
ATOM     91  F   UNL     1       7.379  14.884   3.544  1.00  0.00    -0.205 F 
ATOM     92  C   UNL     1      10.298  15.169   5.672  1.00  0.00     0.022 A 
BRANCH  90  93
ATOM     93  S   UNL     1       9.224  17.180   4.148  1.00  0.00     0.127 S 
ATOM     94  O   UNL     1       8.464  17.858   5.196  1.00  0.00    -0.237 OA
ATOM     95  O   UNL     1      10.642  17.542   4.091  1.00  0.00    -0.237 OA
ATOM     96  O   UNL     1       8.579  17.091   2.845  1.00  0.00    -0.744 OA
ENDBRANCH  90  93
ENDBRANCH  63  86
ENDBRANCH  37  38
ENDBRANCH  29  32
ENDBRANCH  27  28
ENDBRANCH  26  27
ENDBRANCH   1  26
TORSDOF 19
