REMARK SMILES CC[C@H]1CCCC[C@@H]1C1(C(=O)NCCCCNC(=O)c2ccc(-c3c4nc(c(-c5cccc(S(=O)(=O)[O-])c5F)c5ccc([nH]5)c(-c5cccc(S(=O)(=O)[O-])c5F)c5nc(c(-c6cccc(S(=O)(=O)[O-])c6F)c6ccc3[nH]6)C=C5)C=C4)cc2)CC1
REMARK SMILES IDX 15 1 14 2 13 3 12 4 10 5 11 6 9 8 83 9 84 10 8 11 3 12 4 13
REMARK SMILES IDX 5 14 7 15 6 16 2 17 1 18 16 19 17 20 18 21 19 23 20 24 21 25
REMARK SMILES IDX 82 26 22 27 81 28 23 29 24 30 25 31 75 32 26 33 80 34 74 35
REMARK SMILES IDX 76 36 27 37 79 38 73 39 72 40 28 42 60 43 40 44 59 45 41 46
REMARK SMILES IDX 44 47 58 48 77 49 42 50 43 51 57 53 78 54 45 55 29 56 30 57
REMARK SMILES IDX 38 58 31 59 33 60 39 61 32 62 34 63 35 64 36 65 37 66 61 67
REMARK SMILES IDX 62 68 70 69 63 70 65 71 71 72 64 73 66 74 67 75 68 76 69 77
REMARK SMILES IDX 46 78 47 79 55 80 48 81 50 82 56 83 49 84 51 85 52 86 53 87
REMARK SMILES IDX 54 88
REMARK H PARENT 12 7 17 22 76 41 44 52
REMARK Flexibility Score: inf
ROOT
ATOM      1  C   UNL     1      -2.280   7.054   0.064  1.00  0.00     0.023 C 
ENDROOT
BRANCH   1   2
ATOM      2  C   UNL     1      -2.814   5.648   0.362  1.00  0.00     0.023 C 
BRANCH   2   3
ATOM      3  C   UNL     1      -2.299   4.548  -0.563  1.00  0.00     0.116 C 
BRANCH   3   4
ATOM      4  N   UNL     1      -0.860   4.442  -0.567  1.00  0.00    -0.356 N 
ATOM      5  C   UNL     1       0.041   3.562  -0.045  1.00  0.00     0.226 C 
ATOM      6  O   UNL     1       1.184   3.646  -0.493  1.00  0.00    -0.274 OA
ATOM      7  H   UNL     1      -0.428   5.176  -1.062  1.00  0.00     0.163 HD
BRANCH   5   8
ATOM      8  C   UNL     1      -0.256   2.501   1.016  1.00  0.00     0.052 C 
ATOM      9  C   UNL     1      -1.155   1.364   0.511  1.00  0.00     0.018 C 
ATOM     10  C   UNL     1      -1.630   2.251   1.616  1.00  0.00     0.018 C 
BRANCH   8  11
ATOM     11  C   UNL     1       0.987   2.217   1.936  1.00  0.00     0.008 C 
ATOM     12  C   UNL     1       1.181   0.801   2.538  1.00  0.00    -0.007 C 
ATOM     13  C   UNL     1       0.384   0.585   3.840  1.00  0.00     0.004 C 
ATOM     14  C   UNL     1       0.530   1.724   4.849  1.00  0.00     0.000 C 
ATOM     15  C   UNL     1       1.152   3.324   2.992  1.00  0.00     0.005 C 
ATOM     16  C   UNL     1       0.305   3.102   4.239  1.00  0.00     0.000 C 
BRANCH  12  17
ATOM     17  C   UNL     1       2.677   0.473   2.833  1.00  0.00     0.000 C 
ATOM     18  C   UNL     1       3.635   0.668   1.664  1.00  0.00     0.004 C 
ENDBRANCH  12  17
ENDBRANCH   8  11
ENDBRANCH   5   8
ENDBRANCH   3   4
ENDBRANCH   2   3
ENDBRANCH   1   2
BRANCH   1  19
ATOM     19  C   UNL     1      -2.271   7.472  -1.403  1.00  0.00     0.116 C 
BRANCH  19  20
ATOM     20  N   UNL     1      -3.567   7.340  -2.050  1.00  0.00    -0.352 N 
ATOM     21  C   UNL     1      -4.163   8.177  -2.961  1.00  0.00     0.251 C 
ATOM     22  H   UNL     1      -4.088   6.542  -1.801  1.00  0.00     0.163 HD
ATOM     23  O   UNL     1      -5.304   7.952  -3.350  1.00  0.00    -0.269 OA
BRANCH  21  24
ATOM     24  C   UNL     1      -3.435   9.373  -3.433  1.00  0.00     0.039 A 
ATOM     25  C   UNL     1      -4.078  10.611  -3.374  1.00  0.00     0.014 A 
ATOM     26  C   UNL     1      -2.117   9.280  -3.888  1.00  0.00     0.014 A 
ATOM     27  C   UNL     1      -3.375  11.769  -3.712  1.00  0.00     0.010 A 
ATOM     28  C   UNL     1      -1.397  10.442  -4.155  1.00  0.00     0.010 A 
ATOM     29  C   UNL     1      -2.018  11.697  -4.070  1.00  0.00    -0.014 A 
BRANCH  29  30
ATOM     30  C   UNL     1      -1.233  12.930  -4.334  1.00  0.00     0.031 A 
ATOM     31  C   UNL     1      -0.644  13.180  -5.695  1.00  0.00     0.074 A 
ATOM     32  C   UNL     1      -0.987  13.789  -3.324  1.00  0.00     0.049 A 
ATOM     33  N   UNL     1       0.086  14.185  -6.104  1.00  0.00    -0.248 NA
ATOM     34  C   UNL     1      -0.886  12.158  -6.727  1.00  0.00     0.031 C 
ATOM     35  C   UNL     1      -1.432  13.615  -1.939  1.00  0.00     0.029 A 
ATOM     36  N   UNL     1      -0.283  14.967  -3.299  1.00  0.00    -0.354 N 
ATOM     37  C   UNL     1       0.418  13.902  -7.423  1.00  0.00     0.074 A 
ATOM     38  C   UNL     1      -0.161  12.614  -7.737  1.00  0.00     0.031 C 
ATOM     39  C   UNL     1      -0.997  14.650  -1.204  1.00  0.00     0.029 A 
ATOM     40  C   UNL     1      -0.220  15.547  -2.053  1.00  0.00     0.049 A 
ATOM     41  H   UNL     1       0.137  15.361  -4.098  1.00  0.00     0.167 HD
ATOM     42  C   UNL     1       1.116  14.658  -8.303  1.00  0.00     0.034 A 
ATOM     43  C   UNL     1       0.400  16.670  -1.639  1.00  0.00     0.034 A 
ATOM     44  C   UNL     1       1.656  15.955  -7.997  1.00  0.00     0.049 A 
ATOM     45  C   UNL     1       1.140  17.509  -2.646  1.00  0.00     0.074 A 
ATOM     46  C   UNL     1       2.295  16.842  -8.846  1.00  0.00     0.029 A 
ATOM     47  N   UNL     1       1.633  16.547  -6.744  1.00  0.00    -0.354 N 
ATOM     48  N   UNL     1       1.294  17.308  -3.932  1.00  0.00    -0.248 NA
ATOM     49  C   UNL     1       1.760  18.748  -2.154  1.00  0.00     0.031 C 
ATOM     50  C   UNL     1       2.685  17.957  -8.098  1.00  0.00     0.029 A 
ATOM     51  C   UNL     1       2.260  17.780  -6.791  1.00  0.00     0.049 A 
ATOM     52  H   UNL     1       1.231  16.148  -5.939  1.00  0.00     0.167 HD
ATOM     53  C   UNL     1       1.997  18.409  -4.409  1.00  0.00     0.074 A 
ATOM     54  C   UNL     1       2.220  19.284  -3.276  1.00  0.00     0.031 C 
ATOM     55  C   UNL     1       2.429  18.665  -5.668  1.00  0.00     0.034 A 
BRANCH  42  56
ATOM     56  C   UNL     1       1.292  14.125  -9.701  1.00  0.00     0.023 A 
ATOM     57  C   UNL     1       0.181  14.067 -10.569  1.00  0.00     0.012 A 
ATOM     58  C   UNL     1       2.560  13.741 -10.178  1.00  0.00     0.148 A 
ATOM     59  C   UNL     1       0.322  13.601 -11.875  1.00  0.00     0.002 A 
ATOM     60  C   UNL     1       2.702  13.322 -11.496  1.00  0.00     0.091 A 
ATOM     61  F   UNL     1       3.601  13.784  -9.334  1.00  0.00    -0.205 F 
ATOM     62  C   UNL     1       1.583  13.239 -12.341  1.00  0.00     0.022 A 
BRANCH  60  63
ATOM     63  S   UNL     1       4.295  12.912 -12.217  1.00  0.00     0.127 S 
ATOM     64  O   UNL     1       4.181  11.463 -12.379  1.00  0.00    -0.237 OA
ATOM     65  O   UNL     1       4.269  13.668 -13.470  1.00  0.00    -0.237 OA
ATOM     66  O   UNL     1       5.297  13.356 -11.259  1.00  0.00    -0.744 OA
ENDBRANCH  60  63
ENDBRANCH  42  56
BRANCH  43  67
ATOM     67  C   UNL     1       0.293  17.098  -0.215  1.00  0.00     0.023 A 
ATOM     68  C   UNL     1      -0.464  18.241   0.109  1.00  0.00     0.012 A 
ATOM     69  C   UNL     1       0.911  16.368   0.819  1.00  0.00     0.148 A 
ATOM     70  C   UNL     1      -0.576  18.668   1.433  1.00  0.00     0.002 A 
ATOM     71  C   UNL     1       0.749  16.767   2.140  1.00  0.00     0.091 A 
ATOM     72  F   UNL     1       1.635  15.290   0.489  1.00  0.00    -0.205 F 
ATOM     73  C   UNL     1       0.021  17.927   2.448  1.00  0.00     0.022 A 
BRANCH  71  74
ATOM     74  S   UNL     1       1.370  15.801   3.521  1.00  0.00     0.127 S 
ATOM     75  O   UNL     1       2.450  16.649   4.018  1.00  0.00    -0.237 OA
ATOM     76  O   UNL     1       0.195  15.727   4.391  1.00  0.00    -0.237 OA
ATOM     77  O   UNL     1       1.777  14.522   2.955  1.00  0.00    -0.744 OA
ENDBRANCH  71  74
ENDBRANCH  43  67
BRANCH  55  78
ATOM     78  C   UNL     1       3.160  19.960  -5.910  1.00  0.00     0.023 A 
ATOM     79  C   UNL     1       4.477  20.122  -5.437  1.00  0.00     0.012 A 
ATOM     80  C   UNL     1       2.572  20.979  -6.685  1.00  0.00     0.148 A 
ATOM     81  C   UNL     1       5.188  21.290  -5.708  1.00  0.00     0.002 A 
ATOM     82  C   UNL     1       3.304  22.119  -6.995  1.00  0.00     0.091 A 
ATOM     83  F   UNL     1       1.312  20.811  -7.112  1.00  0.00    -0.205 F 
ATOM     84  C   UNL     1       4.608  22.281  -6.497  1.00  0.00     0.022 A 
BRANCH  82  85
ATOM     85  S   UNL     1       2.679  23.403  -8.084  1.00  0.00     0.127 S 
ATOM     86  O   UNL     1       2.478  24.512  -7.153  1.00  0.00    -0.237 OA
ATOM     87  O   UNL     1       3.790  23.584  -9.018  1.00  0.00    -0.237 OA
ATOM     88  O   UNL     1       1.464  22.867  -8.684  1.00  0.00    -0.744 OA
ENDBRANCH  82  85
ENDBRANCH  55  78
ENDBRANCH  29  30
ENDBRANCH  21  24
ENDBRANCH  19  20
ENDBRANCH   1  19
TORSDOF 16
