REMARK SMILES Cc1cc(S(F)(F)(F)(F)F)cc2c1O[C@H](C(F)(F)F)C(C(=O)NCCCCNC(=O)c1ccc(-c3c4nc(c(-c5cccc(S(=O)(=O)[O-])c5F)c5ccc([nH]5)c(-c5cccc(S(=O)(=O)[O-])c5F)c5nc(c(-c6cccc(S(=O)(=O)[O-])c6F)c6ccc3[nH]6)C=C5)C=C4)cc1)=C2
REMARK SMILES IDX 26 1 25 2 24 3 23 4 21 5 22 6 20 8 1 9 2 10 3 11 13 12 4 13
REMARK SMILES IDX 12 14 14 15 11 16 94 17 15 18 5 19 6 20 7 21 8 22 9 23 10 24
REMARK SMILES IDX 16 25 17 26 18 27 19 28 27 29 28 30 29 31 30 33 31 34 32 35
REMARK SMILES IDX 93 36 33 37 92 38 34 39 35 40 36 41 86 42 37 43 91 44 85 45
REMARK SMILES IDX 87 46 38 47 90 48 84 49 83 50 39 52 71 53 51 54 70 55 52 56
REMARK SMILES IDX 55 57 69 58 88 59 53 60 54 61 68 63 89 64 56 65 40 66 41 67
REMARK SMILES IDX 49 68 42 69 44 70 50 71 43 72 45 73 46 74 47 75 48 76 72 77
REMARK SMILES IDX 73 78 81 79 74 80 76 81 82 82 75 83 77 84 78 85 79 86 80 87
REMARK SMILES IDX 57 88 58 89 66 90 59 91 61 92 67 93 60 94 62 95 63 96 64 97
REMARK SMILES IDX 65 98
REMARK H PARENT 23 7 28 32 87 51 55 62
REMARK Flexibility Score: inf
ROOT
ATOM      1  C   UNL     1       4.044  -6.209   5.181  1.00  0.00     0.023 C 
ENDROOT
BRANCH   1   2
ATOM      2  C   UNL     1       3.354  -5.057   4.467  1.00  0.00     0.023 C 
BRANCH   2   3
ATOM      3  C   UNL     1       3.820  -5.006   3.021  1.00  0.00     0.116 C 
BRANCH   3   4
ATOM      4  N   UNL     1       3.482  -6.270   2.352  1.00  0.00    -0.352 N 
ATOM      5  C   UNL     1       2.596  -6.267   1.179  1.00  0.00     0.251 C 
ATOM      6  O   UNL     1       2.304  -7.360   0.600  1.00  0.00    -0.270 OA
ATOM      7  H   UNL     1       3.848  -7.119   2.690  1.00  0.00     0.163 HD
BRANCH   5   8
ATOM      8  C   UNL     1       2.031  -4.956   0.657  1.00  0.00     0.067 C 
ATOM      9  C   UNL     1       1.001  -0.053  -0.085  1.00  0.00     0.048 C 
ATOM     10  C   UNL     1       0.495  -1.325  -0.746  1.00  0.00    -0.007 A 
ATOM     11  C   UNL     1      -0.334  -1.341  -1.846  1.00  0.00     0.031 A 
ATOM     12  C   UNL     1       1.017  -2.524  -0.264  1.00  0.00     0.130 A 
ATOM     13  C   UNL     1      -0.657  -2.537  -2.474  1.00  0.00     0.108 A 
ATOM     14  C   UNL     1       0.690  -3.739  -0.909  1.00  0.00     0.019 A 
ATOM     15  O   UNL     1       1.905  -2.574   0.904  1.00  0.00    -0.475 OA
ATOM     16  C   UNL     1      -0.152  -3.724  -2.023  1.00  0.00     0.036 A 
ATOM     17  C   UNL     1       1.251  -4.983  -0.382  1.00  0.00     0.025 C 
ATOM     18  C   UNL     1       2.371  -3.772   1.314  1.00  0.00     0.314 C 
BRANCH  13  19
ATOM     19  S   UNL     1      -1.760  -2.523  -3.908  1.00  0.00     0.310 S 
ATOM     20  F   UNL     1      -3.054  -2.517  -2.991  1.00  0.00    -0.094 F 
ATOM     21  F   UNL     1      -1.810  -4.097  -3.849  1.00  0.00    -0.094 F 
ATOM     22  F   UNL     1      -2.708  -2.512  -5.141  1.00  0.00    -0.094 F 
ATOM     23  F   UNL     1      -1.811  -0.945  -3.865  1.00  0.00    -0.094 F 
ATOM     24  F   UNL     1      -0.889  -2.517  -2.589  1.00  0.00    -0.094 F 
ENDBRANCH  13  19
BRANCH  18  25
ATOM     25  C   UNL     1       3.858  -3.657   1.023  1.00  0.00     0.429 C 
ATOM     26  F   UNL     1       4.353  -2.596   1.654  1.00  0.00    -0.167 F 
ATOM     27  F   UNL     1       4.479  -4.754   1.446  1.00  0.00    -0.167 F 
ATOM     28  F   UNL     1       4.044  -3.520  -0.287  1.00  0.00    -0.167 F 
ENDBRANCH  18  25
ENDBRANCH   5   8
ENDBRANCH   3   4
ENDBRANCH   2   3
ENDBRANCH   1   2
BRANCH   1  29
ATOM     29  C   UNL     1       5.549  -6.001   5.141  1.00  0.00     0.116 C 
BRANCH  29  30
ATOM     30  N   UNL     1       5.888  -4.737   5.810  1.00  0.00    -0.352 N 
ATOM     31  C   UNL     1       6.773  -4.741   6.983  1.00  0.00     0.251 C 
ATOM     32  H   UNL     1       5.521  -3.888   5.472  1.00  0.00     0.163 HD
ATOM     33  O   UNL     1       7.066  -3.647   7.562  1.00  0.00    -0.269 OA
BRANCH  31  34
ATOM     34  C   UNL     1       7.338  -6.052   7.505  1.00  0.00     0.039 A 
ATOM     35  C   UNL     1       7.289  -6.424   8.844  1.00  0.00     0.014 A 
ATOM     36  C   UNL     1       7.827  -6.910   6.635  1.00  0.00     0.014 A 
ATOM     37  C   UNL     1       7.277  -7.810   9.114  1.00  0.00     0.010 A 
ATOM     38  C   UNL     1       8.294  -8.162   7.050  1.00  0.00     0.010 A 
ATOM     39  C   UNL     1       8.030  -8.613   8.258  1.00  0.00    -0.014 A 
BRANCH  39  40
ATOM     40  C   UNL     1       8.533  -9.974   8.709  1.00  0.00     0.031 A 
ATOM     41  C   UNL     1       9.898 -10.264   8.743  1.00  0.00     0.074 A 
ATOM     42  C   UNL     1       7.546 -10.846   9.135  1.00  0.00     0.049 A 
ATOM     43  N   UNL     1      10.484 -11.370   9.205  1.00  0.00    -0.248 NA
ATOM     44  C   UNL     1      10.947  -9.354   8.259  1.00  0.00     0.031 C 
ATOM     45  C   UNL     1       6.167 -10.557   9.112  1.00  0.00     0.029 A 
ATOM     46  N   UNL     1       7.702 -12.115   9.646  1.00  0.00    -0.354 N 
ATOM     47  C   UNL     1      11.810 -11.273   9.088  1.00  0.00     0.074 A 
ATOM     48  C   UNL     1      12.126  -9.977   8.473  1.00  0.00     0.031 C 
ATOM     49  C   UNL     1       5.502 -11.642   9.590  1.00  0.00     0.029 A 
ATOM     50  C   UNL     1       6.453 -12.625   9.921  1.00  0.00     0.049 A 
ATOM     51  H   UNL     1       8.559 -12.578   9.789  1.00  0.00     0.167 HD
ATOM     52  C   UNL     1      12.767 -12.213   9.473  1.00  0.00     0.034 A 
ATOM     53  C   UNL     1       6.139 -13.875  10.431  1.00  0.00     0.034 A 
ATOM     54  C   UNL     1      12.456 -13.446  10.023  1.00  0.00     0.049 A 
ATOM     55  C   UNL     1       7.095 -14.839  10.762  1.00  0.00     0.074 A 
ATOM     56  C   UNL     1      13.409 -14.402  10.423  1.00  0.00     0.029 A 
ATOM     57  N   UNL     1      11.205 -13.966  10.275  1.00  0.00    -0.354 N 
ATOM     58  N   UNL     1       8.422 -14.726  10.682  1.00  0.00    -0.248 NA
ATOM     59  C   UNL     1       6.774 -16.179  11.272  1.00  0.00     0.031 C 
ATOM     60  C   UNL     1      12.743 -15.487  10.902  1.00  0.00     0.029 A 
ATOM     61  C   UNL     1      11.362 -15.226  10.807  1.00  0.00     0.049 A 
ATOM     62  H   UNL     1      10.347 -13.514  10.105  1.00  0.00     0.167 HD
ATOM     63  C   UNL     1       9.005 -15.849  11.105  1.00  0.00     0.074 A 
ATOM     64  C   UNL     1       7.953 -16.803  11.483  1.00  0.00     0.031 C 
ATOM     65  C   UNL     1      10.372 -16.116  11.194  1.00  0.00     0.034 A 
BRANCH  52  66
ATOM     66  C   UNL     1      14.234 -11.864   9.278  1.00  0.00     0.023 A 
ATOM     67  C   UNL     1      14.792 -10.756   9.905  1.00  0.00     0.012 A 
ATOM     68  C   UNL     1      15.006 -12.604   8.511  1.00  0.00     0.148 A 
ATOM     69  C   UNL     1      16.192 -10.778  10.098  1.00  0.00     0.002 A 
ATOM     70  C   UNL     1      16.354 -12.276   8.324  1.00  0.00     0.091 A 
ATOM     71  F   UNL     1      14.500 -13.675   7.906  1.00  0.00    -0.205 F 
ATOM     72  C   UNL     1      16.944 -11.387   9.095  1.00  0.00     0.022 A 
BRANCH  70  73
ATOM     73  S   UNL     1      17.297 -13.085   7.008  1.00  0.00     0.127 S 
ATOM     74  O   UNL     1      17.818 -12.028   6.031  1.00  0.00    -0.237 OA
ATOM     75  O   UNL     1      18.478 -13.842   7.618  1.00  0.00    -0.237 OA
ATOM     76  O   UNL     1      16.285 -14.183   6.174  1.00  0.00    -0.744 OA
ENDBRANCH  70  73
ENDBRANCH  52  66
BRANCH  53  77
ATOM     77  C   UNL     1       4.673 -14.217  10.642  1.00  0.00     0.023 A 
ATOM     78  C   UNL     1       4.192 -14.537  11.906  1.00  0.00     0.012 A 
ATOM     79  C   UNL     1       3.829 -14.217   9.633  1.00  0.00     0.148 A 
ATOM     80  C   UNL     1       2.809 -14.344  12.123  1.00  0.00     0.002 A 
ATOM     81  C   UNL     1       2.482 -14.541   9.827  1.00  0.00     0.091 A 
ATOM     82  F   UNL     1       4.261 -13.906   8.414  1.00  0.00    -0.205 F 
ATOM     83  C   UNL     1       1.972 -14.604  11.039  1.00  0.00     0.022 A 
BRANCH  81  84
ATOM     84  S   UNL     1       1.427 -14.877   8.395  1.00  0.00     0.127 S 
ATOM     85  O   UNL     1       0.870 -16.299   8.494  1.00  0.00    -0.237 OA
ATOM     86  O   UNL     1       0.269 -13.877   8.367  1.00  0.00    -0.237 OA
ATOM     87  O   UNL     1       2.347 -14.725   6.961  1.00  0.00    -0.744 OA
ENDBRANCH  81  84
ENDBRANCH  53  77
BRANCH  65  88
ATOM     88  C   UNL     1      10.802 -17.465  11.748  1.00  0.00     0.023 A 
ATOM     89  C   UNL     1      10.531 -18.663  11.096  1.00  0.00     0.012 A 
ATOM     90  C   UNL     1      11.549 -17.498  12.831  1.00  0.00     0.148 A 
ATOM     91  C   UNL     1      11.444 -19.719  11.311  1.00  0.00     0.002 A 
ATOM     92  C   UNL     1      12.049 -18.710  13.319  1.00  0.00     0.091 A 
ATOM     93  F   UNL     1      11.831 -16.366  13.469  1.00  0.00    -0.205 F 
ATOM     94  C   UNL     1      12.005 -19.801  12.584  1.00  0.00     0.022 A 
BRANCH  92  95
ATOM     95  S   UNL     1      12.766 -18.778  14.979  1.00  0.00     0.127 S 
ATOM     96  O   UNL     1      11.980 -19.774  15.835  1.00  0.00    -0.237 OA
ATOM     97  O   UNL     1      14.226 -19.227  14.887  1.00  0.00    -0.237 OA
ATOM     98  O   UNL     1      12.692 -17.227  15.697  1.00  0.00    -0.744 OA
ENDBRANCH  92  95
ENDBRANCH  65  88
ENDBRANCH  39  40
ENDBRANCH  31  34
ENDBRANCH  29  30
ENDBRANCH   1  29
TORSDOF 16
