REMARK SMILES CC(C)[C@@H](CNC(=O)[C@@H]1CC[C@@H]2CCCC[C@@H]2[NH2+]1)C(=O)NCCCCNC(=O)c1ccc(-c2c3nc(c(-c4cccc(S(=O)(=O)[O-])c4F)c4ccc([nH]4)c(-c4cccc(S(=O)(=O)[O-])c4F)c4nc(c(-c5cccc(S(=O)(=O)[O-])c5F)c5ccc2[nH]5)C=C4)C=C3)cc1
REMARK SMILES IDX 23 1 22 2 21 3 19 4 20 5 4 7 2 8 1 9 3 10 5 11 6 12 7 13
REMARK SMILES IDX 8 15 9 16 10 17 18 18 11 19 17 20 12 23 16 24 13 25 15 26
REMARK SMILES IDX 14 27 24 28 25 29 26 30 27 31 28 33 29 34 30 35 91 36 31 37
REMARK SMILES IDX 90 38 32 39 33 40 34 41 84 42 35 43 89 44 83 45 85 46 36 47
REMARK SMILES IDX 88 48 82 49 81 50 37 52 69 53 49 54 68 55 50 56 53 57 67 58
REMARK SMILES IDX 86 59 51 60 52 61 66 63 87 64 54 65 38 66 39 67 47 68 40 69
REMARK SMILES IDX 42 70 48 71 41 72 43 73 44 74 45 75 46 76 70 77 71 78 79 79
REMARK SMILES IDX 72 80 74 81 80 82 73 83 75 84 76 85 77 86 78 87 55 88 56 89
REMARK SMILES IDX 64 90 57 91 59 92 65 93 58 94 60 95 61 96 62 97 63 98
REMARK H PARENT 21 6 6 14 18 21 18 22 26 32 85 51 53 62
REMARK Flexibility Score: inf
ROOT
ATOM      1  C   UNL     1       1.399   1.924   4.379  1.00  0.00     0.023 C 
ENDROOT
BRANCH   1   2
ATOM      2  C   UNL     1       0.032   1.366   3.991  1.00  0.00     0.116 C 
BRANCH   2   3
ATOM      3  N   UNL     1      -0.765   2.290   3.201  1.00  0.00    -0.356 N 
ATOM      4  C   UNL     1      -1.297   2.187   1.951  1.00  0.00     0.225 C 
ATOM      5  O   UNL     1      -2.133   3.035   1.622  1.00  0.00    -0.275 OA
ATOM      6  H   UNL     1      -0.953   3.145   3.650  1.00  0.00     0.163 HD
BRANCH   4   7
ATOM      7  C   UNL     1      -0.901   1.104   0.944  1.00  0.00     0.100 C 
BRANCH   7   8
ATOM      8  C   UNL     1       0.635   1.010   0.726  1.00  0.00    -0.003 C 
ATOM      9  C   UNL     1       1.036  -0.049  -0.305  1.00  0.00     0.008 C 
ATOM     10  C   UNL     1       1.185   2.373   0.263  1.00  0.00     0.008 C 
ENDBRANCH   7   8
BRANCH   7  11
ATOM     11  C   UNL     1      -1.704  -0.204   1.101  1.00  0.00     0.129 C 
BRANCH  11  12
ATOM     12  N   UNL     1      -1.590  -0.891   2.366  1.00  0.00    -0.350 N 
ATOM     13  C   UNL     1      -2.521  -1.280   3.277  1.00  0.00     0.278 C 
ATOM     14  H   UNL     1      -0.665  -1.121   2.615  1.00  0.00     0.163 HD
ATOM     15  O   UNL     1      -2.117  -2.134   4.080  1.00  0.00    -0.268 OA
BRANCH  13  16
ATOM     16  C   UNL     1      -4.022  -0.839   3.268  1.00  0.00     0.272 C 
ATOM     17  C   UNL     1      -4.394   0.597   2.905  1.00  0.00     0.076 C 
ATOM     18  N   UNL     1      -4.686  -1.229   4.551  1.00  0.00    -0.333 N 
ATOM     19  C   UNL     1      -4.072   1.567   4.021  1.00  0.00     0.016 C 
ATOM     20  C   UNL     1      -4.587  -0.266   5.673  1.00  0.00     0.186 C 
ATOM     21  H   UNL     1      -4.268  -2.107   4.859  1.00  0.00     0.347 HD
ATOM     22  H   UNL     1      -5.680  -1.283   4.331  1.00  0.00     0.347 HD
ATOM     23  C   UNL     1      -4.862   1.188   5.268  1.00  0.00     0.048 C 
ATOM     24  C   UNL     1      -3.338  -0.497   6.541  1.00  0.00     0.065 C 
ATOM     25  C   UNL     1      -4.586   2.151   6.421  1.00  0.00     0.010 C 
ATOM     26  C   UNL     1      -2.691   0.692   7.242  1.00  0.00     0.006 C 
ATOM     27  C   UNL     1      -3.137   2.094   6.852  1.00  0.00     0.001 C 
ENDBRANCH  13  16
ENDBRANCH  11  12
ENDBRANCH   7  11
ENDBRANCH   4   7
ENDBRANCH   2   3
ENDBRANCH   1   2
BRANCH   1  28
ATOM     28  C   UNL     1       1.416   2.968   5.503  1.00  0.00     0.023 C 
BRANCH  28  29
ATOM     29  C   UNL     1       0.782   2.560   6.835  1.00  0.00     0.116 C 
BRANCH  29  30
ATOM     30  N   UNL     1       1.240   1.282   7.355  1.00  0.00    -0.352 N 
ATOM     31  C   UNL     1       1.247   0.810   8.649  1.00  0.00     0.251 C 
ATOM     32  H   UNL     1       1.599   0.661   6.681  1.00  0.00     0.163 HD
ATOM     33  O   UNL     1       1.767  -0.281   8.879  1.00  0.00    -0.269 OA
BRANCH  31  34
ATOM     34  C   UNL     1       0.657   1.588   9.766  1.00  0.00     0.039 A 
ATOM     35  C   UNL     1       1.315   1.613  10.999  1.00  0.00     0.014 A 
ATOM     36  C   UNL     1      -0.565   2.249   9.636  1.00  0.00     0.014 A 
ATOM     37  C   UNL     1       0.774   2.341  12.065  1.00  0.00     0.010 A 
ATOM     38  C   UNL     1      -1.099   2.992  10.686  1.00  0.00     0.010 A 
ATOM     39  C   UNL     1      -0.427   3.054  11.908  1.00  0.00    -0.014 A 
BRANCH  39  40
ATOM     40  C   UNL     1      -0.904   3.982  12.961  1.00  0.00     0.031 A 
ATOM     41  C   UNL     1      -2.151   3.717  13.752  1.00  0.00     0.074 A 
ATOM     42  C   UNL     1      -0.234   5.139  13.122  1.00  0.00     0.049 A 
ATOM     43  N   UNL     1      -2.632   4.385  14.769  1.00  0.00    -0.248 NA
ATOM     44  C   UNL     1      -2.982   2.576  13.336  1.00  0.00     0.031 C 
ATOM     45  C   UNL     1       0.900   5.571  12.301  1.00  0.00     0.029 A 
ATOM     46  N   UNL     1      -0.416   6.168  14.007  1.00  0.00    -0.354 N 
ATOM     47  C   UNL     1      -3.822   3.756  15.115  1.00  0.00     0.074 A 
ATOM     48  C   UNL     1      -4.011   2.674  14.171  1.00  0.00     0.031 C 
ATOM     49  C   UNL     1       1.323   6.769  12.731  1.00  0.00     0.029 A 
ATOM     50  C   UNL     1       0.490   7.189  13.853  1.00  0.00     0.049 A 
ATOM     51  H   UNL     1      -1.128   6.176  14.687  1.00  0.00     0.167 HD
ATOM     52  C   UNL     1      -4.663   4.043  16.139  1.00  0.00     0.034 A 
ATOM     53  C   UNL     1       0.648   8.328  14.552  1.00  0.00     0.034 A 
ATOM     54  C   UNL     1      -4.455   5.126  17.067  1.00  0.00     0.049 A 
ATOM     55  C   UNL     1      -0.235   8.570  15.742  1.00  0.00     0.074 A 
ATOM     56  C   UNL     1      -5.181   5.443  18.203  1.00  0.00     0.029 A 
ATOM     57  N   UNL     1      -3.459   6.086  16.954  1.00  0.00    -0.354 N 
ATOM     58  N   UNL     1      -1.226   7.841  16.196  1.00  0.00    -0.248 NA
ATOM     59  C   UNL     1       0.058   9.760  16.552  1.00  0.00     0.031 C 
ATOM     60  C   UNL     1      -4.643   6.612  18.756  1.00  0.00     0.029 A 
ATOM     61  C   UNL     1      -3.556   7.001  17.990  1.00  0.00     0.049 A 
ATOM     62  H   UNL     1      -2.781   6.112  16.240  1.00  0.00     0.167 HD
ATOM     63  C   UNL     1      -1.653   8.463  17.362  1.00  0.00     0.074 A 
ATOM     64  C   UNL     1      -0.791   9.611  17.559  1.00  0.00     0.031 C 
ATOM     65  C   UNL     1      -2.673   8.122  18.190  1.00  0.00     0.034 A 
BRANCH  52  66
ATOM     66  C   UNL     1      -5.856   3.141  16.352  1.00  0.00     0.023 A 
ATOM     67  C   UNL     1      -5.653   1.817  16.796  1.00  0.00     0.012 A 
ATOM     68  C   UNL     1      -7.173   3.617  16.195  1.00  0.00     0.148 A 
ATOM     69  C   UNL     1      -6.736   0.973  17.045  1.00  0.00     0.002 A 
ATOM     70  C   UNL     1      -8.248   2.784  16.489  1.00  0.00     0.091 A 
ATOM     71  F   UNL     1      -7.352   4.872  15.758  1.00  0.00    -0.205 F 
ATOM     72  C   UNL     1      -8.031   1.460  16.902  1.00  0.00     0.022 A 
BRANCH  70  73
ATOM     73  S   UNL     1      -9.956   3.340  16.419  1.00  0.00     0.127 S 
ATOM     74  O   UNL     1     -10.461   2.594  15.264  1.00  0.00    -0.237 OA
ATOM     75  O   UNL     1     -10.480   2.887  17.710  1.00  0.00    -0.237 OA
ATOM     76  O   UNL     1      -9.905   4.783  16.255  1.00  0.00    -0.744 OA
ENDBRANCH  70  73
ENDBRANCH  52  66
BRANCH  53  77
ATOM     77  C   UNL     1       1.755   9.259  14.202  1.00  0.00     0.023 A 
ATOM     78  C   UNL     1       2.870   9.366  15.056  1.00  0.00     0.012 A 
ATOM     79  C   UNL     1       1.734   9.996  13.003  1.00  0.00     0.148 A 
ATOM     80  C   UNL     1       3.929  10.217  14.740  1.00  0.00     0.002 A 
ATOM     81  C   UNL     1       2.819  10.797  12.665  1.00  0.00     0.091 A 
ATOM     82  F   UNL     1       0.663   9.881  12.206  1.00  0.00    -0.205 F 
ATOM     83  C   UNL     1       3.908  10.924  13.541  1.00  0.00     0.022 A 
BRANCH  81  84
ATOM     84  S   UNL     1       2.941  11.627  11.078  1.00  0.00     0.127 S 
ATOM     85  O   UNL     1       2.768  13.027  11.458  1.00  0.00    -0.237 OA
ATOM     86  O   UNL     1       4.294  11.267  10.652  1.00  0.00    -0.237 OA
ATOM     87  O   UNL     1       1.883  11.058  10.254  1.00  0.00    -0.744 OA
ENDBRANCH  81  84
ENDBRANCH  53  77
BRANCH  65  88
ATOM     88  C   UNL     1      -2.891   8.991  19.403  1.00  0.00     0.023 A 
ATOM     89  C   UNL     1      -3.371  10.308  19.251  1.00  0.00     0.012 A 
ATOM     90  C   UNL     1      -2.642   8.492  20.696  1.00  0.00     0.148 A 
ATOM     91  C   UNL     1      -3.544  11.132  20.363  1.00  0.00     0.002 A 
ATOM     92  C   UNL     1      -2.871   9.301  21.803  1.00  0.00     0.091 A 
ATOM     93  F   UNL     1      -2.167   7.244  20.823  1.00  0.00    -0.205 F 
ATOM     94  C   UNL     1      -3.304  10.626  21.638  1.00  0.00     0.022 A 
BRANCH  92  95
ATOM     95  S   UNL     1      -2.682   8.697  23.484  1.00  0.00     0.127 S 
ATOM     96  O   UNL     1      -1.414   9.309  23.879  1.00  0.00    -0.237 OA
ATOM     97  O   UNL     1      -3.861   9.253  24.149  1.00  0.00    -0.237 OA
ATOM     98  O   UNL     1      -2.676   7.244  23.386  1.00  0.00    -0.744 OA
ENDBRANCH  92  95
ENDBRANCH  65  88
ENDBRANCH  39  40
ENDBRANCH  31  34
ENDBRANCH  29  30
ENDBRANCH  28  29
ENDBRANCH   1  28
TORSDOF 18
