REMARK SMILES Nc1oc2ccc(F)cc2c(=O)c1[C@@H]1[NH2+][C@H](C(=O)NCCCCNC(=O)c2ccc(-c3c4nc(c(-c5cccc(S(=O)(=O)[O-])c5F)c5ccc([nH]5)c(-c5cccc(S(=O)(=O)[O-])c5F)c5nc(c(-c6cccc(S(=O)(=O)[O-])c6F)c6ccc3[nH]6)C=C5)C=C4)cc2)CS1
REMARK SMILES IDX 22 1 21 2 20 3 19 4 17 5 18 6 16 8 14 9 15 10 91 11 90 14
REMARK SMILES IDX 13 15 2 16 3 17 4 18 11 19 5 20 10 21 12 22 6 23 9 24 7 25
REMARK SMILES IDX 8 26 1 27 23 30 24 31 25 32 26 34 27 35 28 36 89 37 29 38
REMARK SMILES IDX 88 39 30 40 31 41 32 42 82 43 33 44 87 45 81 46 83 47 34 48
REMARK SMILES IDX 86 49 80 50 79 51 35 53 67 54 47 55 66 56 48 57 51 58 65 59
REMARK SMILES IDX 84 60 49 61 50 62 64 64 85 65 52 66 36 67 37 68 45 69 38 70
REMARK SMILES IDX 40 71 46 72 39 73 41 74 42 75 43 76 44 77 68 78 69 79 77 80
REMARK SMILES IDX 70 81 72 82 78 83 71 84 73 85 74 86 75 87 76 88 53 89 54 90
REMARK SMILES IDX 62 91 55 92 57 93 63 94 56 95 58 96 59 97 60 98 61 99
REMARK H PARENT 19 7 15 12 15 13 1 28 1 29 24 33 83 52 51 63
REMARK Flexibility Score: inf
ROOT
ATOM      1  C   UNL     1      -3.019  -1.801  -2.873  1.00  0.00     0.023 C 
ENDROOT
BRANCH   1   2
ATOM      2  C   UNL     1      -2.098  -2.962  -2.474  1.00  0.00     0.023 C 
BRANCH   2   3
ATOM      3  C   UNL     1      -0.908  -2.709  -1.575  1.00  0.00     0.116 C 
BRANCH   3   4
ATOM      4  N   UNL     1      -1.097  -2.015  -0.325  1.00  0.00    -0.351 N 
ATOM      5  C   UNL     1      -0.081  -1.569   0.496  1.00  0.00     0.279 C 
ATOM      6  O   UNL     1      -0.398  -0.865   1.461  1.00  0.00    -0.268 OA
ATOM      7  H   UNL     1      -2.022  -1.847  -0.034  1.00  0.00     0.163 HD
BRANCH   5   8
ATOM      8  C   UNL     1       1.393  -2.046   0.299  1.00  0.00     0.283 C 
ATOM      9  C   UNL     1       2.367  -1.141  -1.722  1.00  0.00     0.283 C 
ATOM     10  N   UNL     1       1.774  -2.341  -1.108  1.00  0.00    -0.320 N 
ATOM     11  S   UNL     1       3.502  -0.541  -0.447  1.00  0.00    -0.087 SA
ATOM     12  H   UNL     1       2.454  -3.101  -1.123  1.00  0.00     0.348 HD
ATOM     13  H   UNL     1       0.944  -2.615  -1.634  1.00  0.00     0.348 HD
ATOM     14  C   UNL     1       2.444  -1.117   0.924  1.00  0.00     0.151 C 
BRANCH   9  15
ATOM     15  C   UNL     1       1.381  -0.133  -2.327  1.00  0.00     0.128 A 
ATOM     16  C   UNL     1       0.880   0.992  -1.741  1.00  0.00     0.205 A 
ATOM     17  O   UNL     1       0.044   1.922  -2.344  1.00  0.00    -0.440 OA
ATOM     18  C   UNL     1      -0.904   1.401  -3.169  1.00  0.00     0.140 A 
ATOM     19  C   UNL     1       0.904  -0.546  -3.721  1.00  0.00     0.205 A 
ATOM     20  C   UNL     1      -2.611   1.932  -3.053  1.00  0.00     0.051 A 
ATOM     21  C   UNL     1      -0.427  -0.056  -4.102  1.00  0.00     0.068 A 
ATOM     22  O   UNL     1       1.466  -1.376  -4.420  1.00  0.00    -0.288 OA
ATOM     23  C   UNL     1      -3.907   0.927  -3.849  1.00  0.00     0.043 A 
ATOM     24  C   UNL     1      -1.679  -0.988  -5.005  1.00  0.00     0.055 A 
ATOM     25  C   UNL     1      -3.428  -0.485  -4.896  1.00  0.00     0.124 A 
ATOM     26  F   UNL     1      -4.376  -1.198  -5.522  1.00  0.00    -0.207 F 
BRANCH  16  27
ATOM     27  N   UNL     1       1.099   1.340  -0.433  1.00  0.00    -0.369 N 
ATOM     28  H   UNL     1       0.707   2.168  -0.072  1.00  0.00     0.159 HD
ATOM     29  H   UNL     1       1.647   0.762   0.145  1.00  0.00     0.159 HD
ENDBRANCH  16  27
ENDBRANCH   9  15
ENDBRANCH   5   8
ENDBRANCH   3   4
ENDBRANCH   2   3
ENDBRANCH   1   2
BRANCH   1  30
ATOM     30  C   UNL     1      -2.346  -0.223  -3.109  1.00  0.00     0.116 C 
BRANCH  30  31
ATOM     31  N   UNL     1      -2.102   0.983  -4.800  1.00  0.00    -0.352 N 
ATOM     32  C   UNL     1      -2.615   1.746  -5.954  1.00  0.00     0.251 C 
ATOM     33  H   UNL     1      -1.127   1.109  -4.855  1.00  0.00     0.163 HD
ATOM     34  O   UNL     1      -1.754   2.232  -6.694  1.00  0.00    -0.269 OA
BRANCH  32  35
ATOM     35  C   UNL     1      -4.043   2.010  -6.314  1.00  0.00     0.039 A 
ATOM     36  C   UNL     1      -4.742   2.910  -5.526  1.00  0.00     0.014 A 
ATOM     37  C   UNL     1      -4.738   1.248  -7.263  1.00  0.00     0.014 A 
ATOM     38  C   UNL     1      -6.116   2.725  -5.393  1.00  0.00     0.010 A 
ATOM     39  C   UNL     1      -6.152   1.223  -7.251  1.00  0.00     0.010 A 
ATOM     40  C   UNL     1      -6.869   1.878  -6.239  1.00  0.00    -0.014 A 
BRANCH  40  41
ATOM     41  C   UNL     1      -8.355   1.722  -5.992  1.00  0.00     0.031 A 
ATOM     42  C   UNL     1      -9.070   0.374  -5.941  1.00  0.00     0.074 A 
ATOM     43  C   UNL     1      -9.086   2.823  -5.692  1.00  0.00     0.049 A 
ATOM     44  N   UNL     1     -10.347   0.133  -5.736  1.00  0.00    -0.248 NA
ATOM     45  C   UNL     1      -8.280  -0.851  -6.144  1.00  0.00     0.031 C 
ATOM     46  C   UNL     1      -8.577   4.197  -5.703  1.00  0.00     0.029 A 
ATOM     47  N   UNL     1     -10.387   2.973  -5.269  1.00  0.00    -0.354 N 
ATOM     48  C   UNL     1     -10.523  -1.246  -5.857  1.00  0.00     0.074 A 
ATOM     49  C   UNL     1      -9.213  -1.799  -6.127  1.00  0.00     0.031 C 
ATOM     50  C   UNL     1      -9.486   5.018  -5.171  1.00  0.00     0.029 A 
ATOM     51  C   UNL     1     -10.718   4.274  -4.961  1.00  0.00     0.049 A 
ATOM     52  H   UNL     1     -11.020   2.222  -5.193  1.00  0.00     0.167 HD
ATOM     53  C   UNL     1     -11.659  -1.983  -5.750  1.00  0.00     0.034 A 
ATOM     54  C   UNL     1     -11.883   4.855  -4.613  1.00  0.00     0.034 A 
ATOM     55  C   UNL     1     -12.958  -1.454  -5.410  1.00  0.00     0.049 A 
ATOM     56  C   UNL     1     -13.123   4.028  -4.531  1.00  0.00     0.074 A 
ATOM     57  C   UNL     1     -14.150  -2.147  -5.256  1.00  0.00     0.029 A 
ATOM     58  N   UNL     1     -13.243  -0.122  -5.162  1.00  0.00    -0.354 N 
ATOM     59  N   UNL     1     -13.248   2.732  -4.656  1.00  0.00    -0.248 NA
ATOM     60  C   UNL     1     -14.384   4.740  -4.279  1.00  0.00     0.031 C 
ATOM     61  C   UNL     1     -15.159  -1.232  -4.943  1.00  0.00     0.029 A 
ATOM     62  C   UNL     1     -14.590   0.028  -4.871  1.00  0.00     0.049 A 
ATOM     63  H   UNL     1     -12.586   0.610  -5.190  1.00  0.00     0.167 HD
ATOM     64  C   UNL     1     -14.601   2.469  -4.496  1.00  0.00     0.074 A 
ATOM     65  C   UNL     1     -15.252   3.737  -4.241  1.00  0.00     0.031 C 
ATOM     66  C   UNL     1     -15.238   1.278  -4.575  1.00  0.00     0.034 A 
BRANCH  53  67
ATOM     67  C   UNL     1     -11.591  -3.477  -5.981  1.00  0.00     0.023 A 
ATOM     68  C   UNL     1     -11.147  -4.325  -4.947  1.00  0.00     0.012 A 
ATOM     69  C   UNL     1     -12.133  -4.047  -7.154  1.00  0.00     0.148 A 
ATOM     70  C   UNL     1     -11.233  -5.713  -5.080  1.00  0.00     0.002 A 
ATOM     71  C   UNL     1     -12.240  -5.430  -7.268  1.00  0.00     0.091 A 
ATOM     72  F   UNL     1     -12.566  -3.224  -8.119  1.00  0.00    -0.205 F 
ATOM     73  C   UNL     1     -11.788  -6.264  -6.233  1.00  0.00     0.022 A 
BRANCH  71  74
ATOM     74  S   UNL     1     -12.990  -6.242  -8.687  1.00  0.00     0.127 S 
ATOM     75  O   UNL     1     -11.849  -6.967  -9.247  1.00  0.00    -0.237 OA
ATOM     76  O   UNL     1     -14.001  -7.092  -8.058  1.00  0.00    -0.237 OA
ATOM     77  O   UNL     1     -13.519  -5.179  -9.530  1.00  0.00    -0.744 OA
ENDBRANCH  71  74
ENDBRANCH  53  67
BRANCH  54  78
ATOM     78  C   UNL     1     -11.910   6.324  -4.369  1.00  0.00     0.023 A 
ATOM     79  C   UNL     1     -12.044   6.808  -3.056  1.00  0.00     0.012 A 
ATOM     80  C   UNL     1     -11.686   7.232  -5.425  1.00  0.00     0.148 A 
ATOM     81  C   UNL     1     -11.941   8.176  -2.796  1.00  0.00     0.002 A 
ATOM     82  C   UNL     1     -11.527   8.582  -5.152  1.00  0.00     0.091 A 
ATOM     83  F   UNL     1     -11.567   6.740  -6.666  1.00  0.00    -0.205 F 
ATOM     84  C   UNL     1     -11.664   9.059  -3.839  1.00  0.00     0.022 A 
BRANCH  82  85
ATOM     85  S   UNL     1     -11.036   9.769  -6.407  1.00  0.00     0.127 S 
ATOM     86  O   UNL     1     -12.210  10.637  -6.470  1.00  0.00    -0.237 OA
ATOM     87  O   UNL     1      -9.852  10.374  -5.798  1.00  0.00    -0.237 OA
ATOM     88  O   UNL     1     -10.767   8.990  -7.607  1.00  0.00    -0.744 OA
ENDBRANCH  82  85
ENDBRANCH  54  78
BRANCH  66  89
ATOM     89  C   UNL     1     -16.724   1.259  -4.356  1.00  0.00     0.023 A 
ATOM     90  C   UNL     1     -17.585   1.663  -5.393  1.00  0.00     0.012 A 
ATOM     91  C   UNL     1     -17.263   0.743  -3.162  1.00  0.00     0.148 A 
ATOM     92  C   UNL     1     -18.968   1.558  -5.243  1.00  0.00     0.002 A 
ATOM     93  C   UNL     1     -18.640   0.610  -3.032  1.00  0.00     0.091 A 
ATOM     94  F   UNL     1     -16.418   0.378  -2.187  1.00  0.00    -0.205 F 
ATOM     95  C   UNL     1     -19.494   1.020  -4.070  1.00  0.00     0.022 A 
BRANCH  93  96
ATOM     96  S   UNL     1     -19.410  -0.124  -1.585  1.00  0.00     0.127 S 
ATOM     97  O   UNL     1     -20.170   1.003  -1.048  1.00  0.00    -0.237 OA
ATOM     98  O   UNL     1     -20.225  -1.185  -2.176  1.00  0.00    -0.237 OA
ATOM     99  O   UNL     1     -18.320  -0.591  -0.738  1.00  0.00    -0.744 OA
ENDBRANCH  93  96
ENDBRANCH  66  89
ENDBRANCH  40  41
ENDBRANCH  32  35
ENDBRANCH  30  31
ENDBRANCH   1  30
TORSDOF 16
