REMARK SMILES Cc1ccc(C(=O)NC2CC2)cc1NC(=O)[C@@H]1[C@@H](C(=O)NCCCCNC(=O)c2ccc(-c3c4nc(c(-c5cccc(S(=O)(=O)[O-])c5F)c5ccc([nH]5)c(-c5cccc(S(=O)(=O)[O-])c5F)c5nc(c(-c6cccc(S(=O)(=O)[O-])c6F)c6ccc3[nH]6)C=C5)C=C4)cc2)[C@H]2C=C[C@@H]1C2
REMARK SMILES IDX 23 1 22 2 21 3 19 4 20 5 18 7 17 8 95 9 92 10 94 11 96 12
REMARK SMILES IDX 93 13 15 14 14 15 16 17 13 18 1 19 2 20 3 21 4 22 12 23 5 24
REMARK SMILES IDX 6 25 7 26 8 27 9 29 10 30 11 31 24 32 25 33 26 34 27 35
REMARK SMILES IDX 28 37 29 38 30 39 91 40 31 41 90 42 32 43 33 44 34 45 84 46
REMARK SMILES IDX 35 47 89 48 83 49 85 50 36 51 88 52 82 53 81 54 37 56 69 57
REMARK SMILES IDX 49 58 68 59 50 60 53 61 67 62 86 63 51 64 52 65 66 67 87 68
REMARK SMILES IDX 54 69 38 70 39 71 47 72 40 73 42 74 48 75 41 76 43 77 44 78
REMARK SMILES IDX 45 79 46 80 70 81 71 82 79 83 72 84 74 85 80 86 73 87 75 88
REMARK SMILES IDX 76 89 77 90 78 91 55 92 56 93 64 94 57 95 59 96 65 97 58 98
REMARK SMILES IDX 60 99 61 100 62 101 63 102
REMARK H PARENT 21 6 14 16 8 28 26 36 85 55 53 66
REMARK Flexibility Score: inf
ROOT
ATOM      1  C   UNL     1      -2.973   9.190   0.456  1.00  0.00     0.023 C 
ENDROOT
BRANCH   1   2
ATOM      2  C   UNL     1      -3.493   7.773   0.707  1.00  0.00     0.116 C 
BRANCH   2   3
ATOM      3  N   UNL     1      -3.063   6.846  -0.321  1.00  0.00    -0.356 N 
ATOM      4  C   UNL     1      -2.138   5.862  -0.355  1.00  0.00     0.224 C 
ATOM      5  O   UNL     1      -1.919   5.377  -1.473  1.00  0.00    -0.275 OA
ATOM      6  H   UNL     1      -3.545   6.958  -1.172  1.00  0.00     0.163 HD
BRANCH   4   7
ATOM      7  C   UNL     1      -1.306   5.409   0.843  1.00  0.00     0.098 C 
ATOM      8  C   UNL     1      -0.944   3.877   0.642  1.00  0.00     0.099 C 
ATOM      9  C   UNL     1      -1.290   3.250   2.018  1.00  0.00     0.025 C 
ATOM     10  C   UNL     1      -1.917   5.384   2.260  1.00  0.00     0.025 C 
ATOM     11  C   UNL     1      -2.794   3.264   2.176  1.00  0.00    -0.027 C 
ATOM     12  C   UNL     1      -0.972   4.401   2.967  1.00  0.00     0.017 C 
ATOM     13  C   UNL     1      -3.173   4.545   2.288  1.00  0.00    -0.027 C 
BRANCH   8  14
ATOM     14  C   UNL     1       0.494   3.606   0.231  1.00  0.00     0.228 C 
ATOM     15  N   UNL     1       0.929   2.347  -0.106  1.00  0.00    -0.326 N 
ATOM     16  H   UNL     1       1.890   2.311  -0.319  1.00  0.00     0.169 HD
ATOM     17  O   UNL     1       1.349   4.498   0.265  1.00  0.00    -0.274 OA
BRANCH  15  18
ATOM     18  C   UNL     1       0.284   1.093  -0.209  1.00  0.00     0.044 A 
ATOM     19  C   UNL     1       2.511  -0.140   0.233  1.00  0.00     0.046 C 
ATOM     20  C   UNL     1       1.019  -0.082   0.038  1.00  0.00    -0.027 A 
ATOM     21  C   UNL     1       0.336  -1.310   0.083  1.00  0.00     0.006 A 
ATOM     22  C   UNL     1      -1.043  -1.375  -0.121  1.00  0.00     0.014 A 
ATOM     23  C   UNL     1      -1.071   0.974  -0.561  1.00  0.00     0.040 A 
ATOM     24  C   UNL     1      -1.774  -0.232  -0.465  1.00  0.00     0.041 A 
BRANCH  24  25
ATOM     25  C   UNL     1      -3.247  -0.419  -0.705  1.00  0.00     0.251 C 
ATOM     26  O   UNL     1      -3.700  -1.567  -0.674  1.00  0.00    -0.269 OA
ATOM     27  N   UNL     1      -4.143   0.607  -0.926  1.00  0.00    -0.349 N 
ATOM     28  H   UNL     1      -5.075   0.315  -1.047  1.00  0.00     0.164 HD
BRANCH  27  29
ATOM     29  C   UNL     1      -3.953   2.009  -1.010  1.00  0.00     0.082 C 
ATOM     30  C   UNL     1      -3.873   2.671  -2.357  1.00  0.00     0.027 C 
ATOM     31  C   UNL     1      -5.027   2.962  -1.445  1.00  0.00     0.027 C 
ENDBRANCH  27  29
ENDBRANCH  24  25
ENDBRANCH  15  18
ENDBRANCH   8  14
ENDBRANCH   4   7
ENDBRANCH   2   3
ENDBRANCH   1   2
BRANCH   1  32
ATOM     32  C   UNL     1      -3.446   9.829  -0.852  1.00  0.00     0.023 C 
BRANCH  32  33
ATOM     33  C   UNL     1      -4.953  10.019  -0.950  1.00  0.00     0.116 C 
BRANCH  33  34
ATOM     34  N   UNL     1      -5.449  11.180  -0.236  1.00  0.00    -0.352 N 
ATOM     35  C   UNL     1      -6.739  11.659  -0.099  1.00  0.00     0.251 C 
ATOM     36  H   UNL     1      -4.759  11.710   0.224  1.00  0.00     0.163 HD
ATOM     37  O   UNL     1      -6.880  12.792   0.359  1.00  0.00    -0.269 OA
BRANCH  35  38
ATOM     38  C   UNL     1      -7.921  10.792  -0.361  1.00  0.00     0.039 A 
ATOM     39  C   UNL     1      -9.041  10.944   0.473  1.00  0.00     0.014 A 
ATOM     40  C   UNL     1      -7.877   9.724  -1.251  1.00  0.00     0.014 A 
ATOM     41  C   UNL     1      -9.955   9.899   0.613  1.00  0.00     0.010 A 
ATOM     42  C   UNL     1      -8.730   8.658  -1.066  1.00  0.00     0.010 A 
ATOM     43  C   UNL     1      -9.709   8.717  -0.071  1.00  0.00    -0.014 A 
BRANCH  43  44
ATOM     44  C   UNL     1     -10.317   7.434   0.239  1.00  0.00     0.031 A 
ATOM     45  C   UNL     1     -11.505   6.964  -0.484  1.00  0.00     0.074 A 
ATOM     46  C   UNL     1      -9.584   6.593   1.002  1.00  0.00     0.049 A 
ATOM     47  N   UNL     1     -12.227   5.959  -0.125  1.00  0.00    -0.248 NA
ATOM     48  C   UNL     1     -11.982   7.629  -1.686  1.00  0.00     0.031 C 
ATOM     49  C   UNL     1      -9.681   5.143   1.083  1.00  0.00     0.029 A 
ATOM     50  N   UNL     1      -8.691   6.936   2.023  1.00  0.00    -0.354 N 
ATOM     51  C   UNL     1     -13.054   5.653  -1.187  1.00  0.00     0.074 A 
ATOM     52  C   UNL     1     -12.943   6.786  -2.075  1.00  0.00     0.031 C 
ATOM     53  C   UNL     1      -9.115   4.740   2.232  1.00  0.00     0.029 A 
ATOM     54  C   UNL     1      -8.827   5.939   3.004  1.00  0.00     0.049 A 
ATOM     55  H   UNL     1      -8.091   7.716   2.050  1.00  0.00     0.167 HD
ATOM     56  C   UNL     1     -13.589   4.399  -1.264  1.00  0.00     0.034 A 
ATOM     57  C   UNL     1      -9.275   6.194   4.270  1.00  0.00     0.034 A 
ATOM     58  C   UNL     1     -13.265   3.619  -0.055  1.00  0.00     0.049 A 
ATOM     59  C   UNL     1     -10.530   5.413   4.620  1.00  0.00     0.074 A 
ATOM     60  C   UNL     1     -12.300   2.661   0.212  1.00  0.00     0.029 A 
ATOM     61  N   UNL     1     -13.791   3.996   1.176  1.00  0.00    -0.354 N 
ATOM     62  N   UNL     1     -11.215   4.706   3.764  1.00  0.00    -0.248 NA
ATOM     63  C   UNL     1     -11.135   5.400   5.950  1.00  0.00     0.031 C 
ATOM     64  C   UNL     1     -12.171   2.548   1.623  1.00  0.00     0.029 A 
ATOM     65  C   UNL     1     -13.081   3.409   2.214  1.00  0.00     0.049 A 
ATOM     66  H   UNL     1     -14.562   4.597   1.295  1.00  0.00     0.167 HD
ATOM     67  C   UNL     1     -12.385   4.289   4.337  1.00  0.00     0.074 A 
ATOM     68  C   UNL     1     -12.245   4.672   5.732  1.00  0.00     0.031 C 
ATOM     69  C   UNL     1     -13.397   3.732   3.602  1.00  0.00     0.034 A 
BRANCH  56  70
ATOM     70  C   UNL     1     -14.104   3.740  -2.544  1.00  0.00     0.023 A 
ATOM     71  C   UNL     1     -14.179   2.327  -2.558  1.00  0.00     0.012 A 
ATOM     72  C   UNL     1     -14.440   4.375  -3.763  1.00  0.00     0.148 A 
ATOM     73  C   UNL     1     -14.449   1.592  -3.719  1.00  0.00     0.002 A 
ATOM     74  C   UNL     1     -14.650   3.645  -4.939  1.00  0.00     0.091 A 
ATOM     75  F   UNL     1     -14.658   5.690  -3.793  1.00  0.00    -0.205 F 
ATOM     76  C   UNL     1     -14.646   2.250  -4.922  1.00  0.00     0.022 A 
BRANCH  74  77
ATOM     77  S   UNL     1     -14.859   4.439  -6.545  1.00  0.00     0.127 S 
ATOM     78  O   UNL     1     -13.874   3.736  -7.368  1.00  0.00    -0.237 OA
ATOM     79  O   UNL     1     -16.251   4.133  -6.867  1.00  0.00    -0.237 OA
ATOM     80  O   UNL     1     -14.559   5.852  -6.341  1.00  0.00    -0.744 OA
ENDBRANCH  74  77
ENDBRANCH  56  70
BRANCH  57  81
ATOM     81  C   UNL     1      -8.963   7.576   4.745  1.00  0.00     0.023 A 
ATOM     82  C   UNL     1      -7.594   7.921   4.860  1.00  0.00     0.012 A 
ATOM     83  C   UNL     1      -9.916   8.608   4.673  1.00  0.00     0.148 A 
ATOM     84  C   UNL     1      -7.177   9.249   4.752  1.00  0.00     0.002 A 
ATOM     85  C   UNL     1      -9.491   9.932   4.572  1.00  0.00     0.091 A 
ATOM     86  F   UNL     1     -11.214   8.281   4.619  1.00  0.00    -0.205 F 
ATOM     87  C   UNL     1      -8.123  10.250   4.567  1.00  0.00     0.022 A 
BRANCH  85  88
ATOM     88  S   UNL     1     -10.667  11.268   4.306  1.00  0.00     0.127 S 
ATOM     89  O   UNL     1     -10.952  11.683   5.676  1.00  0.00    -0.237 OA
ATOM     90  O   UNL     1      -9.891  12.227   3.522  1.00  0.00    -0.237 OA
ATOM     91  O   UNL     1     -11.762  10.650   3.573  1.00  0.00    -0.744 OA
ENDBRANCH  85  88
ENDBRANCH  57  81
BRANCH  69  92
ATOM     92  C   UNL     1     -14.792   3.461   4.125  1.00  0.00     0.023 A 
ATOM     93  C   UNL     1     -15.360   4.216   5.169  1.00  0.00     0.012 A 
ATOM     94  C   UNL     1     -15.639   2.529   3.472  1.00  0.00     0.148 A 
ATOM     95  C   UNL     1     -16.677   4.014   5.595  1.00  0.00     0.002 A 
ATOM     96  C   UNL     1     -16.980   2.407   3.830  1.00  0.00     0.091 A 
ATOM     97  F   UNL     1     -15.143   1.741   2.507  1.00  0.00    -0.205 F 
ATOM     98  C   UNL     1     -17.494   3.124   4.912  1.00  0.00     0.022 A 
BRANCH  96  99
ATOM     99  S   UNL     1     -18.119   1.443   2.825  1.00  0.00     0.127 S 
ATOM    100  O   UNL     1     -18.059   0.133   3.467  1.00  0.00    -0.237 OA
ATOM    101  O   UNL     1     -19.386   2.154   3.010  1.00  0.00    -0.237 OA
ATOM    102  O   UNL     1     -17.586   1.523   1.472  1.00  0.00    -0.744 OA
ENDBRANCH  96  99
ENDBRANCH  69  92
ENDBRANCH  43  44
ENDBRANCH  35  38
ENDBRANCH  33  34
ENDBRANCH  32  33
ENDBRANCH   1  32
TORSDOF 18
