REMARK SMILES CC(C)(C(=O)NCCCCNC(=O)c1ccc(-c2c3nc(c(-c4cccc(S(=O)(=O)[O-])c4F)c4ccc([nH]4)c(-c4cccc(S(=O)(=O)[O-])c4F)c4nc(c(-c5cccc(S(=O)(=O)[O-])c5F)c5ccc2[nH]5)C=C4)C=C3)cc1)n1cccc1
REMARK SMILES IDX 9 1 8 2 7 3 6 4 4 5 5 6 2 8 1 9 3 10 77 11 78 12 81 13 79 14
REMARK SMILES IDX 80 15 10 16 11 17 12 18 13 20 14 21 15 22 76 23 16 24 75 25
REMARK SMILES IDX 17 26 18 27 19 28 69 29 20 30 74 31 68 32 70 33 21 34 73 35
REMARK SMILES IDX 67 36 66 37 22 39 54 40 34 41 53 42 35 43 38 44 52 45 71 46
REMARK SMILES IDX 36 47 37 48 51 50 72 51 39 52 23 53 24 54 32 55 25 56 27 57
REMARK SMILES IDX 33 58 26 59 28 60 29 61 30 62 31 63 55 64 56 65 64 66 57 67
REMARK SMILES IDX 59 68 65 69 58 70 60 71 61 72 62 73 63 74 40 75 41 76 49 77
REMARK SMILES IDX 42 78 44 79 50 80 43 81 45 82 46 83 47 84 48 85
REMARK H PARENT 6 7 11 19 70 38 38 49
REMARK Flexibility Score: inf
ROOT
ATOM      1  C   UNL     1      -2.897   2.564  -1.437  1.00  0.00     0.023 C 
ENDROOT
BRANCH   1   2
ATOM      2  C   UNL     1      -1.406   2.340  -1.178  1.00  0.00     0.023 C 
BRANCH   2   3
ATOM      3  C   UNL     1      -1.021   2.211   0.292  1.00  0.00     0.116 C 
BRANCH   3   4
ATOM      4  N   UNL     1      -1.544   1.000   0.896  1.00  0.00    -0.354 N 
ATOM      5  C   UNL     1      -0.953  -0.091   1.467  1.00  0.00     0.245 C 
ATOM      6  O   UNL     1      -1.740  -0.883   1.995  1.00  0.00    -0.272 OA
ATOM      7  H   UNL     1      -2.527   0.955   0.894  1.00  0.00     0.163 HD
BRANCH   5   8
ATOM      8  C   UNL     1       0.590  -0.302   1.499  1.00  0.00     0.117 C 
ATOM      9  C   UNL     1       1.206  -0.234   0.087  1.00  0.00     0.045 C 
ATOM     10  C   UNL     1       1.198   0.785   2.413  1.00  0.00     0.045 C 
BRANCH   8  11
ATOM     11  N   UNL     1       0.923  -1.667   2.024  1.00  0.00    -0.340 N 
ATOM     12  C   UNL     1       1.843  -1.977   3.002  1.00  0.00     0.086 A 
ATOM     13  C   UNL     1       0.444  -2.852   1.503  1.00  0.00     0.086 A 
ATOM     14  C   UNL     1       1.909  -3.348   3.128  1.00  0.00     0.019 A 
ATOM     15  C   UNL     1       1.023  -3.900   2.181  1.00  0.00     0.019 A 
ENDBRANCH   8  11
ENDBRANCH   5   8
ENDBRANCH   3   4
ENDBRANCH   2   3
ENDBRANCH   1   2
BRANCH   1  16
ATOM     16  C   UNL     1      -3.530   3.734  -0.689  1.00  0.00     0.116 C 
BRANCH  16  17
ATOM     17  N   UNL     1      -2.854   5.002  -0.924  1.00  0.00    -0.352 N 
ATOM     18  C   UNL     1      -3.401   6.240  -1.165  1.00  0.00     0.251 C 
ATOM     19  H   UNL     1      -1.870   4.968  -0.910  1.00  0.00     0.163 HD
ATOM     20  O   UNL     1      -2.674   7.188  -1.448  1.00  0.00    -0.269 OA
BRANCH  18  21
ATOM     21  C   UNL     1      -4.868   6.415  -1.115  1.00  0.00     0.039 A 
ATOM     22  C   UNL     1      -5.507   7.070  -2.171  1.00  0.00     0.014 A 
ATOM     23  C   UNL     1      -5.612   5.906  -0.047  1.00  0.00     0.014 A 
ATOM     24  C   UNL     1      -6.902   7.150  -2.191  1.00  0.00     0.010 A 
ATOM     25  C   UNL     1      -7.003   5.925  -0.105  1.00  0.00     0.010 A 
ATOM     26  C   UNL     1      -7.662   6.545  -1.177  1.00  0.00    -0.014 A 
BRANCH  26  27
ATOM     27  C   UNL     1      -9.147   6.527  -1.229  1.00  0.00     0.031 A 
ATOM     28  C   UNL     1      -9.951   7.215  -0.160  1.00  0.00     0.074 A 
ATOM     29  C   UNL     1      -9.770   5.807  -2.183  1.00  0.00     0.049 A 
ATOM     30  N   UNL     1     -11.249   7.254  -0.002  1.00  0.00    -0.248 NA
ATOM     31  C   UNL     1      -9.199   7.928   0.886  1.00  0.00     0.031 C 
ATOM     32  C   UNL     1      -9.102   5.026  -3.226  1.00  0.00     0.029 A 
ATOM     33  N   UNL     1     -11.106   5.591  -2.413  1.00  0.00    -0.354 N 
ATOM     34  C   UNL     1     -11.468   7.955   1.178  1.00  0.00     0.074 A 
ATOM     35  C   UNL     1     -10.168   8.299   1.712  1.00  0.00     0.031 C 
ATOM     36  C   UNL     1     -10.029   4.421  -3.986  1.00  0.00     0.029 A 
ATOM     37  C   UNL     1     -11.355   4.747  -3.471  1.00  0.00     0.049 A 
ATOM     38  H   UNL     1     -11.819   6.000  -1.872  1.00  0.00     0.167 HD
ATOM     39  C   UNL     1     -12.643   8.308   1.750  1.00  0.00     0.034 A 
ATOM     40  C   UNL     1     -12.520   4.287  -3.970  1.00  0.00     0.034 A 
ATOM     41  C   UNL     1     -13.933   8.013   1.188  1.00  0.00     0.049 A 
ATOM     42  C   UNL     1     -13.813   4.739  -3.345  1.00  0.00     0.074 A 
ATOM     43  C   UNL     1     -15.178   8.419   1.634  1.00  0.00     0.029 A 
ATOM     44  N   UNL     1     -14.146   7.237   0.059  1.00  0.00    -0.354 N 
ATOM     45  N   UNL     1     -14.000   5.549  -2.331  1.00  0.00    -0.248 NA
ATOM     46  C   UNL     1     -15.055   4.245  -3.957  1.00  0.00     0.031 C 
ATOM     47  C   UNL     1     -16.146   7.872   0.784  1.00  0.00     0.029 A 
ATOM     48  C   UNL     1     -15.502   7.143  -0.202  1.00  0.00     0.049 A 
ATOM     49  H   UNL     1     -13.436   6.815  -0.477  1.00  0.00     0.167 HD
ATOM     50  C   UNL     1     -15.377   5.691  -2.206  1.00  0.00     0.074 A 
ATOM     51  C   UNL     1     -15.976   4.899  -3.261  1.00  0.00     0.031 C 
ATOM     52  C   UNL     1     -16.083   6.400  -1.291  1.00  0.00     0.034 A 
BRANCH  39  53
ATOM     53  C   UNL     1     -12.589   9.107   3.026  1.00  0.00     0.023 A 
ATOM     54  C   UNL     1     -12.180  10.456   2.981  1.00  0.00     0.012 A 
ATOM     55  C   UNL     1     -12.995   8.548   4.253  1.00  0.00     0.148 A 
ATOM     56  C   UNL     1     -12.143  11.226   4.143  1.00  0.00     0.002 A 
ATOM     57  C   UNL     1     -12.997   9.335   5.399  1.00  0.00     0.091 A 
ATOM     58  F   UNL     1     -13.359   7.258   4.280  1.00  0.00    -0.205 F 
ATOM     59  C   UNL     1     -12.562  10.670   5.348  1.00  0.00     0.022 A 
BRANCH  57  60
ATOM     60  S   UNL     1     -13.591   8.734   6.984  1.00  0.00     0.127 S 
ATOM     61  O   UNL     1     -12.342   8.583   7.729  1.00  0.00    -0.237 OA
ATOM     62  O   UNL     1     -14.440   9.838   7.435  1.00  0.00    -0.237 OA
ATOM     63  O   UNL     1     -14.306   7.498   6.700  1.00  0.00    -0.744 OA
ENDBRANCH  57  60
ENDBRANCH  39  53
BRANCH  40  64
ATOM     64  C   UNL     1     -12.520   3.409  -5.174  1.00  0.00     0.023 A 
ATOM     65  C   UNL     1     -12.987   3.925  -6.399  1.00  0.00     0.012 A 
ATOM     66  C   UNL     1     -12.037   2.087  -5.126  1.00  0.00     0.148 A 
ATOM     67  C   UNL     1     -13.003   3.132  -7.546  1.00  0.00     0.002 A 
ATOM     68  C   UNL     1     -12.006   1.319  -6.285  1.00  0.00     0.091 A 
ATOM     69  F   UNL     1     -11.609   1.610  -3.949  1.00  0.00    -0.205 F 
ATOM     70  C   UNL     1     -12.504   1.833  -7.492  1.00  0.00     0.022 A 
BRANCH  68  71
ATOM     71  S   UNL     1     -11.261  -0.315  -6.336  1.00  0.00     0.127 S 
ATOM     72  O   UNL     1     -12.435  -1.175  -6.452  1.00  0.00    -0.237 OA
ATOM     73  O   UNL     1     -10.435  -0.233  -7.542  1.00  0.00    -0.237 OA
ATOM     74  O   UNL     1     -10.502  -0.437  -5.099  1.00  0.00    -0.744 OA
ENDBRANCH  68  71
ENDBRANCH  40  64
BRANCH  52  75
ATOM     75  C   UNL     1     -17.584   6.388  -1.401  1.00  0.00     0.023 A 
ATOM     76  C   UNL     1     -18.303   5.233  -1.036  1.00  0.00     0.012 A 
ATOM     77  C   UNL     1     -18.286   7.546  -1.790  1.00  0.00     0.148 A 
ATOM     78  C   UNL     1     -19.697   5.221  -1.083  1.00  0.00     0.002 A 
ATOM     79  C   UNL     1     -19.676   7.542  -1.790  1.00  0.00     0.091 A 
ATOM     80  F   UNL     1     -17.584   8.629  -2.154  1.00  0.00    -0.205 F 
ATOM     81  C   UNL     1     -20.383   6.378  -1.447  1.00  0.00     0.022 A 
BRANCH  79  82
ATOM     82  S   UNL     1     -20.641   9.014  -2.151  1.00  0.00     0.127 S 
ATOM     83  O   UNL     1     -21.141   8.721  -3.493  1.00  0.00    -0.237 OA
ATOM     84  O   UNL     1     -21.659   8.986  -1.101  1.00  0.00    -0.237 OA
ATOM     85  O   UNL     1     -19.712  10.133  -2.058  1.00  0.00    -0.744 OA
ENDBRANCH  79  82
ENDBRANCH  52  75
ENDBRANCH  26  27
ENDBRANCH  18  21
ENDBRANCH  16  17
ENDBRANCH   1  16
TORSDOF 15
