REMARK SMILES CCN(Cc1cccc(C)n1)C(=O)[C@@H]([NH3+])CC(=O)NCCCCNC(=O)c1ccc(-c2c3nc(c(-c4cccc(S(=O)(=O)[O-])c4F)c4ccc([nH]4)c(-c4cccc(S(=O)(=O)[O-])c4F)c4nc(c(-c5cccc(S(=O)(=O)[O-])c5F)c5ccc2[nH]5)C=C4)C=C3)cc1
REMARK SMILES IDX 20 1 19 2 17 3 18 4 16 6 14 7 12 8 13 9 3 10 2 11 1 12 4 13
REMARK SMILES IDX 5 14 6 15 11 16 7 17 9 18 8 19 10 20 15 21 21 25 22 26 23 27
REMARK SMILES IDX 24 28 25 29 26 31 27 32 28 33 89 34 29 35 88 36 30 37 31 38
REMARK SMILES IDX 32 39 82 40 33 41 87 42 81 43 83 44 34 45 86 46 80 47 79 48
REMARK SMILES IDX 35 50 67 51 47 52 66 53 48 54 51 55 65 56 84 57 49 58 50 59
REMARK SMILES IDX 64 61 85 62 52 63 36 64 37 65 45 66 38 67 40 68 46 69 39 70
REMARK SMILES IDX 41 71 42 72 43 73 44 74 68 75 69 76 77 77 70 78 72 79 78 80
REMARK SMILES IDX 71 81 73 82 74 83 75 84 76 85 53 86 54 87 62 88 55 89 57 90
REMARK SMILES IDX 63 91 56 92 58 93 59 94 60 95 61 96
REMARK H PARENT 19 5 15 22 15 23 15 24 24 30 83 49 51 60
REMARK Flexibility Score: inf
ROOT
ATOM      1  C   UNL     1       2.255   1.450   3.852  1.00  0.00     0.116 C 
ENDROOT
BRANCH   1   2
ATOM      2  N   UNL     1       3.207   2.475   4.228  1.00  0.00    -0.356 N 
ATOM      3  C   UNL     1       3.422   3.691   3.653  1.00  0.00     0.226 C 
ATOM      4  O   UNL     1       4.417   4.340   3.977  1.00  0.00    -0.275 OA
ATOM      5  H   UNL     1       3.776   2.264   5.003  1.00  0.00     0.163 HD
BRANCH   3   6
ATOM      6  C   UNL     1       2.406   4.254   2.682  1.00  0.00     0.175 C 
BRANCH   6   7
ATOM      7  C   UNL     1       2.702   3.906   1.222  1.00  0.00     0.280 C 
BRANCH   7   8
ATOM      8  C   UNL     1       2.247   2.507   0.699  1.00  0.00     0.281 C 
ATOM      9  O   UNL     1       3.152   1.737   0.355  1.00  0.00    -0.268 OA
BRANCH   8  10
ATOM     10  N   UNL     1       0.900   2.148   0.566  1.00  0.00    -0.332 N 
BRANCH  10  11
ATOM     11  C   UNL     1       0.531   0.846  -0.031  1.00  0.00     0.116 C 
ATOM     12  C   UNL     1       1.427   0.221  -1.093  1.00  0.00     0.027 C 
ENDBRANCH  10  11
BRANCH  10  13
ATOM     13  C   UNL     1      -0.202   3.087   0.869  1.00  0.00     0.175 C 
BRANCH  13  14
ATOM     14  C   UNL     1      -1.572   2.581   1.298  1.00  0.00     0.060 A 
ATOM     15  C   UNL     1      -1.801   1.374   1.954  1.00  0.00     0.026 A 
ATOM     16  N   UNL     1      -2.590   3.457   1.076  1.00  0.00    -0.256 NA
ATOM     17  C   UNL     1      -3.108   1.007   2.273  1.00  0.00     0.004 A 
ATOM     18  C   UNL     1      -3.847   3.119   1.453  1.00  0.00     0.038 A 
ATOM     19  C   UNL     1      -4.149   1.892   2.025  1.00  0.00     0.023 A 
ATOM     20  C   UNL     1      -4.895   4.183   1.331  1.00  0.00     0.067 C 
ENDBRANCH  13  14
ENDBRANCH  10  13
ENDBRANCH   8  10
ENDBRANCH   7   8
BRANCH   7  21
ATOM     21  N   UNL     1       2.177   4.944   0.295  1.00  0.00    -0.347 N 
ATOM     22  H   UNL     1       1.157   4.942   0.326  1.00  0.00     0.345 HD
ATOM     23  H   UNL     1       2.489   4.742  -0.654  1.00  0.00     0.345 HD
ATOM     24  H   UNL     1       2.523   5.860   0.579  1.00  0.00     0.345 HD
ENDBRANCH   7  21
ENDBRANCH   6   7
ENDBRANCH   3   6
ENDBRANCH   1   2
BRANCH   1  25
ATOM     25  C   UNL     1       2.950   0.379   3.013  1.00  0.00     0.023 C 
BRANCH  25  26
ATOM     26  C   UNL     1       3.380  -0.859   3.785  1.00  0.00     0.023 C 
BRANCH  26  27
ATOM     27  C   UNL     1       2.231  -1.663   4.375  1.00  0.00     0.116 C 
BRANCH  27  28
ATOM     28  N   UNL     1       1.232  -2.084   3.401  1.00  0.00    -0.352 N 
ATOM     29  C   UNL     1       0.428  -3.200   3.437  1.00  0.00     0.251 C 
ATOM     30  H   UNL     1       1.118  -1.497   2.620  1.00  0.00     0.163 HD
ATOM     31  O   UNL     1      -0.343  -3.435   2.510  1.00  0.00    -0.269 OA
BRANCH  29  32
ATOM     32  C   UNL     1       0.548  -4.135   4.576  1.00  0.00     0.039 A 
ATOM     33  C   UNL     1       0.723  -5.495   4.314  1.00  0.00     0.014 A 
ATOM     34  C   UNL     1       0.577  -3.659   5.889  1.00  0.00     0.014 A 
ATOM     35  C   UNL     1       1.003  -6.366   5.368  1.00  0.00     0.010 A 
ATOM     36  C   UNL     1       0.951  -4.511   6.922  1.00  0.00     0.010 A 
ATOM     37  C   UNL     1       1.161  -5.875   6.676  1.00  0.00    -0.014 A 
BRANCH  37  38
ATOM     38  C   UNL     1       1.562  -6.773   7.788  1.00  0.00     0.031 A 
ATOM     39  C   UNL     1       0.654  -6.971   8.973  1.00  0.00     0.074 A 
ATOM     40  C   UNL     1       2.780  -7.351   7.770  1.00  0.00     0.049 A 
ATOM     41  N   UNL     1       0.829  -7.728  10.025  1.00  0.00    -0.248 NA
ATOM     42  C   UNL     1      -0.596  -6.194   8.999  1.00  0.00     0.031 C 
ATOM     43  C   UNL     1       3.801  -7.145   6.740  1.00  0.00     0.029 A 
ATOM     44  N   UNL     1       3.372  -8.220   8.652  1.00  0.00    -0.354 N 
ATOM     45  C   UNL     1      -0.266  -7.494  10.848  1.00  0.00     0.074 A 
ATOM     46  C   UNL     1      -1.075  -6.488  10.198  1.00  0.00     0.031 C 
ATOM     47  C   UNL     1       4.882  -7.885   7.036  1.00  0.00     0.029 A 
ATOM     48  C   UNL     1       4.638  -8.609   8.279  1.00  0.00     0.049 A 
ATOM     49  H   UNL     1       2.932  -8.536   9.474  1.00  0.00     0.167 HD
ATOM     50  C   UNL     1      -0.594  -8.092  12.018  1.00  0.00     0.034 A 
ATOM     51  C   UNL     1       5.496  -9.468   8.863  1.00  0.00     0.034 A 
ATOM     52  C   UNL     1       0.181  -9.135  12.631  1.00  0.00     0.049 A 
ATOM     53  C   UNL     1       5.062 -10.197  10.106  1.00  0.00     0.074 A 
ATOM     54  C   UNL     1      -0.109  -9.873  13.764  1.00  0.00     0.029 A 
ATOM     55  N   UNL     1       1.401  -9.592  12.157  1.00  0.00    -0.354 N 
ATOM     56  N   UNL     1       3.937 -10.098  10.771  1.00  0.00    -0.248 NA
ATOM     57  C   UNL     1       5.995 -11.195  10.649  1.00  0.00     0.031 C 
ATOM     58  C   UNL     1       0.940 -10.775  13.978  1.00  0.00     0.029 A 
ATOM     59  C   UNL     1       1.875 -10.607  12.970  1.00  0.00     0.049 A 
ATOM     60  H   UNL     1       1.863  -9.246  11.360  1.00  0.00     0.167 HD
ATOM     61  C   UNL     1       4.009 -11.044  11.786  1.00  0.00     0.074 A 
ATOM     62  C   UNL     1       5.279 -11.724  11.633  1.00  0.00     0.031 C 
ATOM     63  C   UNL     1       3.113 -11.315  12.768  1.00  0.00     0.034 A 
BRANCH  50  64
ATOM     64  C   UNL     1      -1.891  -7.684  12.667  1.00  0.00     0.023 A 
ATOM     65  C   UNL     1      -3.111  -8.072  12.074  1.00  0.00     0.012 A 
ATOM     66  C   UNL     1      -1.911  -6.960  13.874  1.00  0.00     0.148 A 
ATOM     67  C   UNL     1      -4.329  -7.715  12.650  1.00  0.00     0.002 A 
ATOM     68  C   UNL     1      -3.129  -6.645  14.466  1.00  0.00     0.091 A 
ATOM     69  F   UNL     1      -0.744  -6.577  14.411  1.00  0.00    -0.205 F 
ATOM     70  C   UNL     1      -4.338  -7.011  13.850  1.00  0.00     0.022 A 
BRANCH  68  71
ATOM     71  S   UNL     1      -3.246  -5.808  16.052  1.00  0.00     0.127 S 
ATOM     72  O   UNL     1      -3.675  -4.470  15.647  1.00  0.00    -0.237 OA
ATOM     73  O   UNL     1      -4.269  -6.593  16.742  1.00  0.00    -0.237 OA
ATOM     74  O   UNL     1      -1.918  -5.890  16.644  1.00  0.00    -0.744 OA
ENDBRANCH  68  71
ENDBRANCH  50  64
BRANCH  51  75
ATOM     75  C   UNL     1       6.800  -9.774   8.210  1.00  0.00     0.023 A 
ATOM     76  C   UNL     1       6.985 -11.031   7.599  1.00  0.00     0.012 A 
ATOM     77  C   UNL     1       7.840  -8.827   8.157  1.00  0.00     0.148 A 
ATOM     78  C   UNL     1       8.192 -11.351   6.978  1.00  0.00     0.002 A 
ATOM     79  C   UNL     1       9.021  -9.133   7.490  1.00  0.00     0.091 A 
ATOM     80  F   UNL     1       7.650  -7.641   8.753  1.00  0.00    -0.205 F 
ATOM     81  C   UNL     1       9.205 -10.400   6.914  1.00  0.00     0.022 A 
BRANCH  79  82
ATOM     82  S   UNL     1      10.326  -7.923   7.246  1.00  0.00     0.127 S 
ATOM     83  O   UNL     1      11.340  -8.381   8.193  1.00  0.00    -0.237 OA
ATOM     84  O   UNL     1      10.665  -8.120   5.836  1.00  0.00    -0.237 OA
ATOM     85  O   UNL     1       9.718  -6.632   7.539  1.00  0.00    -0.744 OA
ENDBRANCH  79  82
ENDBRANCH  51  75
BRANCH  63  86
ATOM     86  C   UNL     1       3.454 -12.417  13.736  1.00  0.00     0.023 A 
ATOM     87  C   UNL     1       4.455 -12.210  14.706  1.00  0.00     0.012 A 
ATOM     88  C   UNL     1       2.744 -13.632  13.723  1.00  0.00     0.148 A 
ATOM     89  C   UNL     1       4.769 -13.211  15.624  1.00  0.00     0.002 A 
ATOM     90  C   UNL     1       3.030 -14.607  14.672  1.00  0.00     0.091 A 
ATOM     91  F   UNL     1       1.810 -13.822  12.779  1.00  0.00    -0.205 F 
ATOM     92  C   UNL     1       4.050 -14.404  15.615  1.00  0.00     0.022 A 
BRANCH  90  93
ATOM     93  S   UNL     1       2.082 -16.130  14.782  1.00  0.00     0.127 S 
ATOM     94  O   UNL     1       2.946 -17.073  14.076  1.00  0.00    -0.237 OA
ATOM     95  O   UNL     1       1.996 -16.346  16.228  1.00  0.00    -0.237 OA
ATOM     96  O   UNL     1       0.803 -15.841  14.145  1.00  0.00    -0.744 OA
ENDBRANCH  90  93
ENDBRANCH  63  86
ENDBRANCH  37  38
ENDBRANCH  29  32
ENDBRANCH  27  28
ENDBRANCH  26  27
ENDBRANCH  25  26
ENDBRANCH   1  25
TORSDOF 21
