REMARK SMILES COc1ccc(C(=O)NCCCCNC(=O)c2ccc(-c3c4nc(c(-c5cccc(S(=O)(=O)[O-])c5F)c5ccc([nH]5)c(-c5cccc(S(=O)(=O)[O-])c5F)c5nc(c(-c6cccc(S(=O)(=O)[O-])c6F)c6ccc3[nH]6)C=C5)C=C4)cc2)cc1C(F)(F)F
REMARK SMILES IDX 12 1 11 2 10 3 9 4 7 5 8 6 6 8 3 9 4 10 81 11 5 12 80 13
REMARK SMILES IDX 2 14 1 15 82 16 83 17 84 18 85 19 13 20 14 21 15 22 16 24
REMARK SMILES IDX 17 25 18 26 79 27 19 28 78 29 20 30 21 31 22 32 72 33 23 34
REMARK SMILES IDX 77 35 71 36 73 37 24 38 76 39 70 40 69 41 25 43 57 44 37 45
REMARK SMILES IDX 56 46 38 47 41 48 55 49 74 50 39 51 40 52 54 54 75 55 42 56
REMARK SMILES IDX 26 57 27 58 35 59 28 60 30 61 36 62 29 63 31 64 32 65 33 66
REMARK SMILES IDX 34 67 58 68 59 69 67 70 60 71 62 72 68 73 61 74 63 75 64 76
REMARK SMILES IDX 65 77 66 78 43 79 44 80 52 81 45 82 47 83 53 84 46 85 48 86
REMARK SMILES IDX 49 87 50 88 51 89
REMARK H PARENT 9 7 14 23 73 42 41 53
REMARK Flexibility Score: inf
ROOT
ATOM      1  C   UNL     1       6.285  -3.820   6.011  1.00  0.00     0.023 C 
ENDROOT
BRANCH   1   2
ATOM      2  C   UNL     1       5.390  -3.232   4.915  1.00  0.00     0.023 C 
BRANCH   2   3
ATOM      3  C   UNL     1       4.250  -4.162   4.492  1.00  0.00     0.116 C 
BRANCH   3   4
ATOM      4  N   UNL     1       3.138  -4.041   5.415  1.00  0.00    -0.352 N 
ATOM      5  C   UNL     1       1.990  -3.290   5.401  1.00  0.00     0.251 C 
ATOM      6  O   UNL     1       1.229  -3.393   6.363  1.00  0.00    -0.269 OA
ATOM      7  H   UNL     1       3.224  -4.614   6.211  1.00  0.00     0.163 HD
BRANCH   5   8
ATOM      8  C   UNL     1       1.589  -2.413   4.262  1.00  0.00     0.040 A 
ATOM      9  C   UNL     1       0.663  -0.882   2.040  1.00  0.00     0.131 A 
ATOM     10  C   UNL     1      -0.204  -1.335   3.056  1.00  0.00     0.048 A 
ATOM     11  C   UNL     1       2.022  -1.187   2.142  1.00  0.00     0.098 A 
ATOM     12  C   UNL     1       0.239  -2.110   4.130  1.00  0.00     0.017 A 
ATOM     13  C   UNL     1       2.458  -1.877   3.313  1.00  0.00     0.030 A 
BRANCH   9  14
ATOM     14  O   UNL     1      -0.047  -0.155   1.134  1.00  0.00    -0.496 OA
ATOM     15  C   UNL     1       0.460   0.159  -0.144  1.00  0.00     0.278 C 
ENDBRANCH   9  14
BRANCH  11  16
ATOM     16  C   UNL     1       3.160  -0.904   1.188  1.00  0.00     0.419 C 
ATOM     17  F   UNL     1       4.005   0.053   1.665  1.00  0.00    -0.166 F 
ATOM     18  F   UNL     1       3.944  -2.017   1.022  1.00  0.00    -0.166 F 
ATOM     19  F   UNL     1       2.853  -0.530  -0.077  1.00  0.00    -0.166 F 
ENDBRANCH  11  16
ENDBRANCH   5   8
ENDBRANCH   3   4
ENDBRANCH   2   3
ENDBRANCH   1   2
BRANCH   1  20
ATOM     20  C   UNL     1       7.028  -5.092   5.612  1.00  0.00     0.116 C 
BRANCH  20  21
ATOM     21  N   UNL     1       7.849  -4.920   4.423  1.00  0.00    -0.352 N 
ATOM     22  C   UNL     1       9.031  -5.534   4.100  1.00  0.00     0.251 C 
ATOM     23  H   UNL     1       7.510  -4.275   3.761  1.00  0.00     0.163 HD
ATOM     24  O   UNL     1       9.656  -5.167   3.106  1.00  0.00    -0.269 OA
BRANCH  22  25
ATOM     25  C   UNL     1       9.568  -6.607   4.963  1.00  0.00     0.039 A 
ATOM     26  C   UNL     1      10.926  -6.584   5.285  1.00  0.00     0.014 A 
ATOM     27  C   UNL     1       8.745  -7.623   5.459  1.00  0.00     0.014 A 
ATOM     28  C   UNL     1      11.447  -7.555   6.140  1.00  0.00     0.010 A 
ATOM     29  C   UNL     1       9.251  -8.541   6.376  1.00  0.00     0.010 A 
ATOM     30  C   UNL     1      10.609  -8.525   6.719  1.00  0.00    -0.014 A 
BRANCH  30  31
ATOM     31  C   UNL     1      11.159  -9.496   7.699  1.00  0.00     0.031 A 
ATOM     32  C   UNL     1      11.150 -10.975   7.414  1.00  0.00     0.074 A 
ATOM     33  C   UNL     1      11.640  -9.040   8.874  1.00  0.00     0.049 A 
ATOM     34  N   UNL     1      11.664 -11.948   8.121  1.00  0.00    -0.248 NA
ATOM     35  C   UNL     1      10.461 -11.427   6.193  1.00  0.00     0.031 C 
ATOM     36  C   UNL     1      11.607  -7.642   9.315  1.00  0.00     0.029 A 
ATOM     37  N   UNL     1      12.242  -9.700   9.915  1.00  0.00    -0.354 N 
ATOM     38  C   UNL     1      11.333 -13.123   7.455  1.00  0.00     0.074 A 
ATOM     39  C   UNL     1      10.551 -12.746   6.299  1.00  0.00     0.031 C 
ATOM     40  C   UNL     1      12.188  -7.547  10.522  1.00  0.00     0.029 A 
ATOM     41  C   UNL     1      12.610  -8.874  10.953  1.00  0.00     0.049 A 
ATOM     42  H   UNL     1      12.397 -10.672   9.919  1.00  0.00     0.167 HD
ATOM     43  C   UNL     1      11.671 -14.396   7.765  1.00  0.00     0.034 A 
ATOM     44  C   UNL     1      13.223  -9.155  12.120  1.00  0.00     0.034 A 
ATOM     45  C   UNL     1      12.487 -14.763   8.892  1.00  0.00     0.049 A 
ATOM     46  C   UNL     1      13.647 -10.573  12.395  1.00  0.00     0.074 A 
ATOM     47  C   UNL     1      12.982 -16.013   9.222  1.00  0.00     0.029 A 
ATOM     48  N   UNL     1      12.912 -13.892   9.881  1.00  0.00    -0.354 N 
ATOM     49  N   UNL     1      13.506 -11.639  11.646  1.00  0.00    -0.248 NA
ATOM     50  C   UNL     1      14.355 -10.817  13.659  1.00  0.00     0.031 C 
ATOM     51  C   UNL     1      13.670 -15.904  10.435  1.00  0.00     0.029 A 
ATOM     52  C   UNL     1      13.643 -14.579  10.835  1.00  0.00     0.049 A 
ATOM     53  H   UNL     1      12.721 -12.926   9.902  1.00  0.00     0.167 HD
ATOM     54  C   UNL     1      14.137 -12.671  12.331  1.00  0.00     0.074 A 
ATOM     55  C   UNL     1      14.696 -12.091  13.534  1.00  0.00     0.031 C 
ATOM     56  C   UNL     1      14.230 -13.984  12.006  1.00  0.00     0.034 A 
BRANCH  43  57
ATOM     57  C   UNL     1      11.200 -15.502   6.857  1.00  0.00     0.023 A 
ATOM     58  C   UNL     1      11.784 -15.662   5.584  1.00  0.00     0.012 A 
ATOM     59  C   UNL     1      10.259 -16.448   7.310  1.00  0.00     0.148 A 
ATOM     60  C   UNL     1      11.428 -16.737   4.770  1.00  0.00     0.002 A 
ATOM     61  C   UNL     1       9.944 -17.541   6.513  1.00  0.00     0.091 A 
ATOM     62  F   UNL     1       9.701 -16.265   8.515  1.00  0.00    -0.205 F 
ATOM     63  C   UNL     1      10.520 -17.683   5.239  1.00  0.00     0.022 A 
BRANCH  61  64
ATOM     64  S   UNL     1       8.854 -18.861   7.059  1.00  0.00     0.127 S 
ATOM     65  O   UNL     1       7.732 -18.719   6.132  1.00  0.00    -0.237 OA
ATOM     66  O   UNL     1       9.680 -20.048   6.840  1.00  0.00    -0.237 OA
ATOM     67  O   UNL     1       8.544 -18.579   8.453  1.00  0.00    -0.744 OA
ENDBRANCH  61  64
ENDBRANCH  43  57
BRANCH  44  68
ATOM     68  C   UNL     1      13.524  -8.071  13.098  1.00  0.00     0.023 A 
ATOM     69  C   UNL     1      14.863  -7.726  13.371  1.00  0.00     0.012 A 
ATOM     70  C   UNL     1      12.492  -7.397  13.778  1.00  0.00     0.148 A 
ATOM     71  C   UNL     1      15.169  -6.772  14.342  1.00  0.00     0.002 A 
ATOM     72  C   UNL     1      12.802  -6.402  14.697  1.00  0.00     0.091 A 
ATOM     73  F   UNL     1      11.224  -7.745  13.516  1.00  0.00    -0.205 F 
ATOM     74  C   UNL     1      14.140  -6.105  14.999  1.00  0.00     0.022 A 
BRANCH  72  75
ATOM     75  S   UNL     1      11.535  -5.402  15.483  1.00  0.00     0.127 S 
ATOM     76  O   UNL     1      11.515  -5.953  16.835  1.00  0.00    -0.237 OA
ATOM     77  O   UNL     1      12.099  -4.056  15.374  1.00  0.00    -0.237 OA
ATOM     78  O   UNL     1      10.330  -5.609  14.691  1.00  0.00    -0.744 OA
ENDBRANCH  72  75
ENDBRANCH  44  68
BRANCH  56  79
ATOM     79  C   UNL     1      14.995 -14.877  12.949  1.00  0.00     0.023 A 
ATOM     80  C   UNL     1      14.478 -15.157  14.230  1.00  0.00     0.012 A 
ATOM     81  C   UNL     1      16.216 -15.459  12.556  1.00  0.00     0.148 A 
ATOM     82  C   UNL     1      15.192 -15.953  15.125  1.00  0.00     0.002 A 
ATOM     83  C   UNL     1      16.893 -16.299  13.432  1.00  0.00     0.091 A 
ATOM     84  F   UNL     1      16.702 -15.171  11.340  1.00  0.00    -0.205 F 
ATOM     85  C   UNL     1      16.394 -16.531  14.723  1.00  0.00     0.022 A 
BRANCH  83  86
ATOM     86  S   UNL     1      18.393 -17.166  12.960  1.00  0.00     0.127 S 
ATOM     87  O   UNL     1      19.416 -16.402  13.671  1.00  0.00    -0.237 OA
ATOM     88  O   UNL     1      18.156 -18.509  13.491  1.00  0.00    -0.237 OA
ATOM     89  O   UNL     1      18.454 -17.097  11.506  1.00  0.00    -0.744 OA
ENDBRANCH  83  86
ENDBRANCH  56  79
ENDBRANCH  30  31
ENDBRANCH  22  25
ENDBRANCH  20  21
ENDBRANCH   1  20
TORSDOF 16
