REMARK SMILES Nc1ccccc1C(=O)NCc1ccc(C(=O)NCCCCNC(=O)c2ccc(-c3c4nc(c(-c5cccc(S(=O)(=O)[O-])c5F)c5ccc([nH]5)c(-c5cccc(S(=O)(=O)[O-])c5F)c5nc(c(-c6cccc(S(=O)(=O)[O-])c6F)c6ccc3[nH]6)C=C5)C=C4)cc2)o1
REMARK SMILES IDX 20 1 19 2 18 3 16 4 17 5 15 7 12 8 13 9 89 10 14 11 11 12
REMARK SMILES IDX 10 13 8 14 9 15 7 17 2 18 3 19 4 20 6 21 5 22 1 23 21 26
REMARK SMILES IDX 22 27 23 28 24 29 25 31 26 32 27 33 88 34 28 35 87 36 29 37
REMARK SMILES IDX 30 38 31 39 81 40 32 41 86 42 80 43 82 44 33 45 85 46 79 47
REMARK SMILES IDX 78 48 34 50 66 51 46 52 65 53 47 54 50 55 64 56 83 57 48 58
REMARK SMILES IDX 49 59 63 61 84 62 51 63 35 64 36 65 44 66 37 67 39 68 45 69
REMARK SMILES IDX 38 70 40 71 41 72 42 73 43 74 67 75 68 76 76 77 69 78 71 79
REMARK SMILES IDX 77 80 70 81 72 82 73 83 74 84 75 85 52 86 53 87 61 88 54 89
REMARK SMILES IDX 56 90 62 91 55 92 57 93 58 94 59 95 60 96
REMARK H PARENT 18 6 10 16 1 24 1 25 23 30 82 49 50 60
REMARK Flexibility Score: inf
ROOT
ATOM      1  C   UNL     1       8.080   1.670  -5.450  1.00  0.00     0.023 C 
ENDROOT
BRANCH   1   2
ATOM      2  C   UNL     1       6.655   1.215  -5.752  1.00  0.00     0.116 C 
BRANCH   2   3
ATOM      3  N   UNL     1       6.378  -0.035  -5.091  1.00  0.00    -0.349 N 
ATOM      4  C   UNL     1       5.807  -0.271  -3.868  1.00  0.00     0.286 C 
ATOM      5  O   UNL     1       5.668  -1.456  -3.554  1.00  0.00    -0.266 OA
ATOM      6  H   UNL     1       6.638  -0.841  -5.593  1.00  0.00     0.163 HD
BRANCH   4   7
ATOM      7  C   UNL     1       5.354   0.817  -3.021  1.00  0.00     0.191 A 
ATOM      8  C   UNL     1       4.066   1.557  -1.373  1.00  0.00     0.124 A 
ATOM      9  C   UNL     1       4.764   2.651  -1.824  1.00  0.00     0.048 A 
ATOM     10  O   UNL     1       4.429   0.461  -2.085  1.00  0.00    -0.454 OA
ATOM     11  C   UNL     1       5.607   2.172  -2.870  1.00  0.00     0.056 A 
BRANCH   8  12
ATOM     12  C   UNL     1       3.105   1.229  -0.305  1.00  0.00     0.191 C 
BRANCH  12  13
ATOM     13  N   UNL     1       2.252   2.319   0.097  1.00  0.00    -0.345 N 
ATOM     14  C   UNL     1       0.944   2.253   0.523  1.00  0.00     0.253 C 
ATOM     15  O   UNL     1       0.402   3.288   0.914  1.00  0.00    -0.269 OA
ATOM     16  H   UNL     1       2.653   3.218   0.063  1.00  0.00     0.164 HD
BRANCH  14  17
ATOM     17  C   UNL     1       0.134   1.000   0.428  1.00  0.00     0.062 A 
ATOM     18  C   UNL     1       0.547  -0.285   0.832  1.00  0.00     0.044 A 
ATOM     19  C   UNL     1      -0.280  -1.379   0.524  1.00  0.00     0.026 A 
ATOM     20  C   UNL     1      -1.532  -1.204  -0.068  1.00  0.00     0.002 A 
ATOM     21  C   UNL     1      -1.148   1.169  -0.132  1.00  0.00     0.016 A 
ATOM     22  C   UNL     1      -1.980   0.075  -0.367  1.00  0.00     0.001 A 
BRANCH  18  23
ATOM     23  N   UNL     1       1.708  -0.543   1.549  1.00  0.00    -0.398 N 
ATOM     24  H   UNL     1       1.938  -1.468   1.798  1.00  0.00     0.156 HD
ATOM     25  H   UNL     1       2.302   0.198   1.807  1.00  0.00     0.156 HD
ENDBRANCH  18  23
ENDBRANCH  14  17
ENDBRANCH  12  13
ENDBRANCH   8  12
ENDBRANCH   4   7
ENDBRANCH   2   3
ENDBRANCH   1   2
BRANCH   1  26
ATOM     26  C   UNL     1       9.136   0.995  -6.330  1.00  0.00     0.023 C 
BRANCH  26  27
ATOM     27  C   UNL     1       8.956   1.213  -7.830  1.00  0.00     0.116 C 
BRANCH  27  28
ATOM     28  N   UNL     1       8.807   2.618  -8.194  1.00  0.00    -0.352 N 
ATOM     29  C   UNL     1       9.234   3.244  -9.341  1.00  0.00     0.251 C 
ATOM     30  H   UNL     1       8.345   3.188  -7.538  1.00  0.00     0.163 HD
ATOM     31  O   UNL     1       9.125   4.457  -9.473  1.00  0.00    -0.269 OA
BRANCH  29  32
ATOM     32  C   UNL     1       9.866   2.422 -10.387  1.00  0.00     0.039 A 
ATOM     33  C   UNL     1      11.175   2.715 -10.774  1.00  0.00     0.014 A 
ATOM     34  C   UNL     1       9.202   1.298 -10.884  1.00  0.00     0.014 A 
ATOM     35  C   UNL     1      11.857   1.821 -11.599  1.00  0.00     0.010 A 
ATOM     36  C   UNL     1       9.905   0.379 -11.653  1.00  0.00     0.010 A 
ATOM     37  C   UNL     1      11.243   0.622 -11.999  1.00  0.00    -0.014 A 
BRANCH  37  38
ATOM     38  C   UNL     1      12.007  -0.429 -12.714  1.00  0.00     0.031 A 
ATOM     39  C   UNL     1      11.616  -0.839 -14.104  1.00  0.00     0.074 A 
ATOM     40  C   UNL     1      12.980  -1.093 -12.058  1.00  0.00     0.049 A 
ATOM     41  N   UNL     1      12.116  -1.788 -14.851  1.00  0.00    -0.248 NA
ATOM     42  C   UNL     1      10.502  -0.106 -14.727  1.00  0.00     0.031 C 
ATOM     43  C   UNL     1      13.388  -0.843 -10.673  1.00  0.00     0.029 A 
ATOM     44  N   UNL     1      13.778  -2.137 -12.454  1.00  0.00    -0.354 N 
ATOM     45  C   UNL     1      11.362  -1.789 -16.017  1.00  0.00     0.074 A 
ATOM     46  C   UNL     1      10.350  -0.765 -15.867  1.00  0.00     0.031 C 
ATOM     47  C   UNL     1      14.357  -1.709 -10.335  1.00  0.00     0.029 A 
ATOM     48  C   UNL     1      14.617  -2.596 -11.464  1.00  0.00     0.049 A 
ATOM     49  H   UNL     1      13.753  -2.521 -13.360  1.00  0.00     0.167 HD
ATOM     50  C   UNL     1      11.517  -2.553 -17.124  1.00  0.00     0.034 A 
ATOM     51  C   UNL     1      15.487  -3.625 -11.461  1.00  0.00     0.034 A 
ATOM     52  C   UNL     1      12.548  -3.542 -17.281  1.00  0.00     0.049 A 
ATOM     53  C   UNL     1      15.652  -4.443 -12.712  1.00  0.00     0.074 A 
ATOM     54  C   UNL     1      12.855  -4.293 -18.402  1.00  0.00     0.029 A 
ATOM     55  N   UNL     1      13.431  -3.931 -16.286  1.00  0.00    -0.354 N 
ATOM     56  N   UNL     1      15.055  -4.307 -13.871  1.00  0.00    -0.248 NA
ATOM     57  C   UNL     1      16.631  -5.539 -12.665  1.00  0.00     0.031 C 
ATOM     58  C   UNL     1      13.907  -5.155 -18.076  1.00  0.00     0.029 A 
ATOM     59  C   UNL     1      14.269  -4.927 -16.758  1.00  0.00     0.049 A 
ATOM     60  H   UNL     1      13.458  -3.554 -15.377  1.00  0.00     0.167 HD
ATOM     61  C   UNL     1      15.598  -5.284 -14.697  1.00  0.00     0.074 A 
ATOM     62  C   UNL     1      16.596  -5.984 -13.915  1.00  0.00     0.031 C 
ATOM     63  C   UNL     1      15.286  -5.588 -15.981  1.00  0.00     0.034 A 
BRANCH  50  64
ATOM     64  C   UNL     1      10.584  -2.307 -18.279  1.00  0.00     0.023 A 
ATOM     65  C   UNL     1      10.728  -1.134 -19.048  1.00  0.00     0.012 A 
ATOM     66  C   UNL     1       9.613  -3.259 -18.645  1.00  0.00     0.148 A 
ATOM     67  C   UNL     1       9.902  -0.897 -20.145  1.00  0.00     0.002 A 
ATOM     68  C   UNL     1       8.820  -3.035 -19.765  1.00  0.00     0.091 A 
ATOM     69  F   UNL     1       9.476  -4.357 -17.888  1.00  0.00    -0.205 F 
ATOM     70  C   UNL     1       8.957  -1.852 -20.510  1.00  0.00     0.022 A 
BRANCH  68  71
ATOM     71  S   UNL     1       7.624  -4.235 -20.362  1.00  0.00     0.127 S 
ATOM     72  O   UNL     1       6.359  -3.575 -20.041  1.00  0.00    -0.237 OA
ATOM     73  O   UNL     1       7.935  -4.295 -21.790  1.00  0.00    -0.237 OA
ATOM     74  O   UNL     1       7.890  -5.465 -19.630  1.00  0.00    -0.744 OA
ENDBRANCH  68  71
ENDBRANCH  50  64
BRANCH  51  75
ATOM     75  C   UNL     1      16.305  -3.905 -10.248  1.00  0.00     0.023 A 
ATOM     76  C   UNL     1      17.691  -3.653 -10.277  1.00  0.00     0.012 A 
ATOM     77  C   UNL     1      15.720  -4.389  -9.062  1.00  0.00     0.148 A 
ATOM     78  C   UNL     1      18.483  -3.905  -9.156  1.00  0.00     0.002 A 
ATOM     79  C   UNL     1      16.506  -4.585  -7.932  1.00  0.00     0.091 A 
ATOM     80  F   UNL     1      14.403  -4.637  -9.058  1.00  0.00    -0.205 F 
ATOM     81  C   UNL     1      17.890  -4.360  -7.982  1.00  0.00     0.022 A 
BRANCH  79  82
ATOM     82  S   UNL     1      15.804  -5.037  -6.341  1.00  0.00     0.127 S 
ATOM     83  O   UNL     1      16.225  -6.429  -6.213  1.00  0.00    -0.237 OA
ATOM     84  O   UNL     1      16.476  -4.103  -5.437  1.00  0.00    -0.237 OA
ATOM     85  O   UNL     1      14.370  -4.814  -6.471  1.00  0.00    -0.744 OA
ENDBRANCH  79  82
ENDBRANCH  51  75
BRANCH  63  86
ATOM     86  C   UNL     1      16.031  -6.725 -16.629  1.00  0.00     0.023 A 
ATOM     87  C   UNL     1      15.739  -8.050 -16.250  1.00  0.00     0.012 A 
ATOM     88  C   UNL     1      16.959  -6.488 -17.661  1.00  0.00     0.148 A 
ATOM     89  C   UNL     1      16.379  -9.122 -16.870  1.00  0.00     0.002 A 
ATOM     90  C   UNL     1      17.559  -7.562 -18.307  1.00  0.00     0.091 A 
ATOM     91  F   UNL     1      17.235  -5.218 -17.994  1.00  0.00    -0.205 F 
ATOM     92  C   UNL     1      17.279  -8.879 -17.905  1.00  0.00     0.022 A 
BRANCH  90  93
ATOM     93  S   UNL     1      18.661  -7.354 -19.710  1.00  0.00     0.127 S 
ATOM     94  O   UNL     1      19.951  -7.729 -19.134  1.00  0.00    -0.237 OA
ATOM     95  O   UNL     1      18.121  -8.313 -20.673  1.00  0.00    -0.237 OA
ATOM     96  O   UNL     1      18.541  -5.959 -20.112  1.00  0.00    -0.744 OA
ENDBRANCH  90  93
ENDBRANCH  63  86
ENDBRANCH  37  38
ENDBRANCH  29  32
ENDBRANCH  27  28
ENDBRANCH  26  27
ENDBRANCH   1  26
TORSDOF 18
