REMARK SMILES O=C(NCCCCNC(=O)c1cc(Cl)cc(Cl)c1NC(=S)NC(=O)c1cccc2ccccc12)c1ccc(-c2c3nc(c(-c4cccc(S(=O)(=O)[O-])c4F)c4ccc([nH]4)c(-c4cccc(S(=O)(=O)[O-])c4F)c4nc(c(-c5cccc(S(=O)(=O)[O-])c5F)c5ccc2[nH]5)C=C4)C=C3)cc1
REMARK SMILES IDX 6 1 5 2 4 3 3 4 1 5 2 6 35 8 36 9 97 10 37 11 96 12 38 13
REMARK SMILES IDX 39 14 40 15 90 16 41 17 95 18 89 19 91 20 42 21 94 22 88 23
REMARK SMILES IDX 87 24 43 26 75 27 55 28 74 29 56 30 59 31 73 32 92 33 57 34
REMARK SMILES IDX 58 35 72 37 93 38 60 39 44 40 45 41 53 42 46 43 48 44 54 45
REMARK SMILES IDX 47 46 49 47 50 48 51 49 52 50 76 51 77 52 85 53 78 54 80 55
REMARK SMILES IDX 86 56 79 57 81 58 82 59 83 60 84 61 61 62 62 63 70 64 63 65
REMARK SMILES IDX 65 66 71 67 64 68 66 69 67 70 68 71 69 72 7 73 8 74 9 75
REMARK SMILES IDX 10 77 11 78 12 79 18 80 13 81 16 82 14 83 15 84 17 85 19 86
REMARK SMILES IDX 20 88 21 89 22 90 23 91 24 93 25 94 26 95 34 96 27 97 29 98
REMARK SMILES IDX 33 99 28 100 30 101 32 102 31 103
REMARK H PARENT 3 7 91 25 59 36 8 76 19 87 22 92
REMARK Flexibility Score: inf
ROOT
ATOM      1  C   UNL     1       4.628   2.841   2.374  1.00  0.00     0.023 C 
ENDROOT
BRANCH   1   2
ATOM      2  C   UNL     1       4.944   2.294   0.990  1.00  0.00     0.023 C 
BRANCH   2   3
ATOM      3  C   UNL     1       4.586   0.828   0.812  1.00  0.00     0.116 C 
BRANCH   3   4
ATOM      4  N   UNL     1       3.155   0.586   0.916  1.00  0.00    -0.352 N 
ATOM      5  O   UNL     1       1.135  -0.051   0.128  1.00  0.00    -0.269 OA
ATOM      6  C   UNL     1       2.354  -0.070   0.011  1.00  0.00     0.251 C 
ATOM      7  H   UNL     1       2.712   0.931   1.724  1.00  0.00     0.163 HD
BRANCH   6   8
ATOM      8  C   UNL     1       3.010  -0.770  -1.111  1.00  0.00     0.039 A 
ATOM      9  C   UNL     1       4.085  -1.625  -0.849  1.00  0.00     0.014 A 
ATOM     10  C   UNL     1       2.607  -0.509  -2.420  1.00  0.00     0.014 A 
ATOM     11  C   UNL     1       4.844  -2.113  -1.901  1.00  0.00     0.010 A 
ATOM     12  C   UNL     1       3.311  -1.088  -3.478  1.00  0.00     0.010 A 
ATOM     13  C   UNL     1       4.442  -1.881  -3.226  1.00  0.00    -0.014 A 
BRANCH  13  14
ATOM     14  C   UNL     1       5.131  -2.603  -4.322  1.00  0.00     0.031 A 
ATOM     15  C   UNL     1       5.859  -1.876  -5.414  1.00  0.00     0.074 A 
ATOM     16  C   UNL     1       5.045  -3.949  -4.332  1.00  0.00     0.049 A 
ATOM     17  N   UNL     1       6.465  -2.374  -6.461  1.00  0.00    -0.248 NA
ATOM     18  C   UNL     1       5.914  -0.407  -5.333  1.00  0.00     0.031 C 
ATOM     19  C   UNL     1       4.320  -4.751  -3.339  1.00  0.00     0.029 A 
ATOM     20  N   UNL     1       5.541  -4.878  -5.207  1.00  0.00    -0.354 N 
ATOM     21  C   UNL     1       6.926  -1.286  -7.191  1.00  0.00     0.074 A 
ATOM     22  C   UNL     1       6.545  -0.097  -6.460  1.00  0.00     0.031 C 
ATOM     23  C   UNL     1       4.420  -6.047  -3.659  1.00  0.00     0.029 A 
ATOM     24  C   UNL     1       5.147  -6.164  -4.915  1.00  0.00     0.049 A 
ATOM     25  H   UNL     1       6.121  -4.650  -5.969  1.00  0.00     0.167 HD
ATOM     26  C   UNL     1       7.603  -1.288  -8.364  1.00  0.00     0.034 A 
ATOM     27  C   UNL     1       5.302  -7.307  -5.606  1.00  0.00     0.034 A 
ATOM     28  C   UNL     1       8.000  -2.483  -9.063  1.00  0.00     0.049 A 
ATOM     29  C   UNL     1       6.054  -7.269  -6.902  1.00  0.00     0.074 A 
ATOM     30  C   UNL     1       8.779  -2.590 -10.203  1.00  0.00     0.029 A 
ATOM     31  N   UNL     1       7.625  -3.771  -8.714  1.00  0.00    -0.354 N 
ATOM     32  N   UNL     1       6.628  -6.247  -7.490  1.00  0.00    -0.248 NA
ATOM     33  C   UNL     1       6.199  -8.540  -7.623  1.00  0.00     0.031 C 
ATOM     34  C   UNL     1       8.832  -3.937 -10.571  1.00  0.00     0.029 A 
ATOM     35  C   UNL     1       8.122  -4.675  -9.638  1.00  0.00     0.049 A 
ATOM     36  H   UNL     1       7.084  -4.008  -7.926  1.00  0.00     0.167 HD
ATOM     37  C   UNL     1       7.218  -6.755  -8.639  1.00  0.00     0.074 A 
ATOM     38  C   UNL     1       6.962  -8.180  -8.646  1.00  0.00     0.031 C 
ATOM     39  C   UNL     1       7.893  -6.096  -9.611  1.00  0.00     0.034 A 
BRANCH  26  40
ATOM     40  C   UNL     1       7.976   0.033  -8.983  1.00  0.00     0.023 A 
ATOM     41  C   UNL     1       9.027   0.796  -8.438  1.00  0.00     0.012 A 
ATOM     42  C   UNL     1       7.361   0.456 -10.180  1.00  0.00     0.148 A 
ATOM     43  C   UNL     1       9.450   1.969  -9.065  1.00  0.00     0.002 A 
ATOM     44  C   UNL     1       7.816   1.602 -10.821  1.00  0.00     0.091 A 
ATOM     45  F   UNL     1       6.353  -0.277 -10.672  1.00  0.00    -0.205 F 
ATOM     46  C   UNL     1       8.854   2.364 -10.261  1.00  0.00     0.022 A 
BRANCH  44  47
ATOM     47  S   UNL     1       7.172   2.149 -12.406  1.00  0.00     0.127 S 
ATOM     48  O   UNL     1       6.504   3.396 -12.037  1.00  0.00    -0.237 OA
ATOM     49  O   UNL     1       8.394   2.321 -13.191  1.00  0.00    -0.237 OA
ATOM     50  O   UNL     1       6.291   1.088 -12.873  1.00  0.00    -0.744 OA
ENDBRANCH  44  47
ENDBRANCH  26  40
BRANCH  27  51
ATOM     51  C   UNL     1       4.715  -8.573  -5.088  1.00  0.00     0.023 A 
ATOM     52  C   UNL     1       5.562  -9.614  -4.663  1.00  0.00     0.012 A 
ATOM     53  C   UNL     1       3.319  -8.739  -4.991  1.00  0.00     0.148 A 
ATOM     54  C   UNL     1       5.028 -10.812  -4.188  1.00  0.00     0.002 A 
ATOM     55  C   UNL     1       2.796  -9.908  -4.456  1.00  0.00     0.091 A 
ATOM     56  F   UNL     1       2.529  -7.740  -5.410  1.00  0.00    -0.205 F 
ATOM     57  C   UNL     1       3.647 -10.955  -4.074  1.00  0.00     0.022 A 
BRANCH  55  58
ATOM     58  S   UNL     1       1.040 -10.112  -4.138  1.00  0.00     0.127 S 
ATOM     59  O   UNL     1       0.651 -11.041  -5.196  1.00  0.00    -0.237 OA
ATOM     60  O   UNL     1       1.040 -10.678  -2.788  1.00  0.00    -0.237 OA
ATOM     61  O   UNL     1       0.470  -8.775  -4.224  1.00  0.00    -0.744 OA
ENDBRANCH  55  58
ENDBRANCH  27  51
BRANCH  39  62
ATOM     62  C   UNL     1       8.425  -6.912 -10.759  1.00  0.00     0.023 A 
ATOM     63  C   UNL     1       7.535  -7.428 -11.721  1.00  0.00     0.012 A 
ATOM     64  C   UNL     1       9.811  -7.101 -10.923  1.00  0.00     0.148 A 
ATOM     65  C   UNL     1       8.015  -8.144 -12.816  1.00  0.00     0.002 A 
ATOM     66  C   UNL     1      10.285  -7.769 -12.043  1.00  0.00     0.091 A 
ATOM     67  F   UNL     1      10.637  -6.614  -9.985  1.00  0.00    -0.205 F 
ATOM     68  C   UNL     1       9.389  -8.303 -12.984  1.00  0.00     0.022 A 
BRANCH  66  69
ATOM     69  S   UNL     1      12.037  -7.942 -12.396  1.00  0.00     0.127 S 
ATOM     70  O   UNL     1      12.226  -9.386 -12.265  1.00  0.00    -0.237 OA
ATOM     71  O   UNL     1      12.126  -7.436 -13.766  1.00  0.00    -0.237 OA
ATOM     72  O   UNL     1      12.732  -7.135 -11.403  1.00  0.00    -0.744 OA
ENDBRANCH  66  69
ENDBRANCH  39  62
ENDBRANCH  13  14
ENDBRANCH   6   8
ENDBRANCH   3   4
ENDBRANCH   2   3
ENDBRANCH   1   2
BRANCH   1  73
ATOM     73  C   UNL     1       5.228   2.014   3.504  1.00  0.00     0.116 C 
BRANCH  73  74
ATOM     74  N   UNL     1       6.692   1.977   3.452  1.00  0.00    -0.352 N 
ATOM     75  C   UNL     1       7.603   2.690   4.202  1.00  0.00     0.253 C 
ATOM     76  H   UNL     1       7.079   1.359   2.791  1.00  0.00     0.163 HD
ATOM     77  O   UNL     1       8.795   2.735   3.931  1.00  0.00    -0.269 OA
BRANCH  75  78
ATOM     78  C   UNL     1       7.094   3.405   5.372  1.00  0.00     0.066 A 
ATOM     79  C   UNL     1       6.271   2.740   6.277  1.00  0.00     0.036 A 
ATOM     80  C   UNL     1       7.288   4.748   5.571  1.00  0.00     0.072 A 
ATOM     81  C   UNL     1       5.505   3.467   7.283  1.00  0.00     0.043 A 
ATOM     82  C   UNL     1       6.149   5.434   5.864  1.00  0.00     0.066 A 
ATOM     83  Cl  UNL     1       5.154   2.900   9.658  1.00  0.00    -0.084 Cl
ATOM     84  C   UNL     1       5.178   4.743   6.574  1.00  0.00     0.043 A 
ATOM     85  Cl  UNL     1       5.974   7.108   5.529  1.00  0.00    -0.082 Cl
BRANCH  80  86
ATOM     86  N   UNL     1       8.552   5.159   6.032  1.00  0.00    -0.330 N 
ATOM     87  H   UNL     1       9.312   4.795   5.524  1.00  0.00     0.169 HD
BRANCH  86  88
ATOM     88  C   UNL     1       8.895   5.972   7.057  1.00  0.00     0.177 C 
ATOM     89  S   UNL     1      10.418   6.674   7.010  1.00  0.00    -0.040 S 
BRANCH  88  90
ATOM     90  N   UNL     1       8.124   6.247   8.183  1.00  0.00    -0.299 N 
ATOM     91  C   UNL     1       6.989   5.944   8.989  1.00  0.00     0.258 C 
ATOM     92  H   UNL     1       8.572   7.000   8.631  1.00  0.00     0.172 HD
ATOM     93  O   UNL     1       6.602   6.777   9.808  1.00  0.00    -0.269 OA
BRANCH  91  94
ATOM     94  C   UNL     1       6.251   4.677   8.896  1.00  0.00     0.048 A 
ATOM     95  C   UNL     1       7.168   3.131   8.688  1.00  0.00     0.014 A 
ATOM     96  C   UNL     1       4.404   4.744   8.750  1.00  0.00    -0.006 A 
ATOM     97  C   UNL     1       6.281   1.601   8.287  1.00  0.00     0.001 A 
ATOM     98  C   UNL     1       3.542   3.236   8.159  1.00  0.00    -0.018 A 
ATOM     99  C   UNL     1       3.556   5.833   8.987  1.00  0.00     0.009 A 
ATOM    100  C   UNL     1       4.491   1.683   7.939  1.00  0.00     0.009 A 
ATOM    101  C   UNL     1       2.188   3.367   7.894  1.00  0.00     0.009 A 
ATOM    102  C   UNL     1       2.188   5.746   8.665  1.00  0.00     0.001 A 
ATOM    103  C   UNL     1       1.551   4.595   8.124  1.00  0.00     0.001 A 
ENDBRANCH  91  94
ENDBRANCH  88  90
ENDBRANCH  86  88
ENDBRANCH  80  86
ENDBRANCH  75  78
ENDBRANCH  73  74
ENDBRANCH   1  73
TORSDOF 18
