REMARK SMILES O=Cc1c(OCc2ccc(C(=O)NCCCCNC(=O)c3ccc(-c4c5nc(c(-c6cccc(S(=O)(=O)[O-])c6F)c6ccc([nH]6)c(-c6cccc(S(=O)(=O)[O-])c6F)c6nc(c(-c7cccc(S(=O)(=O)[O-])c7F)c7ccc4[nH]7)C=C6)C=C5)cc3)cc2)ccc2ccccc12
REMARK SMILES IDX 15 1 14 2 13 3 11 4 12 5 10 7 7 8 8 9 85 10 9 11 84 12 6 13
REMARK SMILES IDX 5 14 4 15 3 16 93 17 86 18 88 19 92 20 87 21 89 22 91 23
REMARK SMILES IDX 90 24 2 25 1 26 16 27 17 28 18 29 19 30 20 32 21 33 22 34
REMARK SMILES IDX 83 35 23 36 82 37 24 38 25 39 26 40 76 41 27 42 81 43 75 44
REMARK SMILES IDX 77 45 28 46 80 47 74 48 73 49 29 51 61 52 41 53 60 54 42 55
REMARK SMILES IDX 45 56 59 57 78 58 43 59 44 60 58 62 79 63 46 64 30 65 31 66
REMARK SMILES IDX 39 67 32 68 34 69 40 70 33 71 35 72 36 73 37 74 38 75 62 76
REMARK SMILES IDX 63 77 71 78 64 79 66 80 72 81 65 82 67 83 68 84 69 85 70 86
REMARK SMILES IDX 47 87 48 88 56 89 49 90 51 91 57 92 50 93 52 94 53 95 54 96
REMARK SMILES IDX 55 97
REMARK H PARENT 13 6 18 31 77 50 45 61
REMARK Flexibility Score: inf
ROOT
ATOM      1  C   UNL     1       7.837  -5.216  -1.482  1.00  0.00     0.023 C 
ENDROOT
BRANCH   1   2
ATOM      2  C   UNL     1       7.059  -5.902  -2.610  1.00  0.00     0.116 C 
BRANCH   2   3
ATOM      3  N   UNL     1       6.479  -7.150  -2.157  1.00  0.00    -0.352 N 
ATOM      4  C   UNL     1       5.250  -7.473  -1.639  1.00  0.00     0.251 C 
ATOM      5  O   UNL     1       5.042  -8.661  -1.385  1.00  0.00    -0.269 OA
ATOM      6  H   UNL     1       7.088  -7.920  -2.237  1.00  0.00     0.163 HD
BRANCH   4   7
ATOM      7  C   UNL     1       4.157  -6.487  -1.378  1.00  0.00     0.039 A 
ATOM      8  C   UNL     1       1.984  -4.787  -0.700  1.00  0.00    -0.011 A 
ATOM      9  C   UNL     1       1.797  -6.169  -0.821  1.00  0.00     0.008 A 
ATOM     10  C   UNL     1       3.245  -4.267  -1.000  1.00  0.00     0.008 A 
ATOM     11  C   UNL     1       2.868  -7.004  -1.166  1.00  0.00     0.014 A 
ATOM     12  C   UNL     1       4.326  -5.109  -1.271  1.00  0.00     0.014 A 
BRANCH   8  13
ATOM     13  C   UNL     1       0.845  -3.919  -0.192  1.00  0.00     0.265 C 
BRANCH  13  14
ATOM     14  O   UNL     1       1.168  -2.563   0.146  1.00  0.00    -0.488 OA
BRANCH  14  15
ATOM     15  C   UNL     1       2.085  -2.289   1.129  1.00  0.00     0.130 A 
ATOM     16  C   UNL     1       2.649  -0.999   1.131  1.00  0.00     0.064 A 
ATOM     17  C   UNL     1       3.778  -0.677   1.937  1.00  0.00    -0.004 A 
ATOM     18  C   UNL     1       2.580  -3.242   2.017  1.00  0.00     0.048 A 
ATOM     19  C   UNL     1       4.313  -1.696   2.760  1.00  0.00    -0.017 A 
ATOM     20  C   UNL     1       4.414   0.591   1.970  1.00  0.00     0.009 A 
ATOM     21  C   UNL     1       3.695  -2.953   2.806  1.00  0.00     0.012 A 
ATOM     22  C   UNL     1       5.463  -1.451   3.528  1.00  0.00     0.009 A 
ATOM     23  C   UNL     1       5.552   0.822   2.747  1.00  0.00     0.001 A 
ATOM     24  C   UNL     1       6.083  -0.203   3.517  1.00  0.00     0.001 A 
BRANCH  16  25
ATOM     25  C   UNL     1       2.112   0.021   0.199  1.00  0.00     0.264 C 
ATOM     26  O   UNL     1       0.915   0.236   0.057  1.00  0.00    -0.298 OA
ENDBRANCH  16  25
ENDBRANCH  14  15
ENDBRANCH  13  14
ENDBRANCH   8  13
ENDBRANCH   4   7
ENDBRANCH   2   3
ENDBRANCH   1   2
BRANCH   1  27
ATOM     27  C   UNL     1       9.284  -5.697  -1.339  1.00  0.00     0.023 C 
BRANCH  27  28
ATOM     28  C   UNL     1      10.181  -5.385  -2.533  1.00  0.00     0.116 C 
BRANCH  28  29
ATOM     29  N   UNL     1      10.267  -3.963  -2.833  1.00  0.00    -0.352 N 
ATOM     30  C   UNL     1      11.291  -3.290  -3.461  1.00  0.00     0.251 C 
ATOM     31  H   UNL     1       9.499  -3.415  -2.552  1.00  0.00     0.163 HD
ATOM     32  O   UNL     1      11.267  -2.072  -3.555  1.00  0.00    -0.269 OA
BRANCH  30  33
ATOM     33  C   UNL     1      12.441  -4.064  -3.976  1.00  0.00     0.039 A 
ATOM     34  C   UNL     1      13.729  -3.690  -3.586  1.00  0.00     0.014 A 
ATOM     35  C   UNL     1      12.242  -5.182  -4.788  1.00  0.00     0.014 A 
ATOM     36  C   UNL     1      14.816  -4.484  -3.954  1.00  0.00     0.010 A 
ATOM     37  C   UNL     1      13.319  -6.007  -5.099  1.00  0.00     0.010 A 
ATOM     38  C   UNL     1      14.615  -5.669  -4.681  1.00  0.00    -0.014 A 
BRANCH  38  39
ATOM     39  C   UNL     1      15.741  -6.587  -4.985  1.00  0.00     0.031 A 
ATOM     40  C   UNL     1      16.149  -6.841  -6.409  1.00  0.00     0.074 A 
ATOM     41  C   UNL     1      16.332  -7.264  -3.979  1.00  0.00     0.049 A 
ATOM     42  N   UNL     1      17.065  -7.652  -6.870  1.00  0.00    -0.248 NA
ATOM     43  C   UNL     1      15.414  -6.110  -7.455  1.00  0.00     0.031 C 
ATOM     44  C   UNL     1      15.964  -7.169  -2.564  1.00  0.00     0.029 A 
ATOM     45  N   UNL     1      17.346  -8.189  -3.996  1.00  0.00    -0.354 N 
ATOM     46  C   UNL     1      16.998  -7.554  -8.254  1.00  0.00     0.074 A 
ATOM     47  C   UNL     1      15.928  -6.630  -8.561  1.00  0.00     0.031 C 
ATOM     48  C   UNL     1      16.738  -8.002  -1.851  1.00  0.00     0.029 A 
ATOM     49  C   UNL     1      17.641  -8.707  -2.756  1.00  0.00     0.049 A 
ATOM     50  H   UNL     1      17.817  -8.456  -4.818  1.00  0.00     0.167 HD
ATOM     51  C   UNL     1      17.779  -8.152  -9.185  1.00  0.00     0.034 A 
ATOM     52  C   UNL     1      18.536  -9.646  -2.391  1.00  0.00     0.034 A 
ATOM     53  C   UNL     1      18.873  -9.032  -8.874  1.00  0.00     0.049 A 
ATOM     54  C   UNL     1      19.424 -10.255  -3.442  1.00  0.00     0.074 A 
ATOM     55  C   UNL     1      19.778  -9.618  -9.741  1.00  0.00     0.029 A 
ATOM     56  N   UNL     1      19.210  -9.454  -7.598  1.00  0.00    -0.354 N 
ATOM     57  N   UNL     1      19.458 -10.019  -4.731  1.00  0.00    -0.248 NA
ATOM     58  C   UNL     1      20.424 -11.231  -2.984  1.00  0.00     0.031 C 
ATOM     59  C   UNL     1      20.657 -10.404  -8.989  1.00  0.00     0.029 A 
ATOM     60  C   UNL     1      20.308 -10.295  -7.653  1.00  0.00     0.049 A 
ATOM     61  H   UNL     1      18.739  -9.193  -6.774  1.00  0.00     0.167 HD
ATOM     62  C   UNL     1      20.501 -10.789  -5.232  1.00  0.00     0.074 A 
ATOM     63  C   UNL     1      21.090 -11.480  -4.104  1.00  0.00     0.031 C 
ATOM     64  C   UNL     1      20.921 -10.928  -6.514  1.00  0.00     0.034 A 
BRANCH  51  65
ATOM     65  C   UNL     1      17.525  -7.818 -10.631  1.00  0.00     0.023 A 
ATOM     66  C   UNL     1      17.899  -6.549 -11.120  1.00  0.00     0.012 A 
ATOM     67  C   UNL     1      16.988  -8.771 -11.518  1.00  0.00     0.148 A 
ATOM     68  C   UNL     1      17.717  -6.223 -12.462  1.00  0.00     0.002 A 
ATOM     69  C   UNL     1      16.848  -8.452 -12.864  1.00  0.00     0.091 A 
ATOM     70  F   UNL     1      16.620  -9.963 -11.030  1.00  0.00    -0.205 F 
ATOM     71  C   UNL     1      17.203  -7.177 -13.335  1.00  0.00     0.022 A 
BRANCH  69  72
ATOM     72  S   UNL     1      16.264  -9.633 -14.086  1.00  0.00     0.127 S 
ATOM     73  O   UNL     1      14.946  -9.091 -14.413  1.00  0.00    -0.237 OA
ATOM     74  O   UNL     1      17.261  -9.495 -15.148  1.00  0.00    -0.237 OA
ATOM     75  O   UNL     1      16.259 -10.929 -13.421  1.00  0.00    -0.744 OA
ENDBRANCH  69  72
ENDBRANCH  51  65
BRANCH  52  76
ATOM     76  C   UNL     1      18.687 -10.014  -0.955  1.00  0.00     0.023 A 
ATOM     77  C   UNL     1      19.852  -9.628  -0.263  1.00  0.00     0.012 A 
ATOM     78  C   UNL     1      17.683 -10.721  -0.266  1.00  0.00     0.148 A 
ATOM     79  C   UNL     1      20.030  -9.969   1.078  1.00  0.00     0.002 A 
ATOM     80  C   UNL     1      17.842 -11.009   1.085  1.00  0.00     0.091 A 
ATOM     81  F   UNL     1      16.588 -11.094  -0.943  1.00  0.00    -0.205 F 
ATOM     82  C   UNL     1      19.022 -10.650   1.755  1.00  0.00     0.022 A 
BRANCH  80  83
ATOM     83  S   UNL     1      16.534 -11.762   2.061  1.00  0.00     0.127 S 
ATOM     84  O   UNL     1      17.002 -13.140   2.178  1.00  0.00    -0.237 OA
ATOM     85  O   UNL     1      16.588 -10.985   3.300  1.00  0.00    -0.237 OA
ATOM     86  O   UNL     1      15.315 -11.563   1.288  1.00  0.00    -0.744 OA
ENDBRANCH  80  83
ENDBRANCH  52  76
BRANCH  64  87
ATOM     87  C   UNL     1      22.091 -11.839  -6.770  1.00  0.00     0.023 A 
ATOM     88  C   UNL     1      21.916 -13.235  -6.696  1.00  0.00     0.012 A 
ATOM     89  C   UNL     1      23.340 -11.317  -7.158  1.00  0.00     0.148 A 
ATOM     90  C   UNL     1      22.975 -14.097  -6.977  1.00  0.00     0.002 A 
ATOM     91  C   UNL     1      24.378 -12.184  -7.481  1.00  0.00     0.091 A 
ATOM     92  F   UNL     1      23.492  -9.985  -7.203  1.00  0.00    -0.205 F 
ATOM     93  C   UNL     1      24.200 -13.573  -7.381  1.00  0.00     0.022 A 
BRANCH  91  94
ATOM     94  S   UNL     1      25.960 -11.598  -8.100  1.00  0.00     0.127 S 
ATOM     95  O   UNL     1      26.824 -11.788  -6.936  1.00  0.00    -0.237 OA
ATOM     96  O   UNL     1      26.221 -12.517  -9.209  1.00  0.00    -0.237 OA
ATOM     97  O   UNL     1      25.744 -10.215  -8.502  1.00  0.00    -0.744 OA
ENDBRANCH  91  94
ENDBRANCH  64  87
ENDBRANCH  38  39
ENDBRANCH  30  33
ENDBRANCH  28  29
ENDBRANCH  27  28
ENDBRANCH   1  27
TORSDOF 18
