REMARK SMILES Cc1ccc(C2=NN(C(=O)CCC(=O)NCCCCNC(=O)c3ccc(-c4c5nc(c(-c6cccc(S(=O)(=O)[O-])c6F)c6ccc([nH]6)c(-c6cccc(S(=O)(=O)[O-])c6F)c6nc(c(-c7cccc(S(=O)(=O)[O-])c7F)c7ccc4[nH]7)C=C6)C=C5)cc3)[C@H](C[C@@H]3C=c4cccc(C)c4=NC3=O)C2)cc1
REMARK SMILES IDX 16 1 15 2 13 3 14 4 12 6 11 7 9 8 10 9 8 10 6 11 7 12 100 13
REMARK SMILES IDX 86 14 5 15 1 16 2 17 3 18 102 19 4 20 101 21 87 22 88 23
REMARK SMILES IDX 89 24 98 25 90 26 97 27 99 28 91 29 96 30 92 31 94 32 93 33
REMARK SMILES IDX 95 34 17 35 18 36 19 37 20 38 21 39 22 41 23 42 24 43 85 44
REMARK SMILES IDX 25 45 84 46 26 47 27 48 28 49 78 50 29 51 83 52 77 53 79 54
REMARK SMILES IDX 30 55 82 56 76 57 75 58 31 60 63 61 43 62 62 63 44 64 47 65
REMARK SMILES IDX 61 66 80 67 45 68 46 69 60 71 81 72 48 73 32 74 33 75 41 76
REMARK SMILES IDX 34 77 36 78 42 79 35 80 37 81 38 82 39 83 40 84 64 85 65 86
REMARK SMILES IDX 73 87 66 88 68 89 74 90 67 91 69 92 70 93 71 94 72 95 49 96
REMARK SMILES IDX 50 97 58 98 51 99 53 100 59 101 52 102 54 103 55 104 56 105
REMARK SMILES IDX 57 106
REMARK H PARENT 15 5 20 40 79 59 47 70
REMARK Flexibility Score: inf
ROOT
ATOM      1  C   UNL     1      -4.904   0.337   0.900  1.00  0.00     0.116 C 
ENDROOT
BRANCH   1   2
ATOM      2  N   UNL     1      -5.853   1.617   1.109  1.00  0.00    -0.356 N 
ATOM      3  C   UNL     1      -7.093   1.857   1.606  1.00  0.00     0.220 C 
ATOM      4  O   UNL     1      -7.528   3.005   1.472  1.00  0.00    -0.275 OA
ATOM      5  H   UNL     1      -5.422   2.444   0.794  1.00  0.00     0.163 HD
BRANCH   3   6
ATOM      6  C   UNL     1      -7.946   0.808   2.283  1.00  0.00     0.110 C 
BRANCH   6   7
ATOM      7  C   UNL     1      -8.119  -0.552   1.633  1.00  0.00     0.112 C 
BRANCH   7   8
ATOM      8  C   UNL     1      -6.877  -1.417   1.701  1.00  0.00     0.243 C 
ATOM      9  O   UNL     1      -6.639  -2.108   2.688  1.00  0.00    -0.273 OA
BRANCH   8  10
ATOM     10  N   UNL     1      -5.998  -1.241   0.602  1.00  0.00    -0.230 N 
ATOM     11  C   UNL     1      -3.244  -0.526   0.281  1.00  0.00     0.070 C 
ATOM     12  N   UNL     1      -4.220  -1.533   1.002  1.00  0.00    -0.174 NA
ATOM     13  C   UNL     1      -4.387   0.908  -0.784  1.00  0.00     0.086 C 
ATOM     14  C   UNL     1      -6.256   0.108  -0.689  1.00  0.00     0.118 C 
BRANCH  11  15
ATOM     15  C   UNL     1      -1.699  -1.237   0.098  1.00  0.00    -0.002 A 
ATOM     16  C   UNL     1       2.628  -1.751   0.273  1.00  0.00     0.044 C 
ATOM     17  C   UNL     1       1.132  -1.837   0.185  1.00  0.00    -0.051 A 
ATOM     18  C   UNL     1       0.282  -2.128   1.260  1.00  0.00     0.004 A 
ATOM     19  C   UNL     1       0.540  -1.480  -1.001  1.00  0.00     0.004 A 
ATOM     20  C   UNL     1      -1.118  -1.843   1.216  1.00  0.00     0.010 A 
ATOM     21  C   UNL     1      -0.841  -1.260  -1.040  1.00  0.00     0.010 A 
ENDBRANCH  11  15
BRANCH  14  22
ATOM     22  C   UNL     1      -7.100  -0.572  -2.002  1.00  0.00     0.045 C 
BRANCH  22  23
ATOM     23  C   UNL     1      -7.971  -1.865  -1.696  1.00  0.00     0.106 C 
ATOM     24  C   UNL     1      -7.326  -3.001  -0.937  1.00  0.00    -0.003 C 
ATOM     25  C   UNL     1      -8.737  -2.587  -2.821  1.00  0.00     0.253 C 
ATOM     26  C   UNL     1      -8.120  -3.936  -0.419  1.00  0.00    -0.003 A 
ATOM     27  N   UNL     1      -9.510  -3.697  -2.447  1.00  0.00    -0.212 NA
ATOM     28  O   UNL     1      -8.717  -2.163  -3.973  1.00  0.00    -0.272 OA
ATOM     29  C   UNL     1      -7.934  -4.560   0.865  1.00  0.00     0.010 A 
ATOM     30  C   UNL     1      -9.232  -4.315  -1.334  1.00  0.00     0.077 A 
ATOM     31  C   UNL     1      -8.799  -5.488   1.286  1.00  0.00     0.001 A 
ATOM     32  C   UNL     1      -9.915  -5.593  -0.896  1.00  0.00    -0.025 A 
ATOM     33  C   UNL     1      -9.732  -6.070   0.352  1.00  0.00     0.005 A 
ATOM     34  C   UNL     1     -10.591  -6.406  -1.949  1.00  0.00     0.047 C 
ENDBRANCH  22  23
ENDBRANCH  14  22
ENDBRANCH   8  10
ENDBRANCH   7   8
ENDBRANCH   6   7
ENDBRANCH   3   6
ENDBRANCH   1   2
BRANCH   1  35
ATOM     35  C   UNL     1      -4.575  -0.905  -0.898  1.00  0.00     0.023 C 
BRANCH  35  36
ATOM     36  C   UNL     1      -3.289  -0.361  -2.197  1.00  0.00     0.023 C 
BRANCH  36  37
ATOM     37  C   UNL     1      -2.179   1.038  -1.940  1.00  0.00     0.116 C 
BRANCH  37  38
ATOM     38  N   UNL     1      -1.768   1.401  -0.539  1.00  0.00    -0.352 N 
ATOM     39  C   UNL     1      -0.592   1.397   0.189  1.00  0.00     0.251 C 
ATOM     40  H   UNL     1      -2.530   1.722  -0.005  1.00  0.00     0.163 HD
ATOM     41  O   UNL     1      -0.664   1.047   1.369  1.00  0.00    -0.269 OA
BRANCH  39  42
ATOM     42  C   UNL     1       0.580   2.196  -0.280  1.00  0.00     0.039 A 
ATOM     43  C   UNL     1       1.557   2.308   0.740  1.00  0.00     0.014 A 
ATOM     44  C   UNL     1       0.052   3.356  -0.835  1.00  0.00     0.014 A 
ATOM     45  C   UNL     1       1.526   3.424   1.563  1.00  0.00     0.010 A 
ATOM     46  C   UNL     1      -0.136   4.377   0.060  1.00  0.00     0.010 A 
ATOM     47  C   UNL     1       0.551   4.361   1.291  1.00  0.00    -0.014 A 
BRANCH  47  48
ATOM     48  C   UNL     1       0.174   5.429   2.188  1.00  0.00     0.031 A 
ATOM     49  C   UNL     1       0.698   6.756   1.839  1.00  0.00     0.074 A 
ATOM     50  C   UNL     1      -1.011   5.230   2.809  1.00  0.00     0.049 A 
ATOM     51  N   UNL     1       0.466   7.828   2.509  1.00  0.00    -0.248 NA
ATOM     52  C   UNL     1       1.578   6.974   0.680  1.00  0.00     0.031 C 
ATOM     53  C   UNL     1      -2.106   6.178   2.938  1.00  0.00     0.029 A 
ATOM     54  N   UNL     1      -1.453   4.101   3.507  1.00  0.00    -0.354 N 
ATOM     55  C   UNL     1       0.714   8.840   1.609  1.00  0.00     0.074 A 
ATOM     56  C   UNL     1       1.659   8.306   0.669  1.00  0.00     0.031 C 
ATOM     57  C   UNL     1      -2.994   5.699   3.822  1.00  0.00     0.029 A 
ATOM     58  C   UNL     1      -2.398   4.534   4.453  1.00  0.00     0.049 A 
ATOM     59  H   UNL     1      -1.156   3.173   3.363  1.00  0.00     0.167 HD
ATOM     60  C   UNL     1      -0.154   9.886   1.555  1.00  0.00     0.034 A 
ATOM     61  C   UNL     1      -2.259   4.363   5.801  1.00  0.00     0.034 A 
ATOM     62  C   UNL     1      -1.087   9.869   2.695  1.00  0.00     0.049 A 
ATOM     63  C   UNL     1      -2.026   5.691   6.517  1.00  0.00     0.074 A 
ATOM     64  C   UNL     1      -2.459   9.764   2.827  1.00  0.00     0.029 A 
ATOM     65  N   UNL     1      -0.572   9.703   3.979  1.00  0.00    -0.354 N 
ATOM     66  N   UNL     1      -2.175   6.873   5.976  1.00  0.00    -0.248 NA
ATOM     67  C   UNL     1      -1.541   5.787   7.893  1.00  0.00     0.031 C 
ATOM     68  C   UNL     1      -2.745   9.404   4.183  1.00  0.00     0.029 A 
ATOM     69  C   UNL     1      -1.554   9.347   4.889  1.00  0.00     0.049 A 
ATOM     70  H   UNL     1       0.377   9.824   4.212  1.00  0.00     0.167 HD
ATOM     71  C   UNL     1      -1.545   7.812   6.756  1.00  0.00     0.074 A 
ATOM     72  C   UNL     1      -1.313   7.107   8.007  1.00  0.00     0.031 C 
ATOM     73  C   UNL     1      -1.158   9.038   6.270  1.00  0.00     0.034 A 
BRANCH  60  74
ATOM     74  C   UNL     1      -0.288  10.822   0.366  1.00  0.00     0.023 A 
ATOM     75  C   UNL     1      -1.024  12.005   0.575  1.00  0.00     0.012 A 
ATOM     76  C   UNL     1       0.200  10.618  -0.954  1.00  0.00     0.148 A 
ATOM     77  C   UNL     1      -1.234  12.943  -0.442  1.00  0.00     0.002 A 
ATOM     78  C   UNL     1       0.085  11.603  -1.938  1.00  0.00     0.091 A 
ATOM     79  F   UNL     1       0.678   9.424  -1.322  1.00  0.00    -0.205 F 
ATOM     80  C   UNL     1      -0.649  12.763  -1.688  1.00  0.00     0.022 A 
BRANCH  78  81
ATOM     81  S   UNL     1       0.902  11.475  -3.542  1.00  0.00     0.127 S 
ATOM     82  O   UNL     1      -0.230  11.346  -4.458  1.00  0.00    -0.237 OA
ATOM     83  O   UNL     1       1.616  12.749  -3.632  1.00  0.00    -0.237 OA
ATOM     84  O   UNL     1       1.772  10.306  -3.463  1.00  0.00    -0.744 OA
ENDBRANCH  78  81
ENDBRANCH  60  74
BRANCH  61  85
ATOM     85  C   UNL     1      -1.636   3.055   6.160  1.00  0.00     0.023 A 
ATOM     86  C   UNL     1      -2.417   1.894   5.944  1.00  0.00     0.012 A 
ATOM     87  C   UNL     1      -0.242   2.924   6.252  1.00  0.00     0.148 A 
ATOM     88  C   UNL     1      -1.811   0.663   5.674  1.00  0.00     0.002 A 
ATOM     89  C   UNL     1       0.353   1.700   5.949  1.00  0.00     0.091 A 
ATOM     90  F   UNL     1       0.498   4.019   6.472  1.00  0.00    -0.205 F 
ATOM     91  C   UNL     1      -0.423   0.577   5.634  1.00  0.00     0.022 A 
BRANCH  89  92
ATOM     92  S   UNL     1       2.136   1.620   5.775  1.00  0.00     0.127 S 
ATOM     93  O   UNL     1       2.398   0.190   5.606  1.00  0.00    -0.237 OA
ATOM     94  O   UNL     1       2.366   2.421   4.579  1.00  0.00    -0.237 OA
ATOM     95  O   UNL     1       2.618   2.173   7.035  1.00  0.00    -0.744 OA
ENDBRANCH  89  92
ENDBRANCH  61  85
BRANCH  73  96
ATOM     96  C   UNL     1      -0.272  10.047   7.009  1.00  0.00     0.023 A 
ATOM     97  C   UNL     1       0.552   9.704   8.097  1.00  0.00     0.012 A 
ATOM     98  C   UNL     1      -0.140  11.380   6.528  1.00  0.00     0.148 A 
ATOM     99  C   UNL     1       1.399  10.634   8.718  1.00  0.00     0.002 A 
ATOM    100  C   UNL     1       0.804  12.257   7.058  1.00  0.00     0.091 A 
ATOM    101  F   UNL     1      -0.951  11.827   5.557  1.00  0.00    -0.205 F 
ATOM    102  C   UNL     1       1.547  11.903   8.182  1.00  0.00     0.022 A 
BRANCH 100 103
ATOM    103  S   UNL     1       1.211  13.790   6.207  1.00  0.00     0.127 S 
ATOM    104  O   UNL     1       0.287  14.738   6.824  1.00  0.00    -0.237 OA
ATOM    105  O   UNL     1       2.617  13.990   6.564  1.00  0.00    -0.237 OA
ATOM    106  O   UNL     1       0.995  13.499   4.796  1.00  0.00    -0.744 OA
ENDBRANCH 100 103
ENDBRANCH  73  96
ENDBRANCH  47  48
ENDBRANCH  39  42
ENDBRANCH  37  38
ENDBRANCH  36  37
ENDBRANCH  35  36
ENDBRANCH   1  35
TORSDOF 20
