REMARK SMILES CCc1cc(OC(F)(F)F)cc2c1O[C@@H](C(F)(F)F)C(C(=O)NCCCCNC(=O)c1ccc(-c3c4nc(c(-c5cccc(S(=O)(=O)[O-])c5F)c5ccc([nH]5)c(-c5cccc(S(=O)(=O)[O-])c5F)c5nc(c(-c6cccc(S(=O)(=O)[O-])c6F)c6ccc3[nH]6)C=C5)C=C4)cc1)=C2
REMARK SMILES IDX 26 1 25 2 24 3 23 4 21 5 22 6 20 8 3 9 4 10 13 11 5 12 12 13
REMARK SMILES IDX 14 14 11 15 94 16 15 17 2 18 1 19 6 20 7 21 8 22 9 23 10 24
REMARK SMILES IDX 16 25 17 26 18 27 19 28 27 29 28 30 29 31 30 33 31 34 32 35
REMARK SMILES IDX 93 36 33 37 92 38 34 39 35 40 36 41 86 42 37 43 91 44 85 45
REMARK SMILES IDX 87 46 38 47 90 48 84 49 83 50 39 52 71 53 51 54 70 55 52 56
REMARK SMILES IDX 55 57 69 58 88 59 53 60 54 61 68 63 89 64 56 65 40 66 41 67
REMARK SMILES IDX 49 68 42 69 44 70 50 71 43 72 45 73 46 74 47 75 48 76 72 77
REMARK SMILES IDX 73 78 81 79 74 80 76 81 82 82 75 83 77 84 78 85 79 86 80 87
REMARK SMILES IDX 57 88 58 89 66 90 59 91 61 92 67 93 60 94 62 95 63 96 64 97
REMARK SMILES IDX 65 98
REMARK H PARENT 23 7 28 32 87 51 55 62
REMARK Flexibility Score: inf
ROOT
ATOM      1  C   UNL     1       3.580   3.823  -9.672  1.00  0.00     0.023 C 
ENDROOT
BRANCH   1   2
ATOM      2  C   UNL     1       3.391   3.008  -8.390  1.00  0.00     0.023 C 
BRANCH   2   3
ATOM      3  C   UNL     1       4.139   3.562  -7.171  1.00  0.00     0.116 C 
BRANCH   3   4
ATOM      4  N   UNL     1       3.429   4.700  -6.614  1.00  0.00    -0.352 N 
ATOM      5  C   UNL     1       2.458   4.805  -5.669  1.00  0.00     0.251 C 
ATOM      6  O   UNL     1       1.942   5.904  -5.480  1.00  0.00    -0.270 OA
ATOM      7  H   UNL     1       3.704   5.565  -6.996  1.00  0.00     0.163 HD
BRANCH   5   8
ATOM      8  C   UNL     1       2.033   3.667  -4.808  1.00  0.00     0.067 C 
ATOM      9  C   UNL     1       0.849   0.627  -2.134  1.00  0.00    -0.002 A 
ATOM     10  C   UNL     1       0.754  -0.694  -2.621  1.00  0.00     0.054 A 
ATOM     11  C   UNL     1       1.225   1.651  -3.022  1.00  0.00     0.131 A 
ATOM     12  C   UNL     1       1.067  -0.997  -3.947  1.00  0.00     0.130 A 
ATOM     13  C   UNL     1       1.521   1.354  -4.349  1.00  0.00     0.021 A 
ATOM     14  O   UNL     1       1.331   2.915  -2.522  1.00  0.00    -0.475 OA
ATOM     15  C   UNL     1       1.444   0.034  -4.806  1.00  0.00     0.058 A 
ATOM     16  C   UNL     1       1.961   2.405  -5.249  1.00  0.00     0.025 C 
ATOM     17  C   UNL     1       1.507   4.043  -3.429  1.00  0.00     0.314 C 
BRANCH   9  18
ATOM     18  C   UNL     1       0.486   0.937  -0.695  1.00  0.00     0.036 C 
ATOM     19  C   UNL     1       1.113  -0.000   0.331  1.00  0.00     0.009 C 
ENDBRANCH   9  18
BRANCH  12  20
ATOM     20  O   UNL     1       1.050  -2.232  -4.529  1.00  0.00    -0.406 OA
BRANCH  20  21
ATOM     21  C   UNL     1       0.779  -3.351  -3.706  1.00  0.00     0.573 C 
ATOM     22  F   UNL     1       1.667  -3.444  -2.692  1.00  0.00    -0.132 F 
ATOM     23  F   UNL     1      -0.473  -3.292  -3.205  1.00  0.00    -0.132 F 
ATOM     24  F   UNL     1       0.879  -4.473  -4.453  1.00  0.00    -0.132 F 
ENDBRANCH  20  21
ENDBRANCH  12  20
BRANCH  17  25
ATOM     25  C   UNL     1       2.323   5.112  -2.665  1.00  0.00     0.429 C 
ATOM     26  F   UNL     1       1.973   6.376  -2.987  1.00  0.00    -0.167 F 
ATOM     27  F   UNL     1       2.114   5.011  -1.323  1.00  0.00    -0.167 F 
ATOM     28  F   UNL     1       3.655   4.978  -2.858  1.00  0.00    -0.167 F 
ENDBRANCH  17  25
ENDBRANCH   5   8
ENDBRANCH   3   4
ENDBRANCH   2   3
ENDBRANCH   1   2
BRANCH   1  29
ATOM     29  C   UNL     1       4.987   3.764 -10.252  1.00  0.00     0.116 C 
BRANCH  29  30
ATOM     30  N   UNL     1       5.393   2.419 -10.634  1.00  0.00    -0.352 N 
ATOM     31  C   UNL     1       6.310   2.061 -11.596  1.00  0.00     0.251 C 
ATOM     32  H   UNL     1       4.961   1.679 -10.148  1.00  0.00     0.163 HD
ATOM     33  O   UNL     1       6.487   0.887 -11.889  1.00  0.00    -0.269 OA
BRANCH  31  34
ATOM     34  C   UNL     1       7.041   3.135 -12.299  1.00  0.00     0.039 A 
ATOM     35  C   UNL     1       6.979   3.196 -13.694  1.00  0.00     0.014 A 
ATOM     36  C   UNL     1       7.713   4.117 -11.570  1.00  0.00     0.014 A 
ATOM     37  C   UNL     1       7.538   4.290 -14.358  1.00  0.00     0.010 A 
ATOM     38  C   UNL     1       8.211   5.234 -12.227  1.00  0.00     0.010 A 
ATOM     39  C   UNL     1       8.127   5.332 -13.625  1.00  0.00    -0.014 A 
BRANCH  39  40
ATOM     40  C   UNL     1       8.675   6.545 -14.281  1.00  0.00     0.031 A 
ATOM     41  C   UNL     1      10.144   6.841 -14.170  1.00  0.00     0.074 A 
ATOM     42  C   UNL     1       7.840   7.436 -14.849  1.00  0.00     0.049 A 
ATOM     43  N   UNL     1      10.796   7.921 -14.509  1.00  0.00    -0.248 NA
ATOM     44  C   UNL     1      10.985   5.796 -13.562  1.00  0.00     0.031 C 
ATOM     45  C   UNL     1       6.386   7.289 -14.956  1.00  0.00     0.029 A 
ATOM     46  N   UNL     1       8.090   8.665 -15.407  1.00  0.00    -0.354 N 
ATOM     47  C   UNL     1      12.109   7.710 -14.105  1.00  0.00     0.074 A 
ATOM     48  C   UNL     1      12.157   6.407 -13.479  1.00  0.00     0.031 C 
ATOM     49  C   UNL     1       5.874   8.389 -15.533  1.00  0.00     0.029 A 
ATOM     50  C   UNL     1       6.955   9.330 -15.810  1.00  0.00     0.049 A 
ATOM     51  H   UNL     1       8.997   9.036 -15.509  1.00  0.00     0.167 HD
ATOM     52  C   UNL     1      13.183   8.518 -14.265  1.00  0.00     0.034 A 
ATOM     53  C   UNL     1       6.804  10.563 -16.331  1.00  0.00     0.034 A 
ATOM     54  C   UNL     1      13.141   9.780 -14.950  1.00  0.00     0.049 A 
ATOM     55  C   UNL     1       8.027  11.411 -16.565  1.00  0.00     0.074 A 
ATOM     56  C   UNL     1      14.187  10.638 -15.238  1.00  0.00     0.029 A 
ATOM     57  N   UNL     1      11.992  10.360 -15.464  1.00  0.00    -0.354 N 
ATOM     58  N   UNL     1       9.281  11.138 -16.300  1.00  0.00    -0.248 NA
ATOM     59  C   UNL     1       7.819  12.720 -17.201  1.00  0.00     0.031 C 
ATOM     60  C   UNL     1      13.670  11.737 -15.931  1.00  0.00     0.029 A 
ATOM     61  C   UNL     1      12.303  11.559 -16.079  1.00  0.00     0.049 A 
ATOM     62  H   UNL     1      11.088   9.976 -15.400  1.00  0.00     0.167 HD
ATOM     63  C   UNL     1      10.016  12.218 -16.775  1.00  0.00     0.074 A 
ATOM     64  C   UNL     1       9.067  13.147 -17.354  1.00  0.00     0.031 C 
ATOM     65  C   UNL     1      11.353  12.430 -16.722  1.00  0.00     0.034 A 
BRANCH  52  66
ATOM     66  C   UNL     1      14.507   8.027 -13.746  1.00  0.00     0.023 A 
ATOM     67  C   UNL     1      15.175   6.992 -14.430  1.00  0.00     0.012 A 
ATOM     68  C   UNL     1      15.110   8.612 -12.616  1.00  0.00     0.148 A 
ATOM     69  C   UNL     1      16.407   6.521 -13.979  1.00  0.00     0.002 A 
ATOM     70  C   UNL     1      16.358   8.165 -12.196  1.00  0.00     0.091 A 
ATOM     71  F   UNL     1      14.448   9.577 -11.962  1.00  0.00    -0.205 F 
ATOM     72  C   UNL     1      17.003   7.115 -12.869  1.00  0.00     0.022 A 
BRANCH  70  73
ATOM     73  S   UNL     1      17.237   8.919 -10.822  1.00  0.00     0.127 S 
ATOM     74  O   UNL     1      17.032   7.931  -9.764  1.00  0.00    -0.237 OA
ATOM     75  O   UNL     1      18.607   8.992 -11.330  1.00  0.00    -0.237 OA
ATOM     76  O   UNL     1      16.603  10.213 -10.608  1.00  0.00    -0.744 OA
ENDBRANCH  70  73
ENDBRANCH  52  66
BRANCH  53  77
ATOM     77  C   UNL     1       5.453  11.036 -16.747  1.00  0.00     0.023 A 
ATOM     78  C   UNL     1       5.157  11.135 -18.120  1.00  0.00     0.012 A 
ATOM     79  C   UNL     1       4.455  11.350 -15.805  1.00  0.00     0.148 A 
ATOM     80  C   UNL     1       3.901  11.566 -18.549  1.00  0.00     0.002 A 
ATOM     81  C   UNL     1       3.189  11.730 -16.240  1.00  0.00     0.091 A 
ATOM     82  F   UNL     1       4.758  11.263 -14.502  1.00  0.00    -0.205 F 
ATOM     83  C   UNL     1       2.915  11.853 -17.610  1.00  0.00     0.022 A 
BRANCH  81  84
ATOM     84  S   UNL     1       1.824  11.994 -15.101  1.00  0.00     0.127 S 
ATOM     85  O   UNL     1       1.724  13.450 -15.085  1.00  0.00    -0.237 OA
ATOM     86  O   UNL     1       0.723  11.308 -15.780  1.00  0.00    -0.237 OA
ATOM     87  O   UNL     1       2.236  11.367 -13.852  1.00  0.00    -0.744 OA
ENDBRANCH  81  84
ENDBRANCH  53  77
BRANCH  65  88
ATOM     88  C   UNL     1      11.893  13.685 -17.352  1.00  0.00     0.023 A 
ATOM     89  C   UNL     1      11.752  14.916 -16.685  1.00  0.00     0.012 A 
ATOM     90  C   UNL     1      12.634  13.623 -18.549  1.00  0.00     0.148 A 
ATOM     91  C   UNL     1      12.328  16.073 -17.209  1.00  0.00     0.002 A 
ATOM     92  C   UNL     1      13.240  14.771 -19.043  1.00  0.00     0.091 A 
ATOM     93  F   UNL     1      12.736  12.442 -19.177  1.00  0.00    -0.205 F 
ATOM     94  C   UNL     1      13.082  15.998 -18.378  1.00  0.00     0.022 A 
BRANCH  92  95
ATOM     95  S   UNL     1      14.305  14.746 -20.489  1.00  0.00     0.127 S 
ATOM     96  O   UNL     1      13.444  15.351 -21.504  1.00  0.00    -0.237 OA
ATOM     97  O   UNL     1      15.429  15.582 -20.065  1.00  0.00    -0.237 OA
ATOM     98  O   UNL     1      14.646  13.347 -20.709  1.00  0.00    -0.744 OA
ENDBRANCH  92  95
ENDBRANCH  65  88
ENDBRANCH  39  40
ENDBRANCH  31  34
ENDBRANCH  29  30
ENDBRANCH   1  29
TORSDOF 18
