REMARK SMILES O=C(Nc1c(F)cc(F)cc1F)N[C@H]1C=C[C@@H](C(=O)NCCCCNC(=O)c2ccc(-c3c4nc(c(-c5cccc(S(=O)(=O)[O-])c5F)c5ccc([nH]5)c(-c5cccc(S(=O)(=O)[O-])c5F)c5nc(c(-c6cccc(S(=O)(=O)[O-])c6F)c6ccc3[nH]6)C=C5)C=C4)cc2)C1
REMARK SMILES IDX 23 1 22 2 21 3 20 4 18 5 19 6 17 8 14 9 15 10 91 11 16 12
REMARK SMILES IDX 13 13 1 14 2 15 3 16 4 19 5 20 11 21 6 22 7 23 10 24 12 25
REMARK SMILES IDX 8 26 9 27 24 28 25 29 26 30 27 32 28 33 29 34 90 35 30 36
REMARK SMILES IDX 89 37 31 38 32 39 33 40 83 41 34 42 88 43 82 44 84 45 35 46
REMARK SMILES IDX 87 47 81 48 80 49 36 51 68 52 48 53 67 54 49 55 52 56 66 57
REMARK SMILES IDX 85 58 50 59 51 60 65 62 86 63 53 64 37 65 38 66 46 67 39 68
REMARK SMILES IDX 41 69 47 70 40 71 42 72 43 73 44 74 45 75 69 76 70 77 78 78
REMARK SMILES IDX 71 79 73 80 79 81 72 82 74 83 75 84 76 85 77 86 54 87 55 88
REMARK SMILES IDX 63 89 56 90 58 91 64 92 57 93 59 94 60 95 61 96 62 97
REMARK H PARENT 20 7 3 17 13 18 25 31 84 50 52 61
REMARK Flexibility Score: inf
ROOT
ATOM      1  C   UNL     1       7.082   3.751   1.314  1.00  0.00     0.023 C 
ENDROOT
BRANCH   1   2
ATOM      2  C   UNL     1       5.855   2.850   1.460  1.00  0.00     0.023 C 
BRANCH   2   3
ATOM      3  C   UNL     1       5.533   2.432   2.892  1.00  0.00     0.116 C 
BRANCH   3   4
ATOM      4  N   UNL     1       5.015   3.533   3.675  1.00  0.00    -0.356 N 
ATOM      5  C   UNL     1       3.784   3.734   4.218  1.00  0.00     0.227 C 
ATOM      6  O   UNL     1       3.627   4.755   4.895  1.00  0.00    -0.274 OA
ATOM      7  H   UNL     1       5.661   4.256   3.843  1.00  0.00     0.163 HD
BRANCH   5   8
ATOM      8  C   UNL     1       2.619   2.753   4.040  1.00  0.00     0.103 C 
ATOM      9  C   UNL     1       1.992   0.965   2.466  1.00  0.00     0.107 C 
ATOM     10  C   UNL     1       2.532   0.425   3.751  1.00  0.00    -0.006 C 
ATOM     11  C   UNL     1       2.185   2.488   2.593  1.00  0.00     0.047 C 
ATOM     12  C   UNL     1       2.881   1.391   4.606  1.00  0.00    -0.016 C 
BRANCH   9  13
ATOM     13  N   UNL     1       2.767   0.412   1.382  1.00  0.00    -0.332 N 
ATOM     14  O   UNL     1       1.057   0.350  -0.103  1.00  0.00    -0.248 OA
ATOM     15  C   UNL     1       2.252   0.205   0.149  1.00  0.00     0.319 C 
ATOM     16  N   UNL     1       3.102  -0.060  -0.875  1.00  0.00    -0.303 N 
ATOM     17  H   UNL     1       2.650  -0.074  -1.750  1.00  0.00     0.172 HD
ATOM     18  H   UNL     1       3.708   0.177   1.547  1.00  0.00     0.165 HD
BRANCH  16  19
ATOM     19  C   UNL     1       4.486  -0.320  -0.976  1.00  0.00     0.115 A 
ATOM     20  C   UNL     1       5.327  -0.777   0.043  1.00  0.00     0.152 A 
ATOM     21  C   UNL     1       5.060  -0.116  -2.240  1.00  0.00     0.152 A 
ATOM     22  F   UNL     1       4.852  -1.046   1.267  1.00  0.00    -0.204 F 
ATOM     23  C   UNL     1       6.686  -0.996  -0.180  1.00  0.00     0.081 A 
ATOM     24  C   UNL     1       6.416  -0.307  -2.477  1.00  0.00     0.081 A 
ATOM     25  F   UNL     1       4.286   0.304  -3.254  1.00  0.00    -0.204 F 
ATOM     26  C   UNL     1       7.218  -0.751  -1.438  1.00  0.00     0.129 A 
ATOM     27  F   UNL     1       8.518  -0.965  -1.663  1.00  0.00    -0.207 F 
ENDBRANCH  16  19
ENDBRANCH   9  13
ENDBRANCH   5   8
ENDBRANCH   3   4
ENDBRANCH   2   3
ENDBRANCH   1   2
BRANCH   1  28
ATOM     28  C   UNL     1       8.371   3.203   1.916  1.00  0.00     0.116 C 
BRANCH  28  29
ATOM     29  N   UNL     1       8.714   1.873   1.431  1.00  0.00    -0.352 N 
ATOM     30  C   UNL     1       9.947   1.379   1.080  1.00  0.00     0.251 C 
ATOM     31  H   UNL     1       7.962   1.244   1.343  1.00  0.00     0.163 HD
ATOM     32  O   UNL     1      10.051   0.241   0.631  1.00  0.00    -0.269 OA
BRANCH  30  33
ATOM     33  C   UNL     1      11.137   2.237   1.236  1.00  0.00     0.039 A 
ATOM     34  C   UNL     1      11.994   2.425   0.149  1.00  0.00     0.014 A 
ATOM     35  C   UNL     1      11.374   2.886   2.450  1.00  0.00     0.014 A 
ATOM     36  C   UNL     1      13.062   3.317   0.264  1.00  0.00     0.010 A 
ATOM     37  C   UNL     1      12.392   3.828   2.536  1.00  0.00     0.010 A 
ATOM     38  C   UNL     1      13.251   4.047   1.449  1.00  0.00    -0.014 A 
BRANCH  38  39
ATOM     39  C   UNL     1      14.343   5.042   1.587  1.00  0.00     0.031 A 
ATOM     40  C   UNL     1      15.427   4.827   2.608  1.00  0.00     0.074 A 
ATOM     41  C   UNL     1      14.304   6.183   0.871  1.00  0.00     0.049 A 
ATOM     42  N   UNL     1      16.418   5.612   2.938  1.00  0.00    -0.248 NA
ATOM     43  C   UNL     1      15.367   3.576   3.382  1.00  0.00     0.031 C 
ATOM     44  C   UNL     1      13.266   6.538  -0.098  1.00  0.00     0.029 A 
ATOM     45  N   UNL     1      15.146   7.266   0.869  1.00  0.00    -0.354 N 
ATOM     46  C   UNL     1      17.075   4.971   3.983  1.00  0.00     0.074 A 
ATOM     47  C   UNL     1      16.343   3.755   4.259  1.00  0.00     0.031 C 
ATOM     48  C   UNL     1      13.541   7.748  -0.611  1.00  0.00     0.029 A 
ATOM     49  C   UNL     1      14.753   8.268   0.014  1.00  0.00     0.049 A 
ATOM     50  H   UNL     1      15.956   7.320   1.427  1.00  0.00     0.167 HD
ATOM     51  C   UNL     1      18.203   5.343   4.633  1.00  0.00     0.034 A 
ATOM     52  C   UNL     1      15.309   9.469  -0.238  1.00  0.00     0.034 A 
ATOM     53  C   UNL     1      18.949   6.534   4.326  1.00  0.00     0.049 A 
ATOM     54  C   UNL     1      16.577   9.851   0.477  1.00  0.00     0.074 A 
ATOM     55  C   UNL     1      20.149   6.962   4.862  1.00  0.00     0.029 A 
ATOM     56  N   UNL     1      18.559   7.492   3.402  1.00  0.00    -0.354 N 
ATOM     57  N   UNL     1      17.268   9.165   1.355  1.00  0.00    -0.248 NA
ATOM     58  C   UNL     1      17.159  11.158   0.142  1.00  0.00     0.031 C 
ATOM     59  C   UNL     1      20.475   8.191   4.277  1.00  0.00     0.029 A 
ATOM     60  C   UNL     1      19.490   8.516   3.358  1.00  0.00     0.049 A 
ATOM     61  H   UNL     1      17.740   7.450   2.857  1.00  0.00     0.167 HD
ATOM     62  C   UNL     1      18.386   9.937   1.648  1.00  0.00     0.074 A 
ATOM     63  C   UNL     1      18.285  11.138   0.843  1.00  0.00     0.031 C 
ATOM     64  C   UNL     1      19.399   9.681   2.514  1.00  0.00     0.034 A 
BRANCH  51  65
ATOM     65  C   UNL     1      18.719   4.417   5.705  1.00  0.00     0.023 A 
ATOM     66  C   UNL     1      19.249   3.161   5.343  1.00  0.00     0.012 A 
ATOM     67  C   UNL     1      18.691   4.786   7.064  1.00  0.00     0.148 A 
ATOM     68  C   UNL     1      19.691   2.266   6.316  1.00  0.00     0.002 A 
ATOM     69  C   UNL     1      19.179   3.907   8.025  1.00  0.00     0.091 A 
ATOM     70  F   UNL     1      18.163   5.972   7.397  1.00  0.00    -0.205 F 
ATOM     71  C   UNL     1      19.664   2.642   7.655  1.00  0.00     0.022 A 
BRANCH  69  72
ATOM     72  S   UNL     1      19.258   4.336   9.768  1.00  0.00     0.127 S 
ATOM     73  O   UNL     1      18.118   3.596  10.306  1.00  0.00    -0.237 OA
ATOM     74  O   UNL     1      20.566   3.809  10.159  1.00  0.00    -0.237 OA
ATOM     75  O   UNL     1      19.153   5.787   9.822  1.00  0.00    -0.744 OA
ENDBRANCH  69  72
ENDBRANCH  51  65
BRANCH  52  76
ATOM     76  C   UNL     1      14.720  10.352  -1.284  1.00  0.00     0.023 A 
ATOM     77  C   UNL     1      15.403  10.511  -2.505  1.00  0.00     0.012 A 
ATOM     78  C   UNL     1      13.476  10.987  -1.105  1.00  0.00     0.148 A 
ATOM     79  C   UNL     1      14.871  11.304  -3.522  1.00  0.00     0.002 A 
ATOM     80  C   UNL     1      12.926  11.734  -2.141  1.00  0.00     0.091 A 
ATOM     81  F   UNL     1      12.844  10.826   0.067  1.00  0.00    -0.205 F 
ATOM     82  C   UNL     1      13.629  11.907  -3.344  1.00  0.00     0.022 A 
BRANCH  80  83
ATOM     83  S   UNL     1      11.278  12.444  -2.057  1.00  0.00     0.127 S 
ATOM     84  O   UNL     1      11.567  13.876  -2.077  1.00  0.00    -0.237 OA
ATOM     85  O   UNL     1      10.665  11.921  -3.278  1.00  0.00    -0.237 OA
ATOM     86  O   UNL     1      10.692  11.937  -0.823  1.00  0.00    -0.744 OA
ENDBRANCH  80  83
ENDBRANCH  52  76
BRANCH  64  87
ATOM     87  C   UNL     1      20.504  10.700   2.615  1.00  0.00     0.023 A 
ATOM     88  C   UNL     1      20.270  11.927   3.268  1.00  0.00     0.012 A 
ATOM     89  C   UNL     1      21.795  10.410   2.131  1.00  0.00     0.148 A 
ATOM     90  C   UNL     1      21.296  12.860   3.411  1.00  0.00     0.002 A 
ATOM     91  C   UNL     1      22.824  11.324   2.320  1.00  0.00     0.091 A 
ATOM     92  F   UNL     1      21.993   9.246   1.495  1.00  0.00    -0.205 F 
ATOM     93  C   UNL     1      22.574  12.555   2.949  1.00  0.00     0.022 A 
BRANCH  91  94
ATOM     94  S   UNL     1      24.521  10.974   1.846  1.00  0.00     0.127 S 
ATOM     95  O   UNL     1      24.687  11.833   0.675  1.00  0.00    -0.237 OA
ATOM     96  O   UNL     1      25.270  11.404   3.028  1.00  0.00    -0.237 OA
ATOM     97  O   UNL     1      24.577   9.542   1.585  1.00  0.00    -0.744 OA
ENDBRANCH  91  94
ENDBRANCH  64  87
ENDBRANCH  38  39
ENDBRANCH  30  33
ENDBRANCH  28  29
ENDBRANCH   1  28
TORSDOF 16
