REMARK SMILES CCc1cccc(C)c1Nc1ccccc1CC(=O)NCCCCNC(=O)c1ccc(-c2c3nc(c(-c4cccc(S(=O)(=O)[O-])c4F)c4ccc([nH]4)c(-c4cccc(S(=O)(=O)[O-])c4F)c4nc(c(-c5cccc(S(=O)(=O)[O-])c5F)c5ccc2[nH]5)C=C4)C=C3)cc1
REMARK SMILES IDX 22 1 21 2 20 3 18 4 19 5 17 7 16 8 11 9 12 10 13 11 15 12
REMARK SMILES IDX 14 13 10 14 9 16 3 17 4 18 5 19 7 20 6 21 8 22 2 23 1 24
REMARK SMILES IDX 23 25 24 26 25 27 26 28 27 30 28 31 29 32 90 33 30 34 89 35
REMARK SMILES IDX 31 36 32 37 33 38 83 39 34 40 88 41 82 42 84 43 35 44 87 45
REMARK SMILES IDX 81 46 80 47 36 49 68 50 48 51 67 52 49 53 52 54 66 55 85 56
REMARK SMILES IDX 50 57 51 58 65 60 86 61 53 62 37 63 38 64 46 65 39 66 41 67
REMARK SMILES IDX 47 68 40 69 42 70 43 71 44 72 45 73 69 74 70 75 78 76 71 77
REMARK SMILES IDX 73 78 79 79 72 80 74 81 75 82 76 83 77 84 54 85 55 86 63 87
REMARK SMILES IDX 56 88 58 89 64 90 57 91 59 92 60 93 61 94 62 95
REMARK H PARENT 20 6 10 15 25 29 84 48 52 59
REMARK Flexibility Score: inf
ROOT
ATOM      1  C   UNL     1       2.808   6.667   2.285  1.00  0.00     0.023 C 
ENDROOT
BRANCH   1   2
ATOM      2  C   UNL     1       1.276   6.743   2.317  1.00  0.00     0.116 C 
BRANCH   2   3
ATOM      3  N   UNL     1       0.596   5.933   1.319  1.00  0.00    -0.356 N 
ATOM      4  C   UNL     1      -0.017   4.718   1.385  1.00  0.00     0.224 C 
ATOM      5  O   UNL     1      -0.763   4.413   0.448  1.00  0.00    -0.275 OA
ATOM      6  H   UNL     1       0.575   6.341   0.424  1.00  0.00     0.163 HD
BRANCH   4   7
ATOM      7  C   UNL     1       0.071   3.828   2.605  1.00  0.00     0.137 C 
BRANCH   7   8
ATOM      8  C   UNL     1       1.427   3.277   2.993  1.00  0.00    -0.015 A 
ATOM      9  C   UNL     1       2.087   2.227   2.317  1.00  0.00     0.042 A 
ATOM     10  C   UNL     1       3.306   1.747   2.837  1.00  0.00     0.026 A 
ATOM     11  C   UNL     1       3.888   2.305   3.974  1.00  0.00     0.002 A 
ATOM     12  C   UNL     1       2.009   3.790   4.175  1.00  0.00     0.006 A 
ATOM     13  C   UNL     1       3.236   3.327   4.647  1.00  0.00     0.000 A 
BRANCH   9  14
ATOM     14  N   UNL     1       1.611   1.603   1.144  1.00  0.00    -0.355 N 
ATOM     15  H   UNL     1       1.279   0.686   1.278  1.00  0.00     0.167 HD
BRANCH  14  16
ATOM     16  C   UNL     1       1.525   2.063  -0.192  1.00  0.00     0.045 A 
ATOM     17  C   UNL     1       0.604   1.496  -1.105  1.00  0.00    -0.024 A 
ATOM     18  C   UNL     1       0.257   2.234  -2.264  1.00  0.00     0.006 A 
ATOM     19  C   UNL     1       0.860   3.446  -2.572  1.00  0.00     0.001 A 
ATOM     20  C   UNL     1       2.283   3.176  -0.633  1.00  0.00    -0.027 A 
ATOM     21  C   UNL     1       1.908   3.889  -1.785  1.00  0.00     0.005 A 
ATOM     22  C   UNL     1       3.583   3.547   0.025  1.00  0.00     0.046 C 
BRANCH  17  23
ATOM     23  C   UNL     1      -0.066   0.135  -1.030  1.00  0.00     0.034 C 
ATOM     24  C   UNL     1       0.455  -0.939  -0.087  1.00  0.00     0.009 C 
ENDBRANCH  17  23
ENDBRANCH  14  16
ENDBRANCH   9  14
ENDBRANCH   7   8
ENDBRANCH   4   7
ENDBRANCH   2   3
ENDBRANCH   1   2
BRANCH   1  25
ATOM     25  C   UNL     1       3.449   6.704   0.902  1.00  0.00     0.023 C 
BRANCH  25  26
ATOM     26  C   UNL     1       3.464   8.054   0.213  1.00  0.00     0.116 C 
BRANCH  26  27
ATOM     27  N   UNL     1       4.821   8.550  -0.017  1.00  0.00    -0.352 N 
ATOM     28  C   UNL     1       5.230   9.606  -0.814  1.00  0.00     0.251 C 
ATOM     29  H   UNL     1       5.537   8.070   0.458  1.00  0.00     0.163 HD
ATOM     30  O   UNL     1       6.423   9.851  -0.964  1.00  0.00    -0.269 OA
BRANCH  28  31
ATOM     31  C   UNL     1       4.183  10.493  -1.361  1.00  0.00     0.039 A 
ATOM     32  C   UNL     1       4.110  11.778  -0.817  1.00  0.00     0.014 A 
ATOM     33  C   UNL     1       3.097   9.925  -2.023  1.00  0.00     0.014 A 
ATOM     34  C   UNL     1       2.865  12.373  -0.666  1.00  0.00     0.010 A 
ATOM     35  C   UNL     1       1.852  10.467  -1.788  1.00  0.00     0.010 A 
ATOM     36  C   UNL     1       1.738  11.644  -1.034  1.00  0.00    -0.014 A 
BRANCH  36  37
ATOM     37  C   UNL     1       0.384  12.005  -0.649  1.00  0.00     0.031 A 
ATOM     38  C   UNL     1      -0.440  12.782  -1.588  1.00  0.00     0.074 A 
ATOM     39  C   UNL     1      -0.131  11.535   0.508  1.00  0.00     0.049 A 
ATOM     40  N   UNL     1      -1.530  13.393  -1.276  1.00  0.00    -0.248 NA
ATOM     41  C   UNL     1      -0.032  12.979  -2.971  1.00  0.00     0.031 C 
ATOM     42  C   UNL     1      -1.538  11.467   0.885  1.00  0.00     0.029 A 
ATOM     43  N   UNL     1       0.558  11.244   1.692  1.00  0.00    -0.354 N 
ATOM     44  C   UNL     1      -2.102  13.838  -2.450  1.00  0.00     0.074 A 
ATOM     45  C   UNL     1      -1.088  13.635  -3.455  1.00  0.00     0.031 C 
ATOM     46  C   UNL     1      -1.623  11.435   2.223  1.00  0.00     0.029 A 
ATOM     47  C   UNL     1      -0.284  11.666   2.738  1.00  0.00     0.049 A 
ATOM     48  H   UNL     1       1.448  10.830   1.775  1.00  0.00     0.167 HD
ATOM     49  C   UNL     1      -3.419  14.189  -2.446  1.00  0.00     0.034 A 
ATOM     50  C   UNL     1       0.055  12.617   3.657  1.00  0.00     0.034 A 
ATOM     51  C   UNL     1      -3.943  14.219  -1.073  1.00  0.00     0.049 A 
ATOM     52  C   UNL     1      -0.931  13.771   3.720  1.00  0.00     0.074 A 
ATOM     53  C   UNL     1      -4.640  13.299  -0.305  1.00  0.00     0.029 A 
ATOM     54  N   UNL     1      -3.507  15.208  -0.201  1.00  0.00    -0.354 N 
ATOM     55  N   UNL     1      -1.882  13.970   2.850  1.00  0.00    -0.248 NA
ATOM     56  C   UNL     1      -0.898  14.813   4.745  1.00  0.00     0.031 C 
ATOM     57  C   UNL     1      -4.530  13.694   1.056  1.00  0.00     0.029 A 
ATOM     58  C   UNL     1      -3.800  14.869   1.111  1.00  0.00     0.049 A 
ATOM     59  H   UNL     1      -3.051  16.037  -0.476  1.00  0.00     0.167 HD
ATOM     60  C   UNL     1      -2.485  15.178   3.088  1.00  0.00     0.074 A 
ATOM     61  C   UNL     1      -1.886  15.627   4.334  1.00  0.00     0.031 C 
ATOM     62  C   UNL     1      -3.371  15.734   2.205  1.00  0.00     0.034 A 
BRANCH  49  63
ATOM     63  C   UNL     1      -4.321  14.196  -3.675  1.00  0.00     0.023 A 
ATOM     64  C   UNL     1      -5.713  14.085  -3.452  1.00  0.00     0.012 A 
ATOM     65  C   UNL     1      -3.921  14.201  -5.031  1.00  0.00     0.148 A 
ATOM     66  C   UNL     1      -6.631  13.880  -4.489  1.00  0.00     0.002 A 
ATOM     67  C   UNL     1      -4.824  13.931  -6.065  1.00  0.00     0.091 A 
ATOM     68  F   UNL     1      -2.680  14.555  -5.361  1.00  0.00    -0.205 F 
ATOM     69  C   UNL     1      -6.182  13.764  -5.796  1.00  0.00     0.022 A 
BRANCH  67  70
ATOM     70  S   UNL     1      -4.293  13.707  -7.774  1.00  0.00     0.127 S 
ATOM     71  O   UNL     1      -4.890  12.413  -8.114  1.00  0.00    -0.237 OA
ATOM     72  O   UNL     1      -4.903  14.853  -8.444  1.00  0.00    -0.237 OA
ATOM     73  O   UNL     1      -2.835  13.700  -7.751  1.00  0.00    -0.744 OA
ENDBRANCH  67  70
ENDBRANCH  49  63
BRANCH  50  74
ATOM     74  C   UNL     1       1.524  12.729   3.895  1.00  0.00     0.023 A 
ATOM     75  C   UNL     1       2.180  11.585   4.410  1.00  0.00     0.012 A 
ATOM     76  C   UNL     1       2.292  13.732   3.279  1.00  0.00     0.148 A 
ATOM     77  C   UNL     1       3.541  11.376   4.184  1.00  0.00     0.002 A 
ATOM     78  C   UNL     1       3.653  13.519   3.065  1.00  0.00     0.091 A 
ATOM     79  F   UNL     1       1.676  14.838   2.843  1.00  0.00    -0.205 F 
ATOM     80  C   UNL     1       4.269  12.326   3.478  1.00  0.00     0.022 A 
BRANCH  78  81
ATOM     81  S   UNL     1       4.645  14.694   2.132  1.00  0.00     0.127 S 
ATOM     82  O   UNL     1       5.182  15.533   3.198  1.00  0.00    -0.237 OA
ATOM     83  O   UNL     1       5.625  13.829   1.475  1.00  0.00    -0.237 OA
ATOM     84  O   UNL     1       3.702  15.323   1.219  1.00  0.00    -0.744 OA
ENDBRANCH  78  81
ENDBRANCH  50  74
BRANCH  62  85
ATOM     85  C   UNL     1      -3.899  17.155   2.267  1.00  0.00     0.023 A 
ATOM     86  C   UNL     1      -3.193  18.193   2.905  1.00  0.00     0.012 A 
ATOM     87  C   UNL     1      -5.057  17.529   1.535  1.00  0.00     0.148 A 
ATOM     88  C   UNL     1      -3.636  19.521   2.871  1.00  0.00     0.002 A 
ATOM     89  C   UNL     1      -5.433  18.866   1.415  1.00  0.00     0.091 A 
ATOM     90  F   UNL     1      -5.816  16.585   0.959  1.00  0.00    -0.205 F 
ATOM     91  C   UNL     1      -4.743  19.862   2.106  1.00  0.00     0.022 A 
BRANCH  89  92
ATOM     92  S   UNL     1      -6.708  19.362   0.246  1.00  0.00     0.127 S 
ATOM     93  O   UNL     1      -7.915  19.306   1.067  1.00  0.00    -0.237 OA
ATOM     94  O   UNL     1      -6.290  20.715  -0.128  1.00  0.00    -0.237 OA
ATOM     95  O   UNL     1      -6.618  18.392  -0.838  1.00  0.00    -0.744 OA
ENDBRANCH  89  92
ENDBRANCH  62  85
ENDBRANCH  36  37
ENDBRANCH  28  31
ENDBRANCH  26  27
ENDBRANCH  25  26
ENDBRANCH   1  25
TORSDOF 18
