REMARK SMILES O=C(NCCCCNC(=O)c1cc(SCc2csc(-c3ccsc3)n2)ccn1)c1ccc(-c2c3nc(c(-c4cccc(S(=O)(=O)[O-])c4F)c4ccc([nH]4)c(-c4cccc(S(=O)(=O)[O-])c4F)c4nc(c(-c5cccc(S(=O)(=O)[O-])c5F)c5ccc2[nH]5)C=C4)C=C3)cc1
REMARK SMILES IDX 6 1 5 2 4 3 3 4 1 5 2 6 29 8 30 9 91 10 31 11 90 12 32 13
REMARK SMILES IDX 33 14 34 15 84 16 35 17 89 18 83 19 85 20 36 21 88 22 82 23
REMARK SMILES IDX 81 24 37 26 69 27 49 28 68 29 50 30 53 31 67 32 86 33 51 34
REMARK SMILES IDX 52 35 66 37 87 38 54 39 38 40 39 41 47 42 40 43 42 44 48 45
REMARK SMILES IDX 41 46 43 47 44 48 45 49 46 50 70 51 71 52 79 53 72 54 74 55
REMARK SMILES IDX 80 56 73 57 75 58 76 59 77 60 78 61 55 62 56 63 64 64 57 65
REMARK SMILES IDX 59 66 65 67 58 68 60 69 61 70 62 71 63 72 7 73 8 74 9 75
REMARK SMILES IDX 10 77 11 78 12 79 28 80 13 81 27 82 26 83 14 84 15 85 16 86
REMARK SMILES IDX 17 87 25 88 18 89 19 90 20 91 21 92 24 93 22 94 23 95
REMARK H PARENT 3 7 85 25 53 36 8 76
REMARK Flexibility Score: inf
ROOT
ATOM      1  C   UNL     1       4.869   1.810   3.653  1.00  0.00     0.023 C 
ENDROOT
BRANCH   1   2
ATOM      2  C   UNL     1       5.324   1.956   2.202  1.00  0.00     0.023 C 
BRANCH   2   3
ATOM      3  C   UNL     1       4.841   0.868   1.249  1.00  0.00     0.116 C 
BRANCH   3   4
ATOM      4  N   UNL     1       3.394   0.766   1.172  1.00  0.00    -0.352 N 
ATOM      5  O   UNL     1       1.379   0.646   0.184  1.00  0.00    -0.269 OA
ATOM      6  C   UNL     1       2.592   0.553   0.070  1.00  0.00     0.251 C 
ATOM      7  H   UNL     1       2.918   0.863   2.029  1.00  0.00     0.163 HD
BRANCH   6   8
ATOM      8  C   UNL     1       3.207   0.279  -1.253  1.00  0.00     0.039 A 
ATOM      9  C   UNL     1       4.318  -0.557  -1.390  1.00  0.00     0.014 A 
ATOM     10  C   UNL     1       2.666   0.906  -2.380  1.00  0.00     0.014 A 
ATOM     11  C   UNL     1       4.987  -0.628  -2.609  1.00  0.00     0.010 A 
ATOM     12  C   UNL     1       3.296   0.775  -3.620  1.00  0.00     0.010 A 
ATOM     13  C   UNL     1       4.494   0.052  -3.732  1.00  0.00    -0.014 A 
BRANCH  13  14
ATOM     14  C   UNL     1       5.237  -0.001  -5.016  1.00  0.00     0.031 A 
ATOM     15  C   UNL     1       5.878   1.238  -5.585  1.00  0.00     0.074 A 
ATOM     16  C   UNL     1       5.341  -1.175  -5.667  1.00  0.00     0.049 A 
ATOM     17  N   UNL     1       6.574   1.375  -6.684  1.00  0.00    -0.248 NA
ATOM     18  C   UNL     1       5.713   2.488  -4.824  1.00  0.00     0.031 C 
ATOM     19  C   UNL     1       4.741  -2.436  -5.227  1.00  0.00     0.029 A 
ATOM     20  N   UNL     1       5.979  -1.500  -6.837  1.00  0.00    -0.354 N 
ATOM     21  C   UNL     1       6.902   2.723  -6.766  1.00  0.00     0.074 A 
ATOM     22  C   UNL     1       6.318   3.369  -5.610  1.00  0.00     0.031 C 
ATOM     23  C   UNL     1       5.048  -3.400  -6.108  1.00  0.00     0.029 A 
ATOM     24  C   UNL     1       5.832  -2.820  -7.193  1.00  0.00     0.049 A 
ATOM     25  H   UNL     1       6.493  -0.851  -7.369  1.00  0.00     0.167 HD
ATOM     26  C   UNL     1       7.638   3.362  -7.706  1.00  0.00     0.034 A 
ATOM     27  C   UNL     1       6.271  -3.487  -8.278  1.00  0.00     0.034 A 
ATOM     28  C   UNL     1       8.247   2.710  -8.835  1.00  0.00     0.049 A 
ATOM     29  C   UNL     1       7.094  -2.754  -9.300  1.00  0.00     0.074 A 
ATOM     30  C   UNL     1       9.055   3.261  -9.816  1.00  0.00     0.029 A 
ATOM     31  N   UNL     1       8.114   1.363  -9.138  1.00  0.00    -0.354 N 
ATOM     32  N   UNL     1       7.495  -1.506  -9.295  1.00  0.00    -0.248 NA
ATOM     33  C   UNL     1       7.552  -3.528 -10.463  1.00  0.00     0.031 C 
ATOM     34  C   UNL     1       9.398   2.249 -10.719  1.00  0.00     0.029 A 
ATOM     35  C   UNL     1       8.817   1.065 -10.293  1.00  0.00     0.049 A 
ATOM     36  H   UNL     1       7.596   0.715  -8.609  1.00  0.00     0.167 HD
ATOM     37  C   UNL     1       8.271  -1.350 -10.437  1.00  0.00     0.074 A 
ATOM     38  C   UNL     1       8.306  -2.640 -11.096  1.00  0.00     0.031 C 
ATOM     39  C   UNL     1       8.884  -0.236 -10.908  1.00  0.00     0.034 A 
BRANCH  26  40
ATOM     40  C   UNL     1       7.870   4.841  -7.533  1.00  0.00     0.023 A 
ATOM     41  C   UNL     1       8.786   5.289  -6.560  1.00  0.00     0.012 A 
ATOM     42  C   UNL     1       7.237   5.782  -8.370  1.00  0.00     0.148 A 
ATOM     43  C   UNL     1       9.050   6.650  -6.404  1.00  0.00     0.002 A 
ATOM     44  C   UNL     1       7.531   7.134  -8.232  1.00  0.00     0.091 A 
ATOM     45  F   UNL     1       6.352   5.339  -9.275  1.00  0.00    -0.205 F 
ATOM     46  C   UNL     1       8.431   7.570  -7.245  1.00  0.00     0.022 A 
BRANCH  44  47
ATOM     47  S   UNL     1       6.836   8.390  -9.313  1.00  0.00     0.127 S 
ATOM     48  O   UNL     1       5.864   9.033  -8.430  1.00  0.00    -0.237 OA
ATOM     49  O   UNL     1       8.006   9.210  -9.629  1.00  0.00    -0.237 OA
ATOM     50  O   UNL     1       6.275   7.673 -10.449  1.00  0.00    -0.744 OA
ENDBRANCH  44  47
ENDBRANCH  26  40
BRANCH  27  51
ATOM     51  C   UNL     1       5.981  -4.941  -8.416  1.00  0.00     0.023 A 
ATOM     52  C   UNL     1       7.031  -5.870  -8.284  1.00  0.00     0.012 A 
ATOM     53  C   UNL     1       4.670  -5.411  -8.625  1.00  0.00     0.148 A 
ATOM     54  C   UNL     1       6.783  -7.240  -8.378  1.00  0.00     0.002 A 
ATOM     55  C   UNL     1       4.421  -6.778  -8.661  1.00  0.00     0.091 A 
ATOM     56  F   UNL     1       3.687  -4.511  -8.768  1.00  0.00    -0.205 F 
ATOM     57  C   UNL     1       5.478  -7.694  -8.553  1.00  0.00     0.022 A 
BRANCH  55  58
ATOM     58  S   UNL     1       2.754  -7.443  -8.742  1.00  0.00     0.127 S 
ATOM     59  O   UNL     1       2.670  -7.873 -10.135  1.00  0.00    -0.237 OA
ATOM     60  O   UNL     1       2.810  -8.531  -7.763  1.00  0.00    -0.237 OA
ATOM     61  O   UNL     1       1.880  -6.343  -8.359  1.00  0.00    -0.744 OA
ENDBRANCH  55  58
ENDBRANCH  27  51
BRANCH  39  62
ATOM     62  C   UNL     1       9.661  -0.361 -12.190  1.00  0.00     0.023 A 
ATOM     63  C   UNL     1       8.970  -0.465 -13.414  1.00  0.00     0.012 A 
ATOM     64  C   UNL     1      11.069  -0.305 -12.191  1.00  0.00     0.148 A 
ATOM     65  C   UNL     1       9.669  -0.538 -14.617  1.00  0.00     0.002 A 
ATOM     66  C   UNL     1      11.757  -0.335 -13.399  1.00  0.00     0.091 A 
ATOM     67  F   UNL     1      11.708  -0.229 -11.015  1.00  0.00    -0.205 F 
ATOM     68  C   UNL     1      11.060  -0.461 -14.611  1.00  0.00     0.022 A 
BRANCH  66  69
ATOM     69  S   UNL     1      13.542  -0.151 -13.487  1.00  0.00     0.127 S 
ATOM     70  O   UNL     1      13.972  -1.526 -13.736  1.00  0.00    -0.237 OA
ATOM     71  O   UNL     1      13.708   0.755 -14.625  1.00  0.00    -0.237 OA
ATOM     72  O   UNL     1      13.947   0.413 -12.207  1.00  0.00    -0.744 OA
ENDBRANCH  66  69
ENDBRANCH  39  62
ENDBRANCH  13  14
ENDBRANCH   6   8
ENDBRANCH   3   4
ENDBRANCH   2   3
ENDBRANCH   1   2
BRANCH   1  73
ATOM     73  C   UNL     1       5.201   0.471   4.302  1.00  0.00     0.116 C 
BRANCH  73  74
ATOM     74  N   UNL     1       6.632   0.260   4.457  1.00  0.00    -0.351 N 
ATOM     75  C   UNL     1       7.362   0.111   5.619  1.00  0.00     0.269 C 
ATOM     76  H   UNL     1       7.150   0.216   3.620  1.00  0.00     0.163 HD
ATOM     77  O   UNL     1       8.583  -0.002   5.574  1.00  0.00    -0.268 OA
BRANCH  75  78
ATOM     78  C   UNL     1       6.643   0.060   6.920  1.00  0.00     0.129 A 
ATOM     79  C   UNL     1       5.692  -0.933   7.125  1.00  0.00     0.049 A 
ATOM     80  N   UNL     1       6.916   1.050   7.804  1.00  0.00    -0.251 NA
ATOM     81  C   UNL     1       4.907  -0.863   8.268  1.00  0.00     0.011 A 
ATOM     82  C   UNL     1       6.189   1.055   8.934  1.00  0.00     0.113 A 
ATOM     83  C   UNL     1       5.179   0.143   9.200  1.00  0.00     0.035 A 
BRANCH  81  84
ATOM     84  S   UNL     1       3.541  -1.953   8.632  1.00  0.00    -0.120 SA
BRANCH  84  85
ATOM     85  C   UNL     1       3.249  -2.853   7.074  1.00  0.00     0.132 C 
BRANCH  85  86
ATOM     86  C   UNL     1       2.631  -2.067   5.954  1.00  0.00     0.062 A 
ATOM     87  C   UNL     1       1.778  -0.980   6.020  1.00  0.00     0.091 A 
ATOM     88  N   UNL     1       2.851  -2.530   4.660  1.00  0.00    -0.240 NA
ATOM     89  S   UNL     1       1.114  -0.653   4.472  1.00  0.00    -0.122 S 
ATOM     90  C   UNL     1       2.022  -1.952   3.812  1.00  0.00     0.124 A 
BRANCH  90  91
ATOM     91  C   UNL     1       1.877  -2.444   2.401  1.00  0.00     0.021 A 
ATOM     92  C   UNL     1       0.788  -2.175   1.517  1.00  0.00     0.023 A 
ATOM     93  C   UNL     1       2.810  -3.276   1.817  1.00  0.00     0.076 A 
ATOM     94  C   UNL     1       0.924  -2.826   0.309  1.00  0.00     0.065 A 
ATOM     95  S   UNL     1       2.378  -3.721   0.222  1.00  0.00    -0.152 S 
ENDBRANCH  90  91
ENDBRANCH  85  86
ENDBRANCH  84  85
ENDBRANCH  81  84
ENDBRANCH  75  78
ENDBRANCH  73  74
ENDBRANCH   1  73
TORSDOF 18
