REMARK SMILES CCC[NH2+]CC(=O)N1[C@@H](C(=O)NCCCCNC(=O)c2ccc(-c3c4nc(c(-c5cccc(S(=O)(=O)[O-])c5F)c5ccc([nH]5)c(-c5cccc(S(=O)(=O)[O-])c5F)c5nc(c(-c6cccc(S(=O)(=O)[O-])c6F)c6ccc3[nH]6)C=C5)C=C4)cc2)CC[C@@H]2CCCC[C@@H]21
REMARK SMILES IDX 13 1 12 2 10 3 11 4 9 6 8 7 90 8 83 9 85 10 89 11 84 12
REMARK SMILES IDX 86 13 88 14 87 15 6 16 7 17 5 18 4 19 3 22 2 23 1 24 14 25
REMARK SMILES IDX 15 26 16 27 17 28 18 29 19 31 20 32 21 33 82 34 22 35 81 36
REMARK SMILES IDX 23 37 24 38 25 39 75 40 26 41 80 42 74 43 76 44 27 45 79 46
REMARK SMILES IDX 73 47 72 48 28 50 60 51 40 52 59 53 41 54 44 55 58 56 77 57
REMARK SMILES IDX 42 58 43 59 57 61 78 62 45 63 29 64 30 65 38 66 31 67 33 68
REMARK SMILES IDX 39 69 32 70 34 71 35 72 36 73 37 74 61 75 62 76 70 77 63 78
REMARK SMILES IDX 65 79 71 80 64 81 66 82 67 83 68 84 69 85 46 86 47 87 55 88
REMARK SMILES IDX 48 89 50 90 56 91 49 92 51 93 52 94 53 95 54 96
REMARK H PARENT 12 5 4 20 4 21 17 30 76 49 44 60
REMARK Flexibility Score: inf
ROOT
ATOM      1  C   UNL     1       4.154  -1.934  -0.062  1.00  0.00     0.116 C 
ENDROOT
BRANCH   1   2
ATOM      2  N   UNL     1       3.036  -1.071  -0.392  1.00  0.00    -0.354 N 
ATOM      3  C   UNL     1       2.949  -0.219  -1.449  1.00  0.00     0.242 C 
ATOM      4  O   UNL     1       2.444   0.892  -1.270  1.00  0.00    -0.273 OA
ATOM      5  H   UNL     1       2.259  -1.106   0.211  1.00  0.00     0.163 HD
BRANCH   3   6
ATOM      6  C   UNL     1       3.563  -0.567  -2.807  1.00  0.00     0.175 C 
ATOM      7  N   UNL     1       3.684  -1.993  -3.182  1.00  0.00    -0.323 N 
ATOM      8  C   UNL     1       4.558  -2.296  -4.335  1.00  0.00     0.089 C 
ATOM      9  C   UNL     1       4.944   0.125  -2.737  1.00  0.00     0.036 C 
ATOM     10  C   UNL     1       5.931  -1.636  -4.203  1.00  0.00     0.012 C 
ATOM     11  C   UNL     1       3.839  -1.968  -5.666  1.00  0.00     0.025 C 
ATOM     12  C   UNL     1       5.806  -0.132  -3.951  1.00  0.00     0.008 C 
ATOM     13  C   UNL     1       6.759  -1.943  -5.448  1.00  0.00     0.006 C 
ATOM     14  C   UNL     1       4.665  -1.433  -6.844  1.00  0.00     0.002 C 
ATOM     15  C   UNL     1       6.178  -1.294  -6.691  1.00  0.00     0.000 C 
BRANCH   7  16
ATOM     16  C   UNL     1       2.780  -3.005  -2.847  1.00  0.00     0.278 C 
ATOM     17  O   UNL     1       3.214  -4.143  -2.623  1.00  0.00    -0.268 OA
BRANCH  16  18
ATOM     18  C   UNL     1       1.261  -2.791  -2.994  1.00  0.00     0.362 C 
BRANCH  18  19
ATOM     19  N   UNL     1       0.591  -2.076  -1.899  1.00  0.00    -0.338 N 
ATOM     20  H   UNL     1      -0.136  -2.677  -1.510  1.00  0.00     0.346 HD
ATOM     21  H   UNL     1       1.293  -1.845  -1.197  1.00  0.00     0.346 HD
BRANCH  19  22
ATOM     22  C   UNL     1      -0.021  -0.831  -2.353  1.00  0.00     0.260 C 
BRANCH  22  23
ATOM     23  C   UNL     1      -0.797  -0.020  -1.302  1.00  0.00     0.058 C 
ATOM     24  C   UNL     1      -0.302  -0.036   0.136  1.00  0.00     0.010 C 
ENDBRANCH  22  23
ENDBRANCH  19  22
ENDBRANCH  18  19
ENDBRANCH  16  18
ENDBRANCH   7  16
ENDBRANCH   3   6
ENDBRANCH   1   2
BRANCH   1  25
ATOM     25  C   UNL     1       4.977  -1.260   1.037  1.00  0.00     0.023 C 
BRANCH  25  26
ATOM     26  C   UNL     1       4.206  -1.061   2.348  1.00  0.00     0.023 C 
BRANCH  26  27
ATOM     27  C   UNL     1       3.567  -2.331   2.896  1.00  0.00     0.116 C 
BRANCH  27  28
ATOM     28  N   UNL     1       4.554  -3.383   3.090  1.00  0.00    -0.352 N 
ATOM     29  C   UNL     1       4.833  -4.093   4.227  1.00  0.00     0.251 C 
ATOM     30  H   UNL     1       5.093  -3.614   2.299  1.00  0.00     0.163 HD
ATOM     31  O   UNL     1       5.854  -4.774   4.298  1.00  0.00    -0.269 OA
BRANCH  29  32
ATOM     32  C   UNL     1       3.901  -4.020   5.367  1.00  0.00     0.039 A 
ATOM     33  C   UNL     1       4.410  -3.813   6.649  1.00  0.00     0.014 A 
ATOM     34  C   UNL     1       2.523  -4.138   5.158  1.00  0.00     0.014 A 
ATOM     35  C   UNL     1       3.530  -3.678   7.722  1.00  0.00     0.010 A 
ATOM     36  C   UNL     1       1.646  -3.924   6.215  1.00  0.00     0.010 A 
ATOM     37  C   UNL     1       2.141  -3.704   7.509  1.00  0.00    -0.014 A 
BRANCH  37  38
ATOM     38  C   UNL     1       1.191  -3.500   8.630  1.00  0.00     0.031 A 
ATOM     39  C   UNL     1       0.234  -4.594   9.020  1.00  0.00     0.074 A 
ATOM     40  C   UNL     1       1.140  -2.303   9.246  1.00  0.00     0.049 A 
ATOM     41  N   UNL     1      -0.691  -4.587   9.944  1.00  0.00    -0.248 NA
ATOM     42  C   UNL     1       0.306  -5.850   8.255  1.00  0.00     0.031 C 
ATOM     43  C   UNL     1       1.960  -1.139   8.902  1.00  0.00     0.029 A 
ATOM     44  N   UNL     1       0.346  -1.857  10.272  1.00  0.00    -0.354 N 
ATOM     45  C   UNL     1      -1.331  -5.816   9.850  1.00  0.00     0.074 A 
ATOM     46  C   UNL     1      -0.715  -6.531   8.754  1.00  0.00     0.031 C 
ATOM     47  C   UNL     1       1.633  -0.116   9.707  1.00  0.00     0.029 A 
ATOM     48  C   UNL     1       0.559  -0.538  10.601  1.00  0.00     0.049 A 
ATOM     49  H   UNL     1      -0.313  -2.427  10.730  1.00  0.00     0.167 HD
ATOM     50  C   UNL     1      -2.324  -6.317  10.623  1.00  0.00     0.034 A 
ATOM     51  C   UNL     1      -0.049   0.245  11.512  1.00  0.00     0.034 A 
ATOM     52  C   UNL     1      -2.907  -5.615  11.734  1.00  0.00     0.049 A 
ATOM     53  C   UNL     1      -1.125  -0.348  12.381  1.00  0.00     0.074 A 
ATOM     54  C   UNL     1      -3.854  -6.069  12.635  1.00  0.00     0.029 A 
ATOM     55  N   UNL     1      -2.611  -4.309  12.089  1.00  0.00    -0.354 N 
ATOM     56  N   UNL     1      -1.604  -1.568  12.384  1.00  0.00    -0.248 NA
ATOM     57  C   UNL     1      -1.718   0.532  13.398  1.00  0.00     0.031 C 
ATOM     58  C   UNL     1      -4.154  -5.024  13.515  1.00  0.00     0.029 A 
ATOM     59  C   UNL     1      -3.365  -3.933  13.187  1.00  0.00     0.049 A 
ATOM     60  H   UNL     1      -1.959  -3.732  11.628  1.00  0.00     0.167 HD
ATOM     61  C   UNL     1      -2.526  -1.613  13.424  1.00  0.00     0.074 A 
ATOM     62  C   UNL     1      -2.521  -0.303  14.042  1.00  0.00     0.031 C 
ATOM     63  C   UNL     1      -3.315  -2.642  13.823  1.00  0.00     0.034 A 
BRANCH  50  64
ATOM     64  C   UNL     1      -2.812  -7.710  10.321  1.00  0.00     0.023 A 
ATOM     65  C   UNL     1      -1.978  -8.816  10.589  1.00  0.00     0.012 A 
ATOM     66  C   UNL     1      -4.114  -7.931   9.830  1.00  0.00     0.148 A 
ATOM     67  C   UNL     1      -2.417 -10.115  10.338  1.00  0.00     0.002 A 
ATOM     68  C   UNL     1      -4.561  -9.231   9.628  1.00  0.00     0.091 A 
ATOM     69  F   UNL     1      -4.885  -6.868   9.562  1.00  0.00    -0.205 F 
ATOM     70  C   UNL     1      -3.711 -10.323   9.868  1.00  0.00     0.022 A 
BRANCH  68  71
ATOM     71  S   UNL     1      -6.238  -9.610   9.107  1.00  0.00     0.127 S 
ATOM     72  O   UNL     1      -6.019 -10.111   7.751  1.00  0.00    -0.237 OA
ATOM     73  O   UNL     1      -6.638 -10.630  10.076  1.00  0.00    -0.237 OA
ATOM     74  O   UNL     1      -6.980  -8.360   9.198  1.00  0.00    -0.744 OA
ENDBRANCH  68  71
ENDBRANCH  50  64
BRANCH  51  75
ATOM     75  C   UNL     1       0.386   1.659  11.689  1.00  0.00     0.023 A 
ATOM     76  C   UNL     1       1.060   2.036  12.867  1.00  0.00     0.012 A 
ATOM     77  C   UNL     1       0.156   2.625  10.691  1.00  0.00     0.148 A 
ATOM     78  C   UNL     1       1.464   3.357  13.064  1.00  0.00     0.002 A 
ATOM     79  C   UNL     1       0.612   3.926  10.868  1.00  0.00     0.091 A 
ATOM     80  F   UNL     1      -0.494   2.248   9.581  1.00  0.00    -0.205 F 
ATOM     81  C   UNL     1       1.249   4.299  12.061  1.00  0.00     0.022 A 
BRANCH  79  82
ATOM     82  S   UNL     1       0.497   5.172   9.579  1.00  0.00     0.127 S 
ATOM     83  O   UNL     1      -0.495   6.087  10.136  1.00  0.00    -0.237 OA
ATOM     84  O   UNL     1       1.864   5.692   9.541  1.00  0.00    -0.237 OA
ATOM     85  O   UNL     1       0.093   4.457   8.376  1.00  0.00    -0.744 OA
ENDBRANCH  79  82
ENDBRANCH  51  75
BRANCH  63  86
ATOM     86  C   UNL     1      -4.212  -2.414  15.011  1.00  0.00     0.023 A 
ATOM     87  C   UNL     1      -5.340  -1.578  14.894  1.00  0.00     0.012 A 
ATOM     88  C   UNL     1      -3.974  -3.088  16.226  1.00  0.00     0.148 A 
ATOM     89  C   UNL     1      -6.197  -1.388  15.977  1.00  0.00     0.002 A 
ATOM     90  C   UNL     1      -4.861  -2.936  17.284  1.00  0.00     0.091 A 
ATOM     91  F   UNL     1      -2.886  -3.865  16.323  1.00  0.00    -0.205 F 
ATOM     92  C   UNL     1      -5.965  -2.075  17.167  1.00  0.00     0.022 A 
BRANCH  90  93
ATOM     93  S   UNL     1      -4.699  -3.857  18.817  1.00  0.00     0.127 S 
ATOM     94  O   UNL     1      -4.290  -2.809  19.752  1.00  0.00    -0.237 OA
ATOM     95  O   UNL     1      -6.058  -4.360  19.021  1.00  0.00    -0.237 OA
ATOM     96  O   UNL     1      -3.704  -4.890  18.564  1.00  0.00    -0.744 OA
ENDBRANCH  90  93
ENDBRANCH  63  86
ENDBRANCH  37  38
ENDBRANCH  29  32
ENDBRANCH  27  28
ENDBRANCH  26  27
ENDBRANCH  25  26
ENDBRANCH   1  25
TORSDOF 19
