REMARK SMILES Cc1ccc(NC(=O)C[C@H]2C(=O)NCCN2C(=O)CCC(=O)NCCCCNC(=O)c2ccc(-c3c4nc(c(-c5cccc(S(=O)(=O)[O-])c5F)c5ccc([nH]5)c(-c5cccc(S(=O)(=O)[O-])c5F)c5nc(c(-c6cccc(S(=O)(=O)[O-])c6F)c6ccc3[nH]6)C=C5)C=C4)cc2)c(C)c1
REMARK SMILES IDX 24 1 23 2 21 3 22 4 20 6 19 7 17 8 18 9 16 10 10 11 11 12
REMARK SMILES IDX 12 13 13 14 15 15 14 16 9 18 7 19 6 20 8 22 5 23 1 24 2 25
REMARK SMILES IDX 3 26 96 27 4 28 94 29 95 30 25 31 26 32 27 33 28 34 29 35
REMARK SMILES IDX 30 37 31 38 32 39 93 40 33 41 92 42 34 43 35 44 36 45 86 46
REMARK SMILES IDX 37 47 91 48 85 49 87 50 38 51 90 52 84 53 83 54 39 56 71 57
REMARK SMILES IDX 51 58 70 59 52 60 55 61 69 62 88 63 53 64 54 65 68 67 89 68
REMARK SMILES IDX 56 69 40 70 41 71 49 72 42 73 44 74 50 75 43 76 45 77 46 78
REMARK SMILES IDX 47 79 48 80 72 81 73 82 81 83 74 84 76 85 82 86 75 87 77 88
REMARK SMILES IDX 78 89 79 90 80 91 57 92 58 93 66 94 59 95 61 96 67 97 60 98
REMARK SMILES IDX 62 99 63 100 64 101 65 102
REMARK H PARENT 23 5 13 17 6 21 28 36 87 55 55 66
REMARK Flexibility Score: inf
ROOT
ATOM      1  C   UNL     1      -3.164   2.983   0.480  1.00  0.00     0.116 C 
ENDROOT
BRANCH   1   2
ATOM      2  N   UNL     1      -2.516   1.825  -0.180  1.00  0.00    -0.356 N 
ATOM      3  C   UNL     1      -2.858   0.986  -1.209  1.00  0.00     0.220 C 
ATOM      4  O   UNL     1      -2.075   0.132  -1.576  1.00  0.00    -0.275 OA
ATOM      5  H   UNL     1      -1.638   1.608   0.210  1.00  0.00     0.163 HD
BRANCH   3   6
ATOM      6  C   UNL     1      -4.212   1.110  -1.820  1.00  0.00     0.110 C 
BRANCH   6   7
ATOM      7  C   UNL     1      -5.234   0.478  -0.908  1.00  0.00     0.110 C 
BRANCH   7   8
ATOM      8  C   UNL     1      -5.463   1.294   0.326  1.00  0.00     0.223 C 
ATOM      9  O   UNL     1      -6.281   2.225   0.235  1.00  0.00    -0.275 OA
BRANCH   8  10
ATOM     10  N   UNL     1      -4.767   1.062   1.527  1.00  0.00    -0.328 N 
ATOM     11  C   UNL     1      -3.511   0.168   1.794  1.00  0.00     0.183 C 
ATOM     12  C   UNL     1      -3.815  -0.745   3.025  1.00  0.00     0.243 C 
ATOM     13  O   UNL     1      -3.152  -1.757   3.249  1.00  0.00    -0.273 OA
ATOM     14  N   UNL     1      -4.772  -0.383   3.931  1.00  0.00    -0.353 N 
ATOM     15  C   UNL     1      -5.604   1.554   2.637  1.00  0.00     0.141 C 
ATOM     16  C   UNL     1      -5.476   0.868   3.977  1.00  0.00     0.137 C 
ATOM     17  H   UNL     1      -5.002  -1.046   4.622  1.00  0.00     0.163 HD
BRANCH  11  18
ATOM     18  C   UNL     1      -1.804   0.527   1.860  1.00  0.00     0.135 C 
BRANCH  18  19
ATOM     19  C   UNL     1      -0.466   1.582   1.802  1.00  0.00     0.227 C 
ATOM     20  N   UNL     1      -0.000   2.732   1.181  1.00  0.00    -0.326 N 
ATOM     21  H   UNL     1       0.922   2.883   1.491  1.00  0.00     0.169 HD
ATOM     22  O   UNL     1       0.456   1.185   2.564  1.00  0.00    -0.275 OA
BRANCH  20  23
ATOM     23  C   UNL     1      -0.328   3.791   0.264  1.00  0.00     0.044 A 
ATOM     24  C   UNL     1      -3.122   6.281  -1.766  1.00  0.00     0.044 C 
ATOM     25  C   UNL     1      -1.857   5.675  -1.206  1.00  0.00    -0.051 A 
ATOM     26  C   UNL     1      -1.428   5.976   0.090  1.00  0.00     0.005 A 
ATOM     27  C   UNL     1      -1.241   4.594  -1.851  1.00  0.00     0.009 A 
ATOM     28  C   UNL     1      -0.588   5.075   0.788  1.00  0.00     0.026 A 
ATOM     29  C   UNL     1      -0.458   3.653  -1.127  1.00  0.00    -0.027 A 
ATOM     30  C   UNL     1       0.220   2.557  -1.892  1.00  0.00     0.046 C 
ENDBRANCH  20  23
ENDBRANCH  18  19
ENDBRANCH  11  18
ENDBRANCH   8  10
ENDBRANCH   7   8
ENDBRANCH   6   7
ENDBRANCH   3   6
ENDBRANCH   1   2
BRANCH   1  31
ATOM     31  C   UNL     1      -3.011   3.519   2.001  1.00  0.00     0.023 C 
BRANCH  31  32
ATOM     32  C   UNL     1      -2.898   2.860   3.409  1.00  0.00     0.023 C 
BRANCH  32  33
ATOM     33  C   UNL     1      -1.634   3.049   4.284  1.00  0.00     0.116 C 
BRANCH  33  34
ATOM     34  N   UNL     1      -1.627   4.285   5.038  1.00  0.00    -0.352 N 
ATOM     35  C   UNL     1      -1.339   4.525   6.364  1.00  0.00     0.251 C 
ATOM     36  H   UNL     1      -1.868   5.085   4.518  1.00  0.00     0.163 HD
ATOM     37  O   UNL     1      -1.476   5.675   6.782  1.00  0.00    -0.269 OA
BRANCH  35  38
ATOM     38  C   UNL     1      -0.913   3.453   7.310  1.00  0.00     0.039 A 
ATOM     39  C   UNL     1      -1.408   3.506   8.621  1.00  0.00     0.014 A 
ATOM     40  C   UNL     1      -0.004   2.445   6.978  1.00  0.00     0.014 A 
ATOM     41  C   UNL     1      -1.033   2.541   9.567  1.00  0.00     0.010 A 
ATOM     42  C   UNL     1       0.315   1.440   7.907  1.00  0.00     0.010 A 
ATOM     43  C   UNL     1      -0.184   1.476   9.219  1.00  0.00    -0.014 A 
BRANCH  43  44
ATOM     44  C   UNL     1       0.150   0.419  10.227  1.00  0.00     0.031 A 
ATOM     45  C   UNL     1       1.574   0.170  10.671  1.00  0.00     0.074 A 
ATOM     46  C   UNL     1      -0.834  -0.349  10.742  1.00  0.00     0.049 A 
ATOM     47  N   UNL     1       2.018  -0.629  11.611  1.00  0.00    -0.248 NA
ATOM     48  C   UNL     1       2.639   0.883   9.951  1.00  0.00     0.031 C 
ATOM     49  C   UNL     1      -2.238  -0.312  10.326  1.00  0.00     0.029 A 
ATOM     50  N   UNL     1      -0.810  -1.313  11.724  1.00  0.00    -0.354 N 
ATOM     51  C   UNL     1       3.406  -0.539  11.573  1.00  0.00     0.074 A 
ATOM     52  C   UNL     1       3.733   0.357  10.485  1.00  0.00     0.031 C 
ATOM     53  C   UNL     1      -2.943  -1.181  11.068  1.00  0.00     0.029 A 
ATOM     54  C   UNL     1      -2.047  -1.847  12.009  1.00  0.00     0.049 A 
ATOM     55  H   UNL     1       0.015  -1.595  12.181  1.00  0.00     0.167 HD
ATOM     56  C   UNL     1       4.329  -1.111  12.387  1.00  0.00     0.034 A 
ATOM     57  C   UNL     1      -2.428  -2.748  12.938  1.00  0.00     0.034 A 
ATOM     58  C   UNL     1       4.006  -1.963  13.502  1.00  0.00     0.049 A 
ATOM     59  C   UNL     1      -1.403  -3.285  13.902  1.00  0.00     0.074 A 
ATOM     60  C   UNL     1       4.858  -2.512  14.445  1.00  0.00     0.029 A 
ATOM     61  N   UNL     1       2.728  -2.391  13.824  1.00  0.00    -0.354 N 
ATOM     62  N   UNL     1      -0.119  -3.027  13.972  1.00  0.00    -0.248 NA
ATOM     63  C   UNL     1      -1.888  -4.194  14.952  1.00  0.00     0.031 C 
ATOM     64  C   UNL     1       4.095  -3.282  15.331  1.00  0.00     0.029 A 
ATOM     65  C   UNL     1       2.765  -3.194  14.952  1.00  0.00     0.049 A 
ATOM     66  H   UNL     1       1.912  -2.159  13.324  1.00  0.00     0.167 HD
ATOM     67  C   UNL     1       0.348  -3.711  15.089  1.00  0.00     0.074 A 
ATOM     68  C   UNL     1      -0.796  -4.370  15.684  1.00  0.00     0.031 C 
ATOM     69  C   UNL     1       1.614  -3.800  15.569  1.00  0.00     0.034 A 
BRANCH  56  70
ATOM     70  C   UNL     1       5.781  -0.770  12.148  1.00  0.00     0.023 A 
ATOM     71  C   UNL     1       6.239   0.533  12.435  1.00  0.00     0.012 A 
ATOM     72  C   UNL     1       6.700  -1.736  11.693  1.00  0.00     0.148 A 
ATOM     73  C   UNL     1       7.573   0.884  12.227  1.00  0.00     0.002 A 
ATOM     74  C   UNL     1       8.039  -1.392  11.532  1.00  0.00     0.091 A 
ATOM     75  F   UNL     1       6.250  -2.968  11.415  1.00  0.00    -0.205 F 
ATOM     76  C   UNL     1       8.473  -0.080  11.784  1.00  0.00     0.022 A 
BRANCH  74  77
ATOM     77  S   UNL     1       9.298  -2.578  11.045  1.00  0.00     0.127 S 
ATOM     78  O   UNL     1       9.607  -2.139   9.685  1.00  0.00    -0.237 OA
ATOM     79  O   UNL     1      10.357  -2.322  12.022  1.00  0.00    -0.237 OA
ATOM     80  O   UNL     1       8.677  -3.891  11.154  1.00  0.00    -0.744 OA
ENDBRANCH  74  77
ENDBRANCH  56  70
BRANCH  57  81
ATOM     81  C   UNL     1      -3.869  -3.111  13.082  1.00  0.00     0.023 A 
ATOM     82  C   UNL     1      -4.584  -2.666  14.213  1.00  0.00     0.012 A 
ATOM     83  C   UNL     1      -4.543  -3.866  12.102  1.00  0.00     0.148 A 
ATOM     84  C   UNL     1      -5.928  -2.997  14.385  1.00  0.00     0.002 A 
ATOM     85  C   UNL     1      -5.898  -4.143  12.252  1.00  0.00     0.091 A 
ATOM     86  F   UNL     1      -3.847  -4.292  11.039  1.00  0.00    -0.205 F 
ATOM     87  C   UNL     1      -6.588  -3.726  13.400  1.00  0.00     0.022 A 
BRANCH  85  88
ATOM     88  S   UNL     1      -6.862  -4.952  10.969  1.00  0.00     0.127 S 
ATOM     89  O   UNL     1      -7.088  -6.272  11.551  1.00  0.00    -0.237 OA
ATOM     90  O   UNL     1      -8.049  -4.098  10.898  1.00  0.00    -0.237 OA
ATOM     91  O   UNL     1      -6.030  -4.916   9.774  1.00  0.00    -0.744 OA
ENDBRANCH  85  88
ENDBRANCH  57  81
BRANCH  69  92
ATOM     92  C   UNL     1       1.830  -4.612  16.821  1.00  0.00     0.023 A 
ATOM     93  C   UNL     1       1.724  -6.016  16.774  1.00  0.00     0.012 A 
ATOM     94  C   UNL     1       2.190  -3.987  18.031  1.00  0.00     0.148 A 
ATOM     95  C   UNL     1       1.931  -6.782  17.921  1.00  0.00     0.002 A 
ATOM     96  C   UNL     1       2.444  -4.761  19.158  1.00  0.00     0.091 A 
ATOM     97  F   UNL     1       2.266  -2.649  18.066  1.00  0.00    -0.205 F 
ATOM     98  C   UNL     1       2.302  -6.157  19.109  1.00  0.00     0.022 A 
BRANCH  96  99
ATOM     99  S   UNL     1       3.021  -4.039  20.699  1.00  0.00     0.127 S 
ATOM    100  O   UNL     1       1.794  -4.005  21.492  1.00  0.00    -0.237 OA
ATOM    101  O   UNL     1       4.013  -5.014  21.153  1.00  0.00    -0.237 OA
ATOM    102  O   UNL     1       3.578  -2.741  20.342  1.00  0.00    -0.744 OA
ENDBRANCH  96  99
ENDBRANCH  69  92
ENDBRANCH  43  44
ENDBRANCH  35  38
ENDBRANCH  33  34
ENDBRANCH  32  33
ENDBRANCH  31  32
ENDBRANCH   1  31
TORSDOF 20
