REMARK SMILES C[NH2+]C[C@H](C)C(=O)N[C@H](Cc1ccccc1)C(=O)NCCCCNC(=O)c1ccc(-c2c3nc(c(-c4cccc(S(=O)(=O)[O-])c4F)c4ccc([nH]4)c(-c4cccc(S(=O)(=O)[O-])c4F)c4nc(c(-c5cccc(S(=O)(=O)[O-])c5F)c5ccc2[nH]5)C=C4)C=C3)cc1
REMARK SMILES IDX 21 1 20 2 19 3 17 4 18 5 9 7 8 8 6 9 7 10 4 12 5 13 3 14
REMARK SMILES IDX 2 15 1 16 10 19 11 20 12 21 16 22 13 23 15 24 14 25 22 26
REMARK SMILES IDX 23 27 24 28 25 29 26 31 27 32 28 33 89 34 29 35 88 36 30 37
REMARK SMILES IDX 31 38 32 39 82 40 33 41 87 42 81 43 83 44 34 45 86 46 80 47
REMARK SMILES IDX 79 48 35 50 67 51 47 52 66 53 48 54 51 55 65 56 84 57 49 58
REMARK SMILES IDX 50 59 64 61 85 62 52 63 36 64 37 65 45 66 38 67 40 68 46 69
REMARK SMILES IDX 39 70 41 71 42 72 43 73 44 74 68 75 69 76 77 77 70 78 72 79
REMARK SMILES IDX 78 80 71 81 73 82 74 83 75 84 76 85 53 86 54 87 62 88 55 89
REMARK SMILES IDX 57 90 63 91 56 92 58 93 59 94 60 95 61 96
REMARK H PARENT 19 6 8 11 2 17 2 18 24 30 83 49 51 60
REMARK Flexibility Score: inf
ROOT
ATOM      1  C   UNL     1      -6.516   3.466   2.310  1.00  0.00     0.023 C 
ENDROOT
BRANCH   1   2
ATOM      2  C   UNL     1      -5.376   4.387   1.879  1.00  0.00     0.116 C 
BRANCH   2   3
ATOM      3  N   UNL     1      -4.133   4.160   2.624  1.00  0.00    -0.354 N 
ATOM      4  C   UNL     1      -2.982   3.453   2.343  1.00  0.00     0.242 C 
ATOM      5  O   UNL     1      -2.129   3.375   3.230  1.00  0.00    -0.273 OA
ATOM      6  H   UNL     1      -4.117   4.602   3.504  1.00  0.00     0.163 HD
BRANCH   4   7
ATOM      7  C   UNL     1      -2.808   2.666   0.992  1.00  0.00     0.175 C 
BRANCH   7   8
ATOM      8  N   UNL     1      -3.200   3.735   0.034  1.00  0.00    -0.344 N 
ATOM      9  C   UNL     1      -3.509   3.974  -1.250  1.00  0.00     0.229 C 
ATOM     10  O   UNL     1      -3.733   5.154  -1.542  1.00  0.00    -0.275 OA
ATOM     11  H   UNL     1      -3.253   4.585   0.526  1.00  0.00     0.164 HD
BRANCH   9  12
ATOM     12  C   UNL     1      -3.602   2.924  -2.310  1.00  0.00     0.130 C 
ATOM     13  C   UNL     1      -2.187   2.390  -2.527  1.00  0.00     0.024 C 
BRANCH  12  14
ATOM     14  C   UNL     1      -4.736   1.923  -2.036  1.00  0.00     0.273 C 
BRANCH  14  15
ATOM     15  N   UNL     1      -6.027   2.465  -1.593  1.00  0.00    -0.348 N 
ATOM     16  C   UNL     1      -6.738   3.215  -2.610  1.00  0.00     0.330 C 
ATOM     17  H   UNL     1      -6.616   1.686  -1.298  1.00  0.00     0.346 HD
ATOM     18  H   UNL     1      -5.826   3.117  -0.835  1.00  0.00     0.346 HD
ENDBRANCH  14  15
ENDBRANCH  12  14
ENDBRANCH   9  12
ENDBRANCH   7   8
BRANCH   7  19
ATOM     19  C   UNL     1      -3.591   1.338   1.234  1.00  0.00     0.070 C 
BRANCH  19  20
ATOM     20  C   UNL     1      -3.263  -0.068   0.706  1.00  0.00    -0.045 A 
ATOM     21  C   UNL     1      -3.635  -1.167   1.508  1.00  0.00     0.004 A 
ATOM     22  C   UNL     1      -2.830  -0.382  -0.584  1.00  0.00     0.004 A 
ATOM     23  C   UNL     1      -3.663  -2.478   1.009  1.00  0.00     0.000 A 
ATOM     24  C   UNL     1      -2.907  -1.680  -1.111  1.00  0.00     0.000 A 
ATOM     25  C   UNL     1      -3.339  -2.730  -0.317  1.00  0.00     0.000 A 
ENDBRANCH  19  20
ENDBRANCH   7  19
ENDBRANCH   4   7
ENDBRANCH   2   3
ENDBRANCH   1   2
BRANCH   1  26
ATOM     26  C   UNL     1      -7.437   4.069   3.371  1.00  0.00     0.023 C 
BRANCH  26  27
ATOM     27  C   UNL     1      -8.268   5.269   2.912  1.00  0.00     0.116 C 
BRANCH  27  28
ATOM     28  N   UNL     1      -9.203   4.963   1.841  1.00  0.00    -0.352 N 
ATOM     29  C   UNL     1     -10.463   5.483   1.620  1.00  0.00     0.251 C 
ATOM     30  H   UNL     1      -8.896   4.296   1.184  1.00  0.00     0.163 HD
ATOM     31  O   UNL     1     -11.153   5.047   0.715  1.00  0.00    -0.269 OA
BRANCH  29  32
ATOM     32  C   UNL     1     -10.988   6.544   2.515  1.00  0.00     0.039 A 
ATOM     33  C   UNL     1     -12.290   6.419   3.006  1.00  0.00     0.014 A 
ATOM     34  C   UNL     1     -10.205   7.640   2.885  1.00  0.00     0.014 A 
ATOM     35  C   UNL     1     -12.780   7.360   3.915  1.00  0.00     0.010 A 
ATOM     36  C   UNL     1     -10.666   8.531   3.854  1.00  0.00     0.010 A 
ATOM     37  C   UNL     1     -11.961   8.405   4.377  1.00  0.00    -0.014 A 
BRANCH  37  38
ATOM     38  C   UNL     1     -12.453   9.343   5.422  1.00  0.00     0.031 A 
ATOM     39  C   UNL     1     -12.599  10.815   5.136  1.00  0.00     0.074 A 
ATOM     40  C   UNL     1     -12.729   8.871   6.655  1.00  0.00     0.049 A 
ATOM     41  N   UNL     1     -13.083  11.757   5.906  1.00  0.00    -0.248 NA
ATOM     42  C   UNL     1     -12.120  11.302   3.832  1.00  0.00     0.031 C 
ATOM     43  C   UNL     1     -12.532   7.486   7.094  1.00  0.00     0.029 A 
ATOM     44  N   UNL     1     -13.230   9.500   7.768  1.00  0.00    -0.354 N 
ATOM     45  C   UNL     1     -12.939  12.944   5.197  1.00  0.00     0.074 A 
ATOM     46  C   UNL     1     -12.290  12.611   3.948  1.00  0.00     0.031 C 
ATOM     47  C   UNL     1     -12.939   7.365   8.368  1.00  0.00     0.029 A 
ATOM     48  C   UNL     1     -13.404   8.662   8.846  1.00  0.00     0.049 A 
ATOM     49  H   UNL     1     -13.444  10.460   7.792  1.00  0.00     0.167 HD
ATOM     50  C   UNL     1     -13.336  14.193   5.539  1.00  0.00     0.034 A 
ATOM     51  C   UNL     1     -13.896   8.908  10.076  1.00  0.00     0.034 A 
ATOM     52  C   UNL     1     -14.022  14.514   6.763  1.00  0.00     0.049 A 
ATOM     53  C   UNL     1     -14.391  10.292  10.400  1.00  0.00     0.074 A 
ATOM     54  C   UNL     1     -14.563  15.727   7.152  1.00  0.00     0.029 A 
ATOM     55  N   UNL     1     -14.248  13.626   7.801  1.00  0.00    -0.354 N 
ATOM     56  N   UNL     1     -14.427  11.358   9.638  1.00  0.00    -0.248 NA
ATOM     57  C   UNL     1     -14.954  10.495  11.743  1.00  0.00     0.031 C 
ATOM     58  C   UNL     1     -15.086  15.580   8.441  1.00  0.00     0.029 A 
ATOM     59  C   UNL     1     -14.904  14.266   8.839  1.00  0.00     0.049 A 
ATOM     60  H   UNL     1     -13.981  12.678   7.801  1.00  0.00     0.167 HD
ATOM     61  C   UNL     1     -15.050  12.345  10.394  1.00  0.00     0.074 A 
ATOM     62  C   UNL     1     -15.404  11.738  11.660  1.00  0.00     0.031 C 
ATOM     63  C   UNL     1     -15.291  13.642  10.078  1.00  0.00     0.034 A 
BRANCH  50  64
ATOM     64  C   UNL     1     -13.085  15.309   4.557  1.00  0.00     0.023 A 
ATOM     65  C   UNL     1     -13.830  15.371   3.362  1.00  0.00     0.012 A 
ATOM     66  C   UNL     1     -12.171  16.340   4.855  1.00  0.00     0.148 A 
ATOM     67  C   UNL     1     -13.650  16.424   2.465  1.00  0.00     0.002 A 
ATOM     68  C   UNL     1     -12.031  17.410   3.979  1.00  0.00     0.091 A 
ATOM     69  F   UNL     1     -11.457  16.253   5.986  1.00  0.00    -0.205 F 
ATOM     70  C   UNL     1     -12.761  17.448   2.779  1.00  0.00     0.022 A 
BRANCH  68  71
ATOM     71  S   UNL     1     -10.977  18.821   4.330  1.00  0.00     0.127 S 
ATOM     72  O   UNL     1      -9.932  18.667   3.319  1.00  0.00    -0.237 OA
ATOM     73  O   UNL     1     -11.884  19.946   4.102  1.00  0.00    -0.237 OA
ATOM     74  O   UNL     1     -10.536  18.663   5.709  1.00  0.00    -0.744 OA
ENDBRANCH  68  71
ENDBRANCH  50  64
BRANCH  51  75
ATOM     75  C   UNL     1     -14.026   7.805  11.072  1.00  0.00     0.023 A 
ATOM     76  C   UNL     1     -15.310   7.365  11.455  1.00  0.00     0.012 A 
ATOM     77  C   UNL     1     -12.895   7.196  11.646  1.00  0.00     0.148 A 
ATOM     78  C   UNL     1     -15.464   6.375  12.425  1.00  0.00     0.002 A 
ATOM     79  C   UNL     1     -13.055   6.167  12.568  1.00  0.00     0.091 A 
ATOM     80  F   UNL     1     -11.682   7.634  11.279  1.00  0.00    -0.205 F 
ATOM     81  C   UNL     1     -14.337   5.770  12.975  1.00  0.00     0.022 A 
BRANCH  79  82
ATOM     82  S   UNL     1     -11.662   5.244  13.225  1.00  0.00     0.127 S 
ATOM     83  O   UNL     1     -11.596   5.738  14.598  1.00  0.00    -0.237 OA
ATOM     84  O   UNL     1     -12.122   3.862  13.088  1.00  0.00    -0.237 OA
ATOM     85  O   UNL     1     -10.530   5.584  12.373  1.00  0.00    -0.744 OA
ENDBRANCH  79  82
ENDBRANCH  51  75
BRANCH  63  86
ATOM     86  C   UNL     1     -16.002  14.484  11.107  1.00  0.00     0.023 A 
ATOM     87  C   UNL     1     -15.348  14.832  12.306  1.00  0.00     0.012 A 
ATOM     88  C   UNL     1     -17.309  14.955  10.873  1.00  0.00     0.148 A 
ATOM     89  C   UNL     1     -16.003  15.585  13.279  1.00  0.00     0.002 A 
ATOM     90  C   UNL     1     -17.934  15.753  11.823  1.00  0.00     0.091 A 
ATOM     91  F   UNL     1     -17.925  14.602   9.736  1.00  0.00    -0.205 F 
ATOM     92  C   UNL     1     -17.291  16.054  13.034  1.00  0.00     0.022 A 
BRANCH  90  93
ATOM     93  S   UNL     1     -19.552  16.483  11.545  1.00  0.00     0.127 S 
ATOM     94  O   UNL     1     -20.409  15.631  12.367  1.00  0.00    -0.237 OA
ATOM     95  O   UNL     1     -19.373  17.843  12.056  1.00  0.00    -0.237 OA
ATOM     96  O   UNL     1     -19.780  16.407  10.108  1.00  0.00    -0.744 OA
ENDBRANCH  90  93
ENDBRANCH  63  86
ENDBRANCH  37  38
ENDBRANCH  29  32
ENDBRANCH  27  28
ENDBRANCH  26  27
ENDBRANCH   1  26
TORSDOF 20
