REMARK SMILES Cc1ccc(Oc2cc(C(=O)NCCCCNC(=O)c3ccc(-c4c5nc(c(-c6cccc(S(=O)(=O)[O-])c6F)c6ccc([nH]6)c(-c6cccc(S(=O)(=O)[O-])c6F)c6nc(c(-c7cccc(S(=O)(=O)[O-])c7F)c7ccc4[nH]7)C=C6)C=C5)cc3)nc3ccccc23)cc1
REMARK SMILES IDX 15 1 14 2 13 3 12 4 10 5 11 6 9 8 7 9 8 10 89 11 84 12 88 13
REMARK SMILES IDX 83 14 85 15 87 16 86 17 6 18 5 19 1 20 2 21 3 22 91 23 4 24
REMARK SMILES IDX 90 25 16 26 17 27 18 28 19 30 20 31 21 32 82 33 22 34 81 35
REMARK SMILES IDX 23 36 24 37 25 38 75 39 26 40 80 41 74 42 76 43 27 44 79 45
REMARK SMILES IDX 73 46 72 47 28 49 60 50 40 51 59 52 41 53 44 54 58 55 77 56
REMARK SMILES IDX 42 57 43 58 57 60 78 61 45 62 29 63 30 64 38 65 31 66 33 67
REMARK SMILES IDX 39 68 32 69 34 70 35 71 36 72 37 73 61 74 62 75 70 76 63 77
REMARK SMILES IDX 65 78 71 79 64 80 66 81 67 82 68 83 69 84 46 85 47 86 55 87
REMARK SMILES IDX 48 88 50 89 56 90 49 91 51 92 52 93 53 94 54 95
REMARK H PARENT 12 7 17 29 76 48 44 59
REMARK Flexibility Score: inf
ROOT
ATOM      1  C   UNL     1      -9.549   5.263   0.488  1.00  0.00     0.023 C 
ENDROOT
BRANCH   1   2
ATOM      2  C   UNL     1      -8.142   5.228  -0.122  1.00  0.00     0.023 C 
BRANCH   2   3
ATOM      3  C   UNL     1      -7.000   5.338   0.899  1.00  0.00     0.116 C 
BRANCH   3   4
ATOM      4  N   UNL     1      -6.999   4.228   1.842  1.00  0.00    -0.351 N 
ATOM      5  C   UNL     1      -6.357   3.010   1.804  1.00  0.00     0.270 C 
ATOM      6  O   UNL     1      -6.550   2.220   2.730  1.00  0.00    -0.268 OA
ATOM      7  H   UNL     1      -7.553   4.372   2.643  1.00  0.00     0.163 HD
BRANCH   5   8
ATOM      8  C   UNL     1      -5.428   2.620   0.692  1.00  0.00     0.132 A 
ATOM      9  C   UNL     1      -3.803   1.143  -0.217  1.00  0.00     0.139 A 
ATOM     10  C   UNL     1      -4.701   1.449   0.802  1.00  0.00     0.082 A 
ATOM     11  C   UNL     1      -3.678   1.980  -1.351  1.00  0.00     0.043 A 
ATOM     12  C   UNL     1      -4.448   3.155  -1.342  1.00  0.00     0.075 A 
ATOM     13  C   UNL     1      -2.827   1.738  -2.458  1.00  0.00     0.014 A 
ATOM     14  N   UNL     1      -5.312   3.451  -0.367  1.00  0.00    -0.242 NA
ATOM     15  C   UNL     1      -4.301   4.074  -2.370  1.00  0.00     0.029 A 
ATOM     16  C   UNL     1      -2.689   2.678  -3.479  1.00  0.00     0.001 A 
ATOM     17  C   UNL     1      -3.418   3.857  -3.427  1.00  0.00     0.002 A 
BRANCH   9  18
ATOM     18  O   UNL     1      -3.090  -0.025  -0.055  1.00  0.00    -0.457 OA
BRANCH  18  19
ATOM     19  C   UNL     1      -1.717   0.044   0.068  1.00  0.00     0.127 A 
ATOM     20  C   UNL     1       2.590  -0.091   0.058  1.00  0.00     0.044 C 
ATOM     21  C   UNL     1       1.091  -0.044   0.094  1.00  0.00    -0.051 A 
ATOM     22  C   UNL     1       0.347  -1.220  -0.053  1.00  0.00     0.007 A 
ATOM     23  C   UNL     1       0.417   1.167   0.286  1.00  0.00     0.007 A 
ATOM     24  C   UNL     1      -1.048  -1.175  -0.068  1.00  0.00     0.047 A 
ATOM     25  C   UNL     1      -0.980   1.209   0.291  1.00  0.00     0.047 A 
ENDBRANCH  18  19
ENDBRANCH   9  18
ENDBRANCH   5   8
ENDBRANCH   3   4
ENDBRANCH   2   3
ENDBRANCH   1   2
BRANCH   1  26
ATOM     26  C   UNL     1      -9.860   6.537   1.262  1.00  0.00     0.116 C 
BRANCH  26  27
ATOM     27  N   UNL     1     -10.322   7.639   0.442  1.00  0.00    -0.352 N 
ATOM     28  C   UNL     1     -10.734   8.905   0.819  1.00  0.00     0.251 C 
ATOM     29  H   UNL     1     -10.346   7.461  -0.526  1.00  0.00     0.163 HD
ATOM     30  O   UNL     1     -11.403   9.553   0.013  1.00  0.00    -0.269 OA
BRANCH  28  31
ATOM     31  C   UNL     1     -10.236   9.536   2.075  1.00  0.00     0.039 A 
ATOM     32  C   UNL     1      -9.945  10.909   2.029  1.00  0.00     0.014 A 
ATOM     33  C   UNL     1      -9.779   8.782   3.148  1.00  0.00     0.014 A 
ATOM     34  C   UNL     1      -8.951  11.436   2.851  1.00  0.00     0.010 A 
ATOM     35  C   UNL     1      -8.725   9.264   3.889  1.00  0.00     0.010 A 
ATOM     36  C   UNL     1      -8.254  10.561   3.667  1.00  0.00    -0.014 A 
BRANCH  36  37
ATOM     37  C   UNL     1      -7.002  10.847   4.342  1.00  0.00     0.031 A 
ATOM     38  C   UNL     1      -7.020  11.229   5.760  1.00  0.00     0.074 A 
ATOM     39  C   UNL     1      -5.875  10.381   3.758  1.00  0.00     0.049 A 
ATOM     40  N   UNL     1      -5.967  11.503   6.446  1.00  0.00    -0.248 NA
ATOM     41  C   UNL     1      -8.259  11.354   6.517  1.00  0.00     0.031 C 
ATOM     42  C   UNL     1      -4.636   9.983   4.414  1.00  0.00     0.029 A 
ATOM     43  N   UNL     1      -5.563  10.339   2.395  1.00  0.00    -0.354 N 
ATOM     44  C   UNL     1      -6.338  11.502   7.772  1.00  0.00     0.074 A 
ATOM     45  C   UNL     1      -7.778  11.562   7.746  1.00  0.00     0.031 C 
ATOM     46  C   UNL     1      -3.645  10.003   3.512  1.00  0.00     0.029 A 
ATOM     47  C   UNL     1      -4.183  10.610   2.309  1.00  0.00     0.049 A 
ATOM     48  H   UNL     1      -6.180  10.157   1.650  1.00  0.00     0.167 HD
ATOM     49  C   UNL     1      -5.370  11.287   8.708  1.00  0.00     0.034 A 
ATOM     50  C   UNL     1      -3.685  11.733   1.708  1.00  0.00     0.034 A 
ATOM     51  C   UNL     1      -4.028  11.372   8.094  1.00  0.00     0.049 A 
ATOM     52  C   UNL     1      -2.945  12.655   2.675  1.00  0.00     0.074 A 
ATOM     53  C   UNL     1      -3.049  10.465   7.724  1.00  0.00     0.029 A 
ATOM     54  N   UNL     1      -3.661  12.574   7.510  1.00  0.00    -0.354 N 
ATOM     55  N   UNL     1      -2.667  12.376   3.921  1.00  0.00    -0.248 NA
ATOM     56  C   UNL     1      -2.545  14.016   2.317  1.00  0.00     0.031 C 
ATOM     57  C   UNL     1      -2.137  11.133   6.843  1.00  0.00     0.029 A 
ATOM     58  C   UNL     1      -2.538  12.452   6.711  1.00  0.00     0.049 A 
ATOM     59  H   UNL     1      -4.145  13.420   7.649  1.00  0.00     0.167 HD
ATOM     60  C   UNL     1      -2.262  13.519   4.567  1.00  0.00     0.074 A 
ATOM     61  C   UNL     1      -2.151  14.506   3.504  1.00  0.00     0.031 C 
ATOM     62  C   UNL     1      -2.118  13.612   5.927  1.00  0.00     0.034 A 
BRANCH  49  63
ATOM     63  C   UNL     1      -5.593  10.809  10.139  1.00  0.00     0.023 A 
ATOM     64  C   UNL     1      -4.442  10.451  10.879  1.00  0.00     0.012 A 
ATOM     65  C   UNL     1      -6.830  10.591  10.798  1.00  0.00     0.148 A 
ATOM     66  C   UNL     1      -4.509   9.871  12.153  1.00  0.00     0.002 A 
ATOM     67  C   UNL     1      -6.901  10.018  12.072  1.00  0.00     0.091 A 
ATOM     68  F   UNL     1      -7.976  10.915  10.210  1.00  0.00    -0.205 F 
ATOM     69  C   UNL     1      -5.740   9.646  12.749  1.00  0.00     0.022 A 
BRANCH  67  70
ATOM     70  S   UNL     1      -8.470   9.685  12.905  1.00  0.00     0.127 S 
ATOM     71  O   UNL     1      -8.420   8.233  13.075  1.00  0.00    -0.237 OA
ATOM     72  O   UNL     1      -8.331  10.447  14.145  1.00  0.00    -0.237 OA
ATOM     73  O   UNL     1      -9.524  10.154  12.014  1.00  0.00    -0.744 OA
ENDBRANCH  67  70
ENDBRANCH  49  63
BRANCH  50  74
ATOM     74  C   UNL     1      -4.518  12.184   0.552  1.00  0.00     0.023 A 
ATOM     75  C   UNL     1      -4.575  11.320  -0.568  1.00  0.00     0.012 A 
ATOM     76  C   UNL     1      -5.527  13.149   0.720  1.00  0.00     0.148 A 
ATOM     77  C   UNL     1      -5.689  11.316  -1.409  1.00  0.00     0.002 A 
ATOM     78  C   UNL     1      -6.637  13.134  -0.121  1.00  0.00     0.091 A 
ATOM     79  F   UNL     1      -5.441  13.992   1.756  1.00  0.00    -0.205 F 
ATOM     80  C   UNL     1      -6.738  12.193  -1.159  1.00  0.00     0.022 A 
BRANCH  78  81
ATOM     81  S   UNL     1      -8.053  14.201   0.174  1.00  0.00     0.127 S 
ATOM     82  O   UNL     1      -7.820  15.269  -0.793  1.00  0.00    -0.237 OA
ATOM     83  O   UNL     1      -9.177  13.320  -0.138  1.00  0.00    -0.237 OA
ATOM     84  O   UNL     1      -7.958  14.572   1.578  1.00  0.00    -0.744 OA
ENDBRANCH  78  81
ENDBRANCH  50  74
BRANCH  62  85
ATOM     85  C   UNL     1      -1.579  14.856   6.621  1.00  0.00     0.023 A 
ATOM     86  C   UNL     1      -0.547  15.610   6.024  1.00  0.00     0.012 A 
ATOM     87  C   UNL     1      -1.963  15.237   7.934  1.00  0.00     0.148 A 
ATOM     88  C   UNL     1       0.017  16.726   6.655  1.00  0.00     0.002 A 
ATOM     89  C   UNL     1      -1.327  16.282   8.599  1.00  0.00     0.091 A 
ATOM     90  F   UNL     1      -2.981  14.617   8.539  1.00  0.00    -0.205 F 
ATOM     91  C   UNL     1      -0.362  17.052   7.949  1.00  0.00     0.022 A 
BRANCH  89  92
ATOM     92  S   UNL     1      -1.611  16.631  10.342  1.00  0.00     0.127 S 
ATOM     93  O   UNL     1      -0.245  16.624  10.871  1.00  0.00    -0.237 OA
ATOM     94  O   UNL     1      -2.235  17.951  10.287  1.00  0.00    -0.237 OA
ATOM     95  O   UNL     1      -2.453  15.553  10.840  1.00  0.00    -0.744 OA
ENDBRANCH  89  92
ENDBRANCH  62  85
ENDBRANCH  36  37
ENDBRANCH  28  31
ENDBRANCH  26  27
ENDBRANCH   1  26
TORSDOF 16
