REMARK SMILES C[C@@H](O)[C@@H](C)Sc1ccc(C(=O)NCCCCNC(=O)c2ccc(-c3c4nc(c(-c5cccc(S(=O)(=O)[O-])c5F)c5ccc([nH]5)c(-c5cccc(S(=O)(=O)[O-])c5F)c5nc(c(-c6cccc(S(=O)(=O)[O-])c6F)c6ccc3[nH]6)C=C5)C=C4)cc2)cn1
REMARK SMILES IDX 15 1 14 2 13 3 11 4 12 5 10 7 7 8 8 9 85 10 9 11 84 12 6 13
REMARK SMILES IDX 4 14 5 15 2 16 1 17 3 18 16 20 17 21 18 22 19 23 20 25 21 26
REMARK SMILES IDX 22 27 83 28 23 29 82 30 24 31 25 32 26 33 76 34 27 35 81 36
REMARK SMILES IDX 75 37 77 38 28 39 80 40 74 41 73 42 29 44 61 45 41 46 60 47
REMARK SMILES IDX 42 48 45 49 59 50 78 51 43 52 44 53 58 55 79 56 46 57 30 58
REMARK SMILES IDX 31 59 39 60 32 61 34 62 40 63 33 64 35 65 36 66 37 67 38 68
REMARK SMILES IDX 62 69 63 70 71 71 64 72 66 73 72 74 65 75 67 76 68 77 69 78
REMARK SMILES IDX 70 79 47 80 48 81 56 82 49 83 51 84 57 85 50 86 52 87 53 88
REMARK SMILES IDX 54 89 55 90
REMARK H PARENT 13 6 3 19 18 24 77 43 45 54
REMARK Flexibility Score: inf
ROOT
ATOM      1  C   UNL     1       0.491  -2.261   9.531  1.00  0.00     0.023 C 
ENDROOT
BRANCH   1   2
ATOM      2  C   UNL     1       1.276  -2.806   8.337  1.00  0.00     0.116 C 
BRANCH   2   3
ATOM      3  N   UNL     1       0.540  -3.865   7.680  1.00  0.00    -0.352 N 
ATOM      4  C   UNL     1      -0.286  -3.894   6.589  1.00  0.00     0.252 C 
ATOM      5  O   UNL     1      -0.747  -4.991   6.267  1.00  0.00    -0.269 OA
ATOM      6  H   UNL     1       0.659  -4.746   8.104  1.00  0.00     0.163 HD
BRANCH   4   7
ATOM      7  C   UNL     1      -0.634  -2.714   5.754  1.00  0.00     0.058 A 
ATOM      8  C   UNL     1      -1.404  -0.747   3.949  1.00  0.00     0.096 A 
ATOM      9  C   UNL     1      -0.890  -0.376   5.184  1.00  0.00     0.036 A 
ATOM     10  N   UNL     1      -1.560  -2.036   3.596  1.00  0.00    -0.249 NA
ATOM     11  C   UNL     1      -0.516  -1.370   6.098  1.00  0.00     0.018 A 
ATOM     12  C   UNL     1      -1.180  -2.979   4.499  1.00  0.00     0.126 A 
BRANCH   8  13
ATOM     13  S   UNL     1      -2.011   0.501   2.841  1.00  0.00    -0.101 SA
BRANCH  13  14
ATOM     14  C   UNL     1      -1.161   0.073   1.253  1.00  0.00     0.078 C 
ATOM     15  C   UNL     1      -1.717  -1.214   0.644  1.00  0.00     0.022 C 
BRANCH  14  16
ATOM     16  C   UNL     1       0.382   0.087   1.371  1.00  0.00     0.124 C 
ATOM     17  C   UNL     1       1.069  -0.135   0.024  1.00  0.00     0.039 C 
BRANCH  16  18
ATOM     18  O   UNL     1       0.822   1.362   1.858  1.00  0.00    -0.392 OA
ATOM     19  H   UNL     1       0.568   2.054   1.227  1.00  0.00     0.210 HD
ENDBRANCH  16  18
ENDBRANCH  14  16
ENDBRANCH  13  14
ENDBRANCH   8  13
ENDBRANCH   4   7
ENDBRANCH   2   3
ENDBRANCH   1   2
BRANCH   1  20
ATOM     20  C   UNL     1       0.612  -3.112  10.803  1.00  0.00     0.023 C 
BRANCH  20  21
ATOM     21  C   UNL     1       2.032  -3.280  11.341  1.00  0.00     0.116 C 
BRANCH  21  22
ATOM     22  N   UNL     1       2.720  -2.015  11.550  1.00  0.00    -0.352 N 
ATOM     23  C   UNL     1       3.696  -1.704  12.467  1.00  0.00     0.251 C 
ATOM     24  H   UNL     1       2.450  -1.282  10.952  1.00  0.00     0.163 HD
ATOM     25  O   UNL     1       4.085  -0.550  12.573  1.00  0.00    -0.269 OA
BRANCH  23  26
ATOM     26  C   UNL     1       4.240  -2.762  13.346  1.00  0.00     0.039 A 
ATOM     27  C   UNL     1       4.368  -2.493  14.710  1.00  0.00     0.014 A 
ATOM     28  C   UNL     1       4.608  -4.011  12.838  1.00  0.00     0.014 A 
ATOM     29  C   UNL     1       4.814  -3.497  15.571  1.00  0.00     0.010 A 
ATOM     30  C   UNL     1       4.978  -5.033  13.708  1.00  0.00     0.010 A 
ATOM     31  C   UNL     1       5.091  -4.786  15.083  1.00  0.00    -0.014 A 
BRANCH  31  32
ATOM     32  C   UNL     1       5.466  -5.879  16.017  1.00  0.00     0.031 A 
ATOM     33  C   UNL     1       6.812  -6.545  15.929  1.00  0.00     0.074 A 
ATOM     34  C   UNL     1       4.563  -6.304  16.924  1.00  0.00     0.049 A 
ATOM     35  N   UNL     1       7.324  -7.468  16.703  1.00  0.00    -0.248 NA
ATOM     36  C   UNL     1       7.689  -6.147  14.816  1.00  0.00     0.031 C 
ATOM     37  C   UNL     1       3.187  -5.814  17.039  1.00  0.00     0.029 A 
ATOM     38  N   UNL     1       4.662  -7.248  17.913  1.00  0.00    -0.354 N 
ATOM     39  C   UNL     1       8.566  -7.776  16.161  1.00  0.00     0.074 A 
ATOM     40  C   UNL     1       8.713  -6.975  14.966  1.00  0.00     0.031 C 
ATOM     41  C   UNL     1       2.580  -6.441  18.058  1.00  0.00     0.029 A 
ATOM     42  C   UNL     1       3.513  -7.391  18.656  1.00  0.00     0.049 A 
ATOM     43  H   UNL     1       5.478  -7.774  18.077  1.00  0.00     0.167 HD
ATOM     44  C   UNL     1       9.512  -8.624  16.632  1.00  0.00     0.034 A 
ATOM     45  C   UNL     1       3.245  -8.187  19.709  1.00  0.00     0.034 A 
ATOM     46  C   UNL     1       9.373  -9.396  17.838  1.00  0.00     0.049 A 
ATOM     47  C   UNL     1       4.337  -9.066  20.253  1.00  0.00     0.074 A 
ATOM     48  C   UNL     1      10.306 -10.217  18.448  1.00  0.00     0.029 A 
ATOM     49  N   UNL     1       8.226  -9.451  18.615  1.00  0.00    -0.354 N 
ATOM     50  N   UNL     1       5.569  -9.210  19.830  1.00  0.00    -0.248 NA
ATOM     51  C   UNL     1       4.015  -9.856  21.449  1.00  0.00     0.031 C 
ATOM     52  C   UNL     1       9.712 -10.789  19.579  1.00  0.00     0.029 A 
ATOM     53  C   UNL     1       8.422 -10.297  19.694  1.00  0.00     0.049 A 
ATOM     54  H   UNL     1       7.394  -8.960  18.427  1.00  0.00     0.167 HD
ATOM     55  C   UNL     1       6.180 -10.079  20.726  1.00  0.00     0.074 A 
ATOM     56  C   UNL     1       5.189 -10.402  21.733  1.00  0.00     0.031 C 
ATOM     57  C   UNL     1       7.441 -10.579  20.710  1.00  0.00     0.034 A 
BRANCH  44  58
ATOM     58  C   UNL     1      10.809  -8.719  15.867  1.00  0.00     0.023 A 
ATOM     59  C   UNL     1      11.702  -7.628  15.872  1.00  0.00     0.012 A 
ATOM     60  C   UNL     1      11.171  -9.902  15.193  1.00  0.00     0.148 A 
ATOM     61  C   UNL     1      12.916  -7.696  15.190  1.00  0.00     0.002 A 
ATOM     62  C   UNL     1      12.404  -9.980  14.555  1.00  0.00     0.091 A 
ATOM     63  F   UNL     1      10.302 -10.923  15.180  1.00  0.00    -0.205 F 
ATOM     64  C   UNL     1      13.271  -8.875  14.541  1.00  0.00     0.022 A 
BRANCH  62  65
ATOM     65  S   UNL     1      12.992 -11.480  13.760  1.00  0.00     0.127 S 
ATOM     66  O   UNL     1      12.947 -11.103  12.348  1.00  0.00    -0.237 OA
ATOM     67  O   UNL     1      14.341 -11.612  14.312  1.00  0.00    -0.237 OA
ATOM     68  O   UNL     1      12.068 -12.534  14.155  1.00  0.00    -0.744 OA
ENDBRANCH  62  65
ENDBRANCH  44  58
BRANCH  45  69
ATOM     69  C   UNL     1       1.910  -8.125  20.368  1.00  0.00     0.023 A 
ATOM     70  C   UNL     1       1.797  -7.571  21.659  1.00  0.00     0.012 A 
ATOM     71  C   UNL     1       0.751  -8.586  19.716  1.00  0.00     0.148 A 
ATOM     72  C   UNL     1       0.561  -7.513  22.303  1.00  0.00     0.002 A 
ATOM     73  C   UNL     1      -0.486  -8.471  20.339  1.00  0.00     0.091 A 
ATOM     74  F   UNL     1       0.880  -9.118  18.492  1.00  0.00    -0.205 F 
ATOM     75  C   UNL     1      -0.581  -7.953  21.640  1.00  0.00     0.022 A 
BRANCH  73  76
ATOM     76  S   UNL     1      -2.023  -8.884  19.507  1.00  0.00     0.127 S 
ATOM     77  O   UNL     1      -2.429 -10.096  20.213  1.00  0.00    -0.237 OA
ATOM     78  O   UNL     1      -2.842  -7.704  19.785  1.00  0.00    -0.237 OA
ATOM     79  O   UNL     1      -1.675  -9.054  18.103  1.00  0.00    -0.744 OA
ENDBRANCH  73  76
ENDBRANCH  45  69
BRANCH  57  80
ATOM     80  C   UNL     1       7.830 -11.504  21.835  1.00  0.00     0.023 A 
ATOM     81  C   UNL     1       7.260 -12.791  21.919  1.00  0.00     0.012 A 
ATOM     82  C   UNL     1       8.783 -11.109  22.794  1.00  0.00     0.148 A 
ATOM     83  C   UNL     1       7.590 -13.647  22.970  1.00  0.00     0.002 A 
ATOM     84  C   UNL     1       9.148 -11.988  23.807  1.00  0.00     0.091 A 
ATOM     85  F   UNL     1       9.303  -9.875  22.713  1.00  0.00    -0.205 F 
ATOM     86  C   UNL     1       8.540 -13.249  23.907  1.00  0.00     0.022 A 
BRANCH  84  87
ATOM     87  S   UNL     1      10.436 -11.594  24.996  1.00  0.00     0.127 S 
ATOM     88  O   UNL     1       9.652 -11.251  26.182  1.00  0.00    -0.237 OA
ATOM     89  O   UNL     1      11.169 -12.857  25.094  1.00  0.00    -0.237 OA
ATOM     90  O   UNL     1      11.198 -10.501  24.407  1.00  0.00    -0.744 OA
ENDBRANCH  84  87
ENDBRANCH  57  80
ENDBRANCH  31  32
ENDBRANCH  23  26
ENDBRANCH  21  22
ENDBRANCH  20  21
ENDBRANCH   1  20
TORSDOF 18
