REMARK SMILES COc1ccc(/C=C2/C(=O)N(c3ccccc3)C(=O)[NH+]=C2NCCCCNC(=O)c2ccc(-c3c4nc(c(-c5cccc(S(=O)(=O)[O-])c5F)c5ccc([nH]5)c(-c5cccc(S(=O)(=O)[O-])c5F)c5nc(c(-c6cccc(S(=O)(=O)[O-])c6F)c6ccc3[nH]6)C=C5)C=C4)cc2)cc1C(=O)[O-]
REMARK SMILES IDX 25 1 24 2 23 3 22 4 7 5 8 6 9 7 21 8 10 9 11 10 20 11 18 12
REMARK SMILES IDX 19 15 6 16 3 17 4 18 94 19 5 20 93 21 2 22 1 23 95 24 96 25
REMARK SMILES IDX 97 26 12 27 13 28 17 29 14 30 16 31 15 32 26 33 27 34 28 35
REMARK SMILES IDX 29 37 30 38 31 39 92 40 32 41 91 42 33 43 34 44 35 45 85 46
REMARK SMILES IDX 36 47 90 48 84 49 86 50 37 51 89 52 83 53 82 54 38 56 70 57
REMARK SMILES IDX 50 58 69 59 51 60 54 61 68 62 87 63 52 64 53 65 67 67 88 68
REMARK SMILES IDX 55 69 39 70 40 71 48 72 41 73 43 74 49 75 42 76 44 77 45 78
REMARK SMILES IDX 46 79 47 80 71 81 72 82 80 83 73 84 75 85 81 86 74 87 76 88
REMARK SMILES IDX 77 89 78 90 79 91 56 92 57 93 65 94 58 95 60 96 66 97 59 98
REMARK SMILES IDX 61 99 62 100 63 101 64 102
REMARK H PARENT 20 13 22 14 27 36 86 55 54 66
REMARK Flexibility Score: inf
ROOT
ATOM      1  C   UNL     1      -0.954   1.234  -2.028  1.00  0.00     0.024 C 
ENDROOT
BRANCH   1   2
ATOM      2  C   UNL     1       0.628   1.485  -2.849  1.00  0.00     0.039 C 
BRANCH   2   3
ATOM      3  C   UNL     1       1.617   0.635  -4.622  1.00  0.00     0.194 C 
BRANCH   3   4
ATOM      4  N   UNL     1       1.035   0.431  -6.144  1.00  0.00    -0.305 N 
ATOM      5  C   UNL     1       0.998   3.437  -5.811  1.00  0.00     0.030 C 
ATOM      6  C   UNL     1       1.167   2.809  -6.979  1.00  0.00     0.129 C 
ATOM      7  C   UNL     1       1.607   3.515  -8.190  1.00  0.00     0.328 C 
ATOM      8  C   UNL     1       0.848   1.373  -7.141  1.00  0.00     0.236 C 
ATOM      9  O   UNL     1       2.399   4.452  -8.124  1.00  0.00    -0.249 OA
ATOM     10  N   UNL     1       1.042   2.983  -9.331  1.00  0.00    -0.155 N 
ATOM     11  N   UNL     1       0.318   0.998  -8.271  1.00  0.00    -0.209 N 
ATOM     12  C   UNL     1       0.096   1.964  -9.240  1.00  0.00     0.448 C 
ATOM     13  H   UNL     1       0.082   0.055  -8.432  1.00  0.00     0.270 HD
ATOM     14  H   UNL     1       0.784  -0.491  -6.382  1.00  0.00     0.256 HD
ATOM     15  O   UNL     1      -0.901   1.931  -9.958  1.00  0.00    -0.212 OA
BRANCH   5  16
ATOM     16  C   UNL     1       0.823   2.572  -4.656  1.00  0.00    -0.024 A 
ATOM     17  C   UNL     1       1.609  -0.355  -2.720  1.00  0.00     0.127 A 
ATOM     18  C   UNL     1       0.059  -0.307  -3.678  1.00  0.00     0.048 A 
ATOM     19  C   UNL     1       2.764   0.994  -2.813  1.00  0.00     0.040 A 
ATOM     20  C   UNL     1      -0.391   1.216  -4.585  1.00  0.00     0.012 A 
ATOM     21  C   UNL     1       2.352   2.462  -3.717  1.00  0.00     0.022 A 
BRANCH  17  22
ATOM     22  O   UNL     1       1.770  -1.313  -1.747  1.00  0.00    -0.496 OA
ATOM     23  C   UNL     1       1.986  -0.715  -0.438  1.00  0.00     0.278 C 
ENDBRANCH  17  22
BRANCH  19  24
ATOM     24  C   UNL     1       4.099   0.909  -2.210  1.00  0.00     0.075 C 
ATOM     25  O   UNL     1       4.787   1.850  -1.874  1.00  0.00    -0.545 OA
ATOM     26  O   UNL     1       4.491  -0.368  -2.097  1.00  0.00    -0.545 OA
ENDBRANCH  19  24
ENDBRANCH   5  16
BRANCH  10  27
ATOM     27  C   UNL     1       1.228   3.678 -10.545  1.00  0.00     0.111 A 
ATOM     28  C   UNL     1       0.544   4.870 -10.803  1.00  0.00     0.044 A 
ATOM     29  C   UNL     1       2.225   3.234 -11.420  1.00  0.00     0.044 A 
ATOM     30  C   UNL     1       0.867   5.620 -11.934  1.00  0.00     0.004 A 
ATOM     31  C   UNL     1       2.550   3.993 -12.544  1.00  0.00     0.004 A 
ATOM     32  C   UNL     1       1.874   5.187 -12.797  1.00  0.00     0.000 A 
ENDBRANCH  10  27
ENDBRANCH   3   4
ENDBRANCH   2   3
ENDBRANCH   1   2
BRANCH   1  33
ATOM     33  C   UNL     1      -1.681  -0.082  -1.581  1.00  0.00     0.116 C 
BRANCH  33  34
ATOM     34  N   UNL     1      -0.828  -1.117  -1.023  1.00  0.00    -0.352 N 
ATOM     35  C   UNL     1      -1.040  -2.173  -0.196  1.00  0.00     0.251 C 
ATOM     36  H   UNL     1       0.111  -1.035  -1.308  1.00  0.00     0.163 HD
ATOM     37  O   UNL     1      -0.123  -2.844   0.264  1.00  0.00    -0.269 OA
BRANCH  35  38
ATOM     38  C   UNL     1      -2.396  -2.591   0.046  1.00  0.00     0.039 A 
ATOM     39  C   UNL     1      -2.849  -2.688   1.359  1.00  0.00     0.014 A 
ATOM     40  C   UNL     1      -3.145  -2.984  -1.063  1.00  0.00     0.014 A 
ATOM     41  C   UNL     1      -4.130  -3.153   1.565  1.00  0.00     0.010 A 
ATOM     42  C   UNL     1      -4.435  -3.404  -0.860  1.00  0.00     0.010 A 
ATOM     43  C   UNL     1      -4.919  -3.489   0.453  1.00  0.00    -0.014 A 
BRANCH  43  44
ATOM     44  C   UNL     1      -6.303  -3.915   0.635  1.00  0.00     0.031 A 
ATOM     45  C   UNL     1      -6.660  -5.333   0.344  1.00  0.00     0.074 A 
ATOM     46  C   UNL     1      -7.196  -2.960   0.937  1.00  0.00     0.049 A 
ATOM     47  N   UNL     1      -7.833  -5.896   0.355  1.00  0.00    -0.248 NA
ATOM     48  C   UNL     1      -5.558  -6.232  -0.053  1.00  0.00     0.031 C 
ATOM     49  C   UNL     1      -6.879  -1.537   1.124  1.00  0.00     0.029 A 
ATOM     50  N   UNL     1      -8.545  -3.026   1.108  1.00  0.00    -0.354 N 
ATOM     51  C   UNL     1      -7.621  -7.203  -0.059  1.00  0.00     0.074 A 
ATOM     52  C   UNL     1      -6.215  -7.341  -0.359  1.00  0.00     0.031 C 
ATOM     53  C   UNL     1      -8.009  -0.867   1.389  1.00  0.00     0.029 A 
ATOM     54  C   UNL     1      -9.121  -1.806   1.366  1.00  0.00     0.049 A 
ATOM     55  H   UNL     1      -9.056  -3.865   1.052  1.00  0.00     0.167 HD
ATOM     56  C   UNL     1      -8.531  -8.198  -0.143  1.00  0.00     0.034 A 
ATOM     57  C   UNL     1     -10.415  -1.504   1.562  1.00  0.00     0.034 A 
ATOM     58  C   UNL     1      -9.912  -8.004   0.199  1.00  0.00     0.049 A 
ATOM     59  C   UNL     1     -11.389  -2.648   1.541  1.00  0.00     0.074 A 
ATOM     60  C   UNL     1     -10.937  -8.927   0.230  1.00  0.00     0.029 A 
ATOM     61  N   UNL     1     -10.456  -6.780   0.578  1.00  0.00    -0.354 N 
ATOM     62  N   UNL     1     -11.161  -3.917   1.288  1.00  0.00    -0.248 NA
ATOM     63  C   UNL     1     -12.781  -2.337   1.874  1.00  0.00     0.031 C 
ATOM     64  C   UNL     1     -12.104  -8.259   0.619  1.00  0.00     0.029 A 
ATOM     65  C   UNL     1     -11.801  -6.924   0.852  1.00  0.00     0.049 A 
ATOM     66  H   UNL     1      -9.955  -5.936   0.640  1.00  0.00     0.167 HD
ATOM     67  C   UNL     1     -12.373  -4.565   1.465  1.00  0.00     0.074 A 
ATOM     68  C   UNL     1     -13.325  -3.546   1.870  1.00  0.00     0.031 C 
ATOM     69  C   UNL     1     -12.686  -5.874   1.295  1.00  0.00     0.034 A 
BRANCH  56  70
ATOM     70  C   UNL     1      -8.040  -9.560  -0.557  1.00  0.00     0.023 A 
ATOM     71  C   UNL     1      -7.192 -10.285   0.308  1.00  0.00     0.012 A 
ATOM     72  C   UNL     1      -8.420 -10.133  -1.785  1.00  0.00     0.148 A 
ATOM     73  C   UNL     1      -6.697 -11.535  -0.059  1.00  0.00     0.002 A 
ATOM     74  C   UNL     1      -7.959 -11.401  -2.124  1.00  0.00     0.091 A 
ATOM     75  F   UNL     1      -9.203  -9.421  -2.608  1.00  0.00    -0.205 F 
ATOM     76  C   UNL     1      -7.088 -12.097  -1.270  1.00  0.00     0.022 A 
BRANCH  74  77
ATOM     77  S   UNL     1      -8.457 -12.247  -3.629  1.00  0.00     0.127 S 
ATOM     78  O   UNL     1      -7.200 -12.285  -4.376  1.00  0.00    -0.237 OA
ATOM     79  O   UNL     1      -8.900 -13.544  -3.116  1.00  0.00    -0.237 OA
ATOM     80  O   UNL     1      -9.508 -11.434  -4.221  1.00  0.00    -0.744 OA
ENDBRANCH  74  77
ENDBRANCH  56  70
BRANCH  57  81
ATOM     81  C   UNL     1     -10.815  -0.110   1.890  1.00  0.00     0.023 A 
ATOM     82  C   UNL     1     -11.249   0.193   3.195  1.00  0.00     0.012 A 
ATOM     83  C   UNL     1     -10.704   0.930   0.946  1.00  0.00     0.148 A 
ATOM     84  C   UNL     1     -11.605   1.497   3.542  1.00  0.00     0.002 A 
ATOM     85  C   UNL     1     -11.010   2.236   1.314  1.00  0.00     0.091 A 
ATOM     86  F   UNL     1     -10.285   0.626  -0.290  1.00  0.00    -0.205 F 
ATOM     87  C   UNL     1     -11.478   2.519   2.606  1.00  0.00     0.022 A 
BRANCH  85  88
ATOM     88  S   UNL     1     -10.737   3.628   0.211  1.00  0.00     0.127 S 
ATOM     89  O   UNL     1     -12.095   3.928  -0.234  1.00  0.00    -0.237 OA
ATOM     90  O   UNL     1     -10.149   4.623   1.110  1.00  0.00    -0.237 OA
ATOM     91  O   UNL     1      -9.822   3.138  -0.812  1.00  0.00    -0.744 OA
ENDBRANCH  85  88
ENDBRANCH  57  81
BRANCH  69  92
ATOM     92  C   UNL     1     -14.106  -6.266   1.579  1.00  0.00     0.023 A 
ATOM     93  C   UNL     1     -15.121  -5.916   0.667  1.00  0.00     0.012 A 
ATOM     94  C   UNL     1     -14.416  -7.046   2.708  1.00  0.00     0.148 A 
ATOM     95  C   UNL     1     -16.436  -6.312   0.895  1.00  0.00     0.002 A 
ATOM     96  C   UNL     1     -15.718  -7.483   2.898  1.00  0.00     0.091 A 
ATOM     97  F   UNL     1     -13.432  -7.346   3.569  1.00  0.00    -0.205 F 
ATOM     98  C   UNL     1     -16.731  -7.106   2.001  1.00  0.00     0.022 A 
BRANCH  96  99
ATOM     99  S   UNL     1     -16.167  -8.595   4.234  1.00  0.00     0.127 S 
ATOM    100  O   UNL     1     -16.899  -7.702   5.129  1.00  0.00    -0.237 OA
ATOM    101  O   UNL     1     -16.995  -9.585   3.546  1.00  0.00    -0.237 OA
ATOM    102  O   UNL     1     -14.913  -9.117   4.759  1.00  0.00    -0.744 OA
ENDBRANCH  96  99
ENDBRANCH  69  92
ENDBRANCH  43  44
ENDBRANCH  35  38
ENDBRANCH  33  34
ENDBRANCH   1  33
TORSDOF 17
