REMARK SMILES O=C(NCCCCNC(=O)[C@H](c1cnn(Cc2ccccc2)c1)[NH+]1CCOCC1)c1ccc(-c2c3nc(c(-c4cccc(S(=O)(=O)[O-])c4F)c4ccc([nH]4)c(-c4cccc(S(=O)(=O)[O-])c4F)c4nc(c(-c5cccc(S(=O)(=O)[O-])c5F)c5ccc2[nH]5)C=C4)C=C3)cc1
REMARK SMILES IDX 5 1 4 2 3 3 1 4 2 5 30 7 31 8 92 9 32 10 91 11 33 12 34 13
REMARK SMILES IDX 35 14 85 15 36 16 90 17 84 18 86 19 37 20 89 21 83 22 82 23
REMARK SMILES IDX 38 25 70 26 50 27 69 28 51 29 54 30 68 31 87 32 52 33 53 34
REMARK SMILES IDX 67 36 88 37 55 38 39 39 40 40 48 41 41 42 43 43 49 44 42 45
REMARK SMILES IDX 44 46 45 47 46 48 47 49 71 50 72 51 80 52 73 53 75 54 81 55
REMARK SMILES IDX 74 56 76 57 77 58 78 59 79 60 56 61 57 62 65 63 58 64 60 65
REMARK SMILES IDX 66 66 59 67 61 68 62 69 63 70 64 71 6 72 7 73 8 74 9 75
REMARK SMILES IDX 10 77 11 78 24 79 25 80 29 81 26 83 28 84 27 85 12 86 13 87
REMARK SMILES IDX 23 88 14 89 15 90 16 91 17 92 18 93 22 94 19 95 21 96 20 97
REMARK H PARENT 3 6 86 24 54 35 8 76 24 82
REMARK Flexibility Score: inf
ROOT
ATOM      1  C   UNL     1       7.425   7.718   0.338  1.00  0.00     0.023 C 
ENDROOT
BRANCH   1   2
ATOM      2  C   UNL     1       7.513   9.186   0.748  1.00  0.00     0.116 C 
BRANCH   2   3
ATOM      3  N   UNL     1       8.864   9.696   0.824  1.00  0.00    -0.352 N 
ATOM      4  O   UNL     1      10.839  10.562   0.358  1.00  0.00    -0.269 OA
ATOM      5  C   UNL     1       9.771  10.144  -0.097  1.00  0.00     0.251 C 
ATOM      6  H   UNL     1       9.209   9.727   1.746  1.00  0.00     0.163 HD
BRANCH   5   7
ATOM      7  C   UNL     1       9.575  10.101  -1.570  1.00  0.00     0.039 A 
ATOM      8  C   UNL     1       8.344   9.989  -2.217  1.00  0.00     0.014 A 
ATOM      9  C   UNL     1      10.741  10.203  -2.351  1.00  0.00     0.014 A 
ATOM     10  C   UNL     1       8.281   9.896  -3.603  1.00  0.00     0.010 A 
ATOM     11  C   UNL     1      10.683  10.137  -3.738  1.00  0.00     0.010 A 
ATOM     12  C   UNL     1       9.452   9.956  -4.361  1.00  0.00    -0.014 A 
BRANCH  12  13
ATOM     13  C   UNL     1       9.314  10.025  -5.813  1.00  0.00     0.031 A 
ATOM     14  C   UNL     1       8.612  11.247  -6.309  1.00  0.00     0.074 A 
ATOM     15  C   UNL     1       9.894   9.152  -6.660  1.00  0.00     0.049 A 
ATOM     16  N   UNL     1       7.526  11.321  -7.010  1.00  0.00    -0.248 NA
ATOM     17  C   UNL     1       9.129  12.552  -5.865  1.00  0.00     0.031 C 
ATOM     18  C   UNL     1      10.854   8.095  -6.333  1.00  0.00     0.029 A 
ATOM     19  N   UNL     1       9.851   9.122  -8.024  1.00  0.00    -0.354 N 
ATOM     20  C   UNL     1       7.341  12.679  -7.273  1.00  0.00     0.074 A 
ATOM     21  C   UNL     1       8.255  13.391  -6.421  1.00  0.00     0.031 C 
ATOM     22  C   UNL     1      11.484   7.706  -7.464  1.00  0.00     0.029 A 
ATOM     23  C   UNL     1      10.882   8.385  -8.598  1.00  0.00     0.049 A 
ATOM     24  H   UNL     1       9.156   9.578  -8.552  1.00  0.00     0.167 HD
ATOM     25  C   UNL     1       6.603  13.119  -8.329  1.00  0.00     0.034 A 
ATOM     26  C   UNL     1      11.266   8.402  -9.899  1.00  0.00     0.034 A 
ATOM     27  C   UNL     1       5.734  12.097  -8.842  1.00  0.00     0.049 A 
ATOM     28  C   UNL     1      10.143   8.947 -10.692  1.00  0.00     0.074 A 
ATOM     29  C   UNL     1       4.698  11.343  -8.328  1.00  0.00     0.029 A 
ATOM     30  N   UNL     1       6.118  11.468  -9.999  1.00  0.00    -0.354 N 
ATOM     31  N   UNL     1       9.008   8.330 -10.859  1.00  0.00    -0.248 NA
ATOM     32  C   UNL     1      10.134  10.370 -10.982  1.00  0.00     0.031 C 
ATOM     33  C   UNL     1       4.848  10.060  -8.929  1.00  0.00     0.029 A 
ATOM     34  C   UNL     1       5.929  10.125  -9.809  1.00  0.00     0.049 A 
ATOM     35  H   UNL     1       6.465  11.900 -10.812  1.00  0.00     0.167 HD
ATOM     36  C   UNL     1       8.060   9.342 -10.824  1.00  0.00     0.074 A 
ATOM     37  C   UNL     1       8.815  10.577 -11.019  1.00  0.00     0.031 C 
ATOM     38  C   UNL     1       6.799   9.107 -10.354  1.00  0.00     0.034 A 
BRANCH  25  39
ATOM     39  C   UNL     1       6.901  14.373  -9.117  1.00  0.00     0.023 A 
ATOM     40  C   UNL     1       5.939  14.806 -10.058  1.00  0.00     0.012 A 
ATOM     41  C   UNL     1       8.174  14.986  -9.175  1.00  0.00     0.148 A 
ATOM     42  C   UNL     1       6.242  15.770 -11.028  1.00  0.00     0.002 A 
ATOM     43  C   UNL     1       8.443  16.003 -10.085  1.00  0.00     0.091 A 
ATOM     44  F   UNL     1       9.181  14.501  -8.444  1.00  0.00    -0.205 F 
ATOM     45  C   UNL     1       7.491  16.378 -11.034  1.00  0.00     0.022 A 
BRANCH  43  46
ATOM     46  S   UNL     1      10.022  16.861 -10.088  1.00  0.00     0.127 S 
ATOM     47  O   UNL     1      10.655  16.301 -11.283  1.00  0.00    -0.237 OA
ATOM     48  O   UNL     1       9.600  18.260 -10.214  1.00  0.00    -0.237 OA
ATOM     49  O   UNL     1      10.644  16.539  -8.818  1.00  0.00    -0.744 OA
ENDBRANCH  43  46
ENDBRANCH  25  39
BRANCH  26  50
ATOM     50  C   UNL     1      12.614   8.235 -10.488  1.00  0.00     0.023 A 
ATOM     51  C   UNL     1      12.746   7.882 -11.847  1.00  0.00     0.012 A 
ATOM     52  C   UNL     1      13.761   8.698  -9.806  1.00  0.00     0.148 A 
ATOM     53  C   UNL     1      13.971   8.016 -12.511  1.00  0.00     0.002 A 
ATOM     54  C   UNL     1      14.978   8.823 -10.468  1.00  0.00     0.091 A 
ATOM     55  F   UNL     1      13.634   9.107  -8.537  1.00  0.00    -0.205 F 
ATOM     56  C   UNL     1      15.085   8.494 -11.825  1.00  0.00     0.022 A 
BRANCH  54  57
ATOM     57  S   UNL     1      16.449   9.459  -9.654  1.00  0.00     0.127 S 
ATOM     58  O   UNL     1      17.455   8.463 -10.026  1.00  0.00    -0.237 OA
ATOM     59  O   UNL     1      16.610  10.761 -10.296  1.00  0.00    -0.237 OA
ATOM     60  O   UNL     1      16.135   9.489  -8.231  1.00  0.00    -0.744 OA
ENDBRANCH  54  57
ENDBRANCH  26  50
BRANCH  38  61
ATOM     61  C   UNL     1       6.383   7.676 -10.120  1.00  0.00     0.023 A 
ATOM     62  C   UNL     1       7.038   6.842  -9.188  1.00  0.00     0.012 A 
ATOM     63  C   UNL     1       5.202   7.217 -10.726  1.00  0.00     0.148 A 
ATOM     64  C   UNL     1       6.541   5.571  -8.889  1.00  0.00     0.002 A 
ATOM     65  C   UNL     1       4.683   5.973 -10.388  1.00  0.00     0.091 A 
ATOM     66  F   UNL     1       4.586   8.022 -11.605  1.00  0.00    -0.205 F 
ATOM     67  C   UNL     1       5.355   5.142  -9.479  1.00  0.00     0.022 A 
BRANCH  65  68
ATOM     68  S   UNL     1       3.093   5.422 -11.010  1.00  0.00     0.127 S 
ATOM     69  O   UNL     1       3.483   4.434 -12.014  1.00  0.00    -0.237 OA
ATOM     70  O   UNL     1       2.463   4.862  -9.813  1.00  0.00    -0.237 OA
ATOM     71  O   UNL     1       2.430   6.614 -11.526  1.00  0.00    -0.744 OA
ENDBRANCH  65  68
ENDBRANCH  38  61
ENDBRANCH  12  13
ENDBRANCH   5   7
ENDBRANCH   2   3
ENDBRANCH   1   2
BRANCH   1  72
ATOM     72  C   UNL     1       8.159   6.743   1.271  1.00  0.00     0.023 C 
BRANCH  72  73
ATOM     73  C   UNL     1       7.881   6.932   2.765  1.00  0.00     0.116 C 
BRANCH  73  74
ATOM     74  N   UNL     1       6.463   6.907   3.067  1.00  0.00    -0.351 N 
ATOM     75  C   UNL     1       5.689   6.090   3.838  1.00  0.00     0.283 C 
ATOM     76  H   UNL     1       5.955   7.626   2.627  1.00  0.00     0.163 HD
ATOM     77  O   UNL     1       4.532   6.507   3.956  1.00  0.00    -0.268 OA
BRANCH  75  78
ATOM     78  C   UNL     1       6.272   4.829   4.577  1.00  0.00     0.308 C 
BRANCH  78  79
ATOM     79  N   UNL     1       5.331   3.990   5.394  1.00  0.00    -0.317 N 
ATOM     80  C   UNL     1       5.188   2.551   5.089  1.00  0.00     0.292 C 
ATOM     81  C   UNL     1       3.982   4.524   5.669  1.00  0.00     0.292 C 
ATOM     82  H   UNL     1       5.902   4.070   6.235  1.00  0.00     0.349 HD
ATOM     83  C   UNL     1       4.126   2.228   4.022  1.00  0.00     0.221 C 
ATOM     84  C   UNL     1       2.969   4.204   4.548  1.00  0.00     0.221 C 
ATOM     85  O   UNL     1       2.851   2.782   4.377  1.00  0.00    -0.370 OA
ENDBRANCH  78  79
BRANCH  78  86
ATOM     86  C   UNL     1       7.148   4.000   3.675  1.00  0.00     0.057 A 
ATOM     87  C   UNL     1       6.877   3.562   2.357  1.00  0.00     0.145 A 
ATOM     88  C   UNL     1       8.435   3.543   3.913  1.00  0.00     0.119 A 
ATOM     89  N   UNL     1       7.899   2.906   1.809  1.00  0.00    -0.181 NA
ATOM     90  N   UNL     1       8.847   2.919   2.767  1.00  0.00    -0.268 N 
BRANCH  90  91
ATOM     91  C   UNL     1      10.193   2.443   2.464  1.00  0.00     0.179 C 
BRANCH  91  92
ATOM     92  C   UNL     1      10.363   0.967   2.728  1.00  0.00    -0.027 A 
ATOM     93  C   UNL     1      11.344   0.510   3.621  1.00  0.00     0.005 A 
ATOM     94  C   UNL     1       9.586   0.023   2.040  1.00  0.00     0.005 A 
ATOM     95  C   UNL     1      11.532  -0.858   3.828  1.00  0.00     0.000 A 
ATOM     96  C   UNL     1       9.772  -1.343   2.251  1.00  0.00     0.000 A 
ATOM     97  C   UNL     1      10.745  -1.784   3.145  1.00  0.00     0.000 A 
ENDBRANCH  91  92
ENDBRANCH  90  91
ENDBRANCH  78  86
ENDBRANCH  75  78
ENDBRANCH  73  74
ENDBRANCH  72  73
ENDBRANCH   1  72
TORSDOF 18
