REMARK SMILES CCC(CC)(NC(=O)c1ccc(C)s1)C(=O)NCCCCNC(=O)c1ccc(-c2c3nc(c(-c4cccc(S(=O)(=O)[O-])c4F)c4ccc([nH]4)c(-c4cccc(S(=O)(=O)[O-])c4F)c4nc(c(-c5cccc(S(=O)(=O)[O-])c5F)c5ccc2[nH]5)C=C4)C=C3)cc1
REMARK SMILES IDX 20 1 19 2 18 3 17 4 15 5 16 6 3 8 2 9 1 10 4 11 5 12 6 13
REMARK SMILES IDX 7 14 8 16 9 17 10 18 14 19 11 20 12 21 13 22 21 23 22 24
REMARK SMILES IDX 23 25 24 27 25 28 26 29 87 30 27 31 86 32 28 33 29 34 30 35
REMARK SMILES IDX 80 36 31 37 85 38 79 39 81 40 32 41 84 42 78 43 77 44 33 46
REMARK SMILES IDX 65 47 45 48 64 49 46 50 49 51 63 52 82 53 47 54 48 55 62 57
REMARK SMILES IDX 83 58 50 59 34 60 35 61 43 62 36 63 38 64 44 65 37 66 39 67
REMARK SMILES IDX 40 68 41 69 42 70 66 71 67 72 75 73 68 74 70 75 76 76 69 77
REMARK SMILES IDX 71 78 72 79 73 80 74 81 51 82 52 83 60 84 53 85 55 86 61 87
REMARK SMILES IDX 54 88 56 89 57 90 58 91 59 92
REMARK H PARENT 17 7 6 15 22 26 81 45 49 56
REMARK Flexibility Score: inf
ROOT
ATOM      1  C   UNL     1       3.784  -5.990   3.135  1.00  0.00     0.023 C 
ENDROOT
BRANCH   1   2
ATOM      2  C   UNL     1       2.297  -5.731   2.965  1.00  0.00     0.023 C 
BRANCH   2   3
ATOM      3  C   UNL     1       1.854  -4.294   3.221  1.00  0.00     0.116 C 
BRANCH   3   4
ATOM      4  N   UNL     1       2.696  -3.248   2.647  1.00  0.00    -0.354 N 
ATOM      5  C   UNL     1       2.441  -2.304   1.684  1.00  0.00     0.245 C 
ATOM      6  O   UNL     1       3.220  -1.350   1.608  1.00  0.00    -0.272 OA
ATOM      7  H   UNL     1       3.608  -3.215   3.015  1.00  0.00     0.163 HD
BRANCH   5   8
ATOM      8  C   UNL     1       1.145  -2.365   0.836  1.00  0.00     0.118 C 
BRANCH   8   9
ATOM      9  C   UNL     1       1.125  -1.438  -0.415  1.00  0.00     0.035 C 
ATOM     10  C   UNL     1       1.169   0.072  -0.207  1.00  0.00     0.007 C 
ENDBRANCH   8   9
BRANCH   8  11
ATOM     11  C   UNL     1       0.014  -1.931   1.840  1.00  0.00     0.035 C 
ATOM     12  C   UNL     1      -1.427  -2.126   1.398  1.00  0.00     0.007 C 
ENDBRANCH   8  11
BRANCH   8  13
ATOM     13  N   UNL     1       0.946  -3.749   0.322  1.00  0.00    -0.337 N 
ATOM     14  C   UNL     1       1.712  -4.552  -0.514  1.00  0.00     0.262 C 
ATOM     15  H   UNL     1       0.115  -4.175   0.633  1.00  0.00     0.164 HD
ATOM     16  O   UNL     1       1.031  -5.261  -1.264  1.00  0.00    -0.268 OA
BRANCH  14  17
ATOM     17  C   UNL     1       3.162  -4.697  -0.400  1.00  0.00     0.092 A 
ATOM     18  C   UNL     1       4.223  -3.822  -0.253  1.00  0.00     0.026 A 
ATOM     19  S   UNL     1       3.775  -6.320  -0.504  1.00  0.00    -0.135 S 
ATOM     20  C   UNL     1       5.463  -4.490   0.032  1.00  0.00     0.016 A 
ATOM     21  C   UNL     1       5.335  -5.863   0.021  1.00  0.00     0.002 A 
ATOM     22  C   UNL     1       6.344  -6.896   0.413  1.00  0.00     0.056 C 
ENDBRANCH  14  17
ENDBRANCH   8  13
ENDBRANCH   5   8
ENDBRANCH   3   4
ENDBRANCH   2   3
ENDBRANCH   1   2
BRANCH   1  23
ATOM     23  C   UNL     1       4.343  -5.652   4.501  1.00  0.00     0.116 C 
BRANCH  23  24
ATOM     24  N   UNL     1       4.027  -6.668   5.483  1.00  0.00    -0.352 N 
ATOM     25  C   UNL     1       4.833  -7.626   6.048  1.00  0.00     0.251 C 
ATOM     26  H   UNL     1       3.093  -6.673   5.792  1.00  0.00     0.163 HD
ATOM     27  O   UNL     1       4.308  -8.537   6.687  1.00  0.00    -0.269 OA
BRANCH  25  28
ATOM     28  C   UNL     1       6.310  -7.589   5.894  1.00  0.00     0.039 A 
ATOM     29  C   UNL     1       7.002  -8.802   5.818  1.00  0.00     0.014 A 
ATOM     30  C   UNL     1       7.030  -6.392   5.892  1.00  0.00     0.014 A 
ATOM     31  C   UNL     1       8.398  -8.809   5.723  1.00  0.00     0.010 A 
ATOM     32  C   UNL     1       8.408  -6.397   5.680  1.00  0.00     0.010 A 
ATOM     33  C   UNL     1       9.115  -7.605   5.637  1.00  0.00    -0.014 A 
BRANCH  33  34
ATOM     34  C   UNL     1      10.602  -7.594   5.567  1.00  0.00     0.031 A 
ATOM     35  C   UNL     1      11.409  -6.918   6.649  1.00  0.00     0.074 A 
ATOM     36  C   UNL     1      11.232  -8.147   4.512  1.00  0.00     0.049 A 
ATOM     37  N   UNL     1      12.707  -6.779   6.747  1.00  0.00    -0.248 NA
ATOM     38  C   UNL     1      10.661  -6.290   7.752  1.00  0.00     0.031 C 
ATOM     39  C   UNL     1      10.572  -8.767   3.362  1.00  0.00     0.029 A 
ATOM     40  N   UNL     1      12.570  -8.260   4.227  1.00  0.00    -0.354 N 
ATOM     41  C   UNL     1      12.926  -6.023   7.893  1.00  0.00     0.074 A 
ATOM     42  C   UNL     1      11.627  -5.693   8.434  1.00  0.00     0.031 C 
ATOM     43  C   UNL     1      11.506  -9.203   2.501  1.00  0.00     0.029 A 
ATOM     44  C   UNL     1      12.828  -8.868   3.020  1.00  0.00     0.049 A 
ATOM     45  H   UNL     1      13.279  -7.936   4.829  1.00  0.00     0.167 HD
ATOM     46  C   UNL     1      14.098  -5.664   8.469  1.00  0.00     0.034 A 
ATOM     47  C   UNL     1      13.996  -9.121   2.397  1.00  0.00     0.034 A 
ATOM     48  C   UNL     1      15.391  -6.035   7.962  1.00  0.00     0.049 A 
ATOM     49  C   UNL     1      15.287  -8.748   3.075  1.00  0.00     0.074 A 
ATOM     50  C   UNL     1      16.635  -5.794   8.518  1.00  0.00     0.029 A 
ATOM     51  N   UNL     1      15.609  -6.722   6.778  1.00  0.00    -0.354 N 
ATOM     52  N   UNL     1      15.472  -8.166   4.235  1.00  0.00    -0.248 NA
ATOM     53  C   UNL     1      16.532  -9.101   2.376  1.00  0.00     0.031 C 
ATOM     54  C   UNL     1      17.607  -6.313   7.656  1.00  0.00     0.029 A 
ATOM     55  C   UNL     1      16.967  -6.905   6.580  1.00  0.00     0.049 A 
ATOM     56  H   UNL     1      14.902  -7.034   6.167  1.00  0.00     0.167 HD
ATOM     57  C   UNL     1      16.849  -8.114   4.421  1.00  0.00     0.074 A 
ATOM     58  C   UNL     1      17.450  -8.744   3.264  1.00  0.00     0.031 C 
ATOM     59  C   UNL     1      17.552  -7.579   5.449  1.00  0.00     0.034 A 
BRANCH  46  60
ATOM     60  C   UNL     1      14.036  -4.871   9.751  1.00  0.00     0.023 A 
ATOM     61  C   UNL     1      13.591  -5.495  10.935  1.00  0.00     0.012 A 
ATOM     62  C   UNL     1      14.468  -3.531   9.799  1.00  0.00     0.148 A 
ATOM     63  C   UNL     1      13.538  -4.789  12.136  1.00  0.00     0.002 A 
ATOM     64  C   UNL     1      14.457  -2.848  11.010  1.00  0.00     0.091 A 
ATOM     65  F   UNL     1      14.870  -2.947   8.661  1.00  0.00    -0.205 F 
ATOM     66  C   UNL     1      13.980  -3.470  12.175  1.00  0.00     0.022 A 
BRANCH  64  67
ATOM     67  S   UNL     1      15.082  -1.173  11.183  1.00  0.00     0.127 S 
ATOM     68  O   UNL     1      13.848  -0.418  11.397  1.00  0.00    -0.237 OA
ATOM     69  O   UNL     1      15.940  -1.285  12.364  1.00  0.00    -0.237 OA
ATOM     70  O   UNL     1      15.790  -0.877   9.945  1.00  0.00    -0.744 OA
ENDBRANCH  64  67
ENDBRANCH  46  60
BRANCH  47  71
ATOM     71  C   UNL     1      13.997  -9.813   1.078  1.00  0.00     0.023 A 
ATOM     72  C   UNL     1      14.472 -11.136   0.986  1.00  0.00     0.012 A 
ATOM     73  C   UNL     1      13.501  -9.179  -0.077  1.00  0.00     0.148 A 
ATOM     74  C   UNL     1      14.481 -11.804  -0.239  1.00  0.00     0.002 A 
ATOM     75  C   UNL     1      13.459  -9.870  -1.282  1.00  0.00     0.091 A 
ATOM     76  F   UNL     1      13.065  -7.916   0.030  1.00  0.00    -0.205 F 
ATOM     77  C   UNL     1      13.965 -11.176  -1.370  1.00  0.00     0.022 A 
BRANCH  75  78
ATOM     78  S   UNL     1      12.686  -9.188  -2.753  1.00  0.00     0.127 S 
ATOM     79  O   UNL     1      13.844  -8.945  -3.613  1.00  0.00    -0.237 OA
ATOM     80  O   UNL     1      11.825 -10.293  -3.179  1.00  0.00    -0.237 OA
ATOM     81  O   UNL     1      11.968  -8.006  -2.308  1.00  0.00    -0.744 OA
ENDBRANCH  75  78
ENDBRANCH  47  71
BRANCH  59  82
ATOM     82  C   UNL     1      19.055  -7.679   5.398  1.00  0.00     0.023 A 
ATOM     83  C   UNL     1      19.781  -6.888   4.487  1.00  0.00     0.012 A 
ATOM     84  C   UNL     1      19.750  -8.503   6.307  1.00  0.00     0.148 A 
ATOM     85  C   UNL     1      21.175  -6.941   4.457  1.00  0.00     0.002 A 
ATOM     86  C   UNL     1      21.139  -8.511   6.305  1.00  0.00     0.091 A 
ATOM     87  F   UNL     1      19.040  -9.261   7.155  1.00  0.00    -0.205 F 
ATOM     88  C   UNL     1      21.853  -7.742   5.372  1.00  0.00     0.022 A 
BRANCH  86  89
ATOM     89  S   UNL     1      22.099  -9.436   7.510  1.00  0.00     0.127 S 
ATOM     90  O   UNL     1      22.645 -10.516   6.690  1.00  0.00    -0.237 OA
ATOM     91  O   UNL     1      23.082  -8.445   7.949  1.00  0.00    -0.237 OA
ATOM     92  O   UNL     1      21.157  -9.851   8.541  1.00  0.00    -0.744 OA
ENDBRANCH  86  89
ENDBRANCH  59  82
ENDBRANCH  33  34
ENDBRANCH  25  28
ENDBRANCH  23  24
ENDBRANCH   1  23
TORSDOF 18
