REMARK SMILES COC(=O)C[C@H](c1ccc(C(=O)NCCCCNC(=O)c2ccc(-c3c4nc(c(-c5cccc(S(=O)(=O)[O-])c5F)c5ccc([nH]5)c(-c5cccc(S(=O)(=O)[O-])c5F)c5nc(c(-c6cccc(S(=O)(=O)[O-])c6F)c6ccc3[nH]6)C=C5)C=C4)cc2)cc1)c1c(O)n[nH]c1C
REMARK SMILES IDX 15 1 14 2 13 3 11 4 12 5 10 7 7 8 8 9 85 10 9 11 84 12 6 13
REMARK SMILES IDX 5 14 3 15 4 16 2 17 1 18 86 19 87 20 91 21 89 22 90 23 92 24
REMARK SMILES IDX 88 26 16 28 17 29 18 30 19 31 20 33 21 34 22 35 83 36 23 37
REMARK SMILES IDX 82 38 24 39 25 40 26 41 76 42 27 43 81 44 75 45 77 46 28 47
REMARK SMILES IDX 80 48 74 49 73 50 29 52 61 53 41 54 60 55 42 56 45 57 59 58
REMARK SMILES IDX 78 59 43 60 44 61 58 63 79 64 46 65 30 66 31 67 39 68 32 69
REMARK SMILES IDX 34 70 40 71 33 72 35 73 36 74 37 75 38 76 62 77 63 78 71 79
REMARK SMILES IDX 64 80 66 81 72 82 65 83 67 84 68 85 69 86 70 87 47 88 48 89
REMARK SMILES IDX 56 90 49 91 51 92 57 93 50 94 52 95 53 96 54 97 55 98
REMARK H PARENT 13 6 90 25 88 27 18 32 77 51 45 62
REMARK Flexibility Score: inf
ROOT
ATOM      1  C   UNL     1       2.072   4.125   4.811  1.00  0.00     0.023 C 
ENDROOT
BRANCH   1   2
ATOM      2  C   UNL     1       1.120   2.950   4.568  1.00  0.00     0.116 C 
BRANCH   2   3
ATOM      3  N   UNL     1      -0.241   3.419   4.431  1.00  0.00    -0.352 N 
ATOM      4  C   UNL     1      -0.956   3.914   3.373  1.00  0.00     0.251 C 
ATOM      5  O   UNL     1      -2.112   4.271   3.608  1.00  0.00    -0.269 OA
ATOM      6  H   UNL     1      -0.758   3.372   5.267  1.00  0.00     0.163 HD
BRANCH   4   7
ATOM      7  C   UNL     1      -0.453   4.000   1.966  1.00  0.00     0.039 A 
ATOM      8  C   UNL     1       0.220   3.995  -0.796  1.00  0.00    -0.040 A 
ATOM      9  C   UNL     1      -1.085   4.285  -0.374  1.00  0.00     0.005 A 
ATOM     10  C   UNL     1       1.198   3.800   0.185  1.00  0.00     0.005 A 
ATOM     11  C   UNL     1      -1.418   4.263   0.982  1.00  0.00     0.014 A 
ATOM     12  C   UNL     1       0.868   3.835   1.545  1.00  0.00     0.014 A 
BRANCH   8  13
ATOM     13  C   UNL     1       0.589   3.853  -2.267  1.00  0.00     0.068 C 
BRANCH  13  14
ATOM     14  C   UNL     1       0.054   2.570  -2.921  1.00  0.00     0.136 C 
BRANCH  14  15
ATOM     15  C   UNL     1      -1.383   2.215  -2.607  1.00  0.00     0.306 C 
ATOM     16  O   UNL     1      -2.359   2.594  -3.237  1.00  0.00    -0.252 OA
BRANCH  15  17
ATOM     17  O   UNL     1      -1.438   1.422  -1.497  1.00  0.00    -0.469 OA
ATOM     18  C   UNL     1      -2.753   1.207  -0.976  1.00  0.00     0.282 C 
ENDBRANCH  15  17
ENDBRANCH  14  15
ENDBRANCH  13  14
BRANCH  13  19
ATOM     19  C   UNL     1       0.285   5.180  -2.910  1.00  0.00     0.044 A 
ATOM     20  C   UNL     1      -0.489   5.475  -4.042  1.00  0.00     0.234 A 
ATOM     21  C   UNL     1       0.771   6.438  -2.554  1.00  0.00     0.040 A 
ATOM     22  N   UNL     1      -0.566   6.757  -4.360  1.00  0.00    -0.137 NA
ATOM     23  N   UNL     1       0.190   7.335  -3.413  1.00  0.00    -0.279 N 
ATOM     24  C   UNL     1       1.695   6.881  -1.481  1.00  0.00     0.066 C 
ATOM     25  H   UNL     1       0.315   8.308  -3.341  1.00  0.00     0.190 HD
BRANCH  20  26
ATOM     26  O   UNL     1      -1.139   4.665  -4.868  1.00  0.00    -0.492 OA
ATOM     27  H   UNL     1      -1.136   3.740  -4.715  1.00  0.00     0.295 HD
ENDBRANCH  20  26
ENDBRANCH  13  19
ENDBRANCH   8  13
ENDBRANCH   4   7
ENDBRANCH   2   3
ENDBRANCH   1   2
BRANCH   1  28
ATOM     28  C   UNL     1       2.067   4.636   6.254  1.00  0.00     0.023 C 
BRANCH  28  29
ATOM     29  C   UNL     1       2.620   3.644   7.269  1.00  0.00     0.116 C 
BRANCH  29  30
ATOM     30  N   UNL     1       4.004   3.270   7.006  1.00  0.00    -0.352 N 
ATOM     31  C   UNL     1       4.910   2.749   7.902  1.00  0.00     0.251 C 
ATOM     32  H   UNL     1       4.326   3.404   6.085  1.00  0.00     0.163 HD
ATOM     33  O   UNL     1       6.076   2.567   7.588  1.00  0.00    -0.269 OA
BRANCH  31  34
ATOM     34  C   UNL     1       4.439   2.465   9.271  1.00  0.00     0.039 A 
ATOM     35  C   UNL     1       5.047   3.119  10.345  1.00  0.00     0.014 A 
ATOM     36  C   UNL     1       3.336   1.632   9.468  1.00  0.00     0.014 A 
ATOM     37  C   UNL     1       4.501   2.989  11.623  1.00  0.00     0.010 A 
ATOM     38  C   UNL     1       2.760   1.553  10.728  1.00  0.00     0.010 A 
ATOM     39  C   UNL     1       3.334   2.233  11.815  1.00  0.00    -0.014 A 
BRANCH  39  40
ATOM     40  C   UNL     1       2.676   2.122  13.139  1.00  0.00     0.031 A 
ATOM     41  C   UNL     1       2.586   0.776  13.801  1.00  0.00     0.074 A 
ATOM     42  C   UNL     1       2.046   3.189  13.668  1.00  0.00     0.049 A 
ATOM     43  N   UNL     1       1.898   0.418  14.852  1.00  0.00    -0.248 NA
ATOM     44  C   UNL     1       3.341  -0.321  13.172  1.00  0.00     0.031 C 
ATOM     45  C   UNL     1       2.011   4.530  13.081  1.00  0.00     0.029 A 
ATOM     46  N   UNL     1       1.273   3.301  14.797  1.00  0.00    -0.354 N 
ATOM     47  C   UNL     1       2.089  -0.952  14.977  1.00  0.00     0.074 A 
ATOM     48  C   UNL     1       2.945  -1.364  13.887  1.00  0.00     0.031 C 
ATOM     49  C   UNL     1       1.246   5.326  13.847  1.00  0.00     0.029 A 
ATOM     50  C   UNL     1       0.710   4.546  14.958  1.00  0.00     0.049 A 
ATOM     51  H   UNL     1       1.136   2.561  15.431  1.00  0.00     0.167 HD
ATOM     52  C   UNL     1       1.614  -1.787  15.930  1.00  0.00     0.034 A 
ATOM     53  C   UNL     1      -0.155   5.000  15.887  1.00  0.00     0.034 A 
ATOM     54  C   UNL     1       0.823  -1.356  17.049  1.00  0.00     0.049 A 
ATOM     55  C   UNL     1      -0.614   4.064  16.974  1.00  0.00     0.074 A 
ATOM     56  C   UNL     1       0.366  -2.106  18.117  1.00  0.00     0.029 A 
ATOM     57  N   UNL     1       0.381  -0.058  17.248  1.00  0.00    -0.354 N 
ATOM     58  N   UNL     1      -0.312   2.801  17.155  1.00  0.00    -0.248 NA
ATOM     59  C   UNL     1      -1.506   4.620  18.002  1.00  0.00     0.031 C 
ATOM     60  C   UNL     1      -0.354  -1.258  18.965  1.00  0.00     0.029 A 
ATOM     61  C   UNL     1      -0.338   0.019  18.427  1.00  0.00     0.049 A 
ATOM     62  H   UNL     1       0.553   0.698  16.641  1.00  0.00     0.167 HD
ATOM     63  C   UNL     1      -0.938   2.424  18.337  1.00  0.00     0.074 A 
ATOM     64  C   UNL     1      -1.631   3.594  18.835  1.00  0.00     0.031 C 
ATOM     65  C   UNL     1      -0.950   1.214  18.947  1.00  0.00     0.034 A 
BRANCH  52  66
ATOM     66  C   UNL     1       1.992  -3.239  15.838  1.00  0.00     0.023 A 
ATOM     67  C   UNL     1       3.309  -3.632  16.152  1.00  0.00     0.012 A 
ATOM     68  C   UNL     1       1.041  -4.219  15.494  1.00  0.00     0.148 A 
ATOM     69  C   UNL     1       3.683  -4.973  16.095  1.00  0.00     0.002 A 
ATOM     70  C   UNL     1       1.411  -5.559  15.478  1.00  0.00     0.091 A 
ATOM     71  F   UNL     1      -0.199  -3.824  15.172  1.00  0.00    -0.205 F 
ATOM     72  C   UNL     1       2.732  -5.937  15.769  1.00  0.00     0.022 A 
BRANCH  70  73
ATOM     73  S   UNL     1       0.237  -6.877  15.142  1.00  0.00     0.127 S 
ATOM     74  O   UNL     1       0.592  -7.246  13.773  1.00  0.00    -0.237 OA
ATOM     75  O   UNL     1       0.591  -7.874  16.153  1.00  0.00    -0.237 OA
ATOM     76  O   UNL     1      -1.083  -6.287  15.313  1.00  0.00    -0.744 OA
ENDBRANCH  70  73
ENDBRANCH  52  66
BRANCH  53  77
ATOM     77  C   UNL     1      -0.580   6.428  15.873  1.00  0.00     0.023 A 
ATOM     78  C   UNL     1      -0.086   7.298  16.865  1.00  0.00     0.012 A 
ATOM     79  C   UNL     1      -1.431   6.939  14.874  1.00  0.00     0.148 A 
ATOM     80  C   UNL     1      -0.453   8.644  16.879  1.00  0.00     0.002 A 
ATOM     81  C   UNL     1      -1.752   8.293  14.865  1.00  0.00     0.091 A 
ATOM     82  F   UNL     1      -1.903   6.094  13.947  1.00  0.00    -0.205 F 
ATOM     83  C   UNL     1      -1.276   9.144  15.874  1.00  0.00     0.022 A 
BRANCH  81  84
ATOM     84  S   UNL     1      -2.699   9.043  13.534  1.00  0.00     0.127 S 
ATOM     85  O   UNL     1      -4.003   9.229  14.163  1.00  0.00    -0.237 OA
ATOM     86  O   UNL     1      -1.953  10.278  13.286  1.00  0.00    -0.237 OA
ATOM     87  O   UNL     1      -2.647   8.087  12.437  1.00  0.00    -0.744 OA
ENDBRANCH  81  84
ENDBRANCH  53  77
BRANCH  65  88
ATOM     88  C   UNL     1      -1.684   1.087  20.253  1.00  0.00     0.023 A 
ATOM     89  C   UNL     1      -3.088   0.991  20.256  1.00  0.00     0.012 A 
ATOM     90  C   UNL     1      -0.972   0.932  21.459  1.00  0.00     0.148 A 
ATOM     91  C   UNL     1      -3.776   0.752  21.446  1.00  0.00     0.002 A 
ATOM     92  C   UNL     1      -1.661   0.653  22.633  1.00  0.00     0.091 A 
ATOM     93  F   UNL     1       0.364   1.046  21.431  1.00  0.00    -0.205 F 
ATOM     94  C   UNL     1      -3.063   0.570  22.629  1.00  0.00     0.022 A 
BRANCH  92  95
ATOM     95  S   UNL     1      -0.822   0.308  24.183  1.00  0.00     0.127 S 
ATOM     96  O   UNL     1      -1.130   1.507  24.961  1.00  0.00    -0.237 OA
ATOM     97  O   UNL     1      -1.499  -0.906  24.639  1.00  0.00    -0.237 OA
ATOM     98  O   UNL     1       0.585   0.127  23.849  1.00  0.00    -0.744 OA
ENDBRANCH  92  95
ENDBRANCH  65  88
ENDBRANCH  39  40
ENDBRANCH  31  34
ENDBRANCH  29  30
ENDBRANCH  28  29
ENDBRANCH   1  28
TORSDOF 20
