REMARK SMILES CCc1ccc2c(CC(=O)NCCCCNC(=O)c3ccc(-c4c5nc(c(-c6cccc(S(=O)(=O)[O-])c6F)c6ccc([nH]6)c(-c6cccc(S(=O)(=O)[O-])c6F)c6nc(c(-c7cccc(S(=O)(=O)[O-])c7F)c7ccc4[nH]7)C=C6)C=C5)cc3)c(C(=O)c3cc(C)ccn3)[nH]c2c1
REMARK SMILES IDX 13 1 12 2 11 3 9 4 10 5 8 7 7 8 3 9 4 10 94 11 5 12 93 13
REMARK SMILES IDX 6 14 92 15 82 16 2 18 1 19 83 20 84 21 85 22 86 23 91 24
REMARK SMILES IDX 87 25 90 26 88 27 89 28 14 29 15 30 16 31 17 32 18 34 19 35
REMARK SMILES IDX 20 36 81 37 21 38 80 39 22 40 23 41 24 42 74 43 25 44 79 45
REMARK SMILES IDX 73 46 75 47 26 48 78 49 72 50 71 51 27 53 59 54 39 55 58 56
REMARK SMILES IDX 40 57 43 58 57 59 76 60 41 61 42 62 56 64 77 65 44 66 28 67
REMARK SMILES IDX 29 68 37 69 30 70 32 71 38 72 31 73 33 74 34 75 35 76 36 77
REMARK SMILES IDX 60 78 61 79 69 80 62 81 64 82 70 83 63 84 65 85 66 86 67 87
REMARK SMILES IDX 68 88 45 89 46 90 54 91 47 92 49 93 55 94 48 95 50 96 51 97
REMARK SMILES IDX 52 98 53 99
REMARK H PARENT 11 6 92 17 16 33 75 52 43 63
REMARK Flexibility Score: inf
ROOT
ATOM      1  C   UNL     1       3.584  -5.424   0.989  1.00  0.00     0.023 C 
ENDROOT
BRANCH   1   2
ATOM      2  C   UNL     1       4.572  -5.650  -0.153  1.00  0.00     0.116 C 
BRANCH   2   3
ATOM      3  N   UNL     1       4.579  -7.018  -0.626  1.00  0.00    -0.356 N 
ATOM      4  C   UNL     1       4.048  -7.547  -1.769  1.00  0.00     0.224 C 
ATOM      5  O   UNL     1       4.366  -8.706  -2.049  1.00  0.00    -0.275 OA
ATOM      6  H   UNL     1       5.032  -7.662  -0.037  1.00  0.00     0.163 HD
BRANCH   4   7
ATOM      7  C   UNL     1       3.219  -6.702  -2.731  1.00  0.00     0.138 C 
BRANCH   7   8
ATOM      8  C   UNL     1       2.006  -6.041  -2.129  1.00  0.00    -0.002 A 
ATOM      9  C   UNL     1       0.837  -2.030  -1.480  1.00  0.00    -0.046 A 
ATOM     10  C   UNL     1       2.021  -2.210  -2.202  1.00  0.00     0.004 A 
ATOM     11  C   UNL     1       0.114  -3.148  -1.030  1.00  0.00     0.030 A 
ATOM     12  C   UNL     1       2.501  -3.492  -2.493  1.00  0.00     0.011 A 
ATOM     13  C   UNL     1       0.609  -4.423  -1.338  1.00  0.00     0.046 A 
ATOM     14  C   UNL     1       1.786  -4.624  -2.050  1.00  0.00     0.004 A 
ATOM     15  N   UNL     1       0.114  -5.665  -1.023  1.00  0.00    -0.352 N 
ATOM     16  C   UNL     1       0.879  -6.665  -1.590  1.00  0.00     0.093 A 
ATOM     17  H   UNL     1      -0.682  -5.822  -0.466  1.00  0.00     0.167 HD
BRANCH   9  18
ATOM     18  C   UNL     1       0.358  -0.636  -1.159  1.00  0.00     0.032 C 
ATOM     19  C   UNL     1       0.951  -0.118   0.143  1.00  0.00     0.009 C 
ENDBRANCH   9  18
BRANCH  16  20
ATOM     20  C   UNL     1       0.549  -8.086  -1.579  1.00  0.00     0.227 C 
ATOM     21  O   UNL     1       1.215  -8.938  -2.168  1.00  0.00    -0.285 OA
BRANCH  20  22
ATOM     22  C   UNL     1      -0.702  -8.535  -0.915  1.00  0.00     0.113 A 
ATOM     23  C   UNL     1      -1.934  -8.174  -1.454  1.00  0.00     0.036 A 
ATOM     24  N   UNL     1      -0.557  -9.307   0.188  1.00  0.00    -0.253 NA
ATOM     25  C   UNL     1      -3.093  -8.630  -0.823  1.00  0.00    -0.047 A 
ATOM     26  C   UNL     1      -1.690  -9.761   0.761  1.00  0.00     0.112 A 
ATOM     27  C   UNL     1      -4.452  -8.282  -1.349  1.00  0.00     0.044 C 
ATOM     28  C   UNL     1      -2.962  -9.451   0.300  1.00  0.00     0.023 A 
ENDBRANCH  20  22
ENDBRANCH  16  20
ENDBRANCH   7   8
ENDBRANCH   4   7
ENDBRANCH   2   3
ENDBRANCH   1   2
BRANCH   1  29
ATOM     29  C   UNL     1       3.967  -6.074   2.323  1.00  0.00     0.023 C 
BRANCH  29  30
ATOM     30  C   UNL     1       5.339  -5.702   2.878  1.00  0.00     0.116 C 
BRANCH  30  31
ATOM     31  N   UNL     1       5.537  -4.267   3.015  1.00  0.00    -0.352 N 
ATOM     32  C   UNL     1       6.254  -3.571   3.957  1.00  0.00     0.251 C 
ATOM     33  H   UNL     1       5.092  -3.715   2.332  1.00  0.00     0.163 HD
ATOM     34  O   UNL     1       6.222  -2.341   3.948  1.00  0.00    -0.269 OA
BRANCH  32  35
ATOM     35  C   UNL     1       7.029  -4.281   5.001  1.00  0.00     0.039 A 
ATOM     36  C   UNL     1       6.979  -3.794   6.311  1.00  0.00     0.014 A 
ATOM     37  C   UNL     1       7.812  -5.401   4.707  1.00  0.00     0.014 A 
ATOM     38  C   UNL     1       7.662  -4.461   7.331  1.00  0.00     0.010 A 
ATOM     39  C   UNL     1       8.445  -6.101   5.736  1.00  0.00     0.010 A 
ATOM     40  C   UNL     1       8.378  -5.638   7.058  1.00  0.00    -0.014 A 
BRANCH  40  41
ATOM     41  C   UNL     1       9.026  -6.402   8.155  1.00  0.00     0.031 A 
ATOM     42  C   UNL     1      10.522  -6.538   8.226  1.00  0.00     0.074 A 
ATOM     43  C   UNL     1       8.253  -7.035   9.060  1.00  0.00     0.049 A 
ATOM     44  N   UNL     1      11.251  -7.138   9.132  1.00  0.00    -0.248 NA
ATOM     45  C   UNL     1      11.302  -5.945   7.127  1.00  0.00     0.031 C 
ATOM     46  C   UNL     1       6.789  -7.070   9.043  1.00  0.00     0.029 A 
ATOM     47  N   UNL     1       8.590  -7.785  10.159  1.00  0.00    -0.354 N 
ATOM     48  C   UNL     1      12.568  -7.020   8.703  1.00  0.00     0.074 A 
ATOM     49  C   UNL     1      12.536  -6.319   7.437  1.00  0.00     0.031 C 
ATOM     50  C   UNL     1       6.354  -7.793  10.088  1.00  0.00     0.029 A 
ATOM     51  C   UNL     1       7.504  -8.280  10.843  1.00  0.00     0.049 A 
ATOM     52  H   UNL     1       9.521  -7.953  10.432  1.00  0.00     0.167 HD
ATOM     53  C   UNL     1      13.703  -7.425   9.322  1.00  0.00     0.034 A 
ATOM     54  C   UNL     1       7.440  -9.028  11.962  1.00  0.00     0.034 A 
ATOM     55  C   UNL     1      13.736  -8.077  10.604  1.00  0.00     0.049 A 
ATOM     56  C   UNL     1       8.715  -9.392  12.673  1.00  0.00     0.074 A 
ATOM     57  C   UNL     1      14.839  -8.437  11.359  1.00  0.00     0.029 A 
ATOM     58  N   UNL     1      12.617  -8.468  11.322  1.00  0.00    -0.354 N 
ATOM     59  N   UNL     1       9.952  -9.099  12.351  1.00  0.00    -0.248 NA
ATOM     60  C   UNL     1       8.584 -10.146  13.928  1.00  0.00     0.031 C 
ATOM     61  C   UNL     1      14.386  -9.052  12.532  1.00  0.00     0.029 A 
ATOM     62  C   UNL     1      13.001  -9.068  12.510  1.00  0.00     0.049 A 
ATOM     63  H   UNL     1      11.686  -8.339  11.030  1.00  0.00     0.167 HD
ATOM     64  C   UNL     1      10.743  -9.608  13.374  1.00  0.00     0.074 A 
ATOM     65  C   UNL     1       9.842 -10.201  14.342  1.00  0.00     0.031 C 
ATOM     66  C   UNL     1      12.094  -9.605  13.492  1.00  0.00     0.034 A 
BRANCH  53  67
ATOM     67  C   UNL     1      15.014  -7.103   8.655  1.00  0.00     0.023 A 
ATOM     68  C   UNL     1      15.480  -5.772   8.666  1.00  0.00     0.012 A 
ATOM     69  C   UNL     1      15.812  -8.110   8.076  1.00  0.00     0.148 A 
ATOM     70  C   UNL     1      16.704  -5.442   8.087  1.00  0.00     0.002 A 
ATOM     71  C   UNL     1      17.049  -7.779   7.534  1.00  0.00     0.091 A 
ATOM     72  F   UNL     1      15.343  -9.365   8.054  1.00  0.00    -0.205 F 
ATOM     73  C   UNL     1      17.492  -6.446   7.530  1.00  0.00     0.022 A 
BRANCH  71  74
ATOM     74  S   UNL     1      18.169  -9.012   6.859  1.00  0.00     0.127 S 
ATOM     75  O   UNL     1      18.020  -8.790   5.422  1.00  0.00    -0.237 OA
ATOM     76  O   UNL     1      19.460  -8.594   7.409  1.00  0.00    -0.237 OA
ATOM     77  O   UNL     1      17.690 -10.295   7.352  1.00  0.00    -0.744 OA
ENDBRANCH  71  74
ENDBRANCH  53  67
BRANCH  54  78
ATOM     78  C   UNL     1       6.113  -9.389  12.536  1.00  0.00     0.023 A 
ATOM     79  C   UNL     1       5.682  -8.754  13.717  1.00  0.00     0.012 A 
ATOM     80  C   UNL     1       5.262 -10.315  11.904  1.00  0.00     0.148 A 
ATOM     81  C   UNL     1       4.440  -9.056  14.275  1.00  0.00     0.002 A 
ATOM     82  C   UNL     1       4.003 -10.573  12.436  1.00  0.00     0.091 A 
ATOM     83  F   UNL     1       5.696 -10.921  10.789  1.00  0.00    -0.205 F 
ATOM     84  C   UNL     1       3.596  -9.957  13.629  1.00  0.00     0.022 A 
BRANCH  82  85
ATOM     85  S   UNL     1       2.806 -11.614  11.593  1.00  0.00     0.127 S 
ATOM     86  O   UNL     1       2.897 -12.855  12.357  1.00  0.00    -0.237 OA
ATOM     87  O   UNL     1       1.562 -10.867  11.780  1.00  0.00    -0.237 OA
ATOM     88  O   UNL     1       3.259 -11.678  10.210  1.00  0.00    -0.744 OA
ENDBRANCH  82  85
ENDBRANCH  54  78
BRANCH  66  89
ATOM     89  C   UNL     1      12.685 -10.253  14.716  1.00  0.00     0.023 A 
ATOM     90  C   UNL     1      12.687 -11.658  14.823  1.00  0.00     0.012 A 
ATOM     91  C   UNL     1      13.285  -9.482  15.730  1.00  0.00     0.148 A 
ATOM     92  C   UNL     1      13.247 -12.284  15.936  1.00  0.00     0.002 A 
ATOM     93  C   UNL     1      13.879 -10.116  16.817  1.00  0.00     0.091 A 
ATOM     94  F   UNL     1      13.254  -8.145  15.626  1.00  0.00    -0.205 F 
ATOM     95  C   UNL     1      13.851 -11.515  16.927  1.00  0.00     0.022 A 
BRANCH  93  96
ATOM     96  S   UNL     1      14.752  -9.192  18.087  1.00  0.00     0.127 S 
ATOM     97  O   UNL     1      13.728  -9.060  19.121  1.00  0.00    -0.237 OA
ATOM     98  O   UNL     1      15.855 -10.091  18.434  1.00  0.00    -0.237 OA
ATOM     99  O   UNL     1      15.173  -7.953  17.446  1.00  0.00    -0.744 OA
ENDBRANCH  93  96
ENDBRANCH  66  89
ENDBRANCH  40  41
ENDBRANCH  32  35
ENDBRANCH  30  31
ENDBRANCH  29  30
ENDBRANCH   1  29
TORSDOF 18
