REMARK SMILES CC1=C[C@@H](C)[C@H]2C(=O)N([C@H](Cc3ccccc3)C(=O)NCCCCNC(=O)c3ccc(-c4c5nc(c(-c6cccc(S(=O)(=O)[O-])c6F)c6ccc([nH]6)c(-c6cccc(S(=O)(=O)[O-])c6F)c6nc(c(-c7cccc(S(=O)(=O)[O-])c7F)c7ccc4[nH]7)C=C6)C=C5)cc3)C(=O)[C@H]2C1
REMARK SMILES IDX 23 1 22 2 21 3 20 4 18 5 19 6 10 8 9 9 1 10 2 11 3 12 94 13
REMARK SMILES IDX 4 14 93 15 6 16 5 17 91 18 7 19 92 20 8 21 11 22 12 23 13 24
REMARK SMILES IDX 17 25 14 26 16 27 15 28 24 29 25 30 26 31 27 33 28 34 29 35
REMARK SMILES IDX 90 36 30 37 89 38 31 39 32 40 33 41 83 42 34 43 88 44 82 45
REMARK SMILES IDX 84 46 35 47 87 48 81 49 80 50 36 52 68 53 48 54 67 55 49 56
REMARK SMILES IDX 52 57 66 58 85 59 50 60 51 61 65 63 86 64 53 65 37 66 38 67
REMARK SMILES IDX 46 68 39 69 41 70 47 71 40 72 42 73 43 74 44 75 45 76 69 77
REMARK SMILES IDX 70 78 78 79 71 80 73 81 79 82 72 83 74 84 75 85 76 86 77 87
REMARK SMILES IDX 54 88 55 89 63 90 56 91 58 92 64 93 57 94 59 95 60 96 61 97
REMARK SMILES IDX 62 98
REMARK H PARENT 20 7 25 32 84 51 52 62
REMARK Flexibility Score: inf
ROOT
ATOM      1  C   UNL     1      -3.486  -2.293  -5.895  1.00  0.00     0.023 C 
ENDROOT
BRANCH   1   2
ATOM      2  C   UNL     1      -2.416  -1.226  -5.670  1.00  0.00     0.023 C 
BRANCH   2   3
ATOM      3  C   UNL     1      -2.843   0.194  -6.013  1.00  0.00     0.116 C 
BRANCH   3   4
ATOM      4  N   UNL     1      -3.763   0.764  -5.056  1.00  0.00    -0.354 N 
ATOM      5  C   UNL     1      -3.838   2.052  -4.611  1.00  0.00     0.243 C 
ATOM      6  O   UNL     1      -4.634   2.294  -3.698  1.00  0.00    -0.273 OA
ATOM      7  H   UNL     1      -4.423   0.141  -4.675  1.00  0.00     0.163 HD
BRANCH   5   8
ATOM      8  C   UNL     1      -2.840   3.130  -5.072  1.00  0.00     0.186 C 
BRANCH   8   9
ATOM      9  N   UNL     1      -2.805   3.329  -6.533  1.00  0.00    -0.269 N 
ATOM     10  C   UNL     1      -0.147   3.313 -11.559  1.00  0.00     0.039 C 
ATOM     11  C   UNL     1      -1.278   3.566 -10.604  1.00  0.00    -0.076 C 
ATOM     12  C   UNL     1      -2.482   2.980 -10.723  1.00  0.00    -0.024 C 
ATOM     13  C   UNL     1      -0.955   4.498  -9.480  1.00  0.00     0.044 C 
ATOM     14  C   UNL     1      -3.637   3.132  -9.748  1.00  0.00     0.022 C 
ATOM     15  C   UNL     1      -1.918   4.414  -8.324  1.00  0.00     0.096 C 
ATOM     16  C   UNL     1      -3.389   4.197  -8.647  1.00  0.00     0.098 C 
ATOM     17  C   UNL     1      -3.983   1.728  -9.248  1.00  0.00     0.013 C 
ATOM     18  C   UNL     1      -1.722   3.271  -7.364  1.00  0.00     0.234 C 
ATOM     19  C   UNL     1      -3.861   3.859  -7.237  1.00  0.00     0.234 C 
ATOM     20  O   UNL     1      -0.856   2.419  -7.420  1.00  0.00    -0.274 OA
ATOM     21  O   UNL     1      -4.989   4.062  -6.818  1.00  0.00    -0.274 OA
ENDBRANCH   8   9
BRANCH   8  22
ATOM     22  C   UNL     1      -1.509   2.901  -4.295  1.00  0.00     0.071 C 
BRANCH  22  23
ATOM     23  C   UNL     1      -0.264   3.602  -4.786  1.00  0.00    -0.045 A 
ATOM     24  C   UNL     1      -0.213   4.989  -4.961  1.00  0.00     0.004 A 
ATOM     25  C   UNL     1       0.848   2.828  -5.166  1.00  0.00     0.004 A 
ATOM     26  C   UNL     1       0.891   5.574  -5.588  1.00  0.00     0.000 A 
ATOM     27  C   UNL     1       1.941   3.414  -5.802  1.00  0.00     0.000 A 
ATOM     28  C   UNL     1       1.956   4.786  -6.026  1.00  0.00     0.000 A 
ENDBRANCH  22  23
ENDBRANCH   8  22
ENDBRANCH   5   8
ENDBRANCH   3   4
ENDBRANCH   2   3
ENDBRANCH   1   2
BRANCH   1  29
ATOM     29  C   UNL     1      -4.116  -2.322  -7.286  1.00  0.00     0.116 C 
BRANCH  29  30
ATOM     30  N   UNL     1      -3.144  -2.432  -8.367  1.00  0.00    -0.352 N 
ATOM     31  C   UNL     1      -3.169  -3.255  -9.469  1.00  0.00     0.251 C 
ATOM     32  H   UNL     1      -2.365  -1.835  -8.300  1.00  0.00     0.163 HD
ATOM     33  O   UNL     1      -2.219  -3.281 -10.246  1.00  0.00    -0.269 OA
BRANCH  31  34
ATOM     34  C   UNL     1      -4.334  -4.138  -9.691  1.00  0.00     0.039 A 
ATOM     35  C   UNL     1      -4.116  -5.503  -9.897  1.00  0.00     0.014 A 
ATOM     36  C   UNL     1      -5.633  -3.628  -9.643  1.00  0.00     0.014 A 
ATOM     37  C   UNL     1      -5.208  -6.372  -9.968  1.00  0.00     0.010 A 
ATOM     38  C   UNL     1      -6.716  -4.503  -9.652  1.00  0.00     0.010 A 
ATOM     39  C   UNL     1      -6.515  -5.884  -9.801  1.00  0.00    -0.014 A 
BRANCH  39  40
ATOM     40  C   UNL     1      -7.681  -6.802  -9.737  1.00  0.00     0.031 A 
ATOM     41  C   UNL     1      -8.755  -6.740 -10.787  1.00  0.00     0.074 A 
ATOM     42  C   UNL     1      -7.822  -7.621  -8.674  1.00  0.00     0.049 A 
ATOM     43  N   UNL     1      -9.882  -7.401 -10.852  1.00  0.00    -0.248 NA
ATOM     44  C   UNL     1      -8.550  -5.794 -11.896  1.00  0.00     0.031 C 
ATOM     45  C   UNL     1      -6.891  -7.715  -7.547  1.00  0.00     0.029 A 
ATOM     46  N   UNL     1      -8.820  -8.508  -8.353  1.00  0.00    -0.354 N 
ATOM     47  C   UNL     1     -10.533  -6.932 -11.986  1.00  0.00     0.074 A 
ATOM     48  C   UNL     1      -9.690  -5.908 -12.564  1.00  0.00     0.031 C 
ATOM     49  C   UNL     1      -7.361  -8.608  -6.660  1.00  0.00     0.029 A 
ATOM     50  C   UNL     1      -8.635  -9.133  -7.141  1.00  0.00     0.049 A 
ATOM     51  H   UNL     1      -9.595  -8.680  -8.935  1.00  0.00     0.167 HD
ATOM     52  C   UNL     1     -11.710  -7.339 -12.517  1.00  0.00     0.034 A 
ATOM     53  C   UNL     1      -9.405 -10.028  -6.491  1.00  0.00     0.034 A 
ATOM     54  C   UNL     1     -12.521  -8.393 -11.973  1.00  0.00     0.049 A 
ATOM     55  C   UNL     1     -10.681 -10.501  -7.135  1.00  0.00     0.074 A 
ATOM     56  C   UNL     1     -13.693  -8.926 -12.482  1.00  0.00     0.029 A 
ATOM     57  N   UNL     1     -12.244  -9.082 -10.804  1.00  0.00    -0.354 N 
ATOM     58  N   UNL     1     -11.199 -10.156  -8.288  1.00  0.00    -0.248 NA
ATOM     59  C   UNL     1     -11.458 -11.514  -6.406  1.00  0.00     0.031 C 
ATOM     60  C   UNL     1     -14.123  -9.940 -11.619  1.00  0.00     0.029 A 
ATOM     61  C   UNL     1     -13.217 -10.039 -10.576  1.00  0.00     0.049 A 
ATOM     62  H   UNL     1     -11.468  -8.915 -10.220  1.00  0.00     0.167 HD
ATOM     63  C   UNL     1     -12.341 -10.934  -8.440  1.00  0.00     0.074 A 
ATOM     64  C   UNL     1     -12.427 -11.785  -7.271  1.00  0.00     0.031 C 
ATOM     65  C   UNL     1     -13.249 -10.930  -9.446  1.00  0.00     0.034 A 
BRANCH  52  66
ATOM     66  C   UNL     1     -12.154  -6.698 -13.804  1.00  0.00     0.023 A 
ATOM     67  C   UNL     1     -11.511  -7.061 -15.005  1.00  0.00     0.012 A 
ATOM     68  C   UNL     1     -13.241  -5.804 -13.843  1.00  0.00     0.148 A 
ATOM     69  C   UNL     1     -11.927  -6.527 -16.223  1.00  0.00     0.002 A 
ATOM     70  C   UNL     1     -13.674  -5.303 -15.066  1.00  0.00     0.091 A 
ATOM     71  F   UNL     1     -13.826  -5.456 -12.688  1.00  0.00    -0.205 F 
ATOM     72  C   UNL     1     -13.013  -5.658 -16.255  1.00  0.00     0.022 A 
BRANCH  70  73
ATOM     73  S   UNL     1     -15.106  -4.230 -15.224  1.00  0.00     0.127 S 
ATOM     74  O   UNL     1     -14.480  -2.951 -15.557  1.00  0.00    -0.237 OA
ATOM     75  O   UNL     1     -15.839  -4.854 -16.326  1.00  0.00    -0.237 OA
ATOM     76  O   UNL     1     -15.787  -4.278 -13.938  1.00  0.00    -0.744 OA
ENDBRANCH  70  73
ENDBRANCH  52  66
BRANCH  53  77
ATOM     77  C   UNL     1      -8.951 -10.602  -5.192  1.00  0.00     0.023 A 
ATOM     78  C   UNL     1      -8.534 -11.947  -5.147  1.00  0.00     0.012 A 
ATOM     79  C   UNL     1      -8.914  -9.834  -4.014  1.00  0.00     0.148 A 
ATOM     80  C   UNL     1      -8.122 -12.526  -3.946  1.00  0.00     0.002 A 
ATOM     81  C   UNL     1      -8.453 -10.402  -2.831  1.00  0.00     0.091 A 
ATOM     82  F   UNL     1      -9.332  -8.561  -4.067  1.00  0.00    -0.205 F 
ATOM     83  C   UNL     1      -8.072 -11.751  -2.791  1.00  0.00     0.022 A 
BRANCH  81  84
ATOM     84  S   UNL     1      -8.239  -9.423  -1.339  1.00  0.00     0.127 S 
ATOM     85  O   UNL     1      -9.483  -9.687  -0.624  1.00  0.00    -0.237 OA
ATOM     86  O   UNL     1      -7.045 -10.022  -0.739  1.00  0.00    -0.237 OA
ATOM     87  O   UNL     1      -8.041  -8.059  -1.812  1.00  0.00    -0.744 OA
ENDBRANCH  81  84
ENDBRANCH  53  77
BRANCH  65  88
ATOM     88  C   UNL     1     -14.401 -11.893  -9.352  1.00  0.00     0.023 A 
ATOM     89  C   UNL     1     -15.458 -11.626  -8.460  1.00  0.00     0.012 A 
ATOM     90  C   UNL     1     -14.476 -13.015 -10.200  1.00  0.00     0.148 A 
ATOM     91  C   UNL     1     -16.562 -12.474  -8.396  1.00  0.00     0.002 A 
ATOM     92  C   UNL     1     -15.598 -13.835 -10.159  1.00  0.00     0.091 A 
ATOM     93  F   UNL     1     -13.449 -13.266 -11.025  1.00  0.00    -0.205 F 
ATOM     94  C   UNL     1     -16.638 -13.570  -9.253  1.00  0.00     0.022 A 
BRANCH  92  95
ATOM     95  S   UNL     1     -15.814 -15.215 -11.289  1.00  0.00     0.127 S 
ATOM     96  O   UNL     1     -15.470 -16.353 -10.439  1.00  0.00    -0.237 OA
ATOM     97  O   UNL     1     -17.233 -15.120 -11.636  1.00  0.00    -0.237 OA
ATOM     98  O   UNL     1     -14.907 -14.961 -12.400  1.00  0.00    -0.744 OA
ENDBRANCH  92  95
ENDBRANCH  65  88
ENDBRANCH  39  40
ENDBRANCH  31  34
ENDBRANCH  29  30
ENDBRANCH   1  29
TORSDOF 17
