REMARK SMILES CC(C)C[C@H](CNC(=O)c1ccc(O)cc1O)C(=O)NCCCCNC(=O)c1ccc(-c2c3nc(c(-c4cccc(S(=O)(=O)[O-])c4F)c4ccc([nH]4)c(-c4cccc(S(=O)(=O)[O-])c4F)c4nc(c(-c5cccc(S(=O)(=O)[O-])c5F)c5ccc2[nH]5)C=C4)C=C3)cc1
REMARK SMILES IDX 22 1 21 2 20 3 18 4 19 5 5 7 4 8 2 9 1 10 3 11 6 12 7 13
REMARK SMILES IDX 8 14 9 16 10 17 11 18 16 19 12 20 15 21 13 22 17 23 14 25
REMARK SMILES IDX 23 27 24 28 25 29 26 30 27 32 28 33 29 34 90 35 30 36 89 37
REMARK SMILES IDX 31 38 32 39 33 40 83 41 34 42 88 43 82 44 84 45 35 46 87 47
REMARK SMILES IDX 81 48 80 49 36 51 68 52 48 53 67 54 49 55 52 56 66 57 85 58
REMARK SMILES IDX 50 59 51 60 65 62 86 63 53 64 37 65 38 66 46 67 39 68 41 69
REMARK SMILES IDX 47 70 40 71 42 72 43 73 44 74 45 75 69 76 70 77 78 78 71 79
REMARK SMILES IDX 73 80 79 81 72 82 74 83 75 84 76 85 77 86 54 87 55 88 63 89
REMARK SMILES IDX 56 90 58 91 64 92 57 93 59 94 60 95 61 96 62 97
REMARK H PARENT 20 6 7 15 17 24 14 26 25 31 84 50 52 61
REMARK Flexibility Score: inf
ROOT
ATOM      1  C   UNL     1      -3.485   3.821   1.436  1.00  0.00     0.023 C 
ENDROOT
BRANCH   1   2
ATOM      2  C   UNL     1      -3.113   2.663   2.360  1.00  0.00     0.116 C 
BRANCH   2   3
ATOM      3  N   UNL     1      -3.640   1.395   1.883  1.00  0.00    -0.356 N 
ATOM      4  C   UNL     1      -3.006   0.276   1.436  1.00  0.00     0.224 C 
ATOM      5  O   UNL     1      -3.697  -0.666   1.046  1.00  0.00    -0.275 OA
ATOM      6  H   UNL     1      -4.623   1.335   1.884  1.00  0.00     0.163 HD
BRANCH   4   7
ATOM      7  C   UNL     1      -1.485   0.169   1.426  1.00  0.00     0.098 C 
BRANCH   7   8
ATOM      8  C   UNL     1      -0.902   0.145   2.855  1.00  0.00     0.018 C 
BRANCH   8   9
ATOM      9  C   UNL     1      -1.299  -1.101   3.680  1.00  0.00    -0.017 C 
ATOM     10  C   UNL     1      -0.654  -2.377   3.132  1.00  0.00     0.007 C 
ATOM     11  C   UNL     1      -0.879  -0.903   5.140  1.00  0.00     0.007 C 
ENDBRANCH   8   9
ENDBRANCH   7   8
BRANCH   7  12
ATOM     12  C   UNL     1      -0.906   1.207   0.447  1.00  0.00     0.129 C 
BRANCH  12  13
ATOM     13  N   UNL     1       0.457   1.617   0.751  1.00  0.00    -0.351 N 
ATOM     14  C   UNL     1       1.599   1.402   0.029  1.00  0.00     0.255 C 
ATOM     15  H   UNL     1       0.573   2.117   1.591  1.00  0.00     0.163 HD
ATOM     16  O   UNL     1       2.701   1.491   0.567  1.00  0.00    -0.269 OA
BRANCH  14  17
ATOM     17  C   UNL     1       1.530   1.012  -1.392  1.00  0.00     0.081 A 
ATOM     18  C   UNL     1       0.685   1.692  -2.280  1.00  0.00     0.021 A 
ATOM     19  C   UNL     1       2.357  -0.013  -1.864  1.00  0.00     0.132 A 
ATOM     20  C   UNL     1       0.611   1.294  -3.615  1.00  0.00     0.047 A 
ATOM     21  C   UNL     1       2.280  -0.415  -3.193  1.00  0.00     0.093 A 
ATOM     22  C   UNL     1       1.403   0.235  -4.056  1.00  0.00     0.119 A 
BRANCH  19  23
ATOM     23  O   UNL     1       3.265  -0.657  -1.065  1.00  0.00    -0.507 OA
ATOM     24  H   UNL     1       3.349  -0.417  -0.164  1.00  0.00     0.293 HD
ENDBRANCH  19  23
BRANCH  22  25
ATOM     25  O   UNL     1       1.352  -0.188  -5.351  1.00  0.00    -0.508 OA
ATOM     26  H   UNL     1       0.772   0.228  -5.958  1.00  0.00     0.293 HD
ENDBRANCH  22  25
ENDBRANCH  14  17
ENDBRANCH  12  13
ENDBRANCH   7  12
ENDBRANCH   4   7
ENDBRANCH   2   3
ENDBRANCH   1   2
BRANCH   1  27
ATOM     27  C   UNL     1      -4.970   4.176   1.425  1.00  0.00     0.023 C 
BRANCH  27  28
ATOM     28  C   UNL     1      -5.571   4.461   2.795  1.00  0.00     0.116 C 
BRANCH  28  29
ATOM     29  N   UNL     1      -4.872   5.517   3.515  1.00  0.00    -0.352 N 
ATOM     30  C   UNL     1      -5.401   6.587   4.195  1.00  0.00     0.251 C 
ATOM     31  H   UNL     1      -3.889   5.455   3.514  1.00  0.00     0.163 HD
ATOM     32  O   UNL     1      -4.665   7.464   4.637  1.00  0.00    -0.269 OA
BRANCH  30  33
ATOM     33  C   UNL     1      -6.866   6.683   4.357  1.00  0.00     0.039 A 
ATOM     34  C   UNL     1      -7.506   7.882   4.036  1.00  0.00     0.014 A 
ATOM     35  C   UNL     1      -7.605   5.573   4.772  1.00  0.00     0.014 A 
ATOM     36  C   UNL     1      -8.900   7.944   4.065  1.00  0.00     0.010 A 
ATOM     37  C   UNL     1      -8.993   5.613   4.718  1.00  0.00     0.010 A 
ATOM     38  C   UNL     1      -9.656   6.799   4.369  1.00  0.00    -0.014 A 
BRANCH  38  39
ATOM     39  C   UNL     1     -11.140   6.816   4.316  1.00  0.00     0.031 A 
ATOM     40  C   UNL     1     -11.943   6.535   5.556  1.00  0.00     0.074 A 
ATOM     41  C   UNL     1     -11.762   6.992   3.133  1.00  0.00     0.049 A 
ATOM     42  N   UNL     1     -13.240   6.445   5.695  1.00  0.00    -0.248 NA
ATOM     43  C   UNL     1     -11.190   6.293   6.799  1.00  0.00     0.031 C 
ATOM     44  C   UNL     1     -11.094   7.186   1.845  1.00  0.00     0.029 A 
ATOM     45  N   UNL     1     -13.098   7.006   2.818  1.00  0.00    -0.354 N 
ATOM     46  C   UNL     1     -13.456   6.103   7.024  1.00  0.00     0.074 A 
ATOM     47  C   UNL     1     -12.156   5.960   7.641  1.00  0.00     0.031 C 
ATOM     48  C   UNL     1     -12.021   7.304   0.881  1.00  0.00     0.029 A 
ATOM     49  C   UNL     1     -13.347   7.164   1.474  1.00  0.00     0.049 A 
ATOM     50  H   UNL     1     -13.812   6.913   3.490  1.00  0.00     0.167 HD
ATOM     51  C   UNL     1     -14.630   5.952   7.682  1.00  0.00     0.034 A 
ATOM     52  C   UNL     1     -14.510   7.184   0.795  1.00  0.00     0.034 A 
ATOM     53  C   UNL     1     -15.920   6.134   7.075  1.00  0.00     0.049 A 
ATOM     54  C   UNL     1     -15.802   7.056   1.555  1.00  0.00     0.074 A 
ATOM     55  C   UNL     1     -17.166   6.092   7.675  1.00  0.00     0.029 A 
ATOM     56  N   UNL     1     -16.133   6.384   5.728  1.00  0.00    -0.354 N 
ATOM     57  N   UNL     1     -15.989   6.894   2.843  1.00  0.00    -0.248 NA
ATOM     58  C   UNL     1     -17.045   7.151   0.776  1.00  0.00     0.031 C 
ATOM     59  C   UNL     1     -18.134   6.292   6.685  1.00  0.00     0.029 A 
ATOM     60  C   UNL     1     -17.489   6.489   5.474  1.00  0.00     0.049 A 
ATOM     61  H   UNL     1     -15.423   6.473   5.052  1.00  0.00     0.167 HD
ATOM     62  C   UNL     1     -17.366   6.904   3.034  1.00  0.00     0.074 A 
ATOM     63  C   UNL     1     -17.965   7.109   1.731  1.00  0.00     0.031 C 
ATOM     64  C   UNL     1     -18.071   6.744   4.181  1.00  0.00     0.034 A 
BRANCH  51  65
ATOM     65  C   UNL     1     -14.569   5.623   9.152  1.00  0.00     0.023 A 
ATOM     66  C   UNL     1     -14.119   6.599  10.065  1.00  0.00     0.012 A 
ATOM     67  C   UNL     1     -15.000   4.373   9.635  1.00  0.00     0.148 A 
ATOM     68  C   UNL     1     -14.060   6.324  11.430  1.00  0.00     0.002 A 
ATOM     69  C   UNL     1     -14.983   4.122  11.003  1.00  0.00     0.091 A 
ATOM     70  F   UNL     1     -15.404   3.449   8.752  1.00  0.00    -0.205 F 
ATOM     71  C   UNL     1     -14.502   5.090  11.899  1.00  0.00     0.022 A 
BRANCH  69  72
ATOM     72  S   UNL     1     -15.607   2.595  11.715  1.00  0.00     0.127 S 
ATOM     73  O   UNL     1     -14.371   1.950  12.155  1.00  0.00    -0.237 OA
ATOM     74  O   UNL     1     -16.457   3.087  12.799  1.00  0.00    -0.237 OA
ATOM     75  O   UNL     1     -16.320   1.915  10.644  1.00  0.00    -0.744 OA
ENDBRANCH  69  72
ENDBRANCH  51  65
BRANCH  52  76
ATOM     76  C   UNL     1     -14.506   7.396  -0.680  1.00  0.00     0.023 A 
ATOM     77  C   UNL     1     -14.983   8.613  -1.207  1.00  0.00     0.012 A 
ATOM     78  C   UNL     1     -14.004   6.417  -1.560  1.00  0.00     0.148 A 
ATOM     79  C   UNL     1     -14.991   8.837  -2.584  1.00  0.00     0.002 A 
ATOM     80  C   UNL     1     -13.962   6.670  -2.926  1.00  0.00     0.091 A 
ATOM     81  F   UNL     1     -13.563   5.263  -1.040  1.00  0.00    -0.205 F 
ATOM     82  C   UNL     1     -14.472   7.872  -3.442  1.00  0.00     0.022 A 
BRANCH  80  83
ATOM     83  S   UNL     1     -13.187   5.544  -4.091  1.00  0.00     0.127 S 
ATOM     84  O   UNL     1     -14.339   5.040  -4.832  1.00  0.00    -0.237 OA
ATOM     85  O   UNL     1     -12.313   6.444  -4.844  1.00  0.00    -0.237 OA
ATOM     86  O   UNL     1     -12.479   4.564  -3.279  1.00  0.00    -0.744 OA
ENDBRANCH  80  83
ENDBRANCH  52  76
BRANCH  64  87
ATOM     87  C   UNL     1     -19.573   6.821   4.096  1.00  0.00     0.023 A 
ATOM     88  C   UNL     1     -20.299   5.770   3.502  1.00  0.00     0.012 A 
ATOM     89  C   UNL     1     -20.268   7.902   4.674  1.00  0.00     0.148 A 
ATOM     90  C   UNL     1     -21.692   5.809   3.455  1.00  0.00     0.002 A 
ATOM     91  C   UNL     1     -21.657   7.909   4.670  1.00  0.00     0.091 A 
ATOM     92  F   UNL     1     -19.558   8.901   5.218  1.00  0.00    -0.205 F 
ATOM     93  C   UNL     1     -22.370   6.870   4.050  1.00  0.00     0.022 A 
BRANCH  91  94
ATOM     94  S   UNL     1     -22.617   9.183   5.496  1.00  0.00     0.127 S 
ATOM     95  O   UNL     1     -23.163   9.927   4.362  1.00  0.00    -0.237 OA
ATOM     96  O   UNL     1     -23.601   8.397   6.240  1.00  0.00    -0.237 OA
ATOM     97  O   UNL     1     -21.675   9.918   6.329  1.00  0.00    -0.744 OA
ENDBRANCH  91  94
ENDBRANCH  64  87
ENDBRANCH  38  39
ENDBRANCH  30  33
ENDBRANCH  28  29
ENDBRANCH  27  28
ENDBRANCH   1  27
TORSDOF 21
