REMARK SMILES C[C@@H](C(=O)NCCCCNC(=O)c1ccc(-c2c3nc(c(-c4cccc(S(=O)(=O)[O-])c4F)c4ccc([nH]4)c(-c4cccc(S(=O)(=O)[O-])c4F)c4nc(c(-c5cccc(S(=O)(=O)[O-])c5F)c5ccc2[nH]5)C=C4)C=C3)cc1)c1ccc(C[C@@H]2CCC[C@@H]2O)cc1F
REMARK SMILES IDX 7 1 6 2 5 3 3 4 4 5 2 7 1 8 76 9 77 10 88 11 78 12 87 13
REMARK SMILES IDX 89 14 79 15 80 16 81 17 82 18 85 19 83 20 84 21 86 22 8 24
REMARK SMILES IDX 9 25 10 26 11 27 12 29 13 30 14 31 75 32 15 33 74 34 16 35
REMARK SMILES IDX 17 36 18 37 68 38 19 39 73 40 67 41 69 42 20 43 72 44 66 45
REMARK SMILES IDX 65 46 21 48 53 49 33 50 52 51 34 52 37 53 51 54 70 55 35 56
REMARK SMILES IDX 36 57 50 59 71 60 38 61 22 62 23 63 31 64 24 65 26 66 32 67
REMARK SMILES IDX 25 68 27 69 28 70 29 71 30 72 54 73 55 74 63 75 56 76 58 77
REMARK SMILES IDX 64 78 57 79 59 80 60 81 61 82 62 83 39 84 40 85 48 86 41 87
REMARK SMILES IDX 43 88 49 89 42 90 44 91 45 92 46 93 47 94
REMARK H PARENT 5 6 86 23 10 28 69 47 37 58
REMARK Flexibility Score: inf
ROOT
ATOM      1  C   UNL     1     -11.183   5.683   7.364  1.00  0.00     0.023 C 
ENDROOT
BRANCH   1   2
ATOM      2  C   UNL     1     -11.332   4.181   7.117  1.00  0.00     0.116 C 
BRANCH   2   3
ATOM      3  N   UNL     1     -11.824   3.887   5.788  1.00  0.00    -0.356 N 
ATOM      4  C   UNL     1     -11.199   3.320   4.714  1.00  0.00     0.227 C 
ATOM      5  O   UNL     1     -11.915   3.027   3.754  1.00  0.00    -0.274 OA
ATOM      6  H   UNL     1     -12.764   4.136   5.633  1.00  0.00     0.163 HD
BRANCH   4   7
ATOM      7  C   UNL     1      -9.697   2.994   4.773  1.00  0.00     0.108 C 
ATOM      8  C   UNL     1      -8.808   4.228   4.967  1.00  0.00     0.023 C 
BRANCH   7   9
ATOM      9  C   UNL     1      -9.200   2.244   3.543  1.00  0.00    -0.000 A 
ATOM     10  C   UNL     1      -8.586   0.991   3.675  1.00  0.00     0.008 A 
ATOM     11  C   UNL     1      -9.269   2.814   2.267  1.00  0.00     0.127 A 
ATOM     12  C   UNL     1      -8.006   0.366   2.566  1.00  0.00     0.004 A 
ATOM     13  C   UNL     1      -8.708   2.187   1.159  1.00  0.00     0.043 A 
ATOM     14  F   UNL     1      -9.820   4.024   2.096  1.00  0.00    -0.207 F 
ATOM     15  C   UNL     1      -8.018   0.980   1.307  1.00  0.00    -0.045 A 
BRANCH  15  16
ATOM     16  C   UNL     1      -7.276   0.383   0.137  1.00  0.00     0.041 C 
BRANCH  16  17
ATOM     17  C   UNL     1      -5.748   0.612   0.064  1.00  0.00     0.022 C 
ATOM     18  C   UNL     1      -4.940  -0.003   1.213  1.00  0.00     0.007 C 
ATOM     19  C   UNL     1      -5.242   2.059   0.048  1.00  0.00     0.117 C 
ATOM     20  C   UNL     1      -4.630   1.132   2.195  1.00  0.00     0.003 C 
ATOM     21  C   UNL     1      -5.049   2.430   1.514  1.00  0.00     0.032 C 
BRANCH  19  22
ATOM     22  O   UNL     1      -6.076   2.946  -0.664  1.00  0.00    -0.393 OA
ATOM     23  H   UNL     1      -6.957   2.957  -0.259  1.00  0.00     0.210 HD
ENDBRANCH  19  22
ENDBRANCH  16  17
ENDBRANCH  15  16
ENDBRANCH   7   9
ENDBRANCH   4   7
ENDBRANCH   2   3
ENDBRANCH   1   2
BRANCH   1  24
ATOM     24  C   UNL     1     -12.484   6.487   7.296  1.00  0.00     0.023 C 
BRANCH  24  25
ATOM     25  C   UNL     1     -13.615   5.998   8.194  1.00  0.00     0.116 C 
BRANCH  25  26
ATOM     26  N   UNL     1     -13.245   5.941   9.601  1.00  0.00    -0.352 N 
ATOM     27  C   UNL     1     -13.940   6.392  10.699  1.00  0.00     0.251 C 
ATOM     28  H   UNL     1     -12.376   5.522   9.794  1.00  0.00     0.163 HD
ATOM     29  O   UNL     1     -13.421   6.357  11.812  1.00  0.00    -0.269 OA
BRANCH  27  30
ATOM     30  C   UNL     1     -15.297   6.955  10.529  1.00  0.00     0.039 A 
ATOM     31  C   UNL     1     -15.582   8.204  11.087  1.00  0.00     0.014 A 
ATOM     32  C   UNL     1     -16.267   6.275   9.787  1.00  0.00     0.014 A 
ATOM     33  C   UNL     1     -16.810   8.816  10.821  1.00  0.00     0.010 A 
ATOM     34  C   UNL     1     -17.467   6.911   9.476  1.00  0.00     0.010 A 
ATOM     35  C   UNL     1     -17.741   8.195   9.972  1.00  0.00    -0.014 A 
BRANCH  35  36
ATOM     36  C   UNL     1     -18.966   8.904   9.518  1.00  0.00     0.031 A 
ATOM     37  C   UNL     1     -20.331   8.389   9.879  1.00  0.00     0.074 A 
ATOM     38  C   UNL     1     -18.841   9.946   8.670  1.00  0.00     0.049 A 
ATOM     39  N   UNL     1     -21.502   8.829   9.497  1.00  0.00    -0.248 NA
ATOM     40  C   UNL     1     -20.391   7.215  10.765  1.00  0.00     0.031 C 
ATOM     41  C   UNL     1     -17.572  10.484   8.173  1.00  0.00     0.029 A 
ATOM     42  N   UNL     1     -19.792  10.712   8.042  1.00  0.00    -0.354 N 
ATOM     43  C   UNL     1     -22.435   7.968  10.061  1.00  0.00     0.074 A 
ATOM     44  C   UNL     1     -21.694   6.970  10.802  1.00  0.00     0.031 C 
ATOM     45  C   UNL     1     -17.823  11.478   7.306  1.00  0.00     0.029 A 
ATOM     46  C   UNL     1     -19.267  11.632   7.163  1.00  0.00     0.049 A 
ATOM     47  H   UNL     1     -20.758  10.613   8.205  1.00  0.00     0.167 HD
ATOM     48  C   UNL     1     -23.786   8.021   9.987  1.00  0.00     0.034 A 
ATOM     49  C   UNL     1     -19.876  12.490   6.320  1.00  0.00     0.034 A 
ATOM     50  C   UNL     1     -24.520   9.046   9.296  1.00  0.00     0.049 A 
ATOM     51  C   UNL     1     -21.379  12.545   6.290  1.00  0.00     0.074 A 
ATOM     52  C   UNL     1     -25.888   9.257   9.277  1.00  0.00     0.029 A 
ATOM     53  N   UNL     1     -23.955  10.019   8.489  1.00  0.00    -0.354 N 
ATOM     54  N   UNL     1     -22.243  11.854   6.993  1.00  0.00    -0.248 NA
ATOM     55  C   UNL     1     -21.992  13.518   5.373  1.00  0.00     0.031 C 
ATOM     56  C   UNL     1     -26.152  10.345   8.440  1.00  0.00     0.029 A 
ATOM     57  C   UNL     1     -24.947  10.819   7.947  1.00  0.00     0.049 A 
ATOM     58  H   UNL     1     -22.991  10.126   8.324  1.00  0.00     0.167 HD
ATOM     59  C   UNL     1     -23.497  12.323   6.621  1.00  0.00     0.074 A 
ATOM     60  C   UNL     1     -23.280  13.379   5.654  1.00  0.00     0.031 C 
ATOM     61  C   UNL     1     -24.720  11.900   7.025  1.00  0.00     0.034 A 
BRANCH  48  62
ATOM     62  C   UNL     1     -24.577   6.976  10.727  1.00  0.00     0.023 A 
ATOM     63  C   UNL     1     -24.696   7.066  12.128  1.00  0.00     0.012 A 
ATOM     64  C   UNL     1     -25.287   5.977  10.032  1.00  0.00     0.148 A 
ATOM     65  C   UNL     1     -25.497   6.167  12.830  1.00  0.00     0.002 A 
ATOM     66  C   UNL     1     -26.112   5.107  10.736  1.00  0.00     0.091 A 
ATOM     67  F   UNL     1     -25.144   5.900   8.702  1.00  0.00    -0.205 F 
ATOM     68  C   UNL     1     -26.213   5.197  12.134  1.00  0.00     0.022 A 
BRANCH  66  69
ATOM     69  S   UNL     1     -27.131   3.867   9.929  1.00  0.00     0.127 S 
ATOM     70  O   UNL     1     -26.490   2.628  10.368  1.00  0.00    -0.237 OA
ATOM     71  O   UNL     1     -28.445   4.116  10.522  1.00  0.00    -0.237 OA
ATOM     72  O   UNL     1     -27.044   4.139   8.501  1.00  0.00    -0.744 OA
ENDBRANCH  66  69
ENDBRANCH  48  62
BRANCH  49  73
ATOM     73  C   UNL     1     -19.064  13.400   5.464  1.00  0.00     0.023 A 
ATOM     74  C   UNL     1     -19.061  14.782   5.734  1.00  0.00     0.012 A 
ATOM     75  C   UNL     1     -18.288  12.908   4.397  1.00  0.00     0.148 A 
ATOM     76  C   UNL     1     -18.326  15.661   4.937  1.00  0.00     0.002 A 
ATOM     77  C   UNL     1     -17.515  13.783   3.642  1.00  0.00     0.091 A 
ATOM     78  F   UNL     1     -18.319  11.593   4.139  1.00  0.00    -0.205 F 
ATOM     79  C   UNL     1     -17.545  15.161   3.898  1.00  0.00     0.022 A 
BRANCH  77  80
ATOM     80  S   UNL     1     -16.378  13.193   2.382  1.00  0.00     0.127 S 
ATOM     81  O   UNL     1     -17.144  13.413   1.159  1.00  0.00    -0.237 OA
ATOM     82  O   UNL     1     -15.229  14.083   2.558  1.00  0.00    -0.237 OA
ATOM     83  O   UNL     1     -16.110  11.804   2.733  1.00  0.00    -0.744 OA
ENDBRANCH  77  80
ENDBRANCH  49  73
BRANCH  61  84
ATOM     84  C   UNL     1     -25.925  12.579   6.431  1.00  0.00     0.023 A 
ATOM     85  C   UNL     1     -26.289  12.300   5.099  1.00  0.00     0.012 A 
ATOM     86  C   UNL     1     -26.737  13.428   7.208  1.00  0.00     0.148 A 
ATOM     87  C   UNL     1     -27.428  12.876   4.540  1.00  0.00     0.002 A 
ATOM     88  C   UNL     1     -27.896  13.964   6.657  1.00  0.00     0.091 A 
ATOM     89  F   UNL     1     -26.364  13.695   8.467  1.00  0.00    -0.205 F 
ATOM     90  C   UNL     1     -28.237  13.697   5.321  1.00  0.00     0.022 A 
BRANCH  88  91
ATOM     91  S   UNL     1     -29.046  14.959   7.614  1.00  0.00     0.127 S 
ATOM     92  O   UNL     1     -28.805  16.296   7.073  1.00  0.00    -0.237 OA
ATOM     93  O   UNL     1     -30.339  14.378   7.251  1.00  0.00    -0.237 OA
ATOM     94  O   UNL     1     -28.672  14.772   9.010  1.00  0.00    -0.744 OA
ENDBRANCH  88  91
ENDBRANCH  61  84
ENDBRANCH  35  36
ENDBRANCH  27  30
ENDBRANCH  25  26
ENDBRANCH  24  25
ENDBRANCH   1  24
TORSDOF 18
