REMARK SMILES O=C(NCCCCNC(=O)c1ccccc1C(=O)OC[C@@H]1C[C@H]2CC[C@@H]1C2)c1ccc(-c2c3nc(c(-c4cccc(S(=O)(=O)[O-])c4F)c4ccc([nH]4)c(-c4cccc(S(=O)(=O)[O-])c4F)c4nc(c(-c5cccc(S(=O)(=O)[O-])c5F)c5ccc2[nH]5)C=C4)C=C3)cc1
REMARK SMILES IDX 6 1 5 2 4 3 3 4 1 5 2 6 28 8 29 9 90 10 30 11 89 12 31 13
REMARK SMILES IDX 32 14 33 15 83 16 34 17 88 18 82 19 84 20 35 21 87 22 81 23
REMARK SMILES IDX 80 24 36 26 68 27 48 28 67 29 49 30 52 31 66 32 85 33 50 34
REMARK SMILES IDX 51 35 65 37 86 38 53 39 37 40 38 41 46 42 39 43 41 44 47 45
REMARK SMILES IDX 40 46 42 47 43 48 44 49 45 50 69 51 70 52 78 53 71 54 73 55
REMARK SMILES IDX 79 56 72 57 74 58 75 59 76 60 77 61 54 62 55 63 63 64 56 65
REMARK SMILES IDX 58 66 64 67 57 68 59 69 60 70 61 71 62 72 7 73 8 74 9 75
REMARK SMILES IDX 10 77 11 78 12 79 16 80 13 81 15 82 14 83 17 84 18 85 19 86
REMARK SMILES IDX 20 87 21 88 22 89 26 90 23 91 25 92 27 93 24 94
REMARK H PARENT 3 7 84 25 52 36 8 76
REMARK Flexibility Score: inf
ROOT
ATOM      1  C   UNL     1       4.470   1.516   3.646  1.00  0.00     0.023 C 
ENDROOT
BRANCH   1   2
ATOM      2  C   UNL     1       4.935   1.575   2.188  1.00  0.00     0.023 C 
BRANCH   2   3
ATOM      3  C   UNL     1       4.649   0.337   1.344  1.00  0.00     0.116 C 
BRANCH   3   4
ATOM      4  N   UNL     1       3.229   0.089   1.160  1.00  0.00    -0.352 N 
ATOM      5  O   UNL     1       1.244   0.079   0.097  1.00  0.00    -0.269 OA
ATOM      6  C   UNL     1       2.465   0.170   0.018  1.00  0.00     0.251 C 
ATOM      7  H   UNL     1       2.741  -0.177   1.973  1.00  0.00     0.163 HD
BRANCH   6   8
ATOM      8  C   UNL     1       3.112   0.398  -1.293  1.00  0.00     0.039 A 
ATOM      9  C   UNL     1       4.225  -0.350  -1.685  1.00  0.00     0.014 A 
ATOM     10  C   UNL     1       2.590   1.373  -2.148  1.00  0.00     0.014 A 
ATOM     11  C   UNL     1       4.904  -0.022  -2.855  1.00  0.00     0.010 A 
ATOM     12  C   UNL     1       3.229   1.648  -3.361  1.00  0.00     0.010 A 
ATOM     13  C   UNL     1       4.414   0.981  -3.707  1.00  0.00    -0.014 A 
BRANCH  13  14
ATOM     14  C   UNL     1       5.120   1.281  -4.980  1.00  0.00     0.031 A 
ATOM     15  C   UNL     1       5.749   2.625  -5.228  1.00  0.00     0.074 A 
ATOM     16  C   UNL     1       5.169   0.331  -5.935  1.00  0.00     0.049 A 
ATOM     17  N   UNL     1       6.399   3.046  -6.283  1.00  0.00    -0.248 NA
ATOM     18  C   UNL     1       5.626   3.631  -4.161  1.00  0.00     0.031 C 
ATOM     19  C   UNL     1       4.546  -0.990  -5.836  1.00  0.00     0.029 A 
ATOM     20  N   UNL     1       5.749   0.335  -7.178  1.00  0.00    -0.354 N 
ATOM     21  C   UNL     1       6.727   4.372  -6.029  1.00  0.00     0.074 A 
ATOM     22  C   UNL     1       6.197   4.690  -4.719  1.00  0.00     0.031 C 
ATOM     23  C   UNL     1       4.775  -1.669  -6.969  1.00  0.00     0.029 A 
ATOM     24  C   UNL     1       5.523  -0.819  -7.890  1.00  0.00     0.049 A 
ATOM     25  H   UNL     1       6.275   1.091  -7.527  1.00  0.00     0.167 HD
ATOM     26  C   UNL     1       7.420   5.240  -6.806  1.00  0.00     0.034 A 
ATOM     27  C   UNL     1       5.857  -1.154  -9.151  1.00  0.00     0.034 A 
ATOM     28  C   UNL     1       7.979   4.908  -8.090  1.00  0.00     0.049 A 
ATOM     29  C   UNL     1       6.655  -0.188  -9.978  1.00  0.00     0.074 A 
ATOM     30  C   UNL     1       8.776   5.689  -8.909  1.00  0.00     0.029 A 
ATOM     31  N   UNL     1       7.791   3.703  -8.750  1.00  0.00    -0.354 N 
ATOM     32  N   UNL     1       7.094   1.004  -9.654  1.00  0.00    -0.248 NA
ATOM     33  C   UNL     1       7.034  -0.623 -11.329  1.00  0.00     0.031 C 
ATOM     34  C   UNL     1       9.051   4.964 -10.074  1.00  0.00     0.029 A 
ATOM     35  C   UNL     1       8.441   3.724  -9.973  1.00  0.00     0.049 A 
ATOM     36  H   UNL     1       7.271   2.944  -8.401  1.00  0.00     0.167 HD
ATOM     37  C   UNL     1       7.815   1.456 -10.752  1.00  0.00     0.074 A 
ATOM     38  C   UNL     1       7.778   0.396 -11.740  1.00  0.00     0.031 C 
ATOM     39  C   UNL     1       8.435   2.648 -10.932  1.00  0.00     0.034 A 
BRANCH  26  40
ATOM     40  C   UNL     1       7.656   6.629  -6.270  1.00  0.00     0.023 A 
ATOM     41  C   UNL     1       8.595   6.826  -5.238  1.00  0.00     0.012 A 
ATOM     42  C   UNL     1       7.000   7.745  -6.828  1.00  0.00     0.148 A 
ATOM     43  C   UNL     1       8.857   8.105  -4.748  1.00  0.00     0.002 A 
ATOM     44  C   UNL     1       7.294   9.021  -6.360  1.00  0.00     0.091 A 
ATOM     45  F   UNL     1       6.093   7.539  -7.793  1.00  0.00    -0.205 F 
ATOM     46  C   UNL     1       8.214   9.203  -5.315  1.00  0.00     0.022 A 
BRANCH  44  47
ATOM     47  S   UNL     1       6.570  10.499  -7.082  1.00  0.00     0.127 S 
ATOM     48  O   UNL     1       5.543  10.836  -6.098  1.00  0.00    -0.237 OA
ATOM     49  O   UNL     1       7.706  11.421  -7.115  1.00  0.00    -0.237 OA
ATOM     50  O   UNL     1       6.082  10.099  -8.395  1.00  0.00    -0.744 OA
ENDBRANCH  44  47
ENDBRANCH  26  40
BRANCH  27  51
ATOM     51  C   UNL     1       5.462  -2.490  -9.676  1.00  0.00     0.023 A 
ATOM     52  C   UNL     1       6.441  -3.483  -9.861  1.00  0.00     0.012 A 
ATOM     53  C   UNL     1       4.108  -2.803  -9.911  1.00  0.00     0.148 A 
ATOM     54  C   UNL     1       6.081  -4.762 -10.284  1.00  0.00     0.002 A 
ATOM     55  C   UNL     1       3.751  -4.095 -10.274  1.00  0.00     0.091 A 
ATOM     56  F   UNL     1       3.194  -1.837  -9.743  1.00  0.00    -0.205 F 
ATOM     57  C   UNL     1       4.737  -5.073 -10.476  1.00  0.00     0.022 A 
BRANCH  55  58
ATOM     58  S   UNL     1       2.036  -4.617 -10.391  1.00  0.00     0.127 S 
ATOM     59  O   UNL     1       1.859  -4.741 -11.835  1.00  0.00    -0.237 OA
ATOM     60  O   UNL     1       2.054  -5.886  -9.661  1.00  0.00    -0.237 OA
ATOM     61  O   UNL     1       1.262  -3.567  -9.743  1.00  0.00    -0.744 OA
ENDBRANCH  55  58
ENDBRANCH  27  51
BRANCH  39  62
ATOM     62  C   UNL     1       9.138   2.876 -12.243  1.00  0.00     0.023 A 
ATOM     63  C   UNL     1       8.380   3.123 -13.405  1.00  0.00     0.012 A 
ATOM     64  C   UNL     1      10.544   2.917 -12.313  1.00  0.00     0.148 A 
ATOM     65  C   UNL     1       9.010   3.382 -14.621  1.00  0.00     0.002 A 
ATOM     66  C   UNL     1      11.165   3.220 -13.520  1.00  0.00     0.091 A 
ATOM     67  F   UNL     1      11.249   2.659 -11.202  1.00  0.00    -0.205 F 
ATOM     68  C   UNL     1      10.400   3.443 -14.676  1.00  0.00     0.022 A 
BRANCH  66  69
ATOM     69  S   UNL     1      12.946   3.405 -13.665  1.00  0.00     0.127 S 
ATOM     70  O   UNL     1      13.318   2.178 -14.365  1.00  0.00    -0.237 OA
ATOM     71  O   UNL     1      13.069   4.625 -14.464  1.00  0.00    -0.237 OA
ATOM     72  O   UNL     1      13.448   3.526 -12.302  1.00  0.00    -0.744 OA
ENDBRANCH  66  69
ENDBRANCH  39  62
ENDBRANCH  13  14
ENDBRANCH   6   8
ENDBRANCH   3   4
ENDBRANCH   2   3
ENDBRANCH   1   2
BRANCH   1  73
ATOM     73  C   UNL     1       4.835   0.245   4.408  1.00  0.00     0.116 C 
BRANCH  73  74
ATOM     74  N   UNL     1       6.256  -0.053   4.389  1.00  0.00    -0.352 N 
ATOM     75  C   UNL     1       7.005  -0.796   5.265  1.00  0.00     0.252 C 
ATOM     76  H   UNL     1       6.756   0.335   3.635  1.00  0.00     0.163 HD
ATOM     77  O   UNL     1       8.214  -0.917   5.090  1.00  0.00    -0.269 OA
BRANCH  75  78
ATOM     78  C   UNL     1       6.402  -1.386   6.476  1.00  0.00     0.054 A 
ATOM     79  C   UNL     1       6.968  -0.990   7.700  1.00  0.00     0.015 A 
ATOM     80  C   UNL     1       5.350  -2.308   6.471  1.00  0.00     0.072 A 
ATOM     81  C   UNL     1       6.457  -1.469   8.907  1.00  0.00     0.001 A 
ATOM     82  C   UNL     1       4.830  -2.771   7.692  1.00  0.00     0.016 A 
ATOM     83  C   UNL     1       5.381  -2.353   8.903  1.00  0.00     0.001 A 
BRANCH  80  84
ATOM     84  C   UNL     1       4.701  -2.816   5.248  1.00  0.00     0.338 C 
ATOM     85  O   UNL     1       3.498  -3.013   5.192  1.00  0.00    -0.246 OA
BRANCH  84  86
ATOM     86  O   UNL     1       5.607  -3.038   4.269  1.00  0.00    -0.462 OA
BRANCH  86  87
ATOM     87  C   UNL     1       5.062  -3.432   2.999  1.00  0.00     0.237 C 
BRANCH  87  88
ATOM     88  C   UNL     1       5.330  -4.911   2.727  1.00  0.00     0.030 C 
ATOM     89  C   UNL     1       4.529  -5.413   1.504  1.00  0.00     0.011 C 
ATOM     90  C   UNL     1       4.863  -5.871   3.849  1.00  0.00    -0.004 C 
ATOM     91  C   UNL     1       3.755  -6.618   2.070  1.00  0.00    -0.010 C 
ATOM     92  C   UNL     1       5.499  -7.250   3.598  1.00  0.00     0.004 C 
ATOM     93  C   UNL     1       3.405  -6.135   3.477  1.00  0.00     0.007 C 
ATOM     94  C   UNL     1       4.747  -7.756   2.360  1.00  0.00     0.004 C 
ENDBRANCH  87  88
ENDBRANCH  86  87
ENDBRANCH  84  86
ENDBRANCH  80  84
ENDBRANCH  75  78
ENDBRANCH  73  74
ENDBRANCH   1  73
TORSDOF 18
