REMARK SMILES O=C(NCCCCNC(=O)c1cccc(OCC(F)F)c1)c1ccc(-c2c3nc(c(-c4cccc(S(=O)(=O)[O-])c4F)c4ccc([nH]4)c(-c4cccc(S(=O)(=O)[O-])c4F)c4nc(c(-c5cccc(S(=O)(=O)[O-])c5F)c5ccc2[nH]5)C=C4)C=C3)cc1
REMARK SMILES IDX 5 1 4 2 3 3 1 4 2 5 22 7 23 8 84 9 24 10 83 11 25 12 26 13
REMARK SMILES IDX 27 14 77 15 28 16 82 17 76 18 78 19 29 20 81 21 75 22 74 23
REMARK SMILES IDX 30 25 62 26 42 27 61 28 43 29 46 30 60 31 79 32 44 33 45 34
REMARK SMILES IDX 59 36 80 37 47 38 31 39 32 40 40 41 33 42 35 43 41 44 34 45
REMARK SMILES IDX 36 46 37 47 38 48 39 49 63 50 64 51 72 52 65 53 67 54 73 55
REMARK SMILES IDX 66 56 68 57 69 58 70 59 71 60 48 61 49 62 57 63 50 64 52 65
REMARK SMILES IDX 58 66 51 67 53 68 54 69 55 70 56 71 6 72 7 73 8 74 9 75
REMARK SMILES IDX 10 77 11 78 12 79 21 80 13 81 15 82 14 83 16 84 17 85 18 86
REMARK SMILES IDX 19 87 20 88
REMARK H PARENT 3 6 78 24 46 35 8 76
REMARK Flexibility Score: inf
ROOT
ATOM      1  C   UNL     1       4.964   2.630   0.342  1.00  0.00     0.023 C 
ENDROOT
BRANCH   1   2
ATOM      2  C   UNL     1       4.579   1.206   0.719  1.00  0.00     0.116 C 
BRANCH   2   3
ATOM      3  N   UNL     1       3.141   0.995   0.709  1.00  0.00    -0.352 N 
ATOM      4  O   UNL     1       1.171   0.238  -0.077  1.00  0.00    -0.269 OA
ATOM      5  C   UNL     1       2.395   0.143  -0.072  1.00  0.00     0.251 C 
ATOM      6  H   UNL     1       2.629   1.538   1.351  1.00  0.00     0.163 HD
BRANCH   5   7
ATOM      7  C   UNL     1       3.072  -0.866  -0.918  1.00  0.00     0.039 A 
ATOM      8  C   UNL     1       4.126  -1.630  -0.408  1.00  0.00     0.014 A 
ATOM      9  C   UNL     1       2.635  -1.066  -2.230  1.00  0.00     0.014 A 
ATOM     10  C   UNL     1       4.824  -2.495  -1.243  1.00  0.00     0.010 A 
ATOM     11  C   UNL     1       3.284  -2.000  -3.044  1.00  0.00     0.010 A 
ATOM     12  C   UNL     1       4.396  -2.709  -2.563  1.00  0.00    -0.014 A 
BRANCH  12  13
ATOM     13  C   UNL     1       5.039  -3.774  -3.373  1.00  0.00     0.031 A 
ATOM     14  C   UNL     1       5.798  -3.462  -4.632  1.00  0.00     0.074 A 
ATOM     15  C   UNL     1       4.894  -5.051  -2.966  1.00  0.00     0.049 A 
ATOM     16  N   UNL     1       6.410  -4.288  -5.442  1.00  0.00    -0.248 NA
ATOM     17  C   UNL     1       5.881  -2.051  -5.042  1.00  0.00     0.031 C 
ATOM     18  C   UNL     1       4.125  -5.476  -1.792  1.00  0.00     0.029 A 
ATOM     19  N   UNL     1       5.363  -6.226  -3.495  1.00  0.00    -0.354 N 
ATOM     20  C   UNL     1       6.911  -3.510  -6.478  1.00  0.00     0.074 A 
ATOM     21  C   UNL     1       6.540  -2.140  -6.192  1.00  0.00     0.031 C 
ATOM     22  C   UNL     1       4.176  -6.810  -1.689  1.00  0.00     0.029 A 
ATOM     23  C   UNL     1       4.935  -7.342  -2.814  1.00  0.00     0.049 A 
ATOM     24  H   UNL     1       5.950  -6.267  -4.285  1.00  0.00     0.167 HD
ATOM     25  C   UNL     1       7.624  -3.905  -7.560  1.00  0.00     0.034 A 
ATOM     26  C   UNL     1       5.102  -8.651  -3.079  1.00  0.00     0.034 A 
ATOM     27  C   UNL     1       8.029  -5.264  -7.809  1.00  0.00     0.049 A 
ATOM     28  C   UNL     1       5.912  -9.050  -4.278  1.00  0.00     0.074 A 
ATOM     29  C   UNL     1       8.860  -5.742  -8.809  1.00  0.00     0.029 A 
ATOM     30  N   UNL     1       7.618  -6.364  -7.073  1.00  0.00    -0.354 N 
ATOM     31  N   UNL     1       6.538  -8.285  -5.139  1.00  0.00    -0.248 NA
ATOM     32  C   UNL     1       6.058 -10.489  -4.532  1.00  0.00     0.031 C 
ATOM     33  C   UNL     1       8.924  -7.135  -8.696  1.00  0.00     0.029 A 
ATOM     34  C   UNL     1       8.148  -7.522  -7.616  1.00  0.00     0.049 A 
ATOM     35  H   UNL     1       7.035  -6.327  -6.280  1.00  0.00     0.167 HD
ATOM     36  C   UNL     1       7.158  -9.148  -6.031  1.00  0.00     0.074 A 
ATOM     37  C   UNL     1       6.867 -10.495  -5.582  1.00  0.00     0.031 C 
ATOM     38  C   UNL     1       7.881  -8.854  -7.139  1.00  0.00     0.034 A 
BRANCH  25  39
ATOM     39  C   UNL     1       8.062  -2.863  -8.554  1.00  0.00     0.023 A 
ATOM     40  C   UNL     1       9.161  -2.035  -8.253  1.00  0.00     0.012 A 
ATOM     41  C   UNL     1       7.473  -2.796  -9.833  1.00  0.00     0.148 A 
ATOM     42  C   UNL     1       9.662  -1.149  -9.207  1.00  0.00     0.002 A 
ATOM     43  C   UNL     1       7.999  -1.935 -10.789  1.00  0.00     0.091 A 
ATOM     44  F   UNL     1       6.419  -3.583 -10.091  1.00  0.00    -0.205 F 
ATOM     45  C   UNL     1       9.091  -1.108 -10.476  1.00  0.00     0.022 A 
BRANCH  43  46
ATOM     46  S   UNL     1       7.382  -1.858 -12.475  1.00  0.00     0.127 S 
ATOM     47  O   UNL     1       6.786  -0.523 -12.509  1.00  0.00    -0.237 OA
ATOM     48  O   UNL     1       8.610  -1.996 -13.258  1.00  0.00    -0.237 OA
ATOM     49  O   UNL     1       6.442  -2.962 -12.612  1.00  0.00    -0.744 OA
ENDBRANCH  43  46
ENDBRANCH  25  39
BRANCH  26  50
ATOM     50  C   UNL     1       4.494  -9.671  -2.182  1.00  0.00     0.023 A 
ATOM     51  C   UNL     1       5.324 -10.479  -1.382  1.00  0.00     0.012 A 
ATOM     52  C   UNL     1       3.096  -9.817  -2.087  1.00  0.00     0.148 A 
ATOM     53  C   UNL     1       4.772 -11.431  -0.523  1.00  0.00     0.002 A 
ATOM     54  C   UNL     1       2.553 -10.723  -1.185  1.00  0.00     0.091 A 
ATOM     55  F   UNL     1       2.320  -9.056  -2.873  1.00  0.00    -0.205 F 
ATOM     56  C   UNL     1       3.388 -11.543  -0.414  1.00  0.00     0.022 A 
BRANCH  54  57
ATOM     57  S   UNL     1       0.783 -10.806  -0.888  1.00  0.00     0.127 S 
ATOM     58  O   UNL     1       0.389 -11.931  -1.730  1.00  0.00    -0.237 OA
ATOM     59  O   UNL     1       0.720 -11.061   0.552  1.00  0.00    -0.237 OA
ATOM     60  O   UNL     1       0.272  -9.498  -1.280  1.00  0.00    -0.744 OA
ENDBRANCH  54  57
ENDBRANCH  26  50
BRANCH  38  61
ATOM     61  C   UNL     1       8.401 -10.008  -7.951  1.00  0.00     0.023 A 
ATOM     62  C   UNL     1       7.505 -10.749  -8.747  1.00  0.00     0.012 A 
ATOM     63  C   UNL     1       9.774 -10.319  -7.979  1.00  0.00     0.148 A 
ATOM     64  C   UNL     1       7.963 -11.801  -9.538  1.00  0.00     0.002 A 
ATOM     65  C   UNL     1      10.229 -11.341  -8.804  1.00  0.00     0.091 A 
ATOM     66  F   UNL     1      10.606  -9.613  -7.200  1.00  0.00    -0.205 F 
ATOM     67  C   UNL     1       9.325 -12.089  -9.575  1.00  0.00     0.022 A 
BRANCH  65  68
ATOM     68  S   UNL     1      11.974 -11.728  -8.984  1.00  0.00     0.127 S 
ATOM     69  O   UNL     1      12.069 -13.009  -8.285  1.00  0.00    -0.237 OA
ATOM     70  O   UNL     1      12.125 -11.814 -10.437  1.00  0.00    -0.237 OA
ATOM     71  O   UNL     1      12.697 -10.625  -8.366  1.00  0.00    -0.744 OA
ENDBRANCH  65  68
ENDBRANCH  38  61
ENDBRANCH  12  13
ENDBRANCH   5   7
ENDBRANCH   2   3
ENDBRANCH   1   2
BRANCH   1  72
ATOM     72  C   UNL     1       4.523   3.703   1.333  1.00  0.00     0.023 C 
BRANCH  72  73
ATOM     73  C   UNL     1       4.957   3.476   2.777  1.00  0.00     0.116 C 
BRANCH  73  74
ATOM     74  N   UNL     1       6.400   3.387   2.940  1.00  0.00    -0.352 N 
ATOM     75  C   UNL     1       7.190   3.968   3.902  1.00  0.00     0.251 C 
ATOM     76  H   UNL     1       6.873   2.839   2.273  1.00  0.00     0.163 HD
ATOM     77  O   UNL     1       8.412   3.876   3.852  1.00  0.00    -0.269 OA
BRANCH  75  78
ATOM     78  C   UNL     1       6.559   4.742   4.990  1.00  0.00     0.043 A 
ATOM     79  C   UNL     1       6.993   6.048   5.218  1.00  0.00     0.014 A 
ATOM     80  C   UNL     1       5.536   4.179   5.767  1.00  0.00     0.060 A 
ATOM     81  C   UNL     1       6.361   6.817   6.190  1.00  0.00     0.005 A 
ATOM     82  C   UNL     1       4.878   4.958   6.714  1.00  0.00     0.120 A 
ATOM     83  C   UNL     1       5.301   6.276   6.923  1.00  0.00     0.046 A 
BRANCH  82  84
ATOM     84  O   UNL     1       3.817   4.569   7.484  1.00  0.00    -0.488 OA
BRANCH  84  85
ATOM     85  C   UNL     1       3.214   3.293   7.233  1.00  0.00     0.302 C 
BRANCH  85  86
ATOM     86  C   UNL     1       2.198   3.338   6.099  1.00  0.00     0.379 C 
ATOM     87  F   UNL     1       2.825   3.300   4.896  1.00  0.00    -0.207 F 
ATOM     88  F   UNL     1       1.417   2.228   6.150  1.00  0.00    -0.207 F 
ENDBRANCH  85  86
ENDBRANCH  84  85
ENDBRANCH  82  84
ENDBRANCH  75  78
ENDBRANCH  73  74
ENDBRANCH  72  73
ENDBRANCH   1  72
TORSDOF 17
