REMARK SMILES CN1C(=O)/C(=C/c2ccc(OCC(=O)NCCCCNC(=O)c3ccc(-c4c5nc(c(-c6cccc(S(=O)(=O)[O-])c6F)c6ccc([nH]6)c(-c6cccc(S(=O)(=O)[O-])c6F)c6nc(c(-c7cccc(S(=O)(=O)[O-])c7F)c7ccc4[nH]7)C=C6)C=C5)cc3)c(Br)c2)C(=O)NC1=S
REMARK SMILES IDX 17 1 16 2 15 3 13 4 14 5 12 7 11 8 10 9 7 10 8 11 88 12 9 13
REMARK SMILES IDX 86 14 87 15 6 16 1 17 2 18 3 19 92 20 4 21 5 22 91 23 93 24
REMARK SMILES IDX 89 25 90 27 18 28 19 29 20 30 21 31 22 33 23 34 24 35 85 36
REMARK SMILES IDX 25 37 84 38 26 39 27 40 28 41 78 42 29 43 83 44 77 45 79 46
REMARK SMILES IDX 30 47 82 48 76 49 75 50 31 52 63 53 43 54 62 55 44 56 47 57
REMARK SMILES IDX 61 58 80 59 45 60 46 61 60 63 81 64 48 65 32 66 33 67 41 68
REMARK SMILES IDX 34 69 36 70 42 71 35 72 37 73 38 74 39 75 40 76 64 77 65 78
REMARK SMILES IDX 73 79 66 80 68 81 74 82 67 83 69 84 70 85 71 86 72 87 49 88
REMARK SMILES IDX 50 89 58 90 51 91 53 92 59 93 52 94 54 95 55 96 56 97 57 98
REMARK H PARENT 15 6 91 26 20 32 79 51 47 62
REMARK Flexibility Score: inf
ROOT
ATOM      1  C   UNL     1       2.044  11.153  -1.511  1.00  0.00     0.023 C 
ENDROOT
BRANCH   1   2
ATOM      2  C   UNL     1       1.089  11.388  -2.677  1.00  0.00     0.116 C 
BRANCH   2   3
ATOM      3  N   UNL     1       1.350  10.506  -3.796  1.00  0.00    -0.353 N 
ATOM      4  C   UNL     1       0.526   9.575  -4.360  1.00  0.00     0.257 C 
ATOM      5  O   UNL     1       0.898   9.008  -5.389  1.00  0.00    -0.271 OA
ATOM      6  H   UNL     1       2.242  10.589  -4.205  1.00  0.00     0.163 HD
BRANCH   4   7
ATOM      7  C   UNL     1      -0.859   9.323  -3.753  1.00  0.00     0.329 C 
BRANCH   7   8
ATOM      8  O   UNL     1      -0.964   8.908  -2.405  1.00  0.00    -0.483 OA
BRANCH   8   9
ATOM      9  C   UNL     1      -0.273   7.820  -1.953  1.00  0.00     0.134 A 
ATOM     10  C   UNL     1       1.030   5.738  -0.554  1.00  0.00    -0.023 A 
ATOM     11  C   UNL     1       0.726   6.922   0.103  1.00  0.00     0.012 A 
ATOM     12  C   UNL     1       0.706   5.605  -1.910  1.00  0.00     0.027 A 
ATOM     13  C   UNL     1       0.076   7.946  -0.595  1.00  0.00     0.048 A 
ATOM     14  C   UNL     1       0.032   6.621  -2.605  1.00  0.00     0.060 A 
ATOM     15  Br  UNL     1      -0.537   6.122  -4.347  1.00  0.00    -0.047 Br
BRANCH  10  16
ATOM     16  C   UNL     1       1.575   4.560   0.126  1.00  0.00     0.027 C 
ATOM     17  C   UNL     1       1.177  -0.107   0.601  1.00  0.00     0.156 C 
ATOM     18  N   UNL     1       0.556   1.205   0.772  1.00  0.00    -0.288 N 
ATOM     19  C   UNL     1       1.433   2.286   0.905  1.00  0.00     0.265 C 
ATOM     20  C   UNL     1      -0.829   1.327   0.823  1.00  0.00     0.182 C 
ATOM     21  O   UNL     1       2.638   2.171   1.116  1.00  0.00    -0.268 OA
ATOM     22  C   UNL     1       0.808   3.617   0.710  1.00  0.00     0.106 C 
ATOM     23  N   UNL     1      -1.329   2.591   0.970  1.00  0.00    -0.298 N 
ATOM     24  S   UNL     1      -1.950   0.080   0.750  1.00  0.00    -0.040 S 
ATOM     25  C   UNL     1      -0.636   3.767   0.967  1.00  0.00     0.263 C 
ATOM     26  H   UNL     1      -2.303   2.662   1.091  1.00  0.00     0.172 HD
ATOM     27  O   UNL     1      -1.204   4.828   1.196  1.00  0.00    -0.269 OA
ENDBRANCH  10  16
ENDBRANCH   8   9
ENDBRANCH   7   8
ENDBRANCH   4   7
ENDBRANCH   2   3
ENDBRANCH   1   2
BRANCH   1  28
ATOM     28  C   UNL     1       3.533  11.306  -1.835  1.00  0.00     0.023 C 
BRANCH  28  29
ATOM     29  C   UNL     1       3.936  12.603  -2.529  1.00  0.00     0.116 C 
BRANCH  29  30
ATOM     30  N   UNL     1       3.596  13.793  -1.763  1.00  0.00    -0.352 N 
ATOM     31  C   UNL     1       4.377  14.881  -1.449  1.00  0.00     0.251 C 
ATOM     32  H   UNL     1       2.674  13.823  -1.419  1.00  0.00     0.163 HD
ATOM     33  O   UNL     1       3.940  15.748  -0.696  1.00  0.00    -0.269 OA
BRANCH  31  34
ATOM     34  C   UNL     1       5.752  14.992  -1.985  1.00  0.00     0.039 A 
ATOM     35  C   UNL     1       6.792  15.305  -1.105  1.00  0.00     0.014 A 
ATOM     36  C   UNL     1       6.022  14.769  -3.338  1.00  0.00     0.014 A 
ATOM     37  C   UNL     1       8.113  15.307  -1.562  1.00  0.00     0.010 A 
ATOM     38  C   UNL     1       7.343  14.714  -3.779  1.00  0.00     0.010 A 
ATOM     39  C   UNL     1       8.402  14.965  -2.893  1.00  0.00    -0.014 A 
BRANCH  39  40
ATOM     40  C   UNL     1       9.802  14.796  -3.364  1.00  0.00     0.031 A 
ATOM     41  C   UNL     1      10.366  15.694  -4.429  1.00  0.00     0.074 A 
ATOM     42  C   UNL     1      10.525  13.751  -2.914  1.00  0.00     0.049 A 
ATOM     43  N   UNL     1      11.525  15.628  -5.032  1.00  0.00    -0.248 NA
ATOM     44  C   UNL     1       9.509  16.797  -4.893  1.00  0.00     0.031 C 
ATOM     45  C   UNL     1      10.064  12.763  -1.936  1.00  0.00     0.029 A 
ATOM     46  N   UNL     1      11.787  13.323  -3.248  1.00  0.00    -0.354 N 
ATOM     47  C   UNL     1      11.526  16.654  -5.969  1.00  0.00     0.074 A 
ATOM     48  C   UNL     1      10.242  17.316  -5.869  1.00  0.00     0.031 C 
ATOM     49  C   UNL     1      11.021  11.839  -1.759  1.00  0.00     0.029 A 
ATOM     50  C   UNL     1      12.151  12.149  -2.629  1.00  0.00     0.049 A 
ATOM     51  H   UNL     1      12.374  13.809  -3.870  1.00  0.00     0.167 HD
ATOM     52  C   UNL     1      12.514  17.028  -6.816  1.00  0.00     0.034 A 
ATOM     53  C   UNL     1      13.260  11.395  -2.759  1.00  0.00     0.034 A 
ATOM     54  C   UNL     1      13.807  16.399  -6.881  1.00  0.00     0.049 A 
ATOM     55  C   UNL     1      14.350  11.845  -3.693  1.00  0.00     0.074 A 
ATOM     56  C   UNL     1      14.909  16.777  -7.628  1.00  0.00     0.029 A 
ATOM     57  N   UNL     1      14.169  15.258  -6.184  1.00  0.00    -0.354 N 
ATOM     58  N   UNL     1      14.401  12.919  -4.442  1.00  0.00    -0.248 NA
ATOM     59  C   UNL     1      15.546  10.994  -3.779  1.00  0.00     0.031 C 
ATOM     60  C   UNL     1      15.934  15.853  -7.394  1.00  0.00     0.029 A 
ATOM     61  C   UNL     1      15.472  14.905  -6.496  1.00  0.00     0.049 A 
ATOM     62  H   UNL     1      13.586  14.769  -5.559  1.00  0.00     0.167 HD
ATOM     63  C   UNL     1      15.639  12.885  -5.073  1.00  0.00     0.074 A 
ATOM     64  C   UNL     1      16.319  11.698  -4.596  1.00  0.00     0.031 C 
ATOM     65  C   UNL     1      16.156  13.746  -5.983  1.00  0.00     0.034 A 
BRANCH  52  66
ATOM     66  C   UNL     1      12.262  18.219  -7.701  1.00  0.00     0.023 A 
ATOM     67  C   UNL     1      12.280  19.511  -7.137  1.00  0.00     0.012 A 
ATOM     68  C   UNL     1      12.075  18.071  -9.089  1.00  0.00     0.148 A 
ATOM     69  C   UNL     1      12.090  20.637  -7.936  1.00  0.00     0.002 A 
ATOM     70  C   UNL     1      11.921  19.202  -9.885  1.00  0.00     0.091 A 
ATOM     71  F   UNL     1      12.037  16.834  -9.603  1.00  0.00    -0.205 F 
ATOM     72  C   UNL     1      11.921  20.483  -9.309  1.00  0.00     0.022 A 
BRANCH  70  73
ATOM     73  S   UNL     1      11.765  19.110 -11.672  1.00  0.00     0.127 S 
ATOM     74  O   UNL     1      10.341  19.384 -11.858  1.00  0.00    -0.237 OA
ATOM     75  O   UNL     1      12.655  20.183 -12.118  1.00  0.00    -0.237 OA
ATOM     76  O   UNL     1      12.201  17.771 -12.042  1.00  0.00    -0.744 OA
ENDBRANCH  70  73
ENDBRANCH  52  66
BRANCH  53  77
ATOM     77  C   UNL     1      13.417  10.161  -1.939  1.00  0.00     0.023 A 
ATOM     78  C   UNL     1      14.350  10.152  -0.884  1.00  0.00     0.012 A 
ATOM     79  C   UNL     1      12.626   9.019  -2.167  1.00  0.00     0.148 A 
ATOM     80  C   UNL     1      14.508   9.019  -0.085  1.00  0.00     0.002 A 
ATOM     81  C   UNL     1      12.752   7.912  -1.335  1.00  0.00     0.091 A 
ATOM     82  F   UNL     1      11.758   9.039  -3.189  1.00  0.00    -0.205 F 
ATOM     83  C   UNL     1      13.703   7.905  -0.302  1.00  0.00     0.022 A 
BRANCH  81  84
ATOM     84  S   UNL     1      11.659   6.492  -1.461  1.00  0.00     0.127 S 
ATOM     85  O   UNL     1      12.523   5.506  -2.105  1.00  0.00    -0.237 OA
ATOM     86  O   UNL     1      11.349   6.217  -0.057  1.00  0.00    -0.237 OA
ATOM     87  O   UNL     1      10.519   6.950  -2.244  1.00  0.00    -0.744 OA
ENDBRANCH  81  84
ENDBRANCH  53  77
BRANCH  65  88
ATOM     88  C   UNL     1      17.527  13.444  -6.528  1.00  0.00     0.023 A 
ATOM     89  C   UNL     1      17.681  12.405  -7.467  1.00  0.00     0.012 A 
ATOM     90  C   UNL     1      18.642  14.227  -6.172  1.00  0.00     0.148 A 
ATOM     91  C   UNL     1      18.930  12.134  -8.026  1.00  0.00     0.002 A 
ATOM     92  C   UNL     1      19.876  13.977  -6.764  1.00  0.00     0.091 A 
ATOM     93  F   UNL     1      18.479  15.197  -5.261  1.00  0.00    -0.205 F 
ATOM     94  C   UNL     1      20.023  12.926  -7.684  1.00  0.00     0.022 A 
BRANCH  92  95
ATOM     95  S   UNL     1      21.319  15.000  -6.448  1.00  0.00     0.127 S 
ATOM     96  O   UNL     1      22.119  14.130  -5.588  1.00  0.00    -0.237 OA
ATOM     97  O   UNL     1      21.863  15.197  -7.792  1.00  0.00    -0.237 OA
ATOM     98  O   UNL     1      20.817  16.214  -5.819  1.00  0.00    -0.744 OA
ENDBRANCH  92  95
ENDBRANCH  65  88
ENDBRANCH  39  40
ENDBRANCH  31  34
ENDBRANCH  29  30
ENDBRANCH  28  29
ENDBRANCH   1  28
TORSDOF 17
