REMARK SMILES O=C(NCCCCNC(=O)c1ccc2c(c1)[C@@H]1C=CC[C@@H]1[C@H](c1ccncc1)N2)c1ccc(-c2c3nc(c(-c4cccc(S(=O)(=O)[O-])c4F)c4ccc([nH]4)c(-c4cccc(S(=O)(=O)[O-])c4F)c4nc(c(-c5cccc(S(=O)(=O)[O-])c5F)c5ccc2[nH]5)C=C4)C=C3)cc1
REMARK SMILES IDX 4 1 3 2 1 3 2 4 30 6 31 7 92 8 32 9 91 10 33 11 34 12 35 13
REMARK SMILES IDX 85 14 36 15 90 16 84 17 86 18 37 19 89 20 83 21 82 22 38 24
REMARK SMILES IDX 70 25 50 26 69 27 51 28 54 29 68 30 87 31 52 32 53 33 67 35
REMARK SMILES IDX 88 36 55 37 39 38 40 39 48 40 41 41 43 42 49 43 42 44 44 45
REMARK SMILES IDX 45 46 46 47 47 48 71 49 72 50 80 51 73 52 75 53 81 54 74 55
REMARK SMILES IDX 76 56 77 57 78 58 79 59 56 60 57 61 65 62 58 63 60 64 66 65
REMARK SMILES IDX 59 66 61 67 62 68 63 69 64 70 5 71 6 72 7 73 8 74 9 75 10 77
REMARK SMILES IDX 11 78 12 79 16 80 13 81 15 82 14 83 17 84 29 85 18 86 21 87
REMARK SMILES IDX 22 88 19 90 20 91 23 92 24 93 28 94 25 95 27 96 26 97
REMARK H PARENT 3 5 86 23 54 34 8 76 29 89
REMARK Flexibility Score: inf
ROOT
ATOM      1  C   UNL     1       4.584   0.705  -1.164  1.00  0.00     0.116 C 
ENDROOT
BRANCH   1   2
ATOM      2  N   UNL     1       3.157   0.727  -0.878  1.00  0.00    -0.352 N 
ATOM      3  O   UNL     1       1.221   0.027   0.047  1.00  0.00    -0.269 OA
ATOM      4  C   UNL     1       2.446  -0.054   0.005  1.00  0.00     0.251 C 
ATOM      5  H   UNL     1       2.631   1.389  -1.383  1.00  0.00     0.163 HD
BRANCH   4   6
ATOM      6  C   UNL     1       3.166  -1.017   0.868  1.00  0.00     0.039 A 
ATOM      7  C   UNL     1       4.326  -0.630   1.541  1.00  0.00     0.014 A 
ATOM      8  C   UNL     1       2.703  -2.332   0.969  1.00  0.00     0.014 A 
ATOM      9  C   UNL     1       5.110  -1.591   2.167  1.00  0.00     0.010 A 
ATOM     10  C   UNL     1       3.446  -3.279   1.683  1.00  0.00     0.010 A 
ATOM     11  C   UNL     1       4.678  -2.926   2.253  1.00  0.00    -0.014 A 
BRANCH  11  12
ATOM     12  C   UNL     1       5.513  -3.897   3.009  1.00  0.00     0.031 A 
ATOM     13  C   UNL     1       6.159  -5.080   2.341  1.00  0.00     0.074 A 
ATOM     14  C   UNL     1       5.728  -3.663   4.319  1.00  0.00     0.049 A 
ATOM     15  N   UNL     1       6.997  -5.948   2.848  1.00  0.00    -0.248 NA
ATOM     16  C   UNL     1       5.820  -5.333   0.931  1.00  0.00     0.031 C 
ATOM     17  C   UNL     1       5.104  -2.583   5.090  1.00  0.00     0.029 A 
ATOM     18  N   UNL     1       6.537  -4.294   5.228  1.00  0.00    -0.354 N 
ATOM     19  C   UNL     1       7.264  -6.864   1.837  1.00  0.00     0.074 A 
ATOM     20  C   UNL     1       6.487  -6.454   0.686  1.00  0.00     0.031 C 
ATOM     21  C   UNL     1       5.590  -2.596   6.338  1.00  0.00     0.029 A 
ATOM     22  C   UNL     1       6.524  -3.708   6.472  1.00  0.00     0.049 A 
ATOM     23  H   UNL     1       7.074  -5.090   5.011  1.00  0.00     0.167 HD
ATOM     24  C   UNL     1       8.095  -7.934   1.860  1.00  0.00     0.034 A 
ATOM     25  C   UNL     1       7.191  -4.023   7.598  1.00  0.00     0.034 A 
ATOM     26  C   UNL     1       8.896  -8.315   2.995  1.00  0.00     0.049 A 
ATOM     27  C   UNL     1       8.157  -5.171   7.570  1.00  0.00     0.074 A 
ATOM     28  C   UNL     1       9.797  -9.362   3.101  1.00  0.00     0.029 A 
ATOM     29  N   UNL     1       8.900  -7.663   4.218  1.00  0.00    -0.354 N 
ATOM     30  N   UNL     1       8.483  -5.947   6.566  1.00  0.00    -0.248 NA
ATOM     31  C   UNL     1       8.869  -5.469   8.820  1.00  0.00     0.031 C 
ATOM     32  C   UNL     1      10.344  -9.342   4.389  1.00  0.00     0.029 A 
ATOM     33  C   UNL     1       9.788  -8.280   5.084  1.00  0.00     0.049 A 
ATOM     34  H   UNL     1       8.351  -6.876   4.440  1.00  0.00     0.167 HD
ATOM     35  C   UNL     1       9.438  -6.825   7.060  1.00  0.00     0.074 A 
ATOM     36  C   UNL     1       9.675  -6.451   8.440  1.00  0.00     0.031 C 
ATOM     37  C   UNL     1      10.040  -7.870   6.440  1.00  0.00     0.034 A 
BRANCH  24  38
ATOM     38  C   UNL     1       8.238  -8.745   0.597  1.00  0.00     0.023 A 
ATOM     39  C   UNL     1       9.019  -8.235  -0.460  1.00  0.00     0.012 A 
ATOM     40  C   UNL     1       7.686 -10.037   0.488  1.00  0.00     0.148 A 
ATOM     41  C   UNL     1       9.236  -8.990  -1.612  1.00  0.00     0.002 A 
ATOM     42  C   UNL     1       7.934 -10.797  -0.651  1.00  0.00     0.091 A 
ATOM     43  F   UNL     1       6.930 -10.497   1.495  1.00  0.00    -0.205 F 
ATOM     44  C   UNL     1       8.703 -10.273  -1.703  1.00  0.00     0.022 A 
BRANCH  42  45
ATOM     45  S   UNL     1       7.350 -12.486  -0.837  1.00  0.00     0.127 S 
ATOM     46  O   UNL     1       6.295 -12.325  -1.837  1.00  0.00    -0.237 OA
ATOM     47  O   UNL     1       8.546 -13.176  -1.321  1.00  0.00    -0.237 OA
ATOM     48  O   UNL     1       6.902 -12.903   0.484  1.00  0.00    -0.744 OA
ENDBRANCH  42  45
ENDBRANCH  24  38
BRANCH  25  49
ATOM     49  C   UNL     1       7.002  -3.193   8.820  1.00  0.00     0.023 A 
ATOM     50  C   UNL     1       8.049  -2.368   9.270  1.00  0.00     0.012 A 
ATOM     51  C   UNL     1       5.767  -3.164   9.496  1.00  0.00     0.148 A 
ATOM     52  C   UNL     1       7.876  -1.544  10.383  1.00  0.00     0.002 A 
ATOM     53  C   UNL     1       5.581  -2.293  10.563  1.00  0.00     0.091 A 
ATOM     54  F   UNL     1       4.785  -3.973   9.071  1.00  0.00    -0.205 F 
ATOM     55  C   UNL     1       6.638  -1.494  11.019  1.00  0.00     0.022 A 
BRANCH  53  56
ATOM     56  S   UNL     1       3.959  -2.069  11.302  1.00  0.00     0.127 S 
ATOM     57  O   UNL     1       3.995  -3.020  12.408  1.00  0.00    -0.237 OA
ATOM     58  O   UNL     1       3.985  -0.660  11.700  1.00  0.00    -0.237 OA
ATOM     59  O   UNL     1       3.019  -2.360  10.227  1.00  0.00    -0.744 OA
ENDBRANCH  53  56
ENDBRANCH  25  49
BRANCH  37  60
ATOM     60  C   UNL     1      11.000  -8.689   7.260  1.00  0.00     0.023 A 
ATOM     61  C   UNL     1      10.490  -9.572   8.233  1.00  0.00     0.012 A 
ATOM     62  C   UNL     1      12.389  -8.617   7.049  1.00  0.00     0.148 A 
ATOM     63  C   UNL     1      11.351 -10.346   9.008  1.00  0.00     0.002 A 
ATOM     64  C   UNL     1      13.240  -9.421   7.800  1.00  0.00     0.091 A 
ATOM     65  F   UNL     1      12.858  -7.753   6.137  1.00  0.00    -0.205 F 
ATOM     66  C   UNL     1      12.725 -10.279   8.785  1.00  0.00     0.022 A 
BRANCH  64  67
ATOM     67  S   UNL     1      15.014  -9.445   7.517  1.00  0.00     0.127 S 
ATOM     68  O   UNL     1      15.495  -8.535   8.553  1.00  0.00    -0.237 OA
ATOM     69  O   UNL     1      15.353 -10.852   7.736  1.00  0.00    -0.237 OA
ATOM     70  O   UNL     1      15.195  -8.995   6.143  1.00  0.00    -0.744 OA
ENDBRANCH  64  67
ENDBRANCH  37  60
ENDBRANCH  11  12
ENDBRANCH   4   6
ENDBRANCH   1   2
BRANCH   1  71
ATOM     71  C   UNL     1       4.908   0.723  -2.651  1.00  0.00     0.023 C 
BRANCH  71  72
ATOM     72  C   UNL     1       4.418   1.950  -3.413  1.00  0.00     0.023 C 
BRANCH  72  73
ATOM     73  C   UNL     1       4.789   3.292  -2.791  1.00  0.00     0.116 C 
BRANCH  73  74
ATOM     74  N   UNL     1       6.228   3.487  -2.679  1.00  0.00    -0.352 N 
ATOM     75  C   UNL     1       7.045   4.366  -3.347  1.00  0.00     0.251 C 
ATOM     76  H   UNL     1       6.681   2.903  -2.030  1.00  0.00     0.163 HD
ATOM     77  O   UNL     1       8.265   4.297  -3.236  1.00  0.00    -0.269 OA
BRANCH  75  78
ATOM     78  C   UNL     1       6.451   5.389  -4.228  1.00  0.00     0.040 A 
ATOM     79  C   UNL     1       6.892   5.490  -5.544  1.00  0.00     0.016 A 
ATOM     80  C   UNL     1       5.433   6.222  -3.762  1.00  0.00     0.020 A 
ATOM     81  C   UNL     1       6.273   6.398  -6.406  1.00  0.00     0.027 A 
ATOM     82  C   UNL     1       4.750   7.068  -4.648  1.00  0.00    -0.017 A 
ATOM     83  C   UNL     1       5.211   7.204  -5.968  1.00  0.00     0.038 A 
ATOM     84  C   UNL     1       3.507   7.788  -4.176  1.00  0.00     0.049 C 
ATOM     85  N   UNL     1       4.579   8.045  -6.876  1.00  0.00    -0.378 N 
ATOM     86  C   UNL     1       2.457   6.840  -3.646  1.00  0.00    -0.023 C 
ATOM     87  C   UNL     1       2.720   8.466  -5.311  1.00  0.00     0.031 C 
ATOM     88  C   UNL     1       3.641   9.044  -6.386  1.00  0.00     0.114 C 
ATOM     89  H   UNL     1       4.763   7.965  -7.840  1.00  0.00     0.161 HD
ATOM     90  C   UNL     1       1.473   6.631  -4.530  1.00  0.00    -0.030 C 
ATOM     91  C   UNL     1       1.698   7.416  -5.783  1.00  0.00     0.034 C 
BRANCH  88  92
ATOM     92  C   UNL     1       2.864   9.703  -7.516  1.00  0.00    -0.022 A 
ATOM     93  C   UNL     1       2.140  10.876  -7.255  1.00  0.00     0.026 A 
ATOM     94  C   UNL     1       2.817   9.191  -8.818  1.00  0.00     0.026 A 
ATOM     95  C   UNL     1       1.429  11.476  -8.284  1.00  0.00     0.111 A 
ATOM     96  C   UNL     1       2.091   9.872  -9.784  1.00  0.00     0.111 A 
ATOM     97  N   UNL     1       1.397  11.004  -9.546  1.00  0.00    -0.265 NA
ENDBRANCH  88  92
ENDBRANCH  75  78
ENDBRANCH  73  74
ENDBRANCH  72  73
ENDBRANCH  71  72
ENDBRANCH   1  71
TORSDOF 15
