REMARK SMILES CCc1ccc(C(=O)N2CC[C@H](C(=O)NCCCCNC(=O)c3ccc(-c4c5nc(c(-c6cccc(S(=O)(=O)[O-])c6F)c6ccc([nH]6)c(-c6cccc(S(=O)(=O)[O-])c6F)c6nc(c(-c7cccc(S(=O)(=O)[O-])c7F)c7ccc4[nH]7)C=C6)C=C5)cc3)[C@@H]2C)s1
REMARK SMILES IDX 17 1 16 2 15 3 13 4 14 5 12 7 9 8 10 9 86 10 11 11 87 12
REMARK SMILES IDX 7 13 8 14 6 15 3 16 4 17 88 18 5 19 2 20 1 21 18 22 19 23
REMARK SMILES IDX 20 24 21 25 22 27 23 28 24 29 85 30 25 31 84 32 26 33 27 34
REMARK SMILES IDX 28 35 78 36 29 37 83 38 77 39 79 40 30 41 82 42 76 43 75 44
REMARK SMILES IDX 31 46 63 47 43 48 62 49 44 50 47 51 61 52 80 53 45 54 46 55
REMARK SMILES IDX 60 57 81 58 48 59 32 60 33 61 41 62 34 63 36 64 42 65 35 66
REMARK SMILES IDX 37 67 38 68 39 69 40 70 64 71 65 72 73 73 66 74 68 75 74 76
REMARK SMILES IDX 67 77 69 78 70 79 71 80 72 81 49 82 50 83 58 84 51 85 53 86
REMARK SMILES IDX 59 87 52 88 54 89 55 90 56 91 57 92
REMARK H PARENT 15 6 20 26 79 45 47 56
REMARK Flexibility Score: inf
ROOT
ATOM      1  C   UNL     1       4.966  -7.562   1.515  1.00  0.00     0.023 C 
ENDROOT
BRANCH   1   2
ATOM      2  C   UNL     1       5.593  -7.631   0.121  1.00  0.00     0.116 C 
BRANCH   2   3
ATOM      3  N   UNL     1       5.024  -8.726  -0.639  1.00  0.00    -0.356 N 
ATOM      4  C   UNL     1       4.266  -8.712  -1.770  1.00  0.00     0.225 C 
ATOM      5  O   UNL     1       3.775  -9.776  -2.146  1.00  0.00    -0.275 OA
ATOM      6  H   UNL     1       5.215  -9.623  -0.280  1.00  0.00     0.163 HD
BRANCH   4   7
ATOM      7  C   UNL     1       4.106  -7.420  -2.563  1.00  0.00     0.102 C 
ATOM      8  N   UNL     1       2.027  -6.363  -3.100  1.00  0.00    -0.334 N 
ATOM      9  C   UNL     1       2.131  -7.539  -3.932  1.00  0.00     0.121 C 
ATOM     10  C   UNL     1       3.066  -6.382  -2.065  1.00  0.00     0.094 C 
ATOM     11  C   UNL     1       3.635  -7.737  -4.000  1.00  0.00     0.037 C 
ATOM     12  C   UNL     1       2.429  -6.622  -0.701  1.00  0.00     0.032 C 
BRANCH   8  13
ATOM     13  C   UNL     1       1.022  -5.423  -3.298  1.00  0.00     0.264 C 
ATOM     14  O   UNL     1       0.025  -5.708  -3.962  1.00  0.00    -0.268 OA
BRANCH  13  15
ATOM     15  C   UNL     1       1.244  -4.082  -2.770  1.00  0.00     0.092 A 
ATOM     16  C   UNL     1       0.899  -1.812  -1.837  1.00  0.00     0.005 A 
ATOM     17  C   UNL     1       2.176  -1.986  -2.329  1.00  0.00     0.016 A 
ATOM     18  S   UNL     1      -0.036  -3.239  -2.006  1.00  0.00    -0.135 S 
ATOM     19  C   UNL     1       2.368  -3.283  -2.881  1.00  0.00     0.026 A 
BRANCH  16  20
ATOM     20  C   UNL     1       0.295  -0.564  -1.264  1.00  0.00     0.043 C 
ATOM     21  C   UNL     1       0.920  -0.177   0.068  1.00  0.00     0.010 C 
ENDBRANCH  16  20
ENDBRANCH  13  15
ENDBRANCH   8  13
ENDBRANCH   4   7
ENDBRANCH   2   3
ENDBRANCH   1   2
BRANCH   1  22
ATOM     22  C   UNL     1       5.387  -8.683   2.462  1.00  0.00     0.023 C 
BRANCH  22  23
ATOM     23  C   UNL     1       6.853  -8.648   2.865  1.00  0.00     0.116 C 
BRANCH  23  24
ATOM     24  N   UNL     1       7.198  -7.436   3.597  1.00  0.00    -0.352 N 
ATOM     25  C   UNL     1       7.700  -7.303   4.870  1.00  0.00     0.251 C 
ATOM     26  H   UNL     1       7.050  -6.592   3.111  1.00  0.00     0.163 HD
ATOM     27  O   UNL     1       7.766  -6.194   5.393  1.00  0.00    -0.269 OA
BRANCH  25  28
ATOM     28  C   UNL     1       8.140  -8.505   5.607  1.00  0.00     0.039 A 
ATOM     29  C   UNL     1       7.736  -8.682   6.933  1.00  0.00     0.014 A 
ATOM     30  C   UNL     1       8.927  -9.469   4.973  1.00  0.00     0.014 A 
ATOM     31  C   UNL     1       8.060  -9.867   7.600  1.00  0.00     0.010 A 
ATOM     32  C   UNL     1       9.173 -10.680   5.607  1.00  0.00     0.010 A 
ATOM     33  C   UNL     1       8.748 -10.889   6.928  1.00  0.00    -0.014 A 
BRANCH  33  34
ATOM     34  C   UNL     1       9.057 -12.189   7.574  1.00  0.00     0.031 A 
ATOM     35  C   UNL     1      10.492 -12.613   7.735  1.00  0.00     0.074 A 
ATOM     36  C   UNL     1       8.058 -13.037   7.889  1.00  0.00     0.049 A 
ATOM     37  N   UNL     1      10.973 -13.767   8.114  1.00  0.00    -0.248 NA
ATOM     38  C   UNL     1      11.523 -11.623   7.376  1.00  0.00     0.031 C 
ATOM     39  C   UNL     1       6.630 -12.779   7.695  1.00  0.00     0.029 A 
ATOM     40  N   UNL     1       8.096 -14.306   8.410  1.00  0.00    -0.354 N 
ATOM     41  C   UNL     1      12.351 -13.667   7.969  1.00  0.00     0.074 A 
ATOM     42  C   UNL     1      12.631 -12.344   7.457  1.00  0.00     0.031 C 
ATOM     43  C   UNL     1       5.929 -13.853   8.096  1.00  0.00     0.029 A 
ATOM     44  C   UNL     1       6.856 -14.883   8.555  1.00  0.00     0.049 A 
ATOM     45  H   UNL     1       8.934 -14.762   8.657  1.00  0.00     0.167 HD
ATOM     46  C   UNL     1      13.302 -14.583   8.266  1.00  0.00     0.034 A 
ATOM     47  C   UNL     1       6.507 -16.102   9.010  1.00  0.00     0.034 A 
ATOM     48  C   UNL     1      13.028 -15.850   8.884  1.00  0.00     0.049 A 
ATOM     49  C   UNL     1       7.587 -17.044   9.470  1.00  0.00     0.074 A 
ATOM     50  C   UNL     1      13.927 -16.802   9.331  1.00  0.00     0.029 A 
ATOM     51  N   UNL     1      11.760 -16.328   9.168  1.00  0.00    -0.354 N 
ATOM     52  N   UNL     1       8.887 -16.873   9.461  1.00  0.00    -0.248 NA
ATOM     53  C   UNL     1       7.154 -18.330  10.037  1.00  0.00     0.031 C 
ATOM     54  C   UNL     1      13.199 -17.849   9.907  1.00  0.00     0.029 A 
ATOM     55  C   UNL     1      11.849 -17.552   9.804  1.00  0.00     0.049 A 
ATOM     56  H   UNL     1      10.919 -15.865   8.949  1.00  0.00     0.167 HD
ATOM     57  C   UNL     1       9.425 -18.011  10.048  1.00  0.00     0.074 A 
ATOM     58  C   UNL     1       8.310 -18.859  10.419  1.00  0.00     0.031 C 
ATOM     59  C   UNL     1      10.725 -18.338  10.240  1.00  0.00     0.034 A 
BRANCH  46  60
ATOM     60  C   UNL     1      14.735 -14.207   8.009  1.00  0.00     0.023 A 
ATOM     61  C   UNL     1      15.382 -13.325   8.896  1.00  0.00     0.012 A 
ATOM     62  C   UNL     1      15.451 -14.754   6.927  1.00  0.00     0.148 A 
ATOM     63  C   UNL     1      16.715 -12.971   8.697  1.00  0.00     0.002 A 
ATOM     64  C   UNL     1      16.790 -14.421   6.754  1.00  0.00     0.091 A 
ATOM     65  F   UNL     1      14.809 -15.568   6.077  1.00  0.00    -0.205 F 
ATOM     66  C   UNL     1      17.421 -13.526   7.633  1.00  0.00     0.022 A 
BRANCH  64  67
ATOM     67  S   UNL     1      17.795 -15.135   5.446  1.00  0.00     0.127 S 
ATOM     68  O   UNL     1      17.828 -14.046   4.471  1.00  0.00    -0.237 OA
ATOM     69  O   UNL     1      19.067 -15.383   6.126  1.00  0.00    -0.237 OA
ATOM     70  O   UNL     1      17.094 -16.340   5.024  1.00  0.00    -0.744 OA
ENDBRANCH  64  67
ENDBRANCH  46  60
BRANCH  47  71
ATOM     71  C   UNL     1       5.069 -16.456   9.158  1.00  0.00     0.023 A 
ATOM     72  C   UNL     1       4.505 -16.483  10.449  1.00  0.00     0.012 A 
ATOM     73  C   UNL     1       4.248 -16.723   8.047  1.00  0.00     0.148 A 
ATOM     74  C   UNL     1       3.158 -16.793  10.633  1.00  0.00     0.002 A 
ATOM     75  C   UNL     1       2.894 -16.988   8.235  1.00  0.00     0.091 A 
ATOM     76  F   UNL     1       4.797 -16.712   6.824  1.00  0.00    -0.205 F 
ATOM     77  C   UNL     1       2.349 -17.036   9.526  1.00  0.00     0.022 A 
BRANCH  75  78
ATOM     78  S   UNL     1       1.788 -17.180   6.832  1.00  0.00     0.127 S 
ATOM     79  O   UNL     1       1.889 -18.609   6.557  1.00  0.00    -0.237 OA
ATOM     80  O   UNL     1       0.499 -16.748   7.376  1.00  0.00    -0.237 OA
ATOM     81  O   UNL     1       2.331 -16.282   5.819  1.00  0.00    -0.744 OA
ENDBRANCH  75  78
ENDBRANCH  47  71
BRANCH  59  82
ATOM     82  C   UNL     1      11.025 -19.650  10.907  1.00  0.00     0.023 A 
ATOM     83  C   UNL     1      10.965 -20.836  10.151  1.00  0.00     0.012 A 
ATOM     84  C   UNL     1      11.462 -19.698  12.244  1.00  0.00     0.148 A 
ATOM     85  C   UNL     1      11.324 -22.055  10.721  1.00  0.00     0.002 A 
ATOM     86  C   UNL     1      11.850 -20.914  12.796  1.00  0.00     0.091 A 
ATOM     87  F   UNL     1      11.487 -18.561  12.955  1.00  0.00    -0.205 F 
ATOM     88  C   UNL     1      11.779 -22.093  12.038  1.00  0.00     0.022 A 
BRANCH  86  89
ATOM     89  S   UNL     1      12.523 -21.016  14.459  1.00  0.00     0.127 S 
ATOM     90  O   UNL     1      11.336 -21.343  15.245  1.00  0.00    -0.237 OA
ATOM     91  O   UNL     1      13.497 -22.104  14.345  1.00  0.00    -0.237 OA
ATOM     92  O   UNL     1      13.118 -19.710  14.715  1.00  0.00    -0.744 OA
ENDBRANCH  86  89
ENDBRANCH  59  82
ENDBRANCH  33  34
ENDBRANCH  25  28
ENDBRANCH  23  24
ENDBRANCH  22  23
ENDBRANCH   1  22
TORSDOF 17
