REMARK SMILES C[C@H]1N=N[C@H](S/C(=C/c2ccc(-c3cccc(Cl)c3)o2)C(=O)NCCCCNC(=O)c2ccc(-c3c4nc(c(-c5cccc(S(=O)(=O)[O-])c5F)c5ccc([nH]5)c(-c5cccc(S(=O)(=O)[O-])c5F)c5nc(c(-c6cccc(S(=O)(=O)[O-])c6F)c6ccc3[nH]6)C=C5)C=C4)cc2)[NH2+]1
REMARK SMILES IDX 26 1 25 2 24 3 23 4 21 5 22 6 7 8 8 9 6 10 5 11 1 12 2 13
REMARK SMILES IDX 3 14 94 15 4 16 9 19 10 20 20 21 11 22 12 23 13 24 14 25
REMARK SMILES IDX 19 26 15 27 17 28 16 29 18 30 27 31 28 32 29 33 30 35 31 36
REMARK SMILES IDX 32 37 93 38 33 39 92 40 34 41 35 42 36 43 86 44 37 45 91 46
REMARK SMILES IDX 85 47 87 48 38 49 90 50 84 51 83 52 39 54 71 55 51 56 70 57
REMARK SMILES IDX 52 58 55 59 69 60 88 61 53 62 54 63 68 65 89 66 56 67 40 68
REMARK SMILES IDX 41 69 49 70 42 71 44 72 50 73 43 74 45 75 46 76 47 77 48 78
REMARK SMILES IDX 72 79 73 80 81 81 74 82 76 83 82 84 75 85 77 86 78 87 79 88
REMARK SMILES IDX 80 89 57 90 58 91 66 92 59 93 61 94 67 95 60 96 62 97 63 98
REMARK SMILES IDX 64 99 65 100
REMARK H PARENT 23 7 94 17 94 18 28 34 87 53 55 64
REMARK Flexibility Score: inf
ROOT
ATOM      1  C   UNL     1       6.298  -2.240   6.824  1.00  0.00     0.023 C 
ENDROOT
BRANCH   1   2
ATOM      2  C   UNL     1       5.460  -1.511   5.771  1.00  0.00     0.023 C 
BRANCH   2   3
ATOM      3  C   UNL     1       4.590  -2.375   4.870  1.00  0.00     0.116 C 
BRANCH   3   4
ATOM      4  N   UNL     1       3.544  -3.123   5.521  1.00  0.00    -0.352 N 
ATOM      5  C   UNL     1       2.460  -3.742   4.966  1.00  0.00     0.258 C 
ATOM      6  O   UNL     1       1.803  -4.503   5.683  1.00  0.00    -0.269 OA
ATOM      7  H   UNL     1       3.621  -3.199   6.500  1.00  0.00     0.163 HD
BRANCH   5   8
ATOM      8  C   UNL     1       1.992  -3.474   3.551  1.00  0.00     0.084 C 
ATOM      9  C   UNL     1       2.671  -3.766   2.427  1.00  0.00     0.068 C 
BRANCH   8  10
ATOM     10  S   UNL     1       0.350  -2.827   3.549  1.00  0.00    -0.030 SA
BRANCH  10  11
ATOM     11  C   UNL     1      -0.175  -2.592   1.821  1.00  0.00     0.393 C 
ATOM     12  C   UNL     1       0.509   0.309  -0.130  1.00  0.00     0.106 C 
ATOM     13  C   UNL     1       0.193  -0.506   1.114  1.00  0.00     0.324 C 
ATOM     14  N   UNL     1      -1.258  -0.709   1.241  1.00  0.00    -0.126 NA
ATOM     15  N   UNL     1       0.795  -1.830   1.029  1.00  0.00    -0.293 N 
ATOM     16  N   UNL     1      -1.469  -1.881   1.653  1.00  0.00    -0.115 NA
ATOM     17  H   UNL     1       1.726  -1.852   1.445  1.00  0.00     0.350 HD
ATOM     18  H   UNL     1       0.947  -2.177   0.082  1.00  0.00     0.350 HD
ENDBRANCH  10  11
ENDBRANCH   8  10
BRANCH   9  19
ATOM     19  C   UNL     1       4.042  -4.093   2.331  1.00  0.00     0.128 A 
ATOM     20  C   UNL     1       4.736  -5.275   2.532  1.00  0.00     0.051 A 
ATOM     21  O   UNL     1       4.950  -3.140   1.926  1.00  0.00    -0.457 OA
ATOM     22  C   UNL     1       6.111  -5.010   2.281  1.00  0.00     0.051 A 
ATOM     23  C   UNL     1       6.201  -3.672   1.960  1.00  0.00     0.134 A 
BRANCH  23  24
ATOM     24  C   UNL     1       7.298  -2.730   1.761  1.00  0.00     0.019 A 
ATOM     25  C   UNL     1       8.553  -3.176   1.332  1.00  0.00     0.012 A 
ATOM     26  C   UNL     1       7.153  -1.377   2.114  1.00  0.00     0.032 A 
ATOM     27  C   UNL     1       9.645  -2.302   1.284  1.00  0.00     0.002 A 
ATOM     28  C   UNL     1       8.249  -0.514   2.084  1.00  0.00     0.041 A 
ATOM     29  C   UNL     1       9.497  -0.972   1.674  1.00  0.00     0.020 A 
ATOM     30  Cl  UNL     1       8.066   1.120   2.595  1.00  0.00    -0.084 Cl
ENDBRANCH  23  24
ENDBRANCH   9  19
ENDBRANCH   5   8
ENDBRANCH   3   4
ENDBRANCH   2   3
ENDBRANCH   1   2
BRANCH   1  31
ATOM     31  C   UNL     1       6.999  -3.535   6.415  1.00  0.00     0.116 C 
BRANCH  31  32
ATOM     32  N   UNL     1       7.940  -3.415   5.306  1.00  0.00    -0.352 N 
ATOM     33  C   UNL     1       9.255  -3.826   5.220  1.00  0.00     0.251 C 
ATOM     34  H   UNL     1       7.584  -2.977   4.500  1.00  0.00     0.163 HD
ATOM     35  O   UNL     1       9.893  -3.713   4.183  1.00  0.00    -0.269 OA
BRANCH  33  36
ATOM     36  C   UNL     1       9.922  -4.356   6.421  1.00  0.00     0.039 A 
ATOM     37  C   UNL     1      11.063  -3.699   6.892  1.00  0.00     0.014 A 
ATOM     38  C   UNL     1       9.368  -5.423   7.124  1.00  0.00     0.014 A 
ATOM     39  C   UNL     1      11.573  -4.028   8.148  1.00  0.00     0.010 A 
ATOM     40  C   UNL     1       9.826  -5.691   8.407  1.00  0.00     0.010 A 
ATOM     41  C   UNL     1      10.911  -4.976   8.942  1.00  0.00    -0.014 A 
BRANCH  41  42
ATOM     42  C   UNL     1      11.280  -5.211  10.360  1.00  0.00     0.031 A 
ATOM     43  C   UNL     1      11.696  -6.585  10.795  1.00  0.00     0.074 A 
ATOM     44  C   UNL     1      11.076  -4.236  11.270  1.00  0.00     0.049 A 
ATOM     45  N   UNL     1      11.837  -7.061  12.003  1.00  0.00    -0.248 NA
ATOM     46  C   UNL     1      11.941  -7.569   9.727  1.00  0.00     0.031 C 
ATOM     47  C   UNL     1      10.602  -2.881  10.973  1.00  0.00     0.029 A 
ATOM     48  N   UNL     1      11.198  -4.248  12.637  1.00  0.00    -0.354 N 
ATOM     49  C   UNL     1      12.120  -8.411  11.844  1.00  0.00     0.074 A 
ATOM     50  C   UNL     1      12.116  -8.682  10.423  1.00  0.00     0.031 C 
ATOM     51  C   UNL     1      10.466  -2.198  12.121  1.00  0.00     0.029 A 
ATOM     52  C   UNL     1      10.803  -3.074  13.238  1.00  0.00     0.049 A 
ATOM     53  H   UNL     1      11.536  -5.024  13.141  1.00  0.00     0.167 HD
ATOM     54  C   UNL     1      12.382  -9.337  12.796  1.00  0.00     0.034 A 
ATOM     55  C   UNL     1      10.706  -2.747  14.541  1.00  0.00     0.034 A 
ATOM     56  C   UNL     1      12.455  -9.039  14.200  1.00  0.00     0.049 A 
ATOM     57  C   UNL     1      11.089  -3.771  15.575  1.00  0.00     0.074 A 
ATOM     58  C   UNL     1      12.798  -9.882  15.241  1.00  0.00     0.029 A 
ATOM     59  N   UNL     1      12.193  -7.797  14.757  1.00  0.00    -0.354 N 
ATOM     60  N   UNL     1      11.483  -5.009  15.400  1.00  0.00    -0.248 NA
ATOM     61  C   UNL     1      11.049  -3.348  16.983  1.00  0.00     0.031 C 
ATOM     62  C   UNL     1      12.746  -9.147  16.430  1.00  0.00     0.029 A 
ATOM     63  C   UNL     1      12.381  -7.844  16.126  1.00  0.00     0.049 A 
ATOM     64  H   UNL     1      11.915  -6.999  14.252  1.00  0.00     0.167 HD
ATOM     65  C   UNL     1      11.780  -5.498  16.666  1.00  0.00     0.074 A 
ATOM     66  C   UNL     1      11.530  -4.420  17.600  1.00  0.00     0.031 C 
ATOM     67  C   UNL     1      12.207  -6.734  17.025  1.00  0.00     0.034 A 
BRANCH  54  68
ATOM     68  C   UNL     1      12.670 -10.742  12.342  1.00  0.00     0.023 A 
ATOM     69  C   UNL     1      13.893 -11.024  11.699  1.00  0.00     0.012 A 
ATOM     70  C   UNL     1      11.757 -11.787  12.582  1.00  0.00     0.148 A 
ATOM     71  C   UNL     1      14.187 -12.317  11.268  1.00  0.00     0.002 A 
ATOM     72  C   UNL     1      12.076 -13.082  12.187  1.00  0.00     0.091 A 
ATOM     73  F   UNL     1      10.589 -11.496  13.171  1.00  0.00    -0.205 F 
ATOM     74  C   UNL     1      13.284 -13.346  11.521  1.00  0.00     0.022 A 
BRANCH  72  75
ATOM     75  S   UNL     1      11.012 -14.486  12.535  1.00  0.00     0.127 S 
ATOM     76  O   UNL     1      10.433 -14.752  11.219  1.00  0.00    -0.237 OA
ATOM     77  O   UNL     1      11.969 -15.494  12.994  1.00  0.00    -0.237 OA
ATOM     78  O   UNL     1      10.076 -14.034  13.555  1.00  0.00    -0.744 OA
ENDBRANCH  72  75
ENDBRANCH  54  68
BRANCH  55  79
ATOM     79  C   UNL     1      10.307  -1.366  14.938  1.00  0.00     0.023 A 
ATOM     80  C   UNL     1      11.282  -0.501  15.474  1.00  0.00     0.012 A 
ATOM     81  C   UNL     1       8.994  -0.890  14.758  1.00  0.00     0.148 A 
ATOM     82  C   UNL     1      10.951   0.800  15.852  1.00  0.00     0.002 A 
ATOM     83  C   UNL     1       8.682   0.425  15.089  1.00  0.00     0.091 A 
ATOM     84  F   UNL     1       8.076  -1.729  14.257  1.00  0.00    -0.205 F 
ATOM     85  C   UNL     1       9.655   1.266  15.651  1.00  0.00     0.022 A 
BRANCH  83  86
ATOM     86  S   UNL     1       7.074   1.147  14.743  1.00  0.00     0.127 S 
ATOM     87  O   UNL     1       6.472   1.188  16.073  1.00  0.00    -0.237 OA
ATOM     88  O   UNL     1       7.436   2.453  14.190  1.00  0.00    -0.237 OA
ATOM     89  O   UNL     1       6.444   0.248  13.785  1.00  0.00    -0.744 OA
ENDBRANCH  83  86
ENDBRANCH  55  79
BRANCH  67  90
ATOM     90  C   UNL     1      12.495  -6.983  18.480  1.00  0.00     0.023 A 
ATOM     91  C   UNL     1      11.431  -7.178  19.381  1.00  0.00     0.012 A 
ATOM     92  C   UNL     1      13.823  -7.137  18.926  1.00  0.00     0.148 A 
ATOM     93  C   UNL     1      11.685  -7.510  20.711  1.00  0.00     0.002 A 
ATOM     94  C   UNL     1      14.067  -7.511  20.241  1.00  0.00     0.091 A 
ATOM     95  F   UNL     1      14.819  -6.925  18.053  1.00  0.00    -0.205 F 
ATOM     96  C   UNL     1      13.000  -7.691  21.137  1.00  0.00     0.022 A 
BRANCH  94  97
ATOM     97  S   UNL     1      15.722  -7.859  20.848  1.00  0.00     0.127 S 
ATOM     98  O   UNL     1      15.989  -6.683  21.674  1.00  0.00    -0.237 OA
ATOM     99  O   UNL     1      15.524  -9.100  21.598  1.00  0.00    -0.237 OA
ATOM    100  O   UNL     1      16.561  -7.997  19.665  1.00  0.00    -0.744 OA
ENDBRANCH  94  97
ENDBRANCH  67  90
ENDBRANCH  41  42
ENDBRANCH  33  36
ENDBRANCH  31  32
ENDBRANCH   1  31
TORSDOF 18
