REMARK SMILES Nc1c(CC(=O)NCCCCNC(=O)c2ccc(-c3c4nc(c(-c5cccc(S(=O)(=O)[O-])c5F)c5ccc([nH]5)c(-c5cccc(S(=O)(=O)[O-])c5F)c5nc(c(-c6cccc(S(=O)(=O)[O-])c6F)c6ccc3[nH]6)C=C5)C=C4)cc2)cccc1C(=O)c1ccc(Br)cc1
REMARK SMILES IDX 9 1 8 2 7 3 5 4 6 5 4 7 3 8 2 9 81 10 78 11 80 12 79 13 1 14
REMARK SMILES IDX 82 17 83 18 84 19 85 20 90 21 86 22 89 23 87 24 88 25 10 26
REMARK SMILES IDX 11 27 12 28 13 29 14 31 15 32 16 33 77 34 17 35 76 36 18 37
REMARK SMILES IDX 19 38 20 39 70 40 21 41 75 42 69 43 71 44 22 45 74 46 68 47
REMARK SMILES IDX 67 48 23 50 55 51 35 52 54 53 36 54 39 55 53 56 72 57 37 58
REMARK SMILES IDX 38 59 52 61 73 62 40 63 24 64 25 65 33 66 26 67 28 68 34 69
REMARK SMILES IDX 27 70 29 71 30 72 31 73 32 74 56 75 57 76 65 77 58 78 60 79
REMARK SMILES IDX 66 80 59 81 61 82 62 83 63 84 64 85 41 86 42 87 50 88 43 89
REMARK SMILES IDX 45 90 51 91 44 92 46 93 47 94 48 95 49 96
REMARK H PARENT 7 6 1 15 1 16 12 30 71 49 39 60
REMARK Flexibility Score: inf
ROOT
ATOM      1  C   UNL     1       0.623  -0.698   3.345  1.00  0.00     0.023 C 
ENDROOT
BRANCH   1   2
ATOM      2  C   UNL     1       1.574  -1.768   2.808  1.00  0.00     0.116 C 
BRANCH   2   3
ATOM      3  N   UNL     1       0.869  -2.979   2.443  1.00  0.00    -0.356 N 
ATOM      4  C   UNL     1       0.446  -3.389   1.211  1.00  0.00     0.224 C 
ATOM      5  O   UNL     1      -0.203  -4.433   1.131  1.00  0.00    -0.275 OA
ATOM      6  H   UNL     1       0.665  -3.592   3.187  1.00  0.00     0.163 HD
BRANCH   4   7
ATOM      7  C   UNL     1       0.836  -2.616  -0.040  1.00  0.00     0.137 C 
BRANCH   7   8
ATOM      8  C   UNL     1       0.230  -1.227  -0.151  1.00  0.00    -0.015 A 
ATOM      9  C   UNL     1       1.015  -0.042  -0.188  1.00  0.00     0.046 A 
ATOM     10  C   UNL     1       0.356   1.217  -0.189  1.00  0.00     0.046 A 
ATOM     11  C   UNL     1      -1.175  -1.141  -0.157  1.00  0.00     0.006 A 
ATOM     12  C   UNL     1      -1.052   1.258  -0.171  1.00  0.00     0.014 A 
ATOM     13  C   UNL     1      -1.812   0.092  -0.162  1.00  0.00     0.001 A 
BRANCH   9  14
ATOM     14  N   UNL     1       2.401  -0.161  -0.170  1.00  0.00    -0.398 N 
ATOM     15  H   UNL     1       2.819  -1.052  -0.170  1.00  0.00     0.156 HD
ATOM     16  H   UNL     1       2.965   0.647  -0.157  1.00  0.00     0.156 HD
ENDBRANCH   9  14
BRANCH  10  17
ATOM     17  C   UNL     1       1.021   2.567  -0.167  1.00  0.00     0.195 C 
ATOM     18  O   UNL     1       0.359   3.589   0.018  1.00  0.00    -0.289 OA
BRANCH  17  19
ATOM     19  C   UNL     1       2.476   2.757  -0.300  1.00  0.00     0.023 A 
ATOM     20  C   UNL     1       3.169   3.329   0.774  1.00  0.00     0.013 A 
ATOM     21  C   UNL     1       3.160   2.347  -1.449  1.00  0.00     0.013 A 
ATOM     22  C   UNL     1       4.561   3.419   0.731  1.00  0.00     0.016 A 
ATOM     23  C   UNL     1       4.555   2.424  -1.483  1.00  0.00     0.016 A 
ATOM     24  C   UNL     1       5.248   2.948  -0.389  1.00  0.00     0.018 A 
ATOM     25  Br  UNL     1       7.137   3.000  -0.418  1.00  0.00    -0.051 Br
ENDBRANCH  17  19
ENDBRANCH  10  17
ENDBRANCH   7   8
ENDBRANCH   4   7
ENDBRANCH   2   3
ENDBRANCH   1   2
BRANCH   1  26
ATOM     26  C   UNL     1       0.097  -0.984   4.753  1.00  0.00     0.023 C 
BRANCH  26  27
ATOM     27  C   UNL     1       1.174  -1.128   5.822  1.00  0.00     0.116 C 
BRANCH  27  28
ATOM     28  N   UNL     1       2.009   0.056   5.949  1.00  0.00    -0.352 N 
ATOM     29  C   UNL     1       2.547   0.604   7.087  1.00  0.00     0.251 C 
ATOM     30  H   UNL     1       2.216   0.526   5.109  1.00  0.00     0.163 HD
ATOM     31  O   UNL     1       3.123   1.689   7.028  1.00  0.00    -0.269 OA
BRANCH  29  32
ATOM     32  C   UNL     1       2.407  -0.099   8.381  1.00  0.00     0.039 A 
ATOM     33  C   UNL     1       2.050   0.639   9.512  1.00  0.00     0.014 A 
ATOM     34  C   UNL     1       2.619  -1.477   8.480  1.00  0.00     0.014 A 
ATOM     35  C   UNL     1       1.870  -0.014  10.733  1.00  0.00     0.010 A 
ATOM     36  C   UNL     1       2.353  -2.136   9.677  1.00  0.00     0.010 A 
ATOM     37  C   UNL     1       1.998  -1.411  10.822  1.00  0.00    -0.014 A 
BRANCH  37  38
ATOM     38  C   UNL     1       1.781  -2.115  12.113  1.00  0.00     0.031 A 
ATOM     39  C   UNL     1       2.904  -2.882  12.761  1.00  0.00     0.074 A 
ATOM     40  C   UNL     1       0.559  -2.104  12.680  1.00  0.00     0.049 A 
ATOM     41  N   UNL     1       2.906  -3.541  13.891  1.00  0.00    -0.248 NA
ATOM     42  C   UNL     1       4.184  -2.941  12.035  1.00  0.00     0.031 C 
ATOM     43  C   UNL     1      -0.634  -1.474  12.110  1.00  0.00     0.029 A 
ATOM     44  N   UNL     1       0.113  -2.653  13.856  1.00  0.00    -0.354 N 
ATOM     45  C   UNL     1       4.168  -4.114  13.996  1.00  0.00     0.074 A 
ATOM     46  C   UNL     1       4.891  -3.765  12.794  1.00  0.00     0.031 C 
ATOM     47  C   UNL     1      -1.669  -1.655  12.945  1.00  0.00     0.029 A 
ATOM     48  C   UNL     1      -1.224  -2.436  14.094  1.00  0.00     0.049 A 
ATOM     49  H   UNL     1       0.695  -3.155  14.472  1.00  0.00     0.167 HD
ATOM     50  C   UNL     1       4.693  -4.838  15.014  1.00  0.00     0.034 A 
ATOM     51  C   UNL     1      -2.004  -2.822  15.123  1.00  0.00     0.034 A 
ATOM     52  C   UNL     1       3.984  -5.154  16.224  1.00  0.00     0.049 A 
ATOM     53  C   UNL     1      -1.385  -3.588  16.261  1.00  0.00     0.074 A 
ATOM     54  C   UNL     1       4.454  -5.804  17.351  1.00  0.00     0.029 A 
ATOM     55  N   UNL     1       2.652  -4.854  16.463  1.00  0.00    -0.354 N 
ATOM     56  N   UNL     1      -0.143  -3.977  16.418  1.00  0.00    -0.248 NA
ATOM     57  C   UNL     1      -2.268  -3.932  17.385  1.00  0.00     0.031 C 
ATOM     58  C   UNL     1       3.396  -5.928  18.258  1.00  0.00     0.029 A 
ATOM     59  C   UNL     1       2.278  -5.318  17.712  1.00  0.00     0.049 A 
ATOM     60  H   UNL     1       2.059  -4.380  15.835  1.00  0.00     0.167 HD
ATOM     61  C   UNL     1      -0.087  -4.579  17.670  1.00  0.00     0.074 A 
ATOM     62  C   UNL     1      -1.414  -4.477  18.240  1.00  0.00     0.031 C 
ATOM     63  C   UNL     1       0.964  -5.175  18.286  1.00  0.00     0.034 A 
BRANCH  50  64
ATOM     64  C   UNL     1       6.122  -5.301  14.880  1.00  0.00     0.023 A 
ATOM     65  C   UNL     1       7.170  -4.358  14.931  1.00  0.00     0.012 A 
ATOM     66  C   UNL     1       6.432  -6.669  14.757  1.00  0.00     0.148 A 
ATOM     67  C   UNL     1       8.499  -4.764  14.822  1.00  0.00     0.002 A 
ATOM     68  C   UNL     1       7.761  -7.071  14.699  1.00  0.00     0.091 A 
ATOM     69  F   UNL     1       5.423  -7.550  14.690  1.00  0.00    -0.205 F 
ATOM     70  C   UNL     1       8.795  -6.120  14.717  1.00  0.00     0.022 A 
BRANCH  68  71
ATOM     71  S   UNL     1       8.252  -8.798  14.646  1.00  0.00     0.127 S 
ATOM     72  O   UNL     1       8.791  -8.910  13.291  1.00  0.00    -0.237 OA
ATOM     73  O   UNL     1       9.255  -8.864  15.709  1.00  0.00    -0.237 OA
ATOM     74  O   UNL     1       7.043  -9.569  14.901  1.00  0.00    -0.744 OA
ENDBRANCH  68  71
ENDBRANCH  50  64
BRANCH  51  75
ATOM     75  C   UNL     1      -3.443  -2.436  15.155  1.00  0.00     0.023 A 
ATOM     76  C   UNL     1      -3.892  -1.500  16.108  1.00  0.00     0.012 A 
ATOM     77  C   UNL     1      -4.365  -2.978  14.239  1.00  0.00     0.148 A 
ATOM     78  C   UNL     1      -5.239  -1.141  16.174  1.00  0.00     0.002 A 
ATOM     79  C   UNL     1      -5.693  -2.571  14.272  1.00  0.00     0.091 A 
ATOM     80  F   UNL     1      -3.920  -3.872  13.346  1.00  0.00    -0.205 F 
ATOM     81  C   UNL     1      -6.137  -1.669  15.250  1.00  0.00     0.022 A 
BRANCH  79  82
ATOM     82  S   UNL     1      -6.892  -3.097  13.042  1.00  0.00     0.127 S 
ATOM     83  O   UNL     1      -7.775  -3.951  13.832  1.00  0.00    -0.237 OA
ATOM     84  O   UNL     1      -7.475  -1.821  12.627  1.00  0.00    -0.237 OA
ATOM     85  O   UNL     1      -6.122  -3.772  12.005  1.00  0.00    -0.744 OA
ENDBRANCH  79  82
ENDBRANCH  51  75
BRANCH  63  86
ATOM     86  C   UNL     1       0.734  -5.734  19.667  1.00  0.00     0.023 A 
ATOM     87  C   UNL     1      -0.074  -6.877  19.841  1.00  0.00     0.012 A 
ATOM     88  C   UNL     1       1.359  -5.154  20.789  1.00  0.00     0.148 A 
ATOM     89  C   UNL     1      -0.294  -7.403  21.113  1.00  0.00     0.002 A 
ATOM     90  C   UNL     1       1.179  -5.718  22.047  1.00  0.00     0.091 A 
ATOM     91  F   UNL     1       2.110  -4.059  20.608  1.00  0.00    -0.205 F 
ATOM     92  C   UNL     1       0.340  -6.831  22.213  1.00  0.00     0.022 A 
BRANCH  90  93
ATOM     93  S   UNL     1       2.036  -5.109  23.503  1.00  0.00     0.127 S 
ATOM     94  O   UNL     1       0.955  -4.444  24.229  1.00  0.00    -0.237 OA
ATOM     95  O   UNL     1       2.514  -6.347  24.121  1.00  0.00    -0.237 OA
ATOM     96  O   UNL     1       3.091  -4.234  23.012  1.00  0.00    -0.744 OA
ENDBRANCH  90  93
ENDBRANCH  63  86
ENDBRANCH  37  38
ENDBRANCH  29  32
ENDBRANCH  27  28
ENDBRANCH  26  27
ENDBRANCH   1  26
TORSDOF 18
