REMARK SMILES O=C(NCCCCNC(=O)[C@@H]1CCCC[C@@H]1C(=O)Nc1ccccc1C(=O)N1CCN(c2ccc(F)cc2)CC1)c1ccc(-c2c3nc(c(-c4cccc(S(=O)(=O)[O-])c4F)c4ccc([nH]4)c(-c4cccc(S(=O)(=O)[O-])c4F)c4nc(c(-c5cccc(S(=O)(=O)[O-])c5F)c5ccc2[nH]5)C=C4)C=C3)cc1
REMARK SMILES IDX 6 1 5 2 4 3 3 4 1 5 2 6 41 8 42 9 103 10 43 11 102 12 44 13
REMARK SMILES IDX 45 14 46 15 96 16 47 17 101 18 95 19 97 20 48 21 100 22
REMARK SMILES IDX 94 23 93 24 49 26 81 27 61 28 80 29 62 30 65 31 79 32 98 33
REMARK SMILES IDX 63 34 64 35 78 37 99 38 66 39 50 40 51 41 59 42 52 43 54 44
REMARK SMILES IDX 60 45 53 46 55 47 56 48 57 49 58 50 82 51 83 52 91 53 84 54
REMARK SMILES IDX 86 55 92 56 85 57 87 58 88 59 89 60 90 61 67 62 68 63 76 64
REMARK SMILES IDX 69 65 71 66 77 67 70 68 72 69 73 70 74 71 75 72 7 73 8 74
REMARK SMILES IDX 9 75 10 77 11 78 12 79 16 80 13 81 15 82 14 83 17 84 18 85
REMARK SMILES IDX 19 86 20 88 21 89 25 90 22 91 24 92 23 93 26 94 27 95 28 96
REMARK SMILES IDX 29 97 40 98 30 99 39 100 31 101 32 102 33 103 38 104 34 105
REMARK SMILES IDX 37 106 35 107 36 108
REMARK H PARENT 3 7 97 25 65 36 8 76 19 87
REMARK Flexibility Score: inf
ROOT
ATOM      1  C   UNL     1       3.737   3.340   1.345  1.00  0.00     0.023 C 
ENDROOT
BRANCH   1   2
ATOM      2  C   UNL     1       4.494   2.478   0.328  1.00  0.00     0.023 C 
BRANCH   2   3
ATOM      3  C   UNL     1       4.386   0.981   0.585  1.00  0.00     0.116 C 
BRANCH   3   4
ATOM      4  N   UNL     1       2.994   0.563   0.695  1.00  0.00    -0.352 N 
ATOM      5  O   UNL     1       1.058  -0.286  -0.093  1.00  0.00    -0.269 OA
ATOM      6  C   UNL     1       2.288  -0.260  -0.139  1.00  0.00     0.251 C 
ATOM      7  H   UNL     1       2.499   0.918   1.468  1.00  0.00     0.163 HD
BRANCH   6   8
ATOM      8  C   UNL     1       3.034  -1.116  -1.073  1.00  0.00     0.039 A 
ATOM      9  C   UNL     1       4.135  -1.836  -0.596  1.00  0.00     0.014 A 
ATOM     10  C   UNL     1       2.646  -1.199  -2.410  1.00  0.00     0.014 A 
ATOM     11  C   UNL     1       4.913  -2.563  -1.479  1.00  0.00     0.010 A 
ATOM     12  C   UNL     1       3.377  -2.009  -3.279  1.00  0.00     0.010 A 
ATOM     13  C   UNL     1       4.512  -2.695  -2.817  1.00  0.00    -0.014 A 
BRANCH  13  14
ATOM     14  C   UNL     1       5.191  -3.700  -3.664  1.00  0.00     0.031 A 
ATOM     15  C   UNL     1       5.954  -3.307  -4.891  1.00  0.00     0.074 A 
ATOM     16  C   UNL     1       5.058  -4.995  -3.311  1.00  0.00     0.049 A 
ATOM     17  N   UNL     1       6.563  -4.080  -5.750  1.00  0.00    -0.248 NA
ATOM     18  C   UNL     1       6.045  -1.871  -5.202  1.00  0.00     0.031 C 
ATOM     19  C   UNL     1       4.289  -5.476  -2.157  1.00  0.00     0.029 A 
ATOM     20  N   UNL     1       5.537  -6.141  -3.888  1.00  0.00    -0.354 N 
ATOM     21  C   UNL     1       7.066  -3.237  -6.732  1.00  0.00     0.074 A 
ATOM     22  C   UNL     1       6.707  -1.886  -6.354  1.00  0.00     0.031 C 
ATOM     23  C   UNL     1       4.350  -6.813  -2.110  1.00  0.00     0.029 A 
ATOM     24  C   UNL     1       5.095  -7.286  -3.267  1.00  0.00     0.049 A 
ATOM     25  H   UNL     1       6.138  -6.144  -4.668  1.00  0.00     0.167 HD
ATOM     26  C   UNL     1       7.761  -3.571  -7.844  1.00  0.00     0.034 A 
ATOM     27  C   UNL     1       5.225  -8.577  -3.620  1.00  0.00     0.034 A 
ATOM     28  C   UNL     1       8.131  -4.920  -8.184  1.00  0.00     0.049 A 
ATOM     29  C   UNL     1       6.001  -8.904  -4.860  1.00  0.00     0.074 A 
ATOM     30  C   UNL     1       8.925  -5.351  -9.232  1.00  0.00     0.029 A 
ATOM     31  N   UNL     1       7.709  -6.055  -7.510  1.00  0.00    -0.354 N 
ATOM     32  N   UNL     1       6.619  -8.091  -5.681  1.00  0.00    -0.248 NA
ATOM     33  C   UNL     1       6.116 -10.324  -5.214  1.00  0.00     0.031 C 
ATOM     34  C   UNL     1       8.942  -6.749  -9.220  1.00  0.00     0.029 A 
ATOM     35  C   UNL     1       8.191  -7.188  -8.142  1.00  0.00     0.049 A 
ATOM     36  H   UNL     1       7.148  -6.055  -6.700  1.00  0.00     0.167 HD
ATOM     37  C   UNL     1       7.208  -8.899  -6.642  1.00  0.00     0.074 A 
ATOM     38  C   UNL     1       6.908 -10.269  -6.276  1.00  0.00     0.031 C 
ATOM     39  C   UNL     1       7.913  -8.542  -7.742  1.00  0.00     0.034 A 
BRANCH  26  40
ATOM     40  C   UNL     1       8.186  -2.477  -8.785  1.00  0.00     0.023 A 
ATOM     41  C   UNL     1       9.264  -1.636  -8.447  1.00  0.00     0.012 A 
ATOM     42  C   UNL     1       7.599  -2.373 -10.063  1.00  0.00     0.148 A 
ATOM     43  C   UNL     1       9.747  -0.702  -9.364  1.00  0.00     0.002 A 
ATOM     44  C   UNL     1       8.112  -1.469 -10.985  1.00  0.00     0.091 A 
ATOM     45  F   UNL     1       6.564  -3.172 -10.355  1.00  0.00    -0.205 F 
ATOM     46  C   UNL     1       9.181  -0.628 -10.634  1.00  0.00     0.022 A 
BRANCH  44  47
ATOM     47  S   UNL     1       7.509  -1.354 -12.673  1.00  0.00     0.127 S 
ATOM     48  O   UNL     1       6.933  -0.010 -12.689  1.00  0.00    -0.237 OA
ATOM     49  O   UNL     1       8.742  -1.499 -13.447  1.00  0.00    -0.237 OA
ATOM     50  O   UNL     1       6.552  -2.439 -12.836  1.00  0.00    -0.744 OA
ENDBRANCH  44  47
ENDBRANCH  26  40
BRANCH  27  51
ATOM     51  C   UNL     1       4.586  -9.643  -2.800  1.00  0.00     0.023 A 
ATOM     52  C   UNL     1       5.389 -10.563  -2.101  1.00  0.00     0.012 A 
ATOM     53  C   UNL     1       3.183  -9.736  -2.697  1.00  0.00     0.148 A 
ATOM     54  C   UNL     1       4.806 -11.582  -1.347  1.00  0.00     0.002 A 
ATOM     55  C   UNL     1       2.611 -10.713  -1.893  1.00  0.00     0.091 A 
ATOM     56  F   UNL     1       2.434  -8.859  -3.381  1.00  0.00    -0.205 F 
ATOM     57  C   UNL     1       3.419 -11.651  -1.235  1.00  0.00     0.022 A 
BRANCH  55  58
ATOM     58  S   UNL     1       0.844 -10.774  -1.579  1.00  0.00     0.127 S 
ATOM     59  O   UNL     1       0.433 -11.906  -2.406  1.00  0.00    -0.237 OA
ATOM     60  O   UNL     1       0.799 -11.016  -0.136  1.00  0.00    -0.237 OA
ATOM     61  O   UNL     1       0.332  -9.471  -1.981  1.00  0.00    -0.744 OA
ENDBRANCH  55  58
ENDBRANCH  27  51
BRANCH  39  62
ATOM     62  C   UNL     1       8.421  -9.650  -8.623  1.00  0.00     0.023 A 
ATOM     63  C   UNL     1       7.515 -10.373  -9.424  1.00  0.00     0.012 A 
ATOM     64  C   UNL     1       9.799  -9.928  -8.708  1.00  0.00     0.148 A 
ATOM     65  C   UNL     1       7.971 -11.379 -10.274  1.00  0.00     0.002 A 
ATOM     66  C   UNL     1      10.251 -10.894  -9.596  1.00  0.00     0.091 A 
ATOM     67  F   UNL     1      10.639  -9.237  -7.924  1.00  0.00    -0.205 F 
ATOM     68  C   UNL     1       9.338 -11.630 -10.369  1.00  0.00     0.022 A 
BRANCH  66  69
ATOM     69  S   UNL     1      11.996 -11.225  -9.858  1.00  0.00     0.127 S 
ATOM     70  O   UNL     1      12.125 -12.580  -9.325  1.00  0.00    -0.237 OA
ATOM     71  O   UNL     1      12.112 -11.127 -11.313  1.00  0.00    -0.237 OA
ATOM     72  O   UNL     1      12.718 -10.198  -9.119  1.00  0.00    -0.744 OA
ENDBRANCH  66  69
ENDBRANCH  39  62
ENDBRANCH  13  14
ENDBRANCH   6   8
ENDBRANCH   3   4
ENDBRANCH   2   3
ENDBRANCH   1   2
BRANCH   1  73
ATOM     73  C   UNL     1       3.999   2.989   2.819  1.00  0.00     0.116 C 
BRANCH  73  74
ATOM     74  N   UNL     1       5.382   3.203   3.191  1.00  0.00    -0.356 N 
ATOM     75  C   UNL     1       5.813   4.327   3.813  1.00  0.00     0.223 C 
ATOM     76  H   UNL     1       6.039   2.500   2.983  1.00  0.00     0.163 HD
ATOM     77  O   UNL     1       6.593   5.049   3.185  1.00  0.00    -0.275 OA
BRANCH  75  78
ATOM     78  C   UNL     1       5.269   4.717   5.201  1.00  0.00     0.091 C 
ATOM     79  C   UNL     1       5.417   6.259   5.286  1.00  0.00     0.014 C 
ATOM     80  C   UNL     1       5.592   3.876   6.525  1.00  0.00     0.091 C 
ATOM     81  C   UNL     1       4.790   6.900   6.504  1.00  0.00     0.001 C 
ATOM     82  C   UNL     1       4.721   4.628   7.606  1.00  0.00     0.014 C 
ATOM     83  C   UNL     1       5.118   6.117   7.753  1.00  0.00     0.001 C 
BRANCH  80  84
ATOM     84  C   UNL     1       6.926   3.622   7.369  1.00  0.00     0.228 C 
ATOM     85  O   UNL     1       7.261   4.412   8.269  1.00  0.00    -0.274 OA
ATOM     86  N   UNL     1       7.638   2.469   7.489  1.00  0.00    -0.325 N 
ATOM     87  H   UNL     1       8.106   2.422   8.354  1.00  0.00     0.169 HD
BRANCH  86  88
ATOM     88  C   UNL     1       7.881   1.336   6.713  1.00  0.00     0.054 A 
ATOM     89  C   UNL     1       8.017   0.124   7.419  1.00  0.00     0.027 A 
ATOM     90  C   UNL     1       8.069   1.325   5.335  1.00  0.00     0.063 A 
ATOM     91  C   UNL     1       8.048  -1.097   6.744  1.00  0.00     0.002 A 
ATOM     92  C   UNL     1       8.007   0.095   4.655  1.00  0.00     0.016 A 
ATOM     93  C   UNL     1       7.957  -1.111   5.358  1.00  0.00     0.001 A 
BRANCH  90  94
ATOM     94  C   UNL     1       8.540   2.506   4.555  1.00  0.00     0.256 C 
ATOM     95  O   UNL     1       8.270   2.565   3.359  1.00  0.00    -0.269 OA
ATOM     96  N   UNL     1       9.249   3.506   5.240  1.00  0.00    -0.335 N 
ATOM     97  C   UNL     1       8.688   4.826   5.108  1.00  0.00     0.141 C 
ATOM     98  C   UNL     1      10.719   3.568   5.222  1.00  0.00     0.141 C 
ATOM     99  C   UNL     1       9.110   5.744   6.225  1.00  0.00     0.138 C 
ATOM    100  C   UNL     1      11.339   4.691   6.154  1.00  0.00     0.138 C 
ATOM    101  N   UNL     1      10.543   5.931   6.135  1.00  0.00    -0.368 N 
BRANCH 101 102
ATOM    102  C   UNL     1      10.902   7.194   6.575  1.00  0.00     0.037 A 
ATOM    103  C   UNL     1      10.476   7.691   7.824  1.00  0.00     0.029 A 
ATOM    104  C   UNL     1      11.331   8.110   5.607  1.00  0.00     0.029 A 
ATOM    105  C   UNL     1      10.396   9.067   8.059  1.00  0.00     0.041 A 
ATOM    106  C   UNL     1      11.253   9.484   5.840  1.00  0.00     0.041 A 
ATOM    107  C   UNL     1      10.768   9.950   7.055  1.00  0.00     0.123 A 
ATOM    108  F   UNL     1      10.615  11.267   7.244  1.00  0.00    -0.207 F 
ENDBRANCH 101 102
ENDBRANCH  90  94
ENDBRANCH  86  88
ENDBRANCH  80  84
ENDBRANCH  75  78
ENDBRANCH  73  74
ENDBRANCH   1  73
TORSDOF 18
