REMARK SMILES COCCCOc1cccc(F)c1C(=O)NCCCCNC(=O)c1ccc(-c2c3nc(c(-c4cccc(S(=O)(=O)[O-])c4F)c4ccc([nH]4)c(-c4cccc(S(=O)(=O)[O-])c4F)c4nc(c(-c5cccc(S(=O)(=O)[O-])c5F)c5ccc2[nH]5)C=C4)C=C3)cc1
REMARK SMILES IDX 17 1 16 2 14 3 15 4 13 6 7 7 8 8 9 9 11 10 10 11 12 12 6 13
REMARK SMILES IDX 5 14 4 15 3 16 2 17 1 18 18 19 19 20 20 21 21 22 22 23 23 25
REMARK SMILES IDX 24 26 25 27 86 28 26 29 85 30 27 31 28 32 29 33 79 34 30 35
REMARK SMILES IDX 84 36 78 37 80 38 31 39 83 40 77 41 76 42 32 44 64 45 44 46
REMARK SMILES IDX 63 47 45 48 48 49 62 50 81 51 46 52 47 53 61 55 82 56 49 57
REMARK SMILES IDX 33 58 34 59 42 60 35 61 37 62 43 63 36 64 38 65 39 66 40 67
REMARK SMILES IDX 41 68 65 69 66 70 74 71 67 72 69 73 75 74 68 75 70 76 71 77
REMARK SMILES IDX 72 78 73 79 50 80 51 81 59 82 52 83 54 84 60 85 53 86 55 87
REMARK SMILES IDX 56 88 57 89 58 90
REMARK H PARENT 16 5 21 24 80 43 48 54
REMARK Flexibility Score: inf
ROOT
ATOM      1  C   UNL     1       6.536  -1.038   1.117  1.00  0.00     0.116 C 
ENDROOT
BRANCH   1   2
ATOM      2  N   UNL     1       5.488  -0.434   1.925  1.00  0.00    -0.352 N 
ATOM      3  C   UNL     1       4.308   0.184   1.557  1.00  0.00     0.258 C 
ATOM      4  O   UNL     1       3.521   0.500   2.446  1.00  0.00    -0.269 OA
ATOM      5  H   UNL     1       5.646  -0.472   2.896  1.00  0.00     0.163 HD
BRANCH   3   6
ATOM      6  C   UNL     1       4.012   0.512   0.137  1.00  0.00     0.117 A 
ATOM      7  C   UNL     1       3.542   1.776  -0.249  1.00  0.00     0.135 A 
ATOM      8  C   UNL     1       3.595   2.171  -1.593  1.00  0.00     0.047 A 
ATOM      9  C   UNL     1       3.935   1.252  -2.581  1.00  0.00     0.007 A 
ATOM     10  C   UNL     1       4.221  -0.426  -0.873  1.00  0.00     0.139 A 
ATOM     11  C   UNL     1       4.196  -0.065  -2.221  1.00  0.00     0.040 A 
ATOM     12  F   UNL     1       4.449  -1.715  -0.579  1.00  0.00    -0.206 F 
BRANCH   7  13
ATOM     13  O   UNL     1       2.998   2.703   0.600  1.00  0.00    -0.493 OA
BRANCH  13  14
ATOM     14  C   UNL     1       1.670   2.333   1.036  1.00  0.00     0.232 C 
BRANCH  14  15
ATOM     15  C   UNL     1       0.562   2.734   0.052  1.00  0.00     0.070 C 
BRANCH  15  16
ATOM     16  C   UNL     1       0.244   1.731  -1.062  1.00  0.00     0.163 C 
BRANCH  16  17
ATOM     17  O   UNL     1      -0.551   0.626  -0.637  1.00  0.00    -0.385 OA
ATOM     18  C   UNL     1       0.191  -0.479  -0.138  1.00  0.00     0.194 C 
ENDBRANCH  16  17
ENDBRANCH  15  16
ENDBRANCH  14  15
ENDBRANCH  13  14
ENDBRANCH   7  13
ENDBRANCH   3   6
ENDBRANCH   1   2
BRANCH   1  19
ATOM     19  C   UNL     1       7.956  -0.639   1.498  1.00  0.00     0.023 C 
BRANCH  19  20
ATOM     20  C   UNL     1       8.445  -1.069   2.877  1.00  0.00     0.023 C 
BRANCH  20  21
ATOM     21  C   UNL     1       8.260  -2.539   3.241  1.00  0.00     0.116 C 
BRANCH  21  22
ATOM     22  N   UNL     1       8.861  -3.468   2.295  1.00  0.00    -0.352 N 
ATOM     23  C   UNL     1       9.708  -4.535   2.517  1.00  0.00     0.251 C 
ATOM     24  H   UNL     1       8.627  -3.312   1.352  1.00  0.00     0.163 HD
ATOM     25  O   UNL     1      10.155  -5.163   1.569  1.00  0.00    -0.269 OA
BRANCH  23  26
ATOM     26  C   UNL     1      10.110  -4.892   3.899  1.00  0.00     0.039 A 
ATOM     27  C   UNL     1      11.461  -5.135   4.163  1.00  0.00     0.014 A 
ATOM     28  C   UNL     1       9.174  -4.964   4.932  1.00  0.00     0.014 A 
ATOM     29  C   UNL     1      11.884  -5.356   5.478  1.00  0.00     0.010 A 
ATOM     30  C   UNL     1       9.606  -5.104   6.249  1.00  0.00     0.010 A 
ATOM     31  C   UNL     1      10.966  -5.292   6.539  1.00  0.00    -0.014 A 
BRANCH  31  32
ATOM     32  C   UNL     1      11.409  -5.381   7.956  1.00  0.00     0.031 A 
ATOM     33  C   UNL     1      10.916  -6.493   8.841  1.00  0.00     0.074 A 
ATOM     34  C   UNL     1      12.180  -4.403   8.476  1.00  0.00     0.049 A 
ATOM     35  N   UNL     1      11.134  -6.689  10.116  1.00  0.00    -0.248 NA
ATOM     36  C   UNL     1      10.041  -7.503   8.222  1.00  0.00     0.031 C 
ATOM     37  C   UNL     1      12.659  -3.227   7.746  1.00  0.00     0.029 A 
ATOM     38  N   UNL     1      12.676  -4.227   9.745  1.00  0.00    -0.354 N 
ATOM     39  C   UNL     1      10.398  -7.816  10.459  1.00  0.00     0.074 A 
ATOM     40  C   UNL     1       9.700  -8.245   9.267  1.00  0.00     0.031 C 
ATOM     41  C   UNL     1      13.387  -2.461   8.573  1.00  0.00     0.029 A 
ATOM     42  C   UNL     1      13.404  -3.070   9.899  1.00  0.00     0.049 A 
ATOM     43  H   UNL     1      12.524  -4.870  10.476  1.00  0.00     0.167 HD
ATOM     44  C   UNL     1      10.336  -8.459  11.650  1.00  0.00     0.034 A 
ATOM     45  C   UNL     1      14.017  -2.554  10.984  1.00  0.00     0.034 A 
ATOM     46  C   UNL     1      11.078  -8.066  12.817  1.00  0.00     0.049 A 
ATOM     47  C   UNL     1      13.974  -3.314  12.283  1.00  0.00     0.074 A 
ATOM     48  C   UNL     1      11.151  -8.709  14.040  1.00  0.00     0.029 A 
ATOM     49  N   UNL     1      11.875  -6.937  12.909  1.00  0.00    -0.354 N 
ATOM     50  N   UNL     1      13.395  -4.460  12.546  1.00  0.00    -0.248 NA
ATOM     51  C   UNL     1      14.694  -2.730  13.425  1.00  0.00     0.031 C 
ATOM     52  C   UNL     1      11.982  -7.959  14.877  1.00  0.00     0.029 A 
ATOM     53  C   UNL     1      12.442  -6.860  14.169  1.00  0.00     0.049 A 
ATOM     54  H   UNL     1      12.017  -6.285  12.184  1.00  0.00     0.167 HD
ATOM     55  C   UNL     1      13.705  -4.751  13.869  1.00  0.00     0.074 A 
ATOM     56  C   UNL     1      14.539  -3.669  14.351  1.00  0.00     0.031 C 
ATOM     57  C   UNL     1      13.319  -5.811  14.620  1.00  0.00     0.034 A 
BRANCH  44  58
ATOM     58  C   UNL     1       9.496  -9.705  11.737  1.00  0.00     0.023 A 
ATOM     59  C   UNL     1       9.950 -10.886  11.115  1.00  0.00     0.012 A 
ATOM     60  C   UNL     1       8.316  -9.738  12.505  1.00  0.00     0.148 A 
ATOM     61  C   UNL     1       9.231 -12.074  11.234  1.00  0.00     0.002 A 
ATOM     62  C   UNL     1       7.628 -10.936  12.656  1.00  0.00     0.091 A 
ATOM     63  F   UNL     1       7.891  -8.600  13.074  1.00  0.00    -0.205 F 
ATOM     64  C   UNL     1       8.079 -12.102  12.014  1.00  0.00     0.022 A 
BRANCH  62  65
ATOM     65  S   UNL     1       6.179 -11.100  13.706  1.00  0.00     0.127 S 
ATOM     66  O   UNL     1       5.120 -11.304  12.718  1.00  0.00    -0.237 OA
ATOM     67  O   UNL     1       6.507 -12.284  14.501  1.00  0.00    -0.237 OA
ATOM     68  O   UNL     1       6.091  -9.861  14.467  1.00  0.00    -0.744 OA
ENDBRANCH  62  65
ENDBRANCH  44  58
BRANCH  45  69
ATOM     69  C   UNL     1      14.801  -1.292  10.856  1.00  0.00     0.023 A 
ATOM     70  C   UNL     1      16.208  -1.353  10.904  1.00  0.00     0.012 A 
ATOM     71  C   UNL     1      14.175  -0.052  10.623  1.00  0.00     0.148 A 
ATOM     72  C   UNL     1      16.976  -0.200  10.741  1.00  0.00     0.002 A 
ATOM     73  C   UNL     1      14.948   1.083  10.407  1.00  0.00     0.091 A 
ATOM     74  F   UNL     1      12.835  -0.013  10.594  1.00  0.00    -0.205 F 
ATOM     75  C   UNL     1      16.348   1.015  10.480  1.00  0.00     0.022 A 
BRANCH  73  76
ATOM     76  S   UNL     1      14.235   2.661   9.926  1.00  0.00     0.127 S 
ATOM     77  O   UNL     1      14.468   3.471  11.119  1.00  0.00    -0.237 OA
ATOM     78  O   UNL     1      15.052   3.021   8.767  1.00  0.00    -0.237 OA
ATOM     79  O   UNL     1      12.839   2.383   9.614  1.00  0.00    -0.744 OA
ENDBRANCH  73  76
ENDBRANCH  45  69
BRANCH  57  80
ATOM     80  C   UNL     1      13.800  -5.887  16.045  1.00  0.00     0.023 A 
ATOM     81  C   UNL     1      13.221  -5.051  17.019  1.00  0.00     0.012 A 
ATOM     82  C   UNL     1      14.725  -6.875  16.440  1.00  0.00     0.148 A 
ATOM     83  C   UNL     1      13.565  -5.188  18.364  1.00  0.00     0.002 A 
ATOM     84  C   UNL     1      15.027  -7.037  17.787  1.00  0.00     0.091 A 
ATOM     85  F   UNL     1      15.275  -7.650  15.494  1.00  0.00    -0.205 F 
ATOM     86  C   UNL     1      14.454  -6.189  18.749  1.00  0.00     0.022 A 
BRANCH  84  87
ATOM     87  S   UNL     1      16.081  -8.363  18.388  1.00  0.00     0.127 S 
ATOM     88  O   UNL     1      17.277  -7.629  18.798  1.00  0.00    -0.237 OA
ATOM     89  O   UNL     1      15.292  -8.909  19.493  1.00  0.00    -0.237 OA
ATOM     90  O   UNL     1      16.262  -9.273  17.265  1.00  0.00    -0.744 OA
ENDBRANCH  84  87
ENDBRANCH  57  80
ENDBRANCH  31  32
ENDBRANCH  23  26
ENDBRANCH  21  22
ENDBRANCH  20  21
ENDBRANCH  19  20
ENDBRANCH   1  19
TORSDOF 19
