REMARK SMILES Cc1cc2c(cc1C(=O)c1ccccc1C(=O)NCCCCNC(=O)c1ccc(-c3c4nc(c(-c5cccc(S(=O)(=O)[O-])c5F)c5ccc([nH]5)c(-c5cccc(S(=O)(=O)[O-])c5F)c5nc(c(-c6cccc(S(=O)(=O)[O-])c6F)c6ccc3[nH]6)C=C5)C=C4)cc1)CCCC2
REMARK SMILES IDX 21 1 20 2 19 3 18 4 16 5 17 6 15 8 10 9 11 10 12 11 14 12
REMARK SMILES IDX 13 13 8 14 9 15 7 16 1 17 2 18 3 19 4 20 6 21 5 22 92 23
REMARK SMILES IDX 89 24 91 25 90 26 22 27 23 28 24 29 25 31 26 32 27 33 88 34
REMARK SMILES IDX 28 35 87 36 29 37 30 38 31 39 81 40 32 41 86 42 80 43 82 44
REMARK SMILES IDX 33 45 85 46 79 47 78 48 34 50 66 51 46 52 65 53 47 54 50 55
REMARK SMILES IDX 64 56 83 57 48 58 49 59 63 61 84 62 51 63 35 64 36 65 44 66
REMARK SMILES IDX 37 67 39 68 45 69 38 70 40 71 41 72 42 73 43 74 67 75 68 76
REMARK SMILES IDX 76 77 69 78 71 79 77 80 70 81 72 82 73 83 74 84 75 85 52 86
REMARK SMILES IDX 53 87 61 88 54 89 56 90 62 91 55 92 57 93 58 94 59 95 60 96
REMARK H PARENT 18 7 23 30 82 49 50 60
REMARK Flexibility Score: inf
ROOT
ATOM      1  C   UNL     1       3.704   4.846   2.784  1.00  0.00     0.023 C 
ENDROOT
BRANCH   1   2
ATOM      2  C   UNL     1       2.903   3.575   2.528  1.00  0.00     0.023 C 
BRANCH   2   3
ATOM      3  C   UNL     1       3.122   2.872   1.198  1.00  0.00     0.116 C 
BRANCH   3   4
ATOM      4  N   UNL     1       4.443   2.407   0.900  1.00  0.00    -0.352 N 
ATOM      5  C   UNL     1       4.860   1.453   0.006  1.00  0.00     0.252 C 
ATOM      6  O   UNL     1       6.083   1.313  -0.105  1.00  0.00    -0.269 OA
ATOM      7  H   UNL     1       5.163   2.837   1.417  1.00  0.00     0.163 HD
BRANCH   5   8
ATOM      8  C   UNL     1       3.988   0.508  -0.771  1.00  0.00     0.050 A 
ATOM      9  C   UNL     1       2.794   0.744  -1.475  1.00  0.00     0.035 A 
ATOM     10  C   UNL     1       2.282  -0.227  -2.365  1.00  0.00     0.013 A 
ATOM     11  C   UNL     1       2.872  -1.483  -2.473  1.00  0.00     0.001 A 
ATOM     12  C   UNL     1       4.557  -0.783  -0.900  1.00  0.00     0.014 A 
ATOM     13  C   UNL     1       3.999  -1.770  -1.719  1.00  0.00     0.001 A 
BRANCH   9  14
ATOM     14  C   UNL     1       2.004   1.978  -1.443  1.00  0.00     0.194 C 
ATOM     15  O   UNL     1       2.426   2.910  -2.123  1.00  0.00    -0.289 OA
BRANCH  14  16
ATOM     16  C   UNL     1       0.735   2.121  -0.618  1.00  0.00     0.026 A 
ATOM     17  C   UNL     1       0.494  -0.328   0.217  1.00  0.00     0.045 C 
ATOM     18  C   UNL     1       0.106   1.123   0.162  1.00  0.00    -0.040 A 
ATOM     19  C   UNL     1      -0.956   1.496   1.015  1.00  0.00     0.008 A 
ATOM     20  C   UNL     1      -1.356   2.827   1.174  1.00  0.00    -0.044 A 
ATOM     21  C   UNL     1       0.272   3.453  -0.498  1.00  0.00     0.016 A 
ATOM     22  C   UNL     1      -0.733   3.819   0.412  1.00  0.00    -0.044 A 
ATOM     23  C   UNL     1      -2.470   3.152   2.138  1.00  0.00     0.036 C 
ATOM     24  C   UNL     1      -1.013   5.283   0.660  1.00  0.00     0.036 C 
ATOM     25  C   UNL     1      -2.455   4.608   2.597  1.00  0.00     0.005 C 
ATOM     26  C   UNL     1      -2.324   5.540   1.399  1.00  0.00     0.005 C 
ENDBRANCH  14  16
ENDBRANCH   9  14
ENDBRANCH   5   8
ENDBRANCH   3   4
ENDBRANCH   2   3
ENDBRANCH   1   2
BRANCH   1  27
ATOM     27  C   UNL     1       3.877   5.815   1.619  1.00  0.00     0.116 C 
BRANCH  27  28
ATOM     28  N   UNL     1       2.640   6.388   1.098  1.00  0.00    -0.352 N 
ATOM     29  C   UNL     1       2.173   7.687   1.097  1.00  0.00     0.251 C 
ATOM     30  H   UNL     1       2.036   5.737   0.674  1.00  0.00     0.163 HD
ATOM     31  O   UNL     1       1.070   7.942   0.617  1.00  0.00    -0.269 OA
BRANCH  29  32
ATOM     32  C   UNL     1       2.965   8.762   1.734  1.00  0.00     0.039 A 
ATOM     33  C   UNL     1       4.333   8.864   1.505  1.00  0.00     0.014 A 
ATOM     34  C   UNL     1       2.345   9.623   2.645  1.00  0.00     0.014 A 
ATOM     35  C   UNL     1       5.114   9.598   2.388  1.00  0.00     0.010 A 
ATOM     36  C   UNL     1       3.127  10.461   3.449  1.00  0.00     0.010 A 
ATOM     37  C   UNL     1       4.526  10.379   3.399  1.00  0.00    -0.014 A 
BRANCH  37  38
ATOM     38  C   UNL     1       5.402  11.020   4.422  1.00  0.00     0.031 A 
ATOM     39  C   UNL     1       5.276  10.660   5.887  1.00  0.00     0.074 A 
ATOM     40  C   UNL     1       6.394  11.843   4.024  1.00  0.00     0.049 A 
ATOM     41  N   UNL     1       6.008  11.064   6.896  1.00  0.00    -0.248 NA
ATOM     42  C   UNL     1       4.196   9.737   6.277  1.00  0.00     0.031 C 
ATOM     43  C   UNL     1       6.625  12.276   2.644  1.00  0.00     0.029 A 
ATOM     44  N   UNL     1       7.420  12.424   4.728  1.00  0.00    -0.354 N 
ATOM     45  C   UNL     1       5.447  10.493   8.033  1.00  0.00     0.074 A 
ATOM     46  C   UNL     1       4.313   9.711   7.599  1.00  0.00     0.031 C 
ATOM     47  C   UNL     1       7.768  12.975   2.588  1.00  0.00     0.029 A 
ATOM     48  C   UNL     1       8.318  13.097   3.934  1.00  0.00     0.049 A 
ATOM     49  H   UNL     1       7.504  12.364   5.707  1.00  0.00     0.167 HD
ATOM     50  C   UNL     1       5.854  10.586   9.321  1.00  0.00     0.034 A 
ATOM     51  C   UNL     1       9.462  13.737   4.245  1.00  0.00     0.034 A 
ATOM     52  C   UNL     1       7.034  11.284   9.752  1.00  0.00     0.049 A 
ATOM     53  C   UNL     1       9.908  13.795   5.676  1.00  0.00     0.074 A 
ATOM     54  C   UNL     1       7.539  11.398  11.035  1.00  0.00     0.029 A 
ATOM     55  N   UNL     1       7.902  11.962   8.914  1.00  0.00    -0.354 N 
ATOM     56  N   UNL     1       9.382  13.211   6.724  1.00  0.00    -0.248 NA
ATOM     57  C   UNL     1      11.103  14.600   5.970  1.00  0.00     0.031 C 
ATOM     58  C   UNL     1       8.722  12.139  10.973  1.00  0.00     0.029 A 
ATOM     59  C   UNL     1       8.946  12.491   9.652  1.00  0.00     0.049 A 
ATOM     60  H   UNL     1       7.794  12.053   7.940  1.00  0.00     0.167 HD
ATOM     61  C   UNL     1      10.180  13.576   7.800  1.00  0.00     0.074 A 
ATOM     62  C   UNL     1      11.243  14.407   7.276  1.00  0.00     0.031 C 
ATOM     63  C   UNL     1      10.024  13.273   9.110  1.00  0.00     0.034 A 
BRANCH  50  64
ATOM     64  C   UNL     1       5.063   9.863  10.377  1.00  0.00     0.023 A 
ATOM     65  C   UNL     1       5.306   8.493  10.595  1.00  0.00     0.012 A 
ATOM     66  C   UNL     1       4.189  10.561  11.233  1.00  0.00     0.148 A 
ATOM     67  C   UNL     1       4.689   7.825  11.652  1.00  0.00     0.002 A 
ATOM     68  C   UNL     1       3.597   9.894  12.300  1.00  0.00     0.091 A 
ATOM     69  F   UNL     1       3.973  11.863  10.999  1.00  0.00    -0.205 F 
ATOM     70  C   UNL     1       3.845   8.527  12.509  1.00  0.00     0.022 A 
BRANCH  68  71
ATOM     71  S   UNL     1       2.534  10.712  13.496  1.00  0.00     0.127 S 
ATOM     72  O   UNL     1       1.270  10.003  13.299  1.00  0.00    -0.237 OA
ATOM     73  O   UNL     1       3.210  10.415  14.758  1.00  0.00    -0.237 OA
ATOM     74  O   UNL     1       2.514  12.119  13.124  1.00  0.00    -0.744 OA
ENDBRANCH  68  71
ENDBRANCH  50  64
BRANCH  51  75
ATOM     75  C   UNL     1      10.291  14.326   3.158  1.00  0.00     0.023 A 
ATOM     76  C   UNL     1      11.500  13.699   2.800  1.00  0.00     0.012 A 
ATOM     77  C   UNL     1       9.858  15.453   2.434  1.00  0.00     0.148 A 
ATOM     78  C   UNL     1      12.265  14.187   1.740  1.00  0.00     0.002 A 
ATOM     79  C   UNL     1      10.600  15.904   1.349  1.00  0.00     0.091 A 
ATOM     80  F   UNL     1       8.715  16.046   2.808  1.00  0.00    -0.205 F 
ATOM     81  C   UNL     1      11.808  15.279   1.006  1.00  0.00     0.022 A 
BRANCH  79  82
ATOM     82  S   UNL     1      10.017  17.221   0.276  1.00  0.00     0.127 S 
ATOM     83  O   UNL     1      10.880  18.331   0.671  1.00  0.00    -0.237 OA
ATOM     84  O   UNL     1      10.287  16.672  -1.054  1.00  0.00    -0.237 OA
ATOM     85  O   UNL     1       8.602  17.375   0.582  1.00  0.00    -0.744 OA
ENDBRANCH  79  82
ENDBRANCH  51  75
BRANCH  63  86
ATOM     86  C   UNL     1      11.012  13.841  10.088  1.00  0.00     0.023 A 
ATOM     87  C   UNL     1      10.839  15.164  10.536  1.00  0.00     0.012 A 
ATOM     88  C   UNL     1      12.017  13.035  10.655  1.00  0.00     0.148 A 
ATOM     89  C   UNL     1      11.658  15.682  11.537  1.00  0.00     0.002 A 
ATOM     90  C   UNL     1      12.812  13.549  11.672  1.00  0.00     0.091 A 
ATOM     91  F   UNL     1      12.160  11.781  10.203  1.00  0.00    -0.205 F 
ATOM     92  C   UNL     1      12.636  14.872  12.111  1.00  0.00     0.022 A 
BRANCH  90  93
ATOM     93  S   UNL     1      14.052  12.568  12.525  1.00  0.00     0.127 S 
ATOM     94  O   UNL     1      15.288  13.242  12.130  1.00  0.00    -0.237 OA
ATOM     95  O   UNL     1      13.677  12.750  13.927  1.00  0.00    -0.237 OA
ATOM     96  O   UNL     1      13.904  11.207  12.026  1.00  0.00    -0.744 OA
ENDBRANCH  90  93
ENDBRANCH  63  86
ENDBRANCH  37  38
ENDBRANCH  29  32
ENDBRANCH  27  28
ENDBRANCH   1  27
TORSDOF 16
