REMARK SMILES Cc1ccccc1N(CCC(=O)NCCCCNC(=O)c1ccc(-c2c3nc(c(-c4cccc(S(=O)(=O)[O-])c4F)c4ccc([nH]4)c(-c4cccc(S(=O)(=O)[O-])c4F)c4nc(c(-c5cccc(S(=O)(=O)[O-])c5F)c5ccc2[nH]5)C=C4)C=C3)cc1)C(=O)[C@@H]1C=C[C@H]([NH3+])C1
REMARK SMILES IDX 14 1 13 2 11 3 12 4 10 6 9 7 8 8 7 9 1 10 2 11 3 12 4 13
REMARK SMILES IDX 6 14 5 15 84 16 85 17 86 18 87 19 91 20 88 21 89 22 90 23
REMARK SMILES IDX 15 27 16 28 17 29 18 30 19 31 20 33 21 34 22 35 83 36 23 37
REMARK SMILES IDX 82 38 24 39 25 40 26 41 76 42 27 43 81 44 75 45 77 46 28 47
REMARK SMILES IDX 80 48 74 49 73 50 29 52 61 53 41 54 60 55 42 56 45 57 59 58
REMARK SMILES IDX 78 59 43 60 44 61 58 63 79 64 46 65 30 66 31 67 39 68 32 69
REMARK SMILES IDX 34 70 40 71 33 72 35 73 36 74 37 75 38 76 62 77 63 78 71 79
REMARK SMILES IDX 64 80 66 81 72 82 65 83 67 84 68 85 69 86 70 87 47 88 48 89
REMARK SMILES IDX 56 90 49 91 51 92 57 93 50 94 52 95 53 96 54 97 55 98
REMARK H PARENT 13 5 90 24 90 25 90 26 18 32 77 51 45 62
REMARK Flexibility Score: inf
ROOT
ATOM      1  C   UNL     1       1.903   4.455   2.597  1.00  0.00     0.116 C 
ENDROOT
BRANCH   1   2
ATOM      2  N   UNL     1       1.417   3.706   1.429  1.00  0.00    -0.356 N 
ATOM      3  C   UNL     1       1.516   2.396   1.071  1.00  0.00     0.221 C 
ATOM      4  O   UNL     1       0.961   2.027   0.031  1.00  0.00    -0.275 OA
ATOM      5  H   UNL     1       0.923   4.259   0.781  1.00  0.00     0.163 HD
BRANCH   3   6
ATOM      6  C   UNL     1       2.313   1.398   1.878  1.00  0.00     0.122 C 
BRANCH   6   7
ATOM      7  C   UNL     1       3.435   0.776   1.025  1.00  0.00     0.135 C 
BRANCH   7   8
ATOM      8  N   UNL     1       4.707   1.550   1.134  1.00  0.00    -0.311 N 
BRANCH   8   9
ATOM      9  C   UNL     1       5.497   1.279   2.377  1.00  0.00     0.047 A 
ATOM     10  C   UNL     1       6.996   3.429   2.607  1.00  0.00     0.046 C 
ATOM     11  C   UNL     1       6.371   2.148   3.079  1.00  0.00    -0.027 A 
ATOM     12  C   UNL     1       6.760   1.835   4.417  1.00  0.00     0.005 A 
ATOM     13  C   UNL     1       6.454   0.630   5.026  1.00  0.00     0.000 A 
ATOM     14  C   UNL     1       5.329   0.007   2.999  1.00  0.00     0.026 A 
ATOM     15  C   UNL     1       5.786  -0.316   4.287  1.00  0.00     0.002 A 
ENDBRANCH   8   9
BRANCH   8  16
ATOM     16  C   UNL     1       4.894   2.652   0.256  1.00  0.00     0.234 C 
ATOM     17  O   UNL     1       5.687   3.575   0.450  1.00  0.00    -0.274 OA
BRANCH  16  18
ATOM     18  C   UNL     1       4.078   2.753  -1.067  1.00  0.00     0.108 C 
ATOM     19  C   UNL     1       5.049   2.769  -2.217  1.00  0.00    -0.012 C 
ATOM     20  C   UNL     1       3.369   4.115  -1.238  1.00  0.00     0.087 C 
ATOM     21  C   UNL     1       5.146   3.979  -2.782  1.00  0.00     0.033 C 
ATOM     22  C   UNL     1       4.248   4.984  -2.147  1.00  0.00     0.205 C 
BRANCH  22  23
ATOM     23  N   UNL     1       5.040   5.969  -1.431  1.00  0.00    -0.352 N 
ATOM     24  H   UNL     1       5.640   5.497  -0.755  1.00  0.00     0.345 HD
ATOM     25  H   UNL     1       4.419   6.614  -0.942  1.00  0.00     0.345 HD
ATOM     26  H   UNL     1       5.616   6.489  -2.093  1.00  0.00     0.345 HD
ENDBRANCH  22  23
ENDBRANCH  16  18
ENDBRANCH   8  16
ENDBRANCH   7   8
ENDBRANCH   6   7
ENDBRANCH   3   6
ENDBRANCH   1   2
BRANCH   1  27
ATOM     27  C   UNL     1       3.411   4.731   2.581  1.00  0.00     0.023 C 
BRANCH  27  28
ATOM     28  C   UNL     1       3.935   6.089   2.084  1.00  0.00     0.023 C 
BRANCH  28  29
ATOM     29  C   UNL     1       3.797   7.243   3.078  1.00  0.00     0.116 C 
BRANCH  29  30
ATOM     30  N   UNL     1       5.010   8.086   3.131  1.00  0.00    -0.352 N 
ATOM     31  C   UNL     1       5.176   9.456   3.338  1.00  0.00     0.251 C 
ATOM     32  H   UNL     1       5.851   7.593   2.996  1.00  0.00     0.163 HD
ATOM     33  O   UNL     1       6.275   9.961   3.398  1.00  0.00    -0.269 OA
BRANCH  31  34
ATOM     34  C   UNL     1       3.953  10.259   3.559  1.00  0.00     0.039 A 
ATOM     35  C   UNL     1       3.648  10.521   4.898  1.00  0.00     0.014 A 
ATOM     36  C   UNL     1       2.967  10.152   2.589  1.00  0.00     0.014 A 
ATOM     37  C   UNL     1       2.358  10.275   5.341  1.00  0.00     0.010 A 
ATOM     38  C   UNL     1       1.700   9.847   3.039  1.00  0.00     0.010 A 
ATOM     39  C   UNL     1       1.441   9.787   4.421  1.00  0.00    -0.014 A 
BRANCH  39  40
ATOM     40  C   UNL     1       0.152   9.229   4.785  1.00  0.00     0.031 A 
ATOM     41  C   UNL     1      -1.013  10.117   4.577  1.00  0.00     0.074 A 
ATOM     42  C   UNL     1      -0.005   7.938   5.175  1.00  0.00     0.049 A 
ATOM     43  N   UNL     1      -2.180   9.897   5.069  1.00  0.00    -0.248 NA
ATOM     44  C   UNL     1      -0.935  11.371   3.818  1.00  0.00     0.031 C 
ATOM     45  C   UNL     1      -1.273   7.204   5.221  1.00  0.00     0.029 A 
ATOM     46  N   UNL     1       0.891   7.047   5.787  1.00  0.00    -0.354 N 
ATOM     47  C   UNL     1      -3.042  10.728   4.397  1.00  0.00     0.074 A 
ATOM     48  C   UNL     1      -2.221  11.721   3.763  1.00  0.00     0.031 C 
ATOM     49  C   UNL     1      -1.155   6.180   6.080  1.00  0.00     0.029 A 
ATOM     50  C   UNL     1       0.122   6.345   6.743  1.00  0.00     0.049 A 
ATOM     51  H   UNL     1       1.849   6.934   5.592  1.00  0.00     0.167 HD
ATOM     52  C   UNL     1      -4.341  10.358   4.293  1.00  0.00     0.034 A 
ATOM     53  C   UNL     1       0.282   6.442   8.101  1.00  0.00     0.034 A 
ATOM     54  C   UNL     1      -4.676   9.328   5.280  1.00  0.00     0.049 A 
ATOM     55  C   UNL     1      -0.978   6.885   8.845  1.00  0.00     0.074 A 
ATOM     56  C   UNL     1      -4.953   7.976   5.203  1.00  0.00     0.029 A 
ATOM     57  N   UNL     1      -4.463   9.607   6.630  1.00  0.00    -0.354 N 
ATOM     58  N   UNL     1      -2.081   7.262   8.254  1.00  0.00    -0.248 NA
ATOM     59  C   UNL     1      -1.092   6.973  10.302  1.00  0.00     0.031 C 
ATOM     60  C   UNL     1      -4.749   7.421   6.502  1.00  0.00     0.029 A 
ATOM     61  C   UNL     1      -4.409   8.442   7.376  1.00  0.00     0.049 A 
ATOM     62  H   UNL     1      -4.364  10.513   7.003  1.00  0.00     0.167 HD
ATOM     63  C   UNL     1      -2.951   7.792   9.172  1.00  0.00     0.074 A 
ATOM     64  C   UNL     1      -2.324   7.496  10.449  1.00  0.00     0.031 C 
ATOM     65  C   UNL     1      -4.068   8.497   8.799  1.00  0.00     0.034 A 
BRANCH  52  66
ATOM     66  C   UNL     1      -5.252  10.810   3.174  1.00  0.00     0.023 A 
ATOM     67  C   UNL     1      -6.623  10.515   3.295  1.00  0.00     0.012 A 
ATOM     68  C   UNL     1      -4.839  11.400   1.949  1.00  0.00     0.148 A 
ATOM     69  C   UNL     1      -7.536  10.806   2.272  1.00  0.00     0.002 A 
ATOM     70  C   UNL     1      -5.761  11.772   0.970  1.00  0.00     0.091 A 
ATOM     71  F   UNL     1      -3.538  11.505   1.655  1.00  0.00    -0.205 F 
ATOM     72  C   UNL     1      -7.112  11.461   1.121  1.00  0.00     0.022 A 
BRANCH  70  73
ATOM     73  S   UNL     1      -5.272  12.694  -0.501  1.00  0.00     0.127 S 
ATOM     74  O   UNL     1      -5.324  11.668  -1.541  1.00  0.00    -0.237 OA
ATOM     75  O   UNL     1      -6.318  13.713  -0.597  1.00  0.00    -0.237 OA
ATOM     76  O   UNL     1      -3.946  13.229  -0.213  1.00  0.00    -0.744 OA
ENDBRANCH  70  73
ENDBRANCH  52  66
BRANCH  53  77
ATOM     77  C   UNL     1       1.686   6.727   8.515  1.00  0.00     0.023 A 
ATOM     78  C   UNL     1       2.649   5.747   8.173  1.00  0.00     0.012 A 
ATOM     79  C   UNL     1       2.121   8.024   8.834  1.00  0.00     0.148 A 
ATOM     80  C   UNL     1       3.982   6.098   7.962  1.00  0.00     0.002 A 
ATOM     81  C   UNL     1       3.462   8.360   8.650  1.00  0.00     0.091 A 
ATOM     82  F   UNL     1       1.217   8.924   9.243  1.00  0.00    -0.205 F 
ATOM     83  C   UNL     1       4.377   7.416   8.156  1.00  0.00     0.022 A 
BRANCH  81  84
ATOM     84  S   UNL     1       4.070  10.030   8.928  1.00  0.00     0.127 S 
ATOM     85  O   UNL     1       4.585   9.930  10.289  1.00  0.00    -0.237 OA
ATOM     86  O   UNL     1       5.094  10.166   7.892  1.00  0.00    -0.237 OA
ATOM     87  O   UNL     1       2.909  10.886   8.737  1.00  0.00    -0.744 OA
ENDBRANCH  81  84
ENDBRANCH  53  77
BRANCH  65  88
ATOM     88  C   UNL     1      -4.925   9.337   9.738  1.00  0.00     0.023 A 
ATOM     89  C   UNL     1      -4.436   9.841  10.960  1.00  0.00     0.012 A 
ATOM     90  C   UNL     1      -6.219   9.774   9.350  1.00  0.00     0.148 A 
ATOM     91  C   UNL     1      -5.209  10.664  11.790  1.00  0.00     0.002 A 
ATOM     92  C   UNL     1      -6.940  10.682  10.126  1.00  0.00     0.091 A 
ATOM     93  F   UNL     1      -6.775   9.297   8.227  1.00  0.00    -0.205 F 
ATOM     94  C   UNL     1      -6.454  11.102  11.365  1.00  0.00     0.022 A 
BRANCH  92  95
ATOM     95  S   UNL     1      -8.435  11.459   9.492  1.00  0.00     0.127 S 
ATOM     96  O   UNL     1      -9.478  10.563   9.985  1.00  0.00    -0.237 OA
ATOM     97  O   UNL     1      -8.409  12.774  10.136  1.00  0.00    -0.237 OA
ATOM     98  O   UNL     1      -8.251  11.503   8.047  1.00  0.00    -0.744 OA
ENDBRANCH  92  95
ENDBRANCH  65  88
ENDBRANCH  39  40
ENDBRANCH  31  34
ENDBRANCH  29  30
ENDBRANCH  28  29
ENDBRANCH  27  28
ENDBRANCH   1  27
TORSDOF 20
