REMARK SMILES C[C@H](NC(=O)c1ccc(C(C)(C)C)cc1)C(=O)N[C@@H](C(=O)NCCCCNC(=O)c1ccc(-c2c3nc(c(-c4cccc(S(=O)(=O)[O-])c4F)c4ccc([nH]4)c(-c4cccc(S(=O)(=O)[O-])c4F)c4nc(c(-c5cccc(S(=O)(=O)[O-])c5F)c5ccc2[nH]5)C=C4)C=C3)cc1)[C@H](C)O
REMARK SMILES IDX 23 1 22 2 20 3 21 4 19 6 18 7 16 8 17 9 2 11 1 12 3 13 4 14
REMARK SMILES IDX 5 16 6 17 7 18 15 19 8 20 14 21 9 22 10 23 11 24 12 25 13 26
REMARK SMILES IDX 93 27 94 28 95 29 24 31 25 32 26 33 27 34 28 35 29 37 30 38
REMARK SMILES IDX 31 39 92 40 32 41 91 42 33 43 34 44 35 45 85 46 36 47 90 48
REMARK SMILES IDX 84 49 86 50 37 51 89 52 83 53 82 54 38 56 70 57 50 58 69 59
REMARK SMILES IDX 51 60 54 61 68 62 87 63 52 64 53 65 67 67 88 68 55 69 39 70
REMARK SMILES IDX 40 71 48 72 41 73 43 74 49 75 42 76 44 77 45 78 46 79 47 80
REMARK SMILES IDX 71 81 72 82 80 83 73 84 75 85 81 86 74 87 76 88 77 89 78 90
REMARK SMILES IDX 79 91 56 92 57 93 65 94 58 95 60 96 66 97 59 98 61 99 62 100
REMARK SMILES IDX 63 101 64 102
REMARK H PARENT 22 5 18 10 3 15 95 30 27 36 86 55 54 66
REMARK Flexibility Score: inf
ROOT
ATOM      1  C   UNL     1       1.618  -3.999   4.230  1.00  0.00     0.116 C 
ENDROOT
BRANCH   1   2
ATOM      2  N   UNL     1       0.587  -3.451   5.082  1.00  0.00    -0.354 N 
ATOM      3  C   UNL     1      -0.383  -2.533   4.831  1.00  0.00     0.245 C 
ATOM      4  O   UNL     1      -1.145  -2.274   5.771  1.00  0.00    -0.273 OA
ATOM      5  H   UNL     1       0.586  -3.804   6.001  1.00  0.00     0.163 HD
BRANCH   3   6
ATOM      6  C   UNL     1      -0.679  -1.967   3.412  1.00  0.00     0.200 C 
BRANCH   6   7
ATOM      7  N   UNL     1       0.468  -1.770   2.522  1.00  0.00    -0.340 N 
ATOM      8  C   UNL     1       0.738  -2.228   1.267  1.00  0.00     0.243 C 
ATOM      9  O   UNL     1       1.705  -1.726   0.683  1.00  0.00    -0.273 OA
ATOM     10  H   UNL     1       1.176  -1.200   2.901  1.00  0.00     0.164 HD
BRANCH   8  11
ATOM     11  C   UNL     1      -0.090  -3.337   0.566  1.00  0.00     0.168 C 
ATOM     12  C   UNL     1      -1.513  -2.942   0.207  1.00  0.00     0.041 C 
BRANCH  11  13
ATOM     13  N   UNL     1      -0.050  -4.580   1.334  1.00  0.00    -0.341 N 
ATOM     14  C   UNL     1       0.741  -5.690   1.158  1.00  0.00     0.251 C 
ATOM     15  H   UNL     1      -0.682  -4.630   2.087  1.00  0.00     0.164 HD
ATOM     16  O   UNL     1       0.726  -6.581   2.003  1.00  0.00    -0.269 OA
BRANCH  14  17
ATOM     17  C   UNL     1       1.525  -5.864  -0.079  1.00  0.00     0.039 A 
ATOM     18  C   UNL     1       1.239  -6.978  -0.867  1.00  0.00     0.014 A 
ATOM     19  C   UNL     1       2.501  -4.957  -0.487  1.00  0.00     0.014 A 
ATOM     20  C   UNL     1       1.844  -7.118  -2.116  1.00  0.00     0.005 A 
ATOM     21  C   UNL     1       3.092  -5.095  -1.749  1.00  0.00     0.005 A 
ATOM     22  C   UNL     1       2.741  -6.150  -2.610  1.00  0.00    -0.043 A 
BRANCH  22  23
ATOM     23  C   UNL     1       3.276  -6.264  -4.048  1.00  0.00    -0.013 C 
ATOM     24  C   UNL     1       4.200  -7.492  -4.162  1.00  0.00     0.016 C 
ATOM     25  C   UNL     1       2.093  -6.424  -5.033  1.00  0.00     0.016 C 
ATOM     26  C   UNL     1       4.074  -5.026  -4.515  1.00  0.00     0.016 C 
ENDBRANCH  22  23
ENDBRANCH  14  17
ENDBRANCH  11  13
ENDBRANCH   8  11
ENDBRANCH   6   7
BRANCH   6  27
ATOM     27  C   UNL     1      -1.428  -0.612   3.605  1.00  0.00     0.143 C 
ATOM     28  C   UNL     1      -1.822   0.066   2.298  1.00  0.00     0.041 C 
BRANCH  27  29
ATOM     29  O   UNL     1      -0.591   0.319   4.309  1.00  0.00    -0.391 OA
ATOM     30  H   UNL     1       0.197   0.510   3.777  1.00  0.00     0.211 HD
ENDBRANCH  27  29
ENDBRANCH   6  27
ENDBRANCH   3   6
ENDBRANCH   1   2
BRANCH   1  31
ATOM     31  C   UNL     1       2.953  -3.287   4.404  1.00  0.00     0.023 C 
BRANCH  31  32
ATOM     32  C   UNL     1       3.731  -3.711   5.648  1.00  0.00     0.023 C 
BRANCH  32  33
ATOM     33  C   UNL     1       4.001  -5.208   5.771  1.00  0.00     0.116 C 
BRANCH  33  34
ATOM     34  N   UNL     1       4.639  -5.790   4.596  1.00  0.00    -0.352 N 
ATOM     35  C   UNL     1       5.575  -6.797   4.552  1.00  0.00     0.251 C 
ATOM     36  H   UNL     1       4.367  -5.415   3.728  1.00  0.00     0.163 HD
ATOM     37  O   UNL     1       6.098  -7.123   3.491  1.00  0.00    -0.269 OA
BRANCH  35  38
ATOM     38  C   UNL     1       5.972  -7.451   5.814  1.00  0.00     0.039 A 
ATOM     39  C   UNL     1       7.325  -7.493   6.158  1.00  0.00     0.014 A 
ATOM     40  C   UNL     1       4.999  -7.943   6.688  1.00  0.00     0.014 A 
ATOM     41  C   UNL     1       7.697  -7.954   7.421  1.00  0.00     0.010 A 
ATOM     42  C   UNL     1       5.366  -8.336   7.970  1.00  0.00     0.010 A 
ATOM     43  C   UNL     1       6.716  -8.337   8.352  1.00  0.00    -0.014 A 
BRANCH  43  44
ATOM     44  C   UNL     1       7.075  -8.707   9.744  1.00  0.00     0.031 A 
ATOM     45  C   UNL     1       6.795 -10.093  10.254  1.00  0.00     0.074 A 
ATOM     46  C   UNL     1       7.547  -7.761  10.580  1.00  0.00     0.049 A 
ATOM     47  N   UNL     1       6.969 -10.579  11.455  1.00  0.00    -0.248 NA
ATOM     48  C   UNL     1       6.213 -11.050   9.298  1.00  0.00     0.031 C 
ATOM     49  C   UNL     1       7.768  -6.355  10.230  1.00  0.00     0.029 A 
ATOM     50  N   UNL     1       7.898  -7.830  11.905  1.00  0.00    -0.354 N 
ATOM     51  C   UNL     1       6.482 -11.879  11.412  1.00  0.00     0.074 A 
ATOM     52  C   UNL     1       5.977 -12.098  10.074  1.00  0.00     0.031 C 
ATOM     53  C   UNL     1       8.219  -5.698  11.311  1.00  0.00     0.029 A 
ATOM     54  C   UNL     1       8.302  -6.627  12.434  1.00  0.00     0.049 A 
ATOM     55  H   UNL     1       7.864  -8.664  12.428  1.00  0.00     0.167 HD
ATOM     56  C   UNL     1       6.487 -12.818  12.386  1.00  0.00     0.034 A 
ATOM     57  C   UNL     1       8.696  -6.308  13.683  1.00  0.00     0.034 A 
ATOM     58  C   UNL     1       7.051 -12.618  13.693  1.00  0.00     0.049 A 
ATOM     59  C   UNL     1       8.768  -7.391  14.724  1.00  0.00     0.074 A 
ATOM     60  C   UNL     1       7.201 -13.538  14.716  1.00  0.00     0.029 A 
ATOM     61  N   UNL     1       7.563 -11.416  14.156  1.00  0.00    -0.354 N 
ATOM     62  N   UNL     1       8.468  -8.662  14.612  1.00  0.00    -0.248 NA
ATOM     63  C   UNL     1       9.271  -7.008  16.052  1.00  0.00     0.031 C 
ATOM     64  C   UNL     1       7.802 -12.890  15.800  1.00  0.00     0.029 A 
ATOM     65  C   UNL     1       8.031 -11.569  15.450  1.00  0.00     0.049 A 
ATOM     66  H   UNL     1       7.590 -10.578  13.641  1.00  0.00     0.167 HD
ATOM     67  C   UNL     1       8.776  -9.237  15.840  1.00  0.00     0.074 A 
ATOM     68  C   UNL     1       9.306  -8.178  16.675  1.00  0.00     0.031 C 
ATOM     69  C   UNL     1       8.617 -10.521  16.245  1.00  0.00     0.034 A 
BRANCH  56  70
ATOM     70  C   UNL     1       5.933 -14.176  12.048  1.00  0.00     0.023 A 
ATOM     71  C   UNL     1       6.677 -15.032  11.210  1.00  0.00     0.012 A 
ATOM     72  C   UNL     1       4.715 -14.626  12.590  1.00  0.00     0.148 A 
ATOM     73  C   UNL     1       6.203 -16.303  10.892  1.00  0.00     0.002 A 
ATOM     74  C   UNL     1       4.267 -15.910  12.299  1.00  0.00     0.091 A 
ATOM     75  F   UNL     1       4.008 -13.789  13.363  1.00  0.00    -0.205 F 
ATOM     76  C   UNL     1       5.004 -16.745  11.444  1.00  0.00     0.022 A 
BRANCH  74  77
ATOM     77  S   UNL     1       2.771 -16.595  13.021  1.00  0.00     0.127 S 
ATOM     78  O   UNL     1       1.838 -16.518  11.899  1.00  0.00    -0.237 OA
ATOM     79  O   UNL     1       3.188 -17.953  13.374  1.00  0.00    -0.237 OA
ATOM     80  O   UNL     1       2.456 -15.747  14.162  1.00  0.00    -0.744 OA
ENDBRANCH  74  77
ENDBRANCH  56  70
BRANCH  57  81
ATOM     81  C   UNL     1       9.146  -4.920  13.986  1.00  0.00     0.023 A 
ATOM     82  C   UNL     1      10.519  -4.675  14.187  1.00  0.00     0.012 A 
ATOM     83  C   UNL     1       8.242  -3.842  14.037  1.00  0.00     0.148 A 
ATOM     84  C   UNL     1      10.980  -3.387  14.458  1.00  0.00     0.002 A 
ATOM     85  C   UNL     1       8.714  -2.553  14.258  1.00  0.00     0.091 A 
ATOM     86  F   UNL     1       6.938  -4.096  13.859  1.00  0.00    -0.205 F 
ATOM     87  C   UNL     1      10.081  -2.325  14.483  1.00  0.00     0.022 A 
BRANCH  85  88
ATOM     88  S   UNL     1       7.640  -1.115  14.175  1.00  0.00     0.127 S 
ATOM     89  O   UNL     1       7.448  -0.802  15.589  1.00  0.00    -0.237 OA
ATOM     90  O   UNL     1       8.464  -0.156  13.438  1.00  0.00    -0.237 OA
ATOM     91  O   UNL     1       6.456  -1.560  13.452  1.00  0.00    -0.744 OA
ENDBRANCH  85  88
ENDBRANCH  57  81
BRANCH  69  92
ATOM     92  C   UNL     1       9.043 -10.870  17.645  1.00  0.00     0.023 A 
ATOM     93  C   UNL     1       8.238 -10.480  18.732  1.00  0.00     0.012 A 
ATOM     94  C   UNL     1      10.188 -11.658  17.876  1.00  0.00     0.148 A 
ATOM     95  C   UNL     1       8.577 -10.851  20.033  1.00  0.00     0.002 A 
ATOM     96  C   UNL     1      10.497 -12.058  19.171  1.00  0.00     0.091 A 
ATOM     97  F   UNL     1      10.953 -11.999  16.830  1.00  0.00    -0.205 F 
ATOM     98  C   UNL     1       9.697 -11.649  20.251  1.00  0.00     0.022 A 
BRANCH  96  99
ATOM     99  S   UNL     1      11.870 -13.161  19.528  1.00  0.00     0.127 S 
ATOM    100  O   UNL     1      12.873 -12.232  20.042  1.00  0.00    -0.237 OA
ATOM    101  O   UNL     1      11.299 -14.060  20.532  1.00  0.00    -0.237 OA
ATOM    102  O   UNL     1      12.197 -13.807  18.264  1.00  0.00    -0.744 OA
ENDBRANCH  96  99
ENDBRANCH  69  92
ENDBRANCH  43  44
ENDBRANCH  35  38
ENDBRANCH  33  34
ENDBRANCH  32  33
ENDBRANCH  31  32
ENDBRANCH   1  31
TORSDOF 21
