REMARK SMILES Cc1ccc(-c2cc(Cl)cc3c2O[C@H](C(F)(F)F)C(C(=O)NCCCCNC(=O)c2ccc(-c4c5nc(c(-c6cccc(S(=O)(=O)[O-])c6F)c6ccc([nH]6)c(-c6cccc(S(=O)(=O)[O-])c6F)c6nc(c(-c7cccc(S(=O)(=O)[O-])c7F)c7ccc4[nH]7)C=C6)C=C5)cc2)=C3)cc1F
REMARK SMILES IDX 25 1 24 2 23 3 22 4 20 5 21 6 19 8 6 9 7 10 12 11 8 12 11 13
REMARK SMILES IDX 13 14 9 15 10 16 93 17 14 18 5 19 1 20 2 21 3 22 95 23 4 24
REMARK SMILES IDX 94 25 96 26 15 27 16 28 17 29 18 30 26 31 27 32 28 33 29 35
REMARK SMILES IDX 30 36 31 37 92 38 32 39 91 40 33 41 34 42 35 43 85 44 36 45
REMARK SMILES IDX 90 46 84 47 86 48 37 49 89 50 83 51 82 52 38 54 70 55 50 56
REMARK SMILES IDX 69 57 51 58 54 59 68 60 87 61 52 62 53 63 67 65 88 66 55 67
REMARK SMILES IDX 39 68 40 69 48 70 41 71 43 72 49 73 42 74 44 75 45 76 46 77
REMARK SMILES IDX 47 78 71 79 72 80 80 81 73 82 75 83 81 84 74 85 76 86 77 87
REMARK SMILES IDX 78 88 79 89 56 90 57 91 65 92 58 93 60 94 66 95 59 96 61 97
REMARK SMILES IDX 62 98 63 99 64 100
REMARK H PARENT 22 7 27 34 86 53 54 64
REMARK Flexibility Score: inf
ROOT
ATOM      1  C   UNL     1      -1.614  -5.601   7.706  1.00  0.00     0.023 C 
ENDROOT
BRANCH   1   2
ATOM      2  C   UNL     1      -1.716  -4.488   6.679  1.00  0.00     0.023 C 
BRANCH   2   3
ATOM      3  C   UNL     1      -1.563  -5.062   5.295  1.00  0.00     0.116 C 
BRANCH   3   4
ATOM      4  N   UNL     1      -2.811  -5.665   4.866  1.00  0.00    -0.352 N 
ATOM      5  C   UNL     1      -3.721  -5.443   3.897  1.00  0.00     0.251 C 
ATOM      6  O   UNL     1      -4.715  -6.176   3.913  1.00  0.00    -0.270 OA
ATOM      7  H   UNL     1      -3.057  -6.435   5.429  1.00  0.00     0.163 HD
BRANCH   5   8
ATOM      8  C   UNL     1      -3.559  -4.428   2.823  1.00  0.00     0.067 C 
ATOM      9  C   UNL     1      -3.144  -1.665  -0.302  1.00  0.00     0.026 A 
ATOM     10  C   UNL     1      -4.084  -1.673  -1.338  1.00  0.00     0.033 A 
ATOM     11  C   UNL     1      -3.355  -2.538   0.778  1.00  0.00     0.135 A 
ATOM     12  C   UNL     1      -5.186  -2.534  -1.284  1.00  0.00     0.042 A 
ATOM     13  C   UNL     1      -4.446  -3.410   0.831  1.00  0.00     0.019 A 
ATOM     14  O   UNL     1      -2.466  -2.448   1.810  1.00  0.00    -0.475 OA
ATOM     15  Cl  UNL     1      -6.330  -2.529  -2.571  1.00  0.00    -0.084 Cl
ATOM     16  C   UNL     1      -5.372  -3.402  -0.208  1.00  0.00     0.032 A 
ATOM     17  C   UNL     1      -4.591  -4.307   1.969  1.00  0.00     0.025 C 
ATOM     18  C   UNL     1      -2.310  -3.617   2.637  1.00  0.00     0.314 C 
BRANCH   9  19
ATOM     19  C   UNL     1      -1.964  -0.784  -0.325  1.00  0.00    -0.012 A 
ATOM     20  C   UNL     1       1.526   1.754   0.012  1.00  0.00     0.047 C 
ATOM     21  C   UNL     1       0.310   0.892  -0.133  1.00  0.00    -0.015 A 
ATOM     22  C   UNL     1      -0.977   1.438  -0.127  1.00  0.00     0.007 A 
ATOM     23  C   UNL     1       0.447  -0.491  -0.240  1.00  0.00     0.126 A 
ATOM     24  C   UNL     1      -2.101   0.608  -0.224  1.00  0.00     0.009 A 
ATOM     25  C   UNL     1      -0.666  -1.322  -0.340  1.00  0.00     0.048 A 
ATOM     26  F   UNL     1       1.669  -1.044  -0.236  1.00  0.00    -0.207 F 
ENDBRANCH   9  19
BRANCH  18  27
ATOM     27  C   UNL     1      -1.127  -4.450   2.101  1.00  0.00     0.429 C 
ATOM     28  F   UNL     1       0.053  -3.817   2.296  1.00  0.00    -0.167 F 
ATOM     29  F   UNL     1      -1.012  -5.665   2.689  1.00  0.00    -0.167 F 
ATOM     30  F   UNL     1      -1.234  -4.689   0.769  1.00  0.00    -0.167 F 
ENDBRANCH  18  27
ENDBRANCH   5   8
ENDBRANCH   3   4
ENDBRANCH   2   3
ENDBRANCH   1   2
BRANCH   1  31
ATOM     31  C   UNL     1      -0.244  -6.282   7.783  1.00  0.00     0.116 C 
BRANCH  31  32
ATOM     32  N   UNL     1       0.941  -5.467   7.527  1.00  0.00    -0.352 N 
ATOM     33  C   UNL     1       2.147  -5.373   8.181  1.00  0.00     0.251 C 
ATOM     34  H   UNL     1       0.861  -4.878   6.743  1.00  0.00     0.163 HD
ATOM     35  O   UNL     1       3.164  -5.084   7.548  1.00  0.00    -0.269 OA
BRANCH  33  36
ATOM     36  C   UNL     1       2.189  -5.346   9.655  1.00  0.00     0.039 A 
ATOM     37  C   UNL     1       1.419  -6.182  10.457  1.00  0.00     0.014 A 
ATOM     38  C   UNL     1       2.844  -4.239  10.207  1.00  0.00     0.014 A 
ATOM     39  C   UNL     1       1.021  -5.724  11.704  1.00  0.00     0.010 A 
ATOM     40  C   UNL     1       2.523  -3.830  11.485  1.00  0.00     0.010 A 
ATOM     41  C   UNL     1       1.521  -4.503  12.178  1.00  0.00    -0.014 A 
BRANCH  41  42
ATOM     42  C   UNL     1       1.074  -3.933  13.442  1.00  0.00     0.031 A 
ATOM     43  C   UNL     1       1.114  -4.826  14.623  1.00  0.00     0.074 A 
ATOM     44  C   UNL     1       0.568  -2.674  13.508  1.00  0.00     0.049 A 
ATOM     45  N   UNL     1       0.231  -4.857  15.560  1.00  0.00    -0.248 NA
ATOM     46  C   UNL     1       2.118  -5.888  14.761  1.00  0.00     0.031 C 
ATOM     47  C   UNL     1       0.203  -1.940  14.713  1.00  0.00     0.029 A 
ATOM     48  N   UNL     1       0.131  -1.815  12.495  1.00  0.00    -0.354 N 
ATOM     49  C   UNL     1       0.767  -5.615  16.581  1.00  0.00     0.074 A 
ATOM     50  C   UNL     1       1.801  -6.400  15.955  1.00  0.00     0.031 C 
ATOM     51  C   UNL     1      -0.651  -0.952  14.387  1.00  0.00     0.029 A 
ATOM     52  C   UNL     1      -0.988  -1.116  12.982  1.00  0.00     0.049 A 
ATOM     53  H   UNL     1       0.533  -1.718  11.602  1.00  0.00     0.167 HD
ATOM     54  C   UNL     1       0.439  -5.315  17.872  1.00  0.00     0.034 A 
ATOM     55  C   UNL     1      -2.273  -1.193  12.496  1.00  0.00     0.034 A 
ATOM     56  C   UNL     1      -0.557  -4.251  17.894  1.00  0.00     0.049 A 
ATOM     57  C   UNL     1      -3.237  -1.662  13.568  1.00  0.00     0.074 A 
ATOM     58  C   UNL     1      -0.431  -2.885  18.081  1.00  0.00     0.029 A 
ATOM     59  N   UNL     1      -1.821  -4.471  17.369  1.00  0.00    -0.354 N 
ATOM     60  N   UNL     1      -2.875  -2.428  14.560  1.00  0.00    -0.248 NA
ATOM     61  C   UNL     1      -4.658  -1.332  13.597  1.00  0.00     0.031 C 
ATOM     62  C   UNL     1      -1.607  -2.272  17.587  1.00  0.00     0.029 A 
ATOM     63  C   UNL     1      -2.453  -3.269  17.133  1.00  0.00     0.049 A 
ATOM     64  H   UNL     1      -2.211  -5.358  17.191  1.00  0.00     0.167 HD
ATOM     65  C   UNL     1      -3.940  -2.593  15.409  1.00  0.00     0.074 A 
ATOM     66  C   UNL     1      -5.041  -1.921  14.744  1.00  0.00     0.031 C 
ATOM     67  C   UNL     1      -3.811  -3.225  16.612  1.00  0.00     0.034 A 
BRANCH  54  68
ATOM     68  C   UNL     1       1.259  -5.699  19.095  1.00  0.00     0.023 A 
ATOM     69  C   UNL     1       2.234  -6.719  19.091  1.00  0.00     0.012 A 
ATOM     70  C   UNL     1       1.134  -4.980  20.309  1.00  0.00     0.148 A 
ATOM     71  C   UNL     1       3.099  -6.948  20.172  1.00  0.00     0.002 A 
ATOM     72  C   UNL     1       1.995  -5.207  21.385  1.00  0.00     0.091 A 
ATOM     73  F   UNL     1       0.176  -4.054  20.449  1.00  0.00    -0.205 F 
ATOM     74  C   UNL     1       2.990  -6.180  21.319  1.00  0.00     0.022 A 
BRANCH  72  75
ATOM     75  S   UNL     1       1.833  -4.196  22.861  1.00  0.00     0.127 S 
ATOM     76  O   UNL     1       2.156  -2.859  22.372  1.00  0.00    -0.237 OA
ATOM     77  O   UNL     1       0.456  -4.434  23.277  1.00  0.00    -0.237 OA
ATOM     78  O   UNL     1       2.837  -4.763  23.764  1.00  0.00    -0.744 OA
ENDBRANCH  72  75
ENDBRANCH  54  68
BRANCH  55  79
ATOM     79  C   UNL     1      -2.380  -1.668  11.083  1.00  0.00     0.023 A 
ATOM     80  C   UNL     1      -2.100  -3.031  10.928  1.00  0.00     0.012 A 
ATOM     81  C   UNL     1      -2.078  -0.772  10.034  1.00  0.00     0.148 A 
ATOM     82  C   UNL     1      -1.141  -3.382   9.992  1.00  0.00     0.002 A 
ATOM     83  C   UNL     1      -1.230  -1.187   9.014  1.00  0.00     0.091 A 
ATOM     84  F   UNL     1      -2.510   0.495  10.113  1.00  0.00    -0.205 F 
ATOM     85  C   UNL     1      -0.664  -2.457   9.070  1.00  0.00     0.022 A 
BRANCH  83  86
ATOM     86  S   UNL     1      -0.756  -0.087   7.682  1.00  0.00     0.127 S 
ATOM     87  O   UNL     1      -2.036   0.253   7.070  1.00  0.00    -0.237 OA
ATOM     88  O   UNL     1      -0.051   0.984   8.374  1.00  0.00    -0.237 OA
ATOM     89  O   UNL     1       0.095  -0.933   6.840  1.00  0.00    -0.744 OA
ENDBRANCH  83  86
ENDBRANCH  55  79
BRANCH  67  90
ATOM     90  C   UNL     1      -4.923  -3.691  17.521  1.00  0.00     0.023 A 
ATOM     91  C   UNL     1      -4.594  -4.058  18.855  1.00  0.00     0.012 A 
ATOM     92  C   UNL     1      -6.255  -3.877  17.136  1.00  0.00     0.148 A 
ATOM     93  C   UNL     1      -5.533  -4.572  19.750  1.00  0.00     0.002 A 
ATOM     94  C   UNL     1      -7.215  -4.268  18.069  1.00  0.00     0.091 A 
ATOM     95  F   UNL     1      -6.615  -3.742  15.853  1.00  0.00    -0.205 F 
ATOM     96  C   UNL     1      -6.860  -4.648  19.366  1.00  0.00     0.022 A 
BRANCH  94  97
ATOM     97  S   UNL     1      -8.941  -4.115  17.617  1.00  0.00     0.127 S 
ATOM     98  O   UNL     1      -9.057  -2.694  17.300  1.00  0.00    -0.237 OA
ATOM     99  O   UNL     1      -9.083  -5.042  16.499  1.00  0.00    -0.237 OA
ATOM    100  O   UNL     1      -9.649  -4.521  18.832  1.00  0.00    -0.744 OA
ENDBRANCH  94  97
ENDBRANCH  67  90
ENDBRANCH  41  42
ENDBRANCH  33  36
ENDBRANCH  31  32
ENDBRANCH   1  31
TORSDOF 16
