REMARK SMILES CC[C@](O)(C(=O)NCCCCNC(=O)c1ccc(-c2c3nc(c(-c4cccc(S(=O)(=O)[O-])c4F)c4ccc([nH]4)c(-c4cccc(S(=O)(=O)[O-])c4F)c4nc(c(-c5cccc(S(=O)(=O)[O-])c5F)c5ccc2[nH]5)C=C4)C=C3)cc1)[C@@H](C)c1ccc2c(c1)OCCO2
REMARK SMILES IDX 10 1 9 2 8 3 7 4 5 5 6 6 3 8 2 9 1 10 78 11 79 12 80 13
REMARK SMILES IDX 81 14 85 15 82 16 84 17 83 18 86 19 89 20 87 21 88 22 4 23
REMARK SMILES IDX 11 25 12 26 13 27 14 29 15 30 16 31 77 32 17 33 76 34 18 35
REMARK SMILES IDX 19 36 20 37 70 38 21 39 75 40 69 41 71 42 22 43 74 44 68 45
REMARK SMILES IDX 67 46 23 48 55 49 35 50 54 51 36 52 39 53 53 54 72 55 37 56
REMARK SMILES IDX 38 57 52 59 73 60 40 61 24 62 25 63 33 64 26 65 28 66 34 67
REMARK SMILES IDX 27 68 29 69 30 70 31 71 32 72 56 73 57 74 65 75 58 76 60 77
REMARK SMILES IDX 66 78 59 79 61 80 62 81 63 82 64 83 41 84 42 85 50 86 43 87
REMARK SMILES IDX 45 88 51 89 44 90 46 91 47 92 48 93 49 94
REMARK H PARENT 7 7 4 24 12 28 71 47 39 58
REMARK Flexibility Score: inf
ROOT
ATOM      1  C   UNL     1      -3.542  -3.439  -2.608  1.00  0.00     0.023 C 
ENDROOT
BRANCH   1   2
ATOM      2  C   UNL     1      -2.693  -2.563  -1.688  1.00  0.00     0.023 C 
BRANCH   2   3
ATOM      3  C   UNL     1      -2.140  -3.289  -0.464  1.00  0.00     0.116 C 
BRANCH   3   4
ATOM      4  N   UNL     1      -1.046  -4.190  -0.786  1.00  0.00    -0.354 N 
ATOM      5  C   UNL     1       0.293  -4.081  -0.503  1.00  0.00     0.252 C 
ATOM      6  O   UNL     1       1.008  -5.055  -0.754  1.00  0.00    -0.272 OA
ATOM      7  H   UNL     1      -1.304  -5.001  -1.281  1.00  0.00     0.163 HD
BRANCH   5   8
ATOM      8  C   UNL     1       0.843  -2.816   0.230  1.00  0.00     0.149 C 
BRANCH   8   9
ATOM      9  C   UNL     1       0.510  -3.076   1.730  1.00  0.00     0.043 C 
ATOM     10  C   UNL     1       0.990  -2.053   2.747  1.00  0.00     0.007 C 
ENDBRANCH   8   9
BRANCH   8  11
ATOM     11  C   UNL     1       2.386  -2.602  -0.028  1.00  0.00     0.058 C 
ATOM     12  C   UNL     1       2.821  -2.784  -1.500  1.00  0.00     0.016 C 
BRANCH  11  13
ATOM     13  C   UNL     1       2.900  -1.208   0.369  1.00  0.00    -0.038 A 
ATOM     14  C   UNL     1       3.985  -1.042   1.245  1.00  0.00     0.008 A 
ATOM     15  C   UNL     1       2.363  -0.064  -0.245  1.00  0.00     0.054 A 
ATOM     16  C   UNL     1       4.525   0.231   1.476  1.00  0.00     0.051 A 
ATOM     17  C   UNL     1       2.896   1.193  -0.028  1.00  0.00     0.161 A 
ATOM     18  C   UNL     1       4.004   1.334   0.801  1.00  0.00     0.161 A 
ATOM     19  O   UNL     1       2.328   2.208  -0.743  1.00  0.00    -0.486 OA
ATOM     20  O   UNL     1       4.669   2.532   0.886  1.00  0.00    -0.486 OA
ATOM     21  C   UNL     1       3.120   3.395  -0.778  1.00  0.00     0.271 C 
ATOM     22  C   UNL     1       4.577   3.156  -0.405  1.00  0.00     0.271 C 
ENDBRANCH  11  13
ENDBRANCH   8  11
BRANCH   8  23
ATOM     23  O   UNL     1       0.115  -1.683  -0.261  1.00  0.00    -0.379 OA
ATOM     24  H   UNL     1       0.335  -1.538  -1.194  1.00  0.00     0.212 HD
ENDBRANCH   8  23
ENDBRANCH   5   8
ENDBRANCH   3   4
ENDBRANCH   2   3
ENDBRANCH   1   2
BRANCH   1  25
ATOM     25  C   UNL     1      -4.625  -4.247  -1.906  1.00  0.00     0.116 C 
BRANCH  25  26
ATOM     26  N   UNL     1      -5.532  -3.439  -1.097  1.00  0.00    -0.352 N 
ATOM     27  C   UNL     1      -6.860  -3.691  -0.836  1.00  0.00     0.251 C 
ATOM     28  H   UNL     1      -5.152  -2.626  -0.693  1.00  0.00     0.163 HD
ATOM     29  O   UNL     1      -7.548  -2.900  -0.200  1.00  0.00    -0.269 OA
BRANCH  27  30
ATOM     30  C   UNL     1      -7.441  -4.929  -1.386  1.00  0.00     0.039 A 
ATOM     31  C   UNL     1      -8.491  -4.840  -2.301  1.00  0.00     0.014 A 
ATOM     32  C   UNL     1      -6.834  -6.154  -1.101  1.00  0.00     0.014 A 
ATOM     33  C   UNL     1      -8.887  -5.982  -2.998  1.00  0.00     0.010 A 
ATOM     34  C   UNL     1      -7.178  -7.269  -1.851  1.00  0.00     0.010 A 
ATOM     35  C   UNL     1      -8.203  -7.194  -2.809  1.00  0.00    -0.014 A 
BRANCH  35  36
ATOM     36  C   UNL     1      -8.518  -8.411  -3.596  1.00  0.00     0.031 A 
ATOM     37  C   UNL     1      -8.980  -9.649  -2.881  1.00  0.00     0.074 A 
ATOM     38  C   UNL     1      -8.244  -8.450  -4.915  1.00  0.00     0.049 A 
ATOM     39  N   UNL     1      -9.127 -10.862  -3.341  1.00  0.00    -0.248 NA
ATOM     40  C   UNL     1      -9.269  -9.509  -1.444  1.00  0.00     0.031 C 
ATOM     41  C   UNL     1      -7.715  -7.336  -5.704  1.00  0.00     0.029 A 
ATOM     42  N   UNL     1      -8.327  -9.484  -5.814  1.00  0.00    -0.354 N 
ATOM     43  C   UNL     1      -9.463 -11.642  -2.242  1.00  0.00     0.074 A 
ATOM     44  C   UNL     1      -9.473 -10.768  -1.089  1.00  0.00     0.031 C 
ATOM     45  C   UNL     1      -7.505  -7.751  -6.964  1.00  0.00     0.029 A 
ATOM     46  C   UNL     1      -7.851  -9.166  -7.064  1.00  0.00     0.049 A 
ATOM     47  H   UNL     1      -8.691 -10.370  -5.585  1.00  0.00     0.167 HD
ATOM     48  C   UNL     1      -9.762 -12.961  -2.199  1.00  0.00     0.034 A 
ATOM     49  C   UNL     1      -7.691  -9.932  -8.162  1.00  0.00     0.034 A 
ATOM     50  C   UNL     1      -9.815 -13.806  -3.359  1.00  0.00     0.049 A 
ATOM     51  C   UNL     1      -8.104 -11.378  -8.111  1.00  0.00     0.074 A 
ATOM     52  C   UNL     1     -10.215 -15.128  -3.443  1.00  0.00     0.029 A 
ATOM     53  N   UNL     1      -9.457 -13.413  -4.639  1.00  0.00    -0.354 N 
ATOM     54  N   UNL     1      -8.572 -12.064  -7.097  1.00  0.00    -0.248 NA
ATOM     55  C   UNL     1      -8.002 -12.147  -9.360  1.00  0.00     0.031 C 
ATOM     56  C   UNL     1     -10.087 -15.537  -4.774  1.00  0.00     0.029 A 
ATOM     57  C   UNL     1      -9.625 -14.465  -5.522  1.00  0.00     0.049 A 
ATOM     58  H   UNL     1      -9.131 -12.517  -4.884  1.00  0.00     0.167 HD
ATOM     59  C   UNL     1      -8.857 -13.332  -7.591  1.00  0.00     0.074 A 
ATOM     60  C   UNL     1      -8.518 -13.316  -8.999  1.00  0.00     0.031 C 
ATOM     61  C   UNL     1      -9.345 -14.413  -6.934  1.00  0.00     0.034 A 
BRANCH  48  62
ATOM     62  C   UNL     1     -10.107 -13.550  -0.857  1.00  0.00     0.023 A 
ATOM     63  C   UNL     1     -11.324 -13.201  -0.235  1.00  0.00     0.012 A 
ATOM     64  C   UNL     1      -9.242 -14.460  -0.220  1.00  0.00     0.148 A 
ATOM     65  C   UNL     1     -11.653 -13.711   1.019  1.00  0.00     0.002 A 
ATOM     66  C   UNL     1      -9.600 -15.002   1.010  1.00  0.00     0.091 A 
ATOM     67  F   UNL     1      -8.076 -14.761  -0.810  1.00  0.00    -0.205 F 
ATOM     68  C   UNL     1     -10.796 -14.618   1.637  1.00  0.00     0.022 A 
BRANCH  66  69
ATOM     69  S   UNL     1      -8.595 -16.238   1.838  1.00  0.00     0.127 S 
ATOM     70  O   UNL     1      -7.908 -15.435   2.847  1.00  0.00    -0.237 OA
ATOM     71  O   UNL     1      -9.604 -17.154   2.373  1.00  0.00    -0.237 OA
ATOM     72  O   UNL     1      -7.749 -16.816   0.803  1.00  0.00    -0.744 OA
ENDBRANCH  66  69
ENDBRANCH  48  62
BRANCH  49  73
ATOM     73  C   UNL     1      -7.181  -9.315  -9.419  1.00  0.00     0.023 A 
ATOM     74  C   UNL     1      -8.074  -9.087 -10.484  1.00  0.00     0.012 A 
ATOM     75  C   UNL     1      -5.843  -8.894  -9.542  1.00  0.00     0.148 A 
ATOM     76  C   UNL     1      -7.640  -8.467 -11.656  1.00  0.00     0.002 A 
ATOM     77  C   UNL     1      -5.429  -8.231 -10.692  1.00  0.00     0.091 A 
ATOM     78  F   UNL     1      -5.009  -9.126  -8.518  1.00  0.00    -0.205 F 
ATOM     79  C   UNL     1      -6.322  -8.030 -11.756  1.00  0.00     0.022 A 
BRANCH  77  80
ATOM     80  S   UNL     1      -3.791  -7.513 -10.860  1.00  0.00     0.127 S 
ATOM     81  O   UNL     1      -3.209  -8.339 -11.915  1.00  0.00    -0.237 OA
ATOM     82  O   UNL     1      -4.106  -6.139 -11.256  1.00  0.00    -0.237 OA
ATOM     83  O   UNL     1      -3.170  -7.634  -9.549  1.00  0.00    -0.744 OA
ENDBRANCH  77  80
ENDBRANCH  49  73
BRANCH  61  84
ATOM     84  C   UNL     1      -9.594 -15.668  -7.727  1.00  0.00     0.023 A 
ATOM     85  C   UNL     1      -8.509 -16.476  -8.119  1.00  0.00     0.012 A 
ATOM     86  C   UNL     1     -10.910 -16.102  -7.981  1.00  0.00     0.148 A 
ATOM     87  C   UNL     1      -8.731 -17.690  -8.768  1.00  0.00     0.002 A 
ATOM     88  C   UNL     1     -11.124 -17.334  -8.587  1.00  0.00     0.091 A 
ATOM     89  F   UNL     1     -11.927 -15.307  -7.617  1.00  0.00    -0.205 F 
ATOM     90  C   UNL     1     -10.036 -18.125  -8.988  1.00  0.00     0.022 A 
BRANCH  88  91
ATOM     91  S   UNL     1     -12.769 -18.018  -8.821  1.00  0.00     0.127 S 
ATOM     92  O   UNL     1     -12.943 -17.888 -10.266  1.00  0.00    -0.237 OA
ATOM     93  O   UNL     1     -12.605 -19.392  -8.346  1.00  0.00    -0.237 OA
ATOM     94  O   UNL     1     -13.662 -17.202  -8.008  1.00  0.00    -0.744 OA
ENDBRANCH  88  91
ENDBRANCH  61  84
ENDBRANCH  35  36
ENDBRANCH  27  30
ENDBRANCH  25  26
ENDBRANCH   1  25
TORSDOF 18
