REMARK SMILES CCc1nn2c(nnc3c(=O)n([C@H](C(=O)NCCCCNC(=O)c4ccc(-c5c6nc(c(-c7cccc(S(=O)(=O)[O-])c7F)c7ccc([nH]7)c(-c7cccc(S(=O)(=O)[O-])c7F)c7nc(c(-c8cccc(S(=O)(=O)[O-])c8F)c8ccc5[nH]8)C=C7)C=C6)cc4)C(C)C)ccc32)c1-c1ccc(Cl)cc1
REMARK SMILES IDX 19 1 18 2 17 3 16 4 14 5 15 6 13 8 12 9 3 10 4 11 93 12 5 13
REMARK SMILES IDX 6 14 92 15 7 16 9 17 91 18 8 19 10 20 90 21 11 22 2 23 1 24
REMARK SMILES IDX 94 25 95 26 100 27 96 28 99 29 97 30 98 31 87 32 88 33 89 34
REMARK SMILES IDX 20 35 21 36 22 37 23 39 24 40 25 41 86 42 26 43 85 44 27 45
REMARK SMILES IDX 28 46 29 47 79 48 30 49 84 50 78 51 80 52 31 53 83 54 77 55
REMARK SMILES IDX 76 56 32 58 64 59 44 60 63 61 45 62 48 63 62 64 81 65 46 66
REMARK SMILES IDX 47 67 61 69 82 70 49 71 33 72 34 73 42 74 35 75 37 76 43 77
REMARK SMILES IDX 36 78 38 79 39 80 40 81 41 82 65 83 66 84 74 85 67 86 69 87
REMARK SMILES IDX 75 88 68 89 70 90 71 91 72 92 73 93 50 94 51 95 59 96 52 97
REMARK SMILES IDX 54 98 60 99 53 100 55 101 56 102 57 103 58 104
REMARK H PARENT 16 7 21 38 80 57 48 68
REMARK Flexibility Score: inf
ROOT
ATOM      1  C   UNL     1      -1.300  -3.130  -7.316  1.00  0.00     0.023 C 
ENDROOT
BRANCH   1   2
ATOM      2  C   UNL     1      -0.851  -4.559  -7.655  1.00  0.00     0.023 C 
BRANCH   2   3
ATOM      3  C   UNL     1       0.618  -4.853  -7.329  1.00  0.00     0.116 C 
BRANCH   3   4
ATOM      4  N   UNL     1       0.786  -5.316  -5.967  1.00  0.00    -0.354 N 
ATOM      5  C   UNL     1       0.957  -6.539  -5.404  1.00  0.00     0.243 C 
ATOM      6  O   UNL     1       0.977  -6.540  -4.163  1.00  0.00    -0.273 OA
ATOM      7  H   UNL     1       0.773  -4.585  -5.308  1.00  0.00     0.163 HD
BRANCH   5   8
ATOM      8  C   UNL     1       1.228  -7.881  -6.156  1.00  0.00     0.182 C 
BRANCH   8   9
ATOM      9  N   UNL     1       0.511  -8.026  -7.460  1.00  0.00    -0.301 N 
ATOM     10  C   UNL     1      -3.273  -7.870 -12.494  1.00  0.00     0.073 A 
ATOM     11  N   UNL     1      -3.072  -8.196 -11.208  1.00  0.00    -0.170 NA
ATOM     12  C   UNL     1      -2.144  -7.229 -13.061  1.00  0.00     0.052 A 
ATOM     13  N   UNL     1      -1.776  -7.847 -10.960  1.00  0.00    -0.210 N 
ATOM     14  C   UNL     1      -1.179  -7.292 -12.083  1.00  0.00     0.186 A 
ATOM     15  C   UNL     1      -1.028  -7.993  -9.791  1.00  0.00     0.102 A 
ATOM     16  N   UNL     1       0.136  -6.933 -12.063  1.00  0.00    -0.129 NA
ATOM     17  C   UNL     1       0.270  -7.655  -9.886  1.00  0.00     0.177 A 
ATOM     18  C   UNL     1      -1.586  -8.422  -8.528  1.00  0.00     0.049 A 
ATOM     19  N   UNL     1       0.834  -7.153 -11.042  1.00  0.00    -0.141 NA
ATOM     20  C   UNL     1       1.150  -7.753  -8.678  1.00  0.00     0.281 A 
ATOM     21  C   UNL     1      -0.833  -8.386  -7.421  1.00  0.00     0.092 A 
ATOM     22  O   UNL     1       2.348  -7.516  -8.806  1.00  0.00    -0.267 OA
BRANCH  10  23
ATOM     23  C   UNL     1      -4.536  -8.271 -13.186  1.00  0.00     0.055 C 
ATOM     24  C   UNL     1      -5.790  -7.668 -12.580  1.00  0.00     0.011 C 
ENDBRANCH  10  23
BRANCH  12  25
ATOM     25  C   UNL     1      -1.899  -6.685 -14.379  1.00  0.00    -0.013 A 
ATOM     26  C   UNL     1      -2.641  -5.588 -14.835  1.00  0.00     0.010 A 
ATOM     27  C   UNL     1      -0.889  -7.221 -15.189  1.00  0.00     0.010 A 
ATOM     28  C   UNL     1      -2.378  -5.038 -16.093  1.00  0.00     0.021 A 
ATOM     29  C   UNL     1      -0.628  -6.672 -16.446  1.00  0.00     0.021 A 
ATOM     30  C   UNL     1      -1.376  -5.585 -16.894  1.00  0.00     0.041 A 
ATOM     31  Cl  UNL     1      -1.060  -4.917 -18.447  1.00  0.00    -0.084 Cl
ENDBRANCH  12  25
ENDBRANCH   8   9
BRANCH   8  32
ATOM     32  C   UNL     1       2.742  -8.278  -6.152  1.00  0.00     0.015 C 
ATOM     33  C   UNL     1       3.396  -8.198  -4.764  1.00  0.00     0.010 C 
ATOM     34  C   UNL     1       2.941  -9.713  -6.671  1.00  0.00     0.010 C 
ENDBRANCH   8  32
ENDBRANCH   5   8
ENDBRANCH   3   4
ENDBRANCH   2   3
ENDBRANCH   1   2
BRANCH   1  35
ATOM     35  C   UNL     1      -0.571  -2.038  -8.099  1.00  0.00     0.116 C 
BRANCH  35  36
ATOM     36  N   UNL     1      -0.771  -2.166  -9.536  1.00  0.00    -0.352 N 
ATOM     37  C   UNL     1      -0.211  -1.405 -10.539  1.00  0.00     0.251 C 
ATOM     38  H   UNL     1      -1.380  -2.883  -9.825  1.00  0.00     0.163 HD
ATOM     39  O   UNL     1      -0.758  -1.334 -11.630  1.00  0.00    -0.269 OA
BRANCH  37  40
ATOM     40  C   UNL     1       1.050  -0.681 -10.284  1.00  0.00     0.039 A 
ATOM     41  C   UNL     1       1.202   0.625 -10.759  1.00  0.00     0.014 A 
ATOM     42  C   UNL     1       2.091  -1.321  -9.604  1.00  0.00     0.014 A 
ATOM     43  C   UNL     1       2.384   1.306 -10.492  1.00  0.00     0.010 A 
ATOM     44  C   UNL     1       3.240  -0.625  -9.284  1.00  0.00     0.010 A 
ATOM     45  C   UNL     1       3.393   0.681  -9.741  1.00  0.00    -0.014 A 
BRANCH  45  46
ATOM     46  C   UNL     1       4.535   1.471  -9.295  1.00  0.00     0.031 A 
ATOM     47  C   UNL     1       4.162   2.613  -8.417  1.00  0.00     0.074 A 
ATOM     48  C   UNL     1       5.823   1.129  -9.500  1.00  0.00     0.049 A 
ATOM     49  N   UNL     1       4.159   3.869  -8.722  1.00  0.00    -0.248 NA
ATOM     50  C   UNL     1       3.570   2.316  -7.103  1.00  0.00     0.031 C 
ATOM     51  C   UNL     1       6.343  -0.119 -10.063  1.00  0.00     0.029 A 
ATOM     52  N   UNL     1       6.956   1.794  -9.135  1.00  0.00    -0.354 N 
ATOM     53  C   UNL     1       3.814   4.534  -7.549  1.00  0.00     0.074 A 
ATOM     54  C   UNL     1       3.265   3.540  -6.665  1.00  0.00     0.031 C 
ATOM     55  C   UNL     1       7.666  -0.215  -9.797  1.00  0.00     0.029 A 
ATOM     56  C   UNL     1       8.116   1.023  -9.189  1.00  0.00     0.049 A 
ATOM     57  H   UNL     1       6.955   2.739  -8.858  1.00  0.00     0.167 HD
ATOM     58  C   UNL     1       4.268   5.792  -7.293  1.00  0.00     0.034 A 
ATOM     59  C   UNL     1       9.340   1.379  -8.724  1.00  0.00     0.034 A 
ATOM     60  C   UNL     1       4.812   6.409  -8.474  1.00  0.00     0.049 A 
ATOM     61  C   UNL     1       9.352   2.858  -8.678  1.00  0.00     0.074 A 
ATOM     62  C   UNL     1       4.334   6.741  -9.724  1.00  0.00     0.029 A 
ATOM     63  N   UNL     1       6.181   6.405  -8.568  1.00  0.00    -0.354 N 
ATOM     64  N   UNL     1       9.290   3.618  -9.735  1.00  0.00    -0.248 NA
ATOM     65  C   UNL     1       9.075   3.516  -7.412  1.00  0.00     0.031 C 
ATOM     66  C   UNL     1       5.423   6.497 -10.612  1.00  0.00     0.029 A 
ATOM     67  C   UNL     1       6.523   6.089  -9.853  1.00  0.00     0.049 A 
ATOM     68  H   UNL     1       6.810   6.598  -7.835  1.00  0.00     0.167 HD
ATOM     69  C   UNL     1       8.531   4.704  -9.327  1.00  0.00     0.074 A 
ATOM     70  C   UNL     1       8.556   4.658  -7.868  1.00  0.00     0.031 C 
ATOM     71  C   UNL     1       7.720   5.356 -10.207  1.00  0.00     0.034 A 
BRANCH  58  72
ATOM     72  C   UNL     1       4.609   6.317  -5.917  1.00  0.00     0.023 A 
ATOM     73  C   UNL     1       4.872   7.699  -5.790  1.00  0.00     0.012 A 
ATOM     74  C   UNL     1       4.961   5.495  -4.822  1.00  0.00     0.148 A 
ATOM     75  C   UNL     1       5.476   8.230  -4.644  1.00  0.00     0.002 A 
ATOM     76  C   UNL     1       5.482   6.037  -3.653  1.00  0.00     0.091 A 
ATOM     77  F   UNL     1       4.932   4.166  -4.949  1.00  0.00    -0.205 F 
ATOM     78  C   UNL     1       5.768   7.401  -3.568  1.00  0.00     0.022 A 
BRANCH  76  79
ATOM     79  S   UNL     1       5.839   5.011  -2.222  1.00  0.00     0.127 S 
ATOM     80  O   UNL     1       7.298   4.965  -2.253  1.00  0.00    -0.237 OA
ATOM     81  O   UNL     1       5.264   5.805  -1.136  1.00  0.00    -0.237 OA
ATOM     82  O   UNL     1       5.149   3.751  -2.467  1.00  0.00    -0.744 OA
ENDBRANCH  76  79
ENDBRANCH  58  72
BRANCH  59  83
ATOM     83  C   UNL     1      10.431   0.583  -8.102  1.00  0.00     0.023 A 
ATOM     84  C   UNL     1      11.684   1.201  -7.885  1.00  0.00     0.012 A 
ATOM     85  C   UNL     1      10.174  -0.634  -7.436  1.00  0.00     0.148 A 
ATOM     86  C   UNL     1      12.609   0.674  -6.976  1.00  0.00     0.002 A 
ATOM     87  C   UNL     1      11.104  -1.162  -6.542  1.00  0.00     0.091 A 
ATOM     88  F   UNL     1       8.983  -1.225  -7.599  1.00  0.00    -0.205 F 
ATOM     89  C   UNL     1      12.312  -0.499  -6.292  1.00  0.00     0.022 A 
BRANCH  87  90
ATOM     90  S   UNL     1      10.788  -2.671  -5.616  1.00  0.00     0.127 S 
ATOM     91  O   UNL     1      12.073  -3.365  -5.710  1.00  0.00    -0.237 OA
ATOM     92  O   UNL     1      10.469  -2.152  -4.289  1.00  0.00    -0.237 OA
ATOM     93  O   UNL     1       9.698  -3.339  -6.316  1.00  0.00    -0.744 OA
ENDBRANCH  87  90
ENDBRANCH  59  83
BRANCH  71  94
ATOM     94  C   UNL     1       7.928   5.112 -11.678  1.00  0.00     0.023 A 
ATOM     95  C   UNL     1       7.614   3.887 -12.300  1.00  0.00     0.012 A 
ATOM     96  C   UNL     1       8.260   6.221 -12.474  1.00  0.00     0.148 A 
ATOM     97  C   UNL     1       7.626   3.775 -13.694  1.00  0.00     0.002 A 
ATOM     98  C   UNL     1       8.229   6.118 -13.857  1.00  0.00     0.091 A 
ATOM     99  F   UNL     1       8.552   7.375 -11.855  1.00  0.00    -0.205 F 
ATOM    100  C   UNL     1       7.917   4.895 -14.472  1.00  0.00     0.022 A 
BRANCH  98 101
ATOM    101  S   UNL     1       8.476   7.546 -14.913  1.00  0.00     0.127 S 
ATOM    102  O   UNL     1       9.732   7.217 -15.584  1.00  0.00    -0.237 OA
ATOM    103  O   UNL     1       7.293   7.503 -15.773  1.00  0.00    -0.237 OA
ATOM    104  O   UNL     1       8.532   8.703 -14.028  1.00  0.00    -0.744 OA
ENDBRANCH  98 101
ENDBRANCH  71  94
ENDBRANCH  45  46
ENDBRANCH  37  40
ENDBRANCH  35  36
ENDBRANCH   1  35
TORSDOF 18
