REMARK SMILES C=CC[C@@]1(C(=O)NCCCCNC(=O)c2ccc(-c3c4nc(c(-c5cccc(S(=O)(=O)[O-])c5F)c5ccc([nH]5)c(-c5cccc(S(=O)(=O)[O-])c5F)c5nc(c(-c6cccc(S(=O)(=O)[O-])c6F)c6ccc3[nH]6)C=C5)C=C4)cc2)CCCN(C(=O)c2ccc3c(c2)OCO3)C1
REMARK SMILES IDX 10 1 9 2 8 3 7 4 5 5 6 6 4 8 78 9 93 10 79 11 81 12 80 13
REMARK SMILES IDX 3 14 2 15 1 16 82 17 83 18 84 19 85 20 89 21 86 22 88 23
REMARK SMILES IDX 87 24 90 25 92 26 91 27 11 28 12 29 13 30 14 32 15 33 16 34
REMARK SMILES IDX 77 35 17 36 76 37 18 38 19 39 20 40 70 41 21 42 75 43 69 44
REMARK SMILES IDX 71 45 22 46 74 47 68 48 67 49 23 51 55 52 35 53 54 54 36 55
REMARK SMILES IDX 39 56 53 57 72 58 37 59 38 60 52 62 73 63 40 64 24 65 25 66
REMARK SMILES IDX 33 67 26 68 28 69 34 70 27 71 29 72 30 73 31 74 32 75 56 76
REMARK SMILES IDX 57 77 65 78 58 79 60 80 66 81 59 82 61 83 62 84 63 85 64 86
REMARK SMILES IDX 41 87 42 88 50 89 43 90 45 91 51 92 44 93 46 94 47 95 48 96
REMARK SMILES IDX 49 97
REMARK H PARENT 7 7 12 31 71 50 39 61
REMARK Flexibility Score: inf
ROOT
ATOM      1  C   UNL     1       3.532  -0.831   0.358  1.00  0.00     0.023 C 
ENDROOT
BRANCH   1   2
ATOM      2  C   UNL     1       2.611  -1.448  -0.685  1.00  0.00     0.023 C 
BRANCH   2   3
ATOM      3  C   UNL     1       1.285  -2.004  -0.194  1.00  0.00     0.116 C 
BRANCH   3   4
ATOM      4  N   UNL     1       0.254  -1.044   0.111  1.00  0.00    -0.356 N 
ATOM      5  C   UNL     1      -1.084  -1.254   0.274  1.00  0.00     0.228 C 
ATOM      6  O   UNL     1      -1.679  -0.370   0.907  1.00  0.00    -0.274 OA
ATOM      7  H   UNL     1       0.555  -0.112   0.215  1.00  0.00     0.163 HD
BRANCH   5   8
ATOM      8  C   UNL     1      -1.893  -2.421  -0.377  1.00  0.00     0.070 C 
ATOM      9  C   UNL     1      -3.192  -2.638   0.460  1.00  0.00     0.021 C 
ATOM     10  C   UNL     1      -1.247  -3.819  -0.453  1.00  0.00     0.137 C 
ATOM     11  C   UNL     1      -2.876  -3.224   1.846  1.00  0.00     0.023 C 
ATOM     12  N   UNL     1      -0.905  -4.369   0.848  1.00  0.00    -0.338 N 
ATOM     13  C   UNL     1      -2.026  -4.492   1.782  1.00  0.00     0.120 C 
BRANCH   8  14
ATOM     14  C   UNL     1      -2.211  -1.997  -1.842  1.00  0.00     0.045 C 
BRANCH  14  15
ATOM     15  C   UNL     1      -3.150  -0.833  -2.018  1.00  0.00    -0.034 C 
ATOM     16  C   UNL     1      -2.793   0.344  -2.548  1.00  0.00     0.004 C 
ENDBRANCH  14  15
ENDBRANCH   8  14
BRANCH  12  17
ATOM     17  C   UNL     1       0.340  -4.977   1.005  1.00  0.00     0.254 C 
ATOM     18  O   UNL     1       1.200  -5.034   0.131  1.00  0.00    -0.269 OA
BRANCH  17  19
ATOM     19  C   UNL     1       0.646  -5.601   2.297  1.00  0.00     0.043 A 
ATOM     20  C   UNL     1       0.952  -4.799   3.416  1.00  0.00     0.018 A 
ATOM     21  C   UNL     1       0.565  -6.992   2.381  1.00  0.00     0.064 A 
ATOM     22  C   UNL     1       1.124  -5.398   4.666  1.00  0.00     0.051 A 
ATOM     23  C   UNL     1       0.714  -7.541   3.631  1.00  0.00     0.166 A 
ATOM     24  C   UNL     1       0.974  -6.768   4.742  1.00  0.00     0.165 A 
ATOM     25  O   UNL     1       0.581  -8.860   3.933  1.00  0.00    -0.454 OA
ATOM     26  O   UNL     1       1.028  -7.511   5.880  1.00  0.00    -0.454 OA
ATOM     27  C   UNL     1       0.660  -8.809   5.372  1.00  0.00     0.468 C 
ENDBRANCH  17  19
ENDBRANCH  12  17
ENDBRANCH   5   8
ENDBRANCH   3   4
ENDBRANCH   2   3
ENDBRANCH   1   2
BRANCH   1  28
ATOM     28  C   UNL     1       3.737  -1.603   1.658  1.00  0.00     0.116 C 
BRANCH  28  29
ATOM     29  N   UNL     1       4.156  -2.993   1.504  1.00  0.00    -0.352 N 
ATOM     30  C   UNL     1       5.201  -3.655   2.121  1.00  0.00     0.251 C 
ATOM     31  H   UNL     1       3.623  -3.532   0.876  1.00  0.00     0.163 HD
ATOM     32  O   UNL     1       5.434  -4.832   1.884  1.00  0.00    -0.269 OA
BRANCH  30  33
ATOM     33  C   UNL     1       6.080  -2.900   3.040  1.00  0.00     0.039 A 
ATOM     34  C   UNL     1       7.447  -2.831   2.756  1.00  0.00     0.014 A 
ATOM     35  C   UNL     1       5.537  -2.170   4.098  1.00  0.00     0.014 A 
ATOM     36  C   UNL     1       8.249  -1.925   3.456  1.00  0.00     0.010 A 
ATOM     37  C   UNL     1       6.321  -1.215   4.739  1.00  0.00     0.010 A 
ATOM     38  C   UNL     1       7.676  -1.061   4.404  1.00  0.00    -0.014 A 
BRANCH  38  39
ATOM     39  C   UNL     1       8.450   0.057   5.007  1.00  0.00     0.031 A 
ATOM     40  C   UNL     1       8.650   0.125   6.495  1.00  0.00     0.074 A 
ATOM     41  C   UNL     1       8.858   1.080   4.227  1.00  0.00     0.049 A 
ATOM     42  N   UNL     1       9.192   1.075   7.211  1.00  0.00    -0.248 NA
ATOM     43  C   UNL     1       8.148  -1.011   7.286  1.00  0.00     0.031 C 
ATOM     44  C   UNL     1       8.648   1.181   2.780  1.00  0.00     0.029 A 
ATOM     45  N   UNL     1       9.506   2.249   4.546  1.00  0.00    -0.354 N 
ATOM     46  C   UNL     1       9.059   0.676   8.534  1.00  0.00     0.074 A 
ATOM     47  C   UNL     1       8.358  -0.590   8.525  1.00  0.00     0.031 C 
ATOM     48  C   UNL     1       9.158   2.343   2.339  1.00  0.00     0.029 A 
ATOM     49  C   UNL     1       9.703   3.085   3.471  1.00  0.00     0.049 A 
ATOM     50  H   UNL     1       9.801   2.468   5.460  1.00  0.00     0.167 HD
ATOM     51  C   UNL     1       9.508   1.288   9.656  1.00  0.00     0.034 A 
ATOM     52  C   UNL     1      10.253   4.314   3.403  1.00  0.00     0.034 A 
ATOM     53  C   UNL     1      10.257   2.515   9.662  1.00  0.00     0.049 A 
ATOM     54  C   UNL     1      10.787   4.949   4.658  1.00  0.00     0.074 A 
ATOM     55  C   UNL     1      10.843   3.159  10.737  1.00  0.00     0.029 A 
ATOM     56  N   UNL     1      10.526   3.283   8.540  1.00  0.00    -0.354 N 
ATOM     57  N   UNL     1      10.801   4.475   5.880  1.00  0.00    -0.248 NA
ATOM     58  C   UNL     1      11.410   6.274   4.522  1.00  0.00     0.031 C 
ATOM     59  C   UNL     1      11.460   4.323  10.266  1.00  0.00     0.029 A 
ATOM     60  C   UNL     1      11.264   4.398   8.896  1.00  0.00     0.049 A 
ATOM     61  H   UNL     1      10.235   3.068   7.625  1.00  0.00     0.167 HD
ATOM     62  C   UNL     1      11.458   5.427   6.651  1.00  0.00     0.074 A 
ATOM     63  C   UNL     1      11.848   6.495   5.754  1.00  0.00     0.031 C 
ATOM     64  C   UNL     1      11.699   5.425   7.985  1.00  0.00     0.034 A 
BRANCH  51  65
ATOM     65  C   UNL     1       9.262   0.597  10.970  1.00  0.00     0.023 A 
ATOM     66  C   UNL     1      10.009  -0.555  11.291  1.00  0.00     0.012 A 
ATOM     67  C   UNL     1       8.342   1.108  11.905  1.00  0.00     0.148 A 
ATOM     68  C   UNL     1       9.820  -1.208  12.507  1.00  0.00     0.002 A 
ATOM     69  C   UNL     1       8.188   0.474  13.133  1.00  0.00     0.091 A 
ATOM     70  F   UNL     1       7.624   2.191  11.572  1.00  0.00    -0.205 F 
ATOM     71  C   UNL     1       8.918  -0.689  13.431  1.00  0.00     0.022 A 
BRANCH  69  72
ATOM     72  S   UNL     1       7.103   1.107  14.417  1.00  0.00     0.127 S 
ATOM     73  O   UNL     1       5.986   0.166  14.350  1.00  0.00    -0.237 OA
ATOM     74  O   UNL     1       7.934   0.981  15.615  1.00  0.00    -0.237 OA
ATOM     75  O   UNL     1       6.793   2.478  14.037  1.00  0.00    -0.744 OA
ENDBRANCH  69  72
ENDBRANCH  51  65
BRANCH  52  76
ATOM     76  C   UNL     1      10.397   4.995   2.084  1.00  0.00     0.023 A 
ATOM     77  C   UNL     1      11.681   5.127   1.519  1.00  0.00     0.012 A 
ATOM     78  C   UNL     1       9.283   5.489   1.379  1.00  0.00     0.148 A 
ATOM     79  C   UNL     1      11.856   5.761   0.289  1.00  0.00     0.002 A 
ATOM     80  C   UNL     1       9.459   6.075   0.129  1.00  0.00     0.091 A 
ATOM     81  F   UNL     1       8.071   5.371   1.939  1.00  0.00    -0.205 F 
ATOM     82  C   UNL     1      10.746   6.226  -0.410  1.00  0.00     0.022 A 
BRANCH  80  83
ATOM     83  S   UNL     1       8.073   6.584  -0.894  1.00  0.00     0.127 S 
ATOM     84  O   UNL     1       8.107   8.036  -0.743  1.00  0.00    -0.237 OA
ATOM     85  O   UNL     1       8.469   6.092  -2.214  1.00  0.00    -0.237 OA
ATOM     86  O   UNL     1       6.909   5.911  -0.332  1.00  0.00    -0.744 OA
ENDBRANCH  80  83
ENDBRANCH  52  76
BRANCH  64  87
ATOM     87  C   UNL     1      12.438   6.601   8.565  1.00  0.00     0.023 A 
ATOM     88  C   UNL     1      11.768   7.829   8.728  1.00  0.00     0.012 A 
ATOM     89  C   UNL     1      13.762   6.467   9.028  1.00  0.00     0.148 A 
ATOM     90  C   UNL     1      12.411   8.914   9.323  1.00  0.00     0.002 A 
ATOM     91  C   UNL     1      14.382   7.540   9.659  1.00  0.00     0.091 A 
ATOM     92  F   UNL     1      14.389   5.296   8.845  1.00  0.00    -0.205 F 
ATOM     93  C   UNL     1      13.711   8.765   9.800  1.00  0.00     0.022 A 
BRANCH  91  94
ATOM     94  S   UNL     1      16.021   7.411  10.384  1.00  0.00     0.127 S 
ATOM     95  O   UNL     1      16.831   8.158   9.424  1.00  0.00    -0.237 OA
ATOM     96  O   UNL     1      15.844   8.073  11.677  1.00  0.00    -0.237 OA
ATOM     97  O   UNL     1      16.308   5.986  10.473  1.00  0.00    -0.744 OA
ENDBRANCH  91  94
ENDBRANCH  64  87
ENDBRANCH  38  39
ENDBRANCH  30  33
ENDBRANCH  28  29
ENDBRANCH   1  28
TORSDOF 18
