REMARK SMILES Cc1c(C(=O)NCCCCNC(=O)c2ccc(-c3c4nc(c(-c5cccc(S(=O)(=O)[O-])c5F)c5ccc([nH]5)c(-c5cccc(S(=O)(=O)[O-])c5F)c5nc(c(-c6cccc(S(=O)(=O)[O-])c6F)c6ccc3[nH]6)C=C5)C=C4)cc2)cccc1-n1c(C)cc(/C=C2/C(=O)NC(=S)N=C2O)c1C
REMARK SMILES IDX 8 1 7 2 6 3 4 4 5 5 3 7 1 8 2 9 80 10 77 11 79 12 78 13
REMARK SMILES IDX 81 14 82 15 96 16 83 17 84 18 85 19 97 20 86 21 87 22 88 23
REMARK SMILES IDX 94 24 89 25 90 26 93 27 91 28 92 30 95 31 9 33 10 34 11 35
REMARK SMILES IDX 12 36 13 38 14 39 15 40 76 41 16 42 75 43 17 44 18 45 19 46
REMARK SMILES IDX 69 47 20 48 74 49 68 50 70 51 21 52 73 53 67 54 66 55 22 57
REMARK SMILES IDX 54 58 34 59 53 60 35 61 38 62 52 63 71 64 36 65 37 66 51 68
REMARK SMILES IDX 72 69 39 70 23 71 24 72 32 73 25 74 27 75 33 76 26 77 28 78
REMARK SMILES IDX 29 79 30 80 31 81 55 82 56 83 64 84 57 85 59 86 65 87 58 88
REMARK SMILES IDX 60 89 61 90 62 91 63 92 40 93 41 94 49 95 42 96 44 97 50 98
REMARK SMILES IDX 43 99 45 100 46 101 47 102 48 103
REMARK H PARENT 6 6 90 29 95 32 11 37 70 56 38 67
REMARK Flexibility Score: inf
ROOT
ATOM      1  C   UNL     1       4.016  -1.876   1.539  1.00  0.00     0.023 C 
ENDROOT
BRANCH   1   2
ATOM      2  C   UNL     1       3.473  -2.360   0.185  1.00  0.00     0.116 C 
BRANCH   2   3
ATOM      3  N   UNL     1       2.139  -2.905   0.311  1.00  0.00    -0.352 N 
ATOM      4  C   UNL     1       0.847  -2.469   0.222  1.00  0.00     0.251 C 
ATOM      5  O   UNL     1       0.030  -3.380   0.422  1.00  0.00    -0.269 OA
ATOM      6  H   UNL     1       2.171  -3.866   0.520  1.00  0.00     0.163 HD
BRANCH   4   7
ATOM      7  C   UNL     1       0.291  -1.092  -0.091  1.00  0.00     0.044 A 
ATOM      8  C   UNL     1       2.310   0.464   0.290  1.00  0.00     0.047 C 
ATOM      9  C   UNL     1       0.897   0.186  -0.117  1.00  0.00    -0.014 A 
ATOM     10  C   UNL     1       0.086   1.317  -0.433  1.00  0.00     0.049 A 
ATOM     11  C   UNL     1      -1.121  -1.130  -0.295  1.00  0.00     0.014 A 
ATOM     12  C   UNL     1      -1.295   1.238  -0.620  1.00  0.00     0.027 A 
ATOM     13  C   UNL     1      -1.903   0.003  -0.536  1.00  0.00     0.003 A 
BRANCH  10  14
ATOM     14  N   UNL     1       0.621   2.622  -0.309  1.00  0.00    -0.318 N 
ATOM     15  C   UNL     1       1.452   3.251  -1.218  1.00  0.00     0.020 A 
ATOM     16  C   UNL     1       0.651   3.320   0.899  1.00  0.00     0.027 A 
ATOM     17  C   UNL     1       1.877   2.647  -2.513  1.00  0.00     0.065 C 
ATOM     18  C   UNL     1       1.803   4.466  -0.664  1.00  0.00     0.031 A 
ATOM     19  C   UNL     1       1.263   4.538   0.653  1.00  0.00    -0.003 A 
ATOM     20  C   UNL     1       0.168   2.665   2.156  1.00  0.00     0.065 C 
BRANCH  19  21
ATOM     21  C   UNL     1       1.547   5.625   1.540  1.00  0.00     0.029 C 
ATOM     22  C   UNL     1       0.910   6.126   2.615  1.00  0.00     0.102 C 
ATOM     23  C   UNL     1       1.616   7.224   3.327  1.00  0.00     0.262 C 
ATOM     24  C   UNL     1      -0.344   5.737   3.261  1.00  0.00     0.226 C 
ATOM     25  O   UNL     1       2.534   7.884   2.855  1.00  0.00    -0.269 OA
ATOM     26  N   UNL     1       1.161   7.446   4.599  1.00  0.00    -0.297 N 
ATOM     27  N   UNL     1      -0.725   6.034   4.449  1.00  0.00    -0.184 NA
ATOM     28  C   UNL     1       0.086   6.842   5.200  1.00  0.00     0.203 C 
ATOM     29  H   UNL     1       1.656   8.105   5.138  1.00  0.00     0.172 HD
ATOM     30  S   UNL     1      -0.213   7.203   6.809  1.00  0.00    -0.038 S 
BRANCH  24  31
ATOM     31  O   UNL     1      -1.221   5.068   2.514  1.00  0.00    -0.493 OA
ATOM     32  H   UNL     1      -1.000   4.823   1.637  1.00  0.00     0.295 HD
ENDBRANCH  24  31
ENDBRANCH  19  21
ENDBRANCH  10  14
ENDBRANCH   4   7
ENDBRANCH   2   3
ENDBRANCH   1   2
BRANCH   1  33
ATOM     33  C   UNL     1       4.848  -2.873   2.349  1.00  0.00     0.023 C 
BRANCH  33  34
ATOM     34  C   UNL     1       6.226  -3.185   1.783  1.00  0.00     0.116 C 
BRANCH  34  35
ATOM     35  N   UNL     1       7.079  -1.996   1.736  1.00  0.00    -0.352 N 
ATOM     36  C   UNL     1       8.225  -1.797   0.999  1.00  0.00     0.251 C 
ATOM     37  H   UNL     1       6.797  -1.243   2.304  1.00  0.00     0.163 HD
ATOM     38  O   UNL     1       9.124  -1.101   1.494  1.00  0.00    -0.269 OA
BRANCH  36  39
ATOM     39  C   UNL     1       8.316  -2.321  -0.373  1.00  0.00     0.039 A 
ATOM     40  C   UNL     1       9.505  -2.362  -1.109  1.00  0.00     0.014 A 
ATOM     41  C   UNL     1       7.115  -2.635  -0.996  1.00  0.00     0.014 A 
ATOM     42  C   UNL     1       9.441  -2.603  -2.483  1.00  0.00     0.010 A 
ATOM     43  C   UNL     1       7.090  -3.157  -2.244  1.00  0.00     0.010 A 
ATOM     44  C   UNL     1       8.207  -2.934  -3.034  1.00  0.00    -0.014 A 
BRANCH  44  45
ATOM     45  C   UNL     1       7.845  -2.986  -4.433  1.00  0.00     0.031 A 
ATOM     46  C   UNL     1       8.246  -4.132  -5.235  1.00  0.00     0.074 A 
ATOM     47  C   UNL     1       6.849  -2.145  -4.800  1.00  0.00     0.049 A 
ATOM     48  N   UNL     1       7.972  -4.247  -6.480  1.00  0.00    -0.248 NA
ATOM     49  C   UNL     1       8.992  -5.250  -4.682  1.00  0.00     0.031 C 
ATOM     50  C   UNL     1       5.845  -2.293  -5.842  1.00  0.00     0.029 A 
ATOM     51  N   UNL     1       6.507  -0.932  -4.231  1.00  0.00    -0.354 N 
ATOM     52  C   UNL     1       8.281  -5.533  -6.852  1.00  0.00     0.074 A 
ATOM     53  C   UNL     1       9.010  -6.076  -5.731  1.00  0.00     0.031 C 
ATOM     54  C   UNL     1       5.189  -1.124  -5.987  1.00  0.00     0.029 A 
ATOM     55  C   UNL     1       5.874  -0.131  -5.175  1.00  0.00     0.049 A 
ATOM     56  H   UNL     1       6.684  -0.674  -3.298  1.00  0.00     0.167 HD
ATOM     57  C   UNL     1       7.757  -5.990  -8.023  1.00  0.00     0.034 A 
ATOM     58  C   UNL     1       6.567   0.951  -5.661  1.00  0.00     0.034 A 
ATOM     59  C   UNL     1       7.052  -4.890  -8.723  1.00  0.00     0.049 A 
ATOM     60  C   UNL     1       7.099   0.706  -7.074  1.00  0.00     0.074 A 
ATOM     61  C   UNL     1       5.737  -4.457  -8.793  1.00  0.00     0.029 A 
ATOM     62  N   UNL     1       7.814  -3.826  -9.174  1.00  0.00    -0.354 N 
ATOM     63  N   UNL     1       6.823  -0.343  -7.806  1.00  0.00    -0.248 NA
ATOM     64  C   UNL     1       8.039   1.605  -7.741  1.00  0.00     0.031 C 
ATOM     65  C   UNL     1       5.749  -3.077  -9.197  1.00  0.00     0.029 A 
ATOM     66  C   UNL     1       7.061  -2.687  -9.411  1.00  0.00     0.049 A 
ATOM     67  H   UNL     1       8.788  -3.874  -9.313  1.00  0.00     0.167 HD
ATOM     68  C   UNL     1       7.655  -0.379  -8.891  1.00  0.00     0.074 A 
ATOM     69  C   UNL     1       8.365   0.892  -8.831  1.00  0.00     0.031 C 
ATOM     70  C   UNL     1       7.769  -1.447  -9.741  1.00  0.00     0.034 A 
BRANCH  57  71
ATOM     71  C   UNL     1       7.707  -7.438  -8.477  1.00  0.00     0.023 A 
ATOM     72  C   UNL     1       6.868  -7.725  -9.576  1.00  0.00     0.012 A 
ATOM     73  C   UNL     1       8.369  -8.553  -7.904  1.00  0.00     0.148 A 
ATOM     74  C   UNL     1       6.658  -9.027 -10.044  1.00  0.00     0.002 A 
ATOM     75  C   UNL     1       8.140  -9.857  -8.350  1.00  0.00     0.091 A 
ATOM     76  F   UNL     1       9.267  -8.382  -6.939  1.00  0.00    -0.205 F 
ATOM     77  C   UNL     1       7.282 -10.098  -9.421  1.00  0.00     0.022 A 
BRANCH  75  78
ATOM     78  S   UNL     1       8.892 -11.302  -7.568  1.00  0.00     0.127 S 
ATOM     79  O   UNL     1       7.715 -12.083  -7.181  1.00  0.00    -0.237 OA
ATOM     80  O   UNL     1       9.670 -11.880  -8.662  1.00  0.00    -0.237 OA
ATOM     81  O   UNL     1       9.678 -10.808  -6.444  1.00  0.00    -0.744 OA
ENDBRANCH  75  78
ENDBRANCH  57  71
BRANCH  58  82
ATOM     82  C   UNL     1       7.320   1.639  -4.544  1.00  0.00     0.023 A 
ATOM     83  C   UNL     1       6.537   2.074  -3.442  1.00  0.00     0.012 A 
ATOM     84  C   UNL     1       8.690   1.398  -4.334  1.00  0.00     0.148 A 
ATOM     85  C   UNL     1       7.040   2.002  -2.139  1.00  0.00     0.002 A 
ATOM     86  C   UNL     1       9.193   1.366  -3.034  1.00  0.00     0.091 A 
ATOM     87  F   UNL     1       9.476   1.137  -5.384  1.00  0.00    -0.205 F 
ATOM     88  C   UNL     1       8.354   1.593  -1.932  1.00  0.00     0.022 A 
BRANCH  86  89
ATOM     89  S   UNL     1      10.915   0.940  -2.746  1.00  0.00     0.127 S 
ATOM     90  O   UNL     1      11.570   2.232  -2.934  1.00  0.00    -0.237 OA
ATOM     91  O   UNL     1      10.914   0.458  -1.366  1.00  0.00    -0.237 OA
ATOM     92  O   UNL     1      11.210  -0.085  -3.736  1.00  0.00    -0.744 OA
ENDBRANCH  86  89
ENDBRANCH  58  82
BRANCH  70  93
ATOM     93  C   UNL     1       8.602  -1.357 -11.003  1.00  0.00     0.023 A 
ATOM     94  C   UNL     1       8.550  -0.183 -11.783  1.00  0.00     0.012 A 
ATOM     95  C   UNL     1       9.329  -2.448 -11.533  1.00  0.00     0.148 A 
ATOM     96  C   UNL     1       9.252  -0.068 -12.986  1.00  0.00     0.002 A 
ATOM     97  C   UNL     1       9.918  -2.372 -12.789  1.00  0.00     0.091 A 
ATOM     98  F   UNL     1       9.509  -3.554 -10.803  1.00  0.00    -0.205 F 
ATOM     99  C   UNL     1       9.918  -1.170 -13.500  1.00  0.00     0.022 A 
BRANCH  97 100
ATOM    100  S   UNL     1      10.578  -3.824 -13.620  1.00  0.00     0.127 S 
ATOM    101  O   UNL     1       9.956  -3.717 -14.942  1.00  0.00    -0.237 OA
ATOM    102  O   UNL     1      12.013  -3.556 -13.597  1.00  0.00    -0.237 OA
ATOM    103  O   UNL     1      10.128  -4.967 -12.840  1.00  0.00    -0.744 OA
ENDBRANCH  97 100
ENDBRANCH  70  93
ENDBRANCH  44  45
ENDBRANCH  36  39
ENDBRANCH  34  35
ENDBRANCH  33  34
ENDBRANCH   1  33
TORSDOF 17
