REMARK SMILES CC(C)C[C@H](NC(=O)CNC(=O)[C@@H]([NH3+])C(C)C)C(=O)NCCCCNC(=O)c1ccc(-c2c3nc(c(-c4cccc(S(=O)(=O)[O-])c4F)c4ccc([nH]4)c(-c4cccc(S(=O)(=O)[O-])c4F)c4nc(c(-c5cccc(S(=O)(=O)[O-])c5F)c5ccc2[nH]5)C=C4)C=C3)cc1
REMARK SMILES IDX 21 1 20 2 18 3 19 4 5 6 4 7 2 8 1 9 3 10 6 11 7 12 8 14 9 15
REMARK SMILES IDX 10 16 11 17 12 19 13 20 14 21 15 25 16 26 17 27 22 28 23 29
REMARK SMILES IDX 24 30 25 31 26 32 27 34 28 35 29 36 90 37 30 38 89 39 31 40
REMARK SMILES IDX 32 41 33 42 83 43 34 44 88 45 82 46 84 47 35 48 87 49 81 50
REMARK SMILES IDX 80 51 36 53 68 54 48 55 67 56 49 57 52 58 66 59 85 60 50 61
REMARK SMILES IDX 51 62 65 64 86 65 53 66 37 67 38 68 46 69 39 70 41 71 47 72
REMARK SMILES IDX 40 73 42 74 43 75 44 76 45 77 69 78 70 79 78 80 71 81 73 82
REMARK SMILES IDX 79 83 72 84 74 85 75 86 76 87 77 88 54 89 55 90 63 91 56 92
REMARK SMILES IDX 58 93 64 94 57 95 59 96 60 97 61 98 62 99
REMARK H PARENT 20 5 6 13 10 18 14 22 14 23 14 24 25 33 84 52 52 63
REMARK Flexibility Score: inf
ROOT
ATOM      1  C   UNL     1      -3.264   0.889  -3.308  1.00  0.00     0.116 C 
ENDROOT
BRANCH   1   2
ATOM      2  N   UNL     1      -3.823   0.636  -1.989  1.00  0.00    -0.354 N 
ATOM      3  C   UNL     1      -3.259   0.878  -0.764  1.00  0.00     0.242 C 
ATOM      4  O   UNL     1      -3.934   0.712   0.251  1.00  0.00    -0.273 OA
ATOM      5  H   UNL     1      -4.724   0.239  -1.975  1.00  0.00     0.163 HD
BRANCH   3   6
ATOM      6  C   UNL     1      -1.810   1.398  -0.695  1.00  0.00     0.171 C 
BRANCH   6   7
ATOM      7  C   UNL     1      -1.731   2.814  -1.275  1.00  0.00     0.038 C 
BRANCH   7   8
ATOM      8  C   UNL     1      -2.842   3.836  -0.958  1.00  0.00    -0.015 C 
ATOM      9  C   UNL     1      -3.033   4.056   0.543  1.00  0.00     0.007 C 
ATOM     10  C   UNL     1      -2.472   5.174  -1.616  1.00  0.00     0.007 C 
ENDBRANCH   7   8
ENDBRANCH   6   7
BRANCH   6  11
ATOM     11  N   UNL     1      -0.999   0.362  -1.379  1.00  0.00    -0.343 N 
ATOM     12  C   UNL     1       0.276   0.184  -1.788  1.00  0.00     0.240 C 
ATOM     13  H   UNL     1      -1.550  -0.424  -1.599  1.00  0.00     0.164 HD
ATOM     14  O   UNL     1       0.529  -0.924  -2.281  1.00  0.00    -0.273 OA
BRANCH  12  15
ATOM     15  C   UNL     1       1.410   1.188  -1.599  1.00  0.00     0.216 C 
BRANCH  15  16
ATOM     16  N   UNL     1       1.179   2.510  -2.142  1.00  0.00    -0.342 N 
ATOM     17  C   UNL     1       1.307   3.731  -1.552  1.00  0.00     0.278 C 
ATOM     18  H   UNL     1       0.884   2.529  -3.081  1.00  0.00     0.164 HD
ATOM     19  O   UNL     1       1.050   4.723  -2.241  1.00  0.00    -0.268 OA
BRANCH  17  20
ATOM     20  C   UNL     1       1.771   3.896  -0.081  1.00  0.00     0.273 C 
BRANCH  20  21
ATOM     21  N   UNL     1       1.087   2.945   0.828  1.00  0.00    -0.347 N 
ATOM     22  H   UNL     1       1.315   1.990   0.554  1.00  0.00     0.345 HD
ATOM     23  H   UNL     1       0.078   3.084   0.769  1.00  0.00     0.345 HD
ATOM     24  H   UNL     1       1.397   3.107   1.786  1.00  0.00     0.345 HD
ENDBRANCH  20  21
BRANCH  20  25
ATOM     25  C   UNL     1       3.311   3.823  -0.010  1.00  0.00     0.051 C 
ATOM     26  C   UNL     1       3.921   5.008  -0.775  1.00  0.00     0.014 C 
ATOM     27  C   UNL     1       3.829   3.844   1.431  1.00  0.00     0.014 C 
ENDBRANCH  20  25
ENDBRANCH  17  20
ENDBRANCH  15  16
ENDBRANCH  12  15
ENDBRANCH   6  11
ENDBRANCH   3   6
ENDBRANCH   1   2
BRANCH   1  28
ATOM     28  C   UNL     1      -3.705  -0.144  -4.330  1.00  0.00     0.023 C 
BRANCH  28  29
ATOM     29  C   UNL     1      -5.179  -0.047  -4.702  1.00  0.00     0.023 C 
BRANCH  29  30
ATOM     30  C   UNL     1      -5.628   1.342  -5.137  1.00  0.00     0.116 C 
BRANCH  30  31
ATOM     31  N   UNL     1      -4.863   1.852  -6.269  1.00  0.00    -0.352 N 
ATOM     32  C   UNL     1      -5.335   2.304  -7.478  1.00  0.00     0.251 C 
ATOM     33  H   UNL     1      -3.885   1.876  -6.153  1.00  0.00     0.163 HD
ATOM     34  O   UNL     1      -4.568   2.553  -8.402  1.00  0.00    -0.269 OA
BRANCH  32  35
ATOM     35  C   UNL     1      -6.792   2.454  -7.643  1.00  0.00     0.039 A 
ATOM     36  C   UNL     1      -7.431   1.800  -8.696  1.00  0.00     0.014 A 
ATOM     37  C   UNL     1      -7.524   3.160  -6.685  1.00  0.00     0.014 A 
ATOM     38  C   UNL     1      -8.825   1.795  -8.748  1.00  0.00     0.010 A 
ATOM     39  C   UNL     1      -8.910   3.075  -6.689  1.00  0.00     0.010 A 
ATOM     40  C   UNL     1      -9.575   2.398  -7.723  1.00  0.00    -0.014 A 
BRANCH  40  41
ATOM     41  C   UNL     1     -11.057   2.333  -7.708  1.00  0.00     0.031 A 
ATOM     42  C   UNL     1     -11.862   3.602  -7.773  1.00  0.00     0.074 A 
ATOM     43  C   UNL     1     -11.673   1.146  -7.540  1.00  0.00     0.049 A 
ATOM     44  N   UNL     1     -13.158   3.758  -7.710  1.00  0.00    -0.248 NA
ATOM     45  C   UNL     1     -11.112   4.864  -7.890  1.00  0.00     0.031 C 
ATOM     46  C   UNL     1     -10.999  -0.144  -7.373  1.00  0.00     0.029 A 
ATOM     47  N   UNL     1     -13.007   0.834  -7.454  1.00  0.00    -0.354 N 
ATOM     48  C   UNL     1     -13.375   5.130  -7.739  1.00  0.00     0.074 A 
ATOM     49  C   UNL     1     -12.077   5.765  -7.783  1.00  0.00     0.031 C 
ATOM     50  C   UNL     1     -11.922  -1.107  -7.215  1.00  0.00     0.029 A 
ATOM     51  C   UNL     1     -13.250  -0.503  -7.240  1.00  0.00     0.049 A 
ATOM     52  H   UNL     1     -13.723   1.505  -7.538  1.00  0.00     0.167 HD
ATOM     53  C   UNL     1     -14.549   5.803  -7.762  1.00  0.00     0.034 A 
ATOM     54  C   UNL     1     -14.412  -1.165  -7.079  1.00  0.00     0.034 A 
ATOM     55  C   UNL     1     -15.837   5.166  -7.773  1.00  0.00     0.049 A 
ATOM     56  C   UNL     1     -15.705  -0.399  -7.163  1.00  0.00     0.074 A 
ATOM     57  C   UNL     1     -17.084   5.752  -7.896  1.00  0.00     0.029 A 
ATOM     58  N   UNL     1     -16.045   3.801  -7.652  1.00  0.00    -0.354 N 
ATOM     59  N   UNL     1     -15.893   0.883  -7.361  1.00  0.00    -0.248 NA
ATOM     60  C   UNL     1     -16.948  -1.175  -7.040  1.00  0.00     0.031 C 
ATOM     61  C   UNL     1     -18.048   4.740  -7.828  1.00  0.00     0.029 A 
ATOM     62  C   UNL     1     -17.400   3.524  -7.689  1.00  0.00     0.049 A 
ATOM     63  H   UNL     1     -15.333   3.128  -7.555  1.00  0.00     0.167 HD
ATOM     64  C   UNL     1     -17.270   1.062  -7.424  1.00  0.00     0.074 A 
ATOM     65  C   UNL     1     -17.868  -0.247  -7.263  1.00  0.00     0.031 C 
ATOM     66  C   UNL     1     -17.977   2.208  -7.584  1.00  0.00     0.034 A 
BRANCH  53  67
ATOM     67  C   UNL     1     -14.492   7.306  -7.840  1.00  0.00     0.023 A 
ATOM     68  C   UNL     1     -14.063   7.925  -9.032  1.00  0.00     0.012 A 
ATOM     69  C   UNL     1     -14.908   8.105  -6.758  1.00  0.00     0.148 A 
ATOM     70  C   UNL     1     -14.014   9.314  -9.135  1.00  0.00     0.002 A 
ATOM     71  C   UNL     1     -14.901   9.489  -6.884  1.00  0.00     0.091 A 
ATOM     72  F   UNL     1     -15.290   7.500  -5.624  1.00  0.00    -0.205 F 
ATOM     73  C   UNL     1     -14.443  10.095  -8.066  1.00  0.00     0.022 A 
BRANCH  71  74
ATOM     74  S   UNL     1     -15.509  10.582  -5.595  1.00  0.00     0.127 S 
ATOM     75  O   UNL     1     -14.268  11.186  -5.111  1.00  0.00    -0.237 OA
ATOM     76  O   UNL     1     -16.376  11.491  -6.346  1.00  0.00    -0.237 OA
ATOM     77  O   UNL     1     -16.204   9.730  -4.641  1.00  0.00    -0.744 OA
ENDBRANCH  71  74
ENDBRANCH  53  67
BRANCH  54  78
ATOM     78  C   UNL     1     -14.409  -2.645  -6.897  1.00  0.00     0.023 A 
ATOM     79  C   UNL     1     -14.886  -3.468  -7.936  1.00  0.00     0.012 A 
ATOM     80  C   UNL     1     -13.917  -3.241  -5.720  1.00  0.00     0.148 A 
ATOM     81  C   UNL     1     -14.904  -4.856  -7.794  1.00  0.00     0.002 A 
ATOM     82  C   UNL     1     -13.887  -4.626  -5.607  1.00  0.00     0.091 A 
ATOM     83  F   UNL     1     -13.478  -2.440  -4.739  1.00  0.00    -0.205 F 
ATOM     84  C   UNL     1     -14.396  -5.435  -6.634  1.00  0.00     0.022 A 
BRANCH  82  85
ATOM     85  S   UNL     1     -13.131  -5.461  -4.207  1.00  0.00     0.127 S 
ATOM     86  O   UNL     1     -14.298  -6.000  -3.515  1.00  0.00    -0.237 OA
ATOM     87  O   UNL     1     -12.290  -6.459  -4.869  1.00  0.00    -0.237 OA
ATOM     88  O   UNL     1     -12.388  -4.432  -3.492  1.00  0.00    -0.744 OA
ENDBRANCH  82  85
ENDBRANCH  54  78
BRANCH  66  89
ATOM     89  C   UNL     1     -19.478   2.103  -7.634  1.00  0.00     0.023 A 
ATOM     90  C   UNL     1     -20.201   1.832  -6.456  1.00  0.00     0.012 A 
ATOM     91  C   UNL     1     -20.175   2.355  -8.832  1.00  0.00     0.148 A 
ATOM     92  C   UNL     1     -21.594   1.781  -6.476  1.00  0.00     0.002 A 
ATOM     93  C   UNL     1     -21.565   2.353  -8.834  1.00  0.00     0.091 A 
ATOM     94  F   UNL     1     -19.468   2.594  -9.946  1.00  0.00    -0.205 F 
ATOM     95  C   UNL     1     -22.276   2.054  -7.660  1.00  0.00     0.022 A 
BRANCH  93  96
ATOM     96  S   UNL     1     -22.525   2.789 -10.287  1.00  0.00     0.127 S 
ATOM     97  O   UNL     1     -23.054   1.489 -10.696  1.00  0.00    -0.237 OA
ATOM     98  O   UNL     1     -23.523   3.708  -9.737  1.00  0.00    -0.237 OA
ATOM     99  O   UNL     1     -21.588   3.404 -11.218  1.00  0.00    -0.744 OA
ENDBRANCH  93  96
ENDBRANCH  66  89
ENDBRANCH  40  41
ENDBRANCH  32  35
ENDBRANCH  30  31
ENDBRANCH  29  30
ENDBRANCH  28  29
ENDBRANCH   1  28
TORSDOF 22
