REMARK SMILES Cc1nnc(SCC2=C(C(=O)NCCCCNC(=O)c3ccc(-c4c5nc(c(-c6cccc(S(=O)(=O)[O-])c6F)c6ccc([nH]6)c(-c6cccc(S(=O)(=O)[O-])c6F)c6nc(c(-c7cccc(S(=O)(=O)[O-])c7F)c7ccc4[nH]7)C=C6)C=C5)cc3)N3C(=O)[C@H](NC(=O)c4ccc(F)cc4F)[C@H]3SC2)s1
REMARK SMILES IDX 14 1 13 2 12 3 10 4 11 5 9 7 8 8 100 9 83 10 99 11 84 12
REMARK SMILES IDX 98 13 85 14 86 15 7 16 6 17 5 18 1 19 2 20 3 21 101 22 4 23
REMARK SMILES IDX 87 24 88 25 89 27 90 28 91 29 96 30 92 31 95 32 97 33 93 34
REMARK SMILES IDX 94 35 15 36 16 37 17 38 18 39 19 41 20 42 21 43 82 44 22 45
REMARK SMILES IDX 81 46 23 47 24 48 25 49 75 50 26 51 80 52 74 53 76 54 27 55
REMARK SMILES IDX 79 56 73 57 72 58 28 60 60 61 40 62 59 63 41 64 44 65 58 66
REMARK SMILES IDX 77 67 42 68 43 69 57 71 78 72 45 73 29 74 30 75 38 76 31 77
REMARK SMILES IDX 33 78 39 79 32 80 34 81 35 82 36 83 37 84 61 85 62 86 70 87
REMARK SMILES IDX 63 88 65 89 71 90 64 91 66 92 67 93 68 94 69 95 46 96 47 97
REMARK SMILES IDX 55 98 48 99 50 100 56 101 49 102 51 103 52 104 53 105 54 106
REMARK H PARENT 12 6 87 26 17 40 76 59 44 70
REMARK Flexibility Score: inf
ROOT
ATOM      1  C   UNL     1       4.980  -1.357  -2.439  1.00  0.00     0.023 C 
ENDROOT
BRANCH   1   2
ATOM      2  C   UNL     1       3.549  -1.655  -1.990  1.00  0.00     0.116 C 
BRANCH   2   3
ATOM      3  N   UNL     1       3.440  -2.873  -1.228  1.00  0.00    -0.351 N 
ATOM      4  C   UNL     1       3.403  -3.255   0.062  1.00  0.00     0.268 C 
ATOM      5  O   UNL     1       2.756  -4.303   0.205  1.00  0.00    -0.268 OA
ATOM      6  H   UNL     1       3.373  -3.653  -1.825  1.00  0.00     0.163 HD
BRANCH   4   7
ATOM      7  C   UNL     1       4.055  -2.633   1.310  1.00  0.00     0.111 C 
ATOM      8  C   UNL     1       4.483  -1.363   1.614  1.00  0.00    -0.020 C 
ATOM      9  C   UNL     1       5.132  -0.950   2.954  1.00  0.00     0.106 C 
ATOM     10  N   UNL     1       4.080  -3.532   2.366  1.00  0.00    -0.290 N 
ATOM     11  S   UNL     1       5.451  -2.249   4.154  1.00  0.00    -0.129 SA
ATOM     12  C   UNL     1       3.912  -4.848   2.658  1.00  0.00     0.253 C 
ATOM     13  C   UNL     1       3.912  -3.059   3.710  1.00  0.00     0.181 C 
ATOM     14  O   UNL     1       3.937  -5.884   2.034  1.00  0.00    -0.272 OA
ATOM     15  C   UNL     1       3.773  -4.510   4.188  1.00  0.00     0.206 C 
BRANCH   8  16
ATOM     16  C   UNL     1       4.454  -0.125   0.759  1.00  0.00     0.111 C 
BRANCH  16  17
ATOM     17  S   UNL     1       3.208   1.106   1.226  1.00  0.00    -0.089 SA
BRANCH  17  18
ATOM     18  C   UNL     1       1.691   0.383   0.755  1.00  0.00     0.174 A 
ATOM     19  C   UNL     1      -2.016  -0.187  -0.058  1.00  0.00     0.081 C 
ATOM     20  C   UNL     1      -0.557  -0.170   0.222  1.00  0.00     0.115 A 
ATOM     21  N   UNL     1       0.190  -1.238   0.403  1.00  0.00    -0.143 NA
ATOM     22  S   UNL     1       0.298   1.312   0.379  1.00  0.00    -0.091 S 
ATOM     23  N   UNL     1       1.493  -0.913   0.726  1.00  0.00    -0.132 NA
ENDBRANCH  17  18
ENDBRANCH  16  17
ENDBRANCH   8  16
BRANCH  15  24
ATOM     24  N   UNL     1       2.480  -4.890   4.840  1.00  0.00    -0.338 N 
ATOM     25  C   UNL     1       1.843  -4.334   5.931  1.00  0.00     0.254 C 
ATOM     26  H   UNL     1       2.013  -5.652   4.428  1.00  0.00     0.164 HD
ATOM     27  O   UNL     1       0.906  -4.907   6.479  1.00  0.00    -0.269 OA
BRANCH  25  28
ATOM     28  C   UNL     1       2.297  -3.053   6.496  1.00  0.00     0.075 A 
ATOM     29  C   UNL     1       2.985  -3.028   7.712  1.00  0.00     0.020 A 
ATOM     30  C   UNL     1       1.972  -1.850   5.864  1.00  0.00     0.138 A 
ATOM     31  C   UNL     1       3.440  -1.806   8.217  1.00  0.00     0.040 A 
ATOM     32  C   UNL     1       2.475  -0.640   6.328  1.00  0.00     0.079 A 
ATOM     33  F   UNL     1       1.210  -1.842   4.762  1.00  0.00    -0.206 F 
ATOM     34  C   UNL     1       3.214  -0.631   7.501  1.00  0.00     0.126 A 
ATOM     35  F   UNL     1       3.704   0.528   7.961  1.00  0.00    -0.207 F 
ENDBRANCH  25  28
ENDBRANCH  15  24
ENDBRANCH   4   7
ENDBRANCH   2   3
ENDBRANCH   1   2
BRANCH   1  36
ATOM     36  C   UNL     1       5.146  -1.437  -3.952  1.00  0.00     0.023 C 
BRANCH  36  37
ATOM     37  C   UNL     1       4.307  -0.420  -4.714  1.00  0.00     0.116 C 
BRANCH  37  38
ATOM     38  N   UNL     1       4.682   0.969  -4.465  1.00  0.00    -0.352 N 
ATOM     39  C   UNL     1       4.614   2.009  -5.368  1.00  0.00     0.251 C 
ATOM     40  H   UNL     1       5.015   1.184  -3.564  1.00  0.00     0.163 HD
ATOM     41  O   UNL     1       5.007   3.134  -5.086  1.00  0.00    -0.269 OA
BRANCH  39  42
ATOM     42  C   UNL     1       4.090   1.694  -6.711  1.00  0.00     0.039 A 
ATOM     43  C   UNL     1       4.947   1.783  -7.810  1.00  0.00     0.014 A 
ATOM     44  C   UNL     1       2.829   1.105  -6.823  1.00  0.00     0.014 A 
ATOM     45  C   UNL     1       4.563   1.200  -9.018  1.00  0.00     0.010 A 
ATOM     46  C   UNL     1       2.495   0.446  -7.997  1.00  0.00     0.010 A 
ATOM     47  C   UNL     1       3.358   0.485  -9.106  1.00  0.00    -0.014 A 
BRANCH  47  48
ATOM     48  C   UNL     1       2.956  -0.230 -10.344  1.00  0.00     0.031 A 
ATOM     49  C   UNL     1       1.672   0.154 -11.026  1.00  0.00     0.074 A 
ATOM     50  C   UNL     1       3.670  -1.286 -10.785  1.00  0.00     0.049 A 
ATOM     51  N   UNL     1       1.061  -0.426 -12.024  1.00  0.00    -0.248 NA
ATOM     52  C   UNL     1       0.962   1.328 -10.488  1.00  0.00     0.031 C 
ATOM     53  C   UNL     1       4.899  -1.796 -10.175  1.00  0.00     0.029 A 
ATOM     54  N   UNL     1       3.442  -2.144 -11.834  1.00  0.00    -0.354 N 
ATOM     55  C   UNL     1      -0.123   0.277 -12.200  1.00  0.00     0.074 A 
ATOM     56  C   UNL     1      -0.165   1.304 -11.183  1.00  0.00     0.031 C 
ATOM     57  C   UNL     1       5.315  -2.877 -10.857  1.00  0.00     0.029 A 
ATOM     58  C   UNL     1       4.361  -3.165 -11.923  1.00  0.00     0.049 A 
ATOM     59  H   UNL     1       2.691  -2.039 -12.462  1.00  0.00     0.167 HD
ATOM     60  C   UNL     1      -1.081   0.103 -13.139  1.00  0.00     0.034 A 
ATOM     61  C   UNL     1       4.416  -4.226 -12.755  1.00  0.00     0.034 A 
ATOM     62  C   UNL     1      -1.013  -0.890 -14.173  1.00  0.00     0.049 A 
ATOM     63  C   UNL     1       3.346  -4.389 -13.803  1.00  0.00     0.074 A 
ATOM     64  C   UNL     1      -1.887  -1.093 -15.225  1.00  0.00     0.029 A 
ATOM     65  N   UNL     1      -0.023  -1.853 -14.280  1.00  0.00    -0.354 N 
ATOM     66  N   UNL     1       2.303  -3.631 -14.040  1.00  0.00    -0.248 NA
ATOM     67  C   UNL     1       3.473  -5.534 -14.717  1.00  0.00     0.031 C 
ATOM     68  C   UNL     1      -1.446  -2.205 -15.947  1.00  0.00     0.029 A 
ATOM     69  C   UNL     1      -0.270  -2.663 -15.373  1.00  0.00     0.049 A 
ATOM     70  H   UNL     1       0.743  -1.947 -13.669  1.00  0.00     0.167 HD
ATOM     71  C   UNL     1       1.680  -4.177 -15.156  1.00  0.00     0.074 A 
ATOM     72  C   UNL     1       2.463  -5.328 -15.552  1.00  0.00     0.031 C 
ATOM     73  C   UNL     1       0.557  -3.764 -15.793  1.00  0.00     0.034 A 
BRANCH  60  74
ATOM     74  C   UNL     1      -2.267   1.030 -13.112  1.00  0.00     0.023 A 
ATOM     75  C   UNL     1      -2.103   2.389 -13.450  1.00  0.00     0.012 A 
ATOM     76  C   UNL     1      -3.551   0.543 -12.802  1.00  0.00     0.148 A 
ATOM     77  C   UNL     1      -3.192   3.259 -13.439  1.00  0.00     0.002 A 
ATOM     78  C   UNL     1      -4.640   1.405 -12.845  1.00  0.00     0.091 A 
ATOM     79  F   UNL     1      -3.682  -0.747 -12.463  1.00  0.00    -0.205 F 
ATOM     80  C   UNL     1      -4.461   2.764 -13.149  1.00  0.00     0.022 A 
BRANCH  78  81
ATOM     81  S   UNL     1      -6.325   0.849 -12.570  1.00  0.00     0.127 S 
ATOM     82  O   UNL     1      -6.642   1.492 -11.295  1.00  0.00    -0.237 OA
ATOM     83  O   UNL     1      -7.024   1.409 -13.726  1.00  0.00    -0.237 OA
ATOM     84  O   UNL     1      -6.270  -0.606 -12.537  1.00  0.00    -0.744 OA
ENDBRANCH  78  81
ENDBRANCH  60  74
BRANCH  61  85
ATOM     85  C   UNL     1       5.543  -5.198 -12.660  1.00  0.00     0.023 A 
ATOM     86  C   UNL     1       6.495  -5.260 -13.697  1.00  0.00     0.012 A 
ATOM     87  C   UNL     1       5.685  -6.051 -11.549  1.00  0.00     0.148 A 
ATOM     88  C   UNL     1       7.546  -6.177 -13.646  1.00  0.00     0.002 A 
ATOM     89  C   UNL     1       6.765  -6.923 -11.478  1.00  0.00     0.091 A 
ATOM     90  F   UNL     1       4.765  -5.983 -10.576  1.00  0.00    -0.205 F 
ATOM     91  C   UNL     1       7.686  -7.002 -12.534  1.00  0.00     0.022 A 
BRANCH  89  92
ATOM     92  S   UNL     1       7.098  -7.931 -10.029  1.00  0.00     0.127 S 
ATOM     93  O   UNL     1       6.863  -9.278 -10.543  1.00  0.00    -0.237 OA
ATOM     94  O   UNL     1       8.500  -7.610  -9.758  1.00  0.00    -0.237 OA
ATOM     95  O   UNL     1       6.167  -7.473  -9.008  1.00  0.00    -0.744 OA
ENDBRANCH  89  92
ENDBRANCH  61  85
BRANCH  73  96
ATOM     96  C   UNL     1       0.129  -4.501 -17.034  1.00  0.00     0.023 A 
ATOM     97  C   UNL     1      -0.462  -5.775 -16.935  1.00  0.00     0.012 A 
ATOM     98  C   UNL     1       0.196  -3.861 -18.288  1.00  0.00     0.148 A 
ATOM     99  C   UNL     1      -0.966  -6.407 -18.072  1.00  0.00     0.002 A 
ATOM    100  C   UNL     1      -0.356  -4.473 -19.404  1.00  0.00     0.091 A 
ATOM    101  F   UNL     1       0.777  -2.654 -18.357  1.00  0.00    -0.205 F 
ATOM    102  C   UNL     1      -0.928  -5.751 -19.301  1.00  0.00     0.022 A 
BRANCH 100 103
ATOM    103  S   UNL     1      -0.450  -3.660 -21.003  1.00  0.00     0.127 S 
ATOM    104  O   UNL     1       0.439  -4.492 -21.813  1.00  0.00    -0.237 OA
ATOM    105  O   UNL     1      -1.871  -3.787 -21.329  1.00  0.00    -0.237 OA
ATOM    106  O   UNL     1       0.006  -2.293 -20.791  1.00  0.00    -0.744 OA
ENDBRANCH 100 103
ENDBRANCH  73  96
ENDBRANCH  47  48
ENDBRANCH  39  42
ENDBRANCH  37  38
ENDBRANCH  36  37
ENDBRANCH   1  36
TORSDOF 19
