REMARK SMILES C=C(C)COc1ccc2c(C)c(CC(=O)NCCCCNC(=O)c3ccc(-c4c5nc(c(-c6cccc(S(=O)(=O)[O-])c6F)c6ccc([nH]6)c(-c6cccc(S(=O)(=O)[O-])c6F)c6nc(c(-c7cccc(S(=O)(=O)[O-])c7F)c7ccc4[nH]7)C=C6)C=C5)cc3)c(=O)oc2c1
REMARK SMILES IDX 18 1 17 2 16 3 14 4 15 5 13 7 12 8 6 9 7 10 91 11 8 12 90 13
REMARK SMILES IDX 9 14 89 15 10 16 87 17 11 18 88 19 5 20 4 21 2 22 1 23 3 24
REMARK SMILES IDX 19 25 20 26 21 27 22 28 23 30 24 31 25 32 86 33 26 34 85 35
REMARK SMILES IDX 27 36 28 37 29 38 79 39 30 40 84 41 78 42 80 43 31 44 83 45
REMARK SMILES IDX 77 46 76 47 32 49 64 50 44 51 63 52 45 53 48 54 62 55 81 56
REMARK SMILES IDX 46 57 47 58 61 60 82 61 49 62 33 63 34 64 42 65 35 66 37 67
REMARK SMILES IDX 43 68 36 69 38 70 39 71 40 72 41 73 65 74 66 75 74 76 67 77
REMARK SMILES IDX 69 78 75 79 68 80 70 81 71 82 72 83 73 84 50 85 51 86 59 87
REMARK SMILES IDX 52 88 54 89 60 90 53 91 55 92 56 93 57 94 58 95
REMARK H PARENT 16 6 21 29 80 48 48 59
REMARK Flexibility Score: inf
ROOT
ATOM      1  C   UNL     1       0.385   5.291   4.268  1.00  0.00     0.023 C 
ENDROOT
BRANCH   1   2
ATOM      2  C   UNL     1      -0.917   5.934   4.751  1.00  0.00     0.116 C 
BRANCH   2   3
ATOM      3  N   UNL     1      -0.989   7.340   4.399  1.00  0.00    -0.356 N 
ATOM      4  C   UNL     1      -1.695   7.961   3.412  1.00  0.00     0.224 C 
ATOM      5  O   UNL     1      -1.589   9.185   3.301  1.00  0.00    -0.275 OA
ATOM      6  H   UNL     1      -0.443   7.937   4.959  1.00  0.00     0.163 HD
BRANCH   4   7
ATOM      7  C   UNL     1      -2.618   7.173   2.489  1.00  0.00     0.143 C 
BRANCH   7   8
ATOM      8  C   UNL     1      -1.869   6.205   1.607  1.00  0.00     0.051 A 
ATOM      9  C   UNL     1       1.283   3.241  -0.982  1.00  0.00     0.123 A 
ATOM     10  C   UNL     1       1.532   4.525  -1.458  1.00  0.00     0.047 A 
ATOM     11  C   UNL     1       0.374   3.061   0.048  1.00  0.00     0.094 A 
ATOM     12  C   UNL     1       0.821   5.620  -0.936  1.00  0.00     0.016 A 
ATOM     13  C   UNL     1      -0.362   4.143   0.511  1.00  0.00     0.142 A 
ATOM     14  C   UNL     1      -0.160   5.440   0.053  1.00  0.00     0.021 A 
ATOM     15  O   UNL     1      -1.348   3.826   1.450  1.00  0.00    -0.422 OA
ATOM     16  C   UNL     1      -0.923   6.529   0.696  1.00  0.00    -0.029 A 
ATOM     17  C   UNL     1      -2.252   4.786   1.839  1.00  0.00     0.340 A 
ATOM     18  C   UNL     1      -0.553   7.945   0.342  1.00  0.00     0.046 C 
ATOM     19  O   UNL     1      -3.285   4.473   2.421  1.00  0.00    -0.246 OA
BRANCH   9  20
ATOM     20  O   UNL     1       1.987   2.187  -1.500  1.00  0.00    -0.489 OA
BRANCH  20  21
ATOM     21  C   UNL     1       1.141   1.240  -2.182  1.00  0.00     0.260 C 
BRANCH  21  22
ATOM     22  C   UNL     1       0.483   0.244  -1.246  1.00  0.00    -0.043 C 
ATOM     23  C   UNL     1       1.177  -0.445  -0.324  1.00  0.00     0.011 C 
ATOM     24  C   UNL     1      -1.014   0.139  -1.344  1.00  0.00     0.042 C 
ENDBRANCH  21  22
ENDBRANCH  20  21
ENDBRANCH   9  20
ENDBRANCH   7   8
ENDBRANCH   4   7
ENDBRANCH   2   3
ENDBRANCH   1   2
BRANCH   1  25
ATOM     25  C   UNL     1       1.647   5.795   4.971  1.00  0.00     0.023 C 
BRANCH  25  26
ATOM     26  C   UNL     1       1.642   5.658   6.489  1.00  0.00     0.116 C 
BRANCH  26  27
ATOM     27  N   UNL     1       1.479   4.284   6.937  1.00  0.00    -0.352 N 
ATOM     28  C   UNL     1       2.088   3.650   7.993  1.00  0.00     0.251 C 
ATOM     29  H   UNL     1       0.850   3.735   6.415  1.00  0.00     0.163 HD
ATOM     30  O   UNL     1       1.933   2.442   8.156  1.00  0.00    -0.269 OA
BRANCH  28  31
ATOM     31  C   UNL     1       2.951   4.422   8.914  1.00  0.00     0.039 A 
ATOM     32  C   UNL     1       4.185   3.886   9.293  1.00  0.00     0.014 A 
ATOM     33  C   UNL     1       2.551   5.671   9.395  1.00  0.00     0.014 A 
ATOM     34  C   UNL     1       5.035   4.625  10.119  1.00  0.00     0.010 A 
ATOM     35  C   UNL     1       3.434   6.440  10.147  1.00  0.00     0.010 A 
ATOM     36  C   UNL     1       4.677   5.918  10.536  1.00  0.00    -0.014 A 
BRANCH  36  37
ATOM     37  C   UNL     1       5.574   6.725  11.402  1.00  0.00     0.031 A 
ATOM     38  C   UNL     1       5.120   7.141  12.777  1.00  0.00     0.074 A 
ATOM     39  C   UNL     1       6.766   7.144  10.931  1.00  0.00     0.049 A 
ATOM     40  N   UNL     1       5.741   7.874  13.665  1.00  0.00    -0.248 NA
ATOM     41  C   UNL     1       3.779   6.702  13.199  1.00  0.00     0.031 C 
ATOM     42  C   UNL     1       7.288   6.877   9.589  1.00  0.00     0.029 A 
ATOM     43  N   UNL     1       7.746   7.902  11.522  1.00  0.00    -0.354 N 
ATOM     44  C   UNL     1       4.857   8.015  14.728  1.00  0.00     0.074 A 
ATOM     45  C   UNL     1       3.640   7.328  14.358  1.00  0.00     0.031 C 
ATOM     46  C   UNL     1       8.494   7.453   9.463  1.00  0.00     0.029 A 
ATOM     47  C   UNL     1       8.821   8.153  10.702  1.00  0.00     0.049 A 
ATOM     48  H   UNL     1       7.684   8.235  12.447  1.00  0.00     0.167 HD
ATOM     49  C   UNL     1       5.049   8.630  15.919  1.00  0.00     0.034 A 
ATOM     50  C   UNL     1       9.942   8.867  10.923  1.00  0.00     0.034 A 
ATOM     51  C   UNL     1       6.276   9.273  16.302  1.00  0.00     0.049 A 
ATOM     52  C   UNL     1      10.153   9.498  12.273  1.00  0.00     0.074 A 
ATOM     53  C   UNL     1       6.601   9.854  17.515  1.00  0.00     0.029 A 
ATOM     54  N   UNL     1       7.379   9.426  15.477  1.00  0.00    -0.354 N 
ATOM     55  N   UNL     1       9.365   9.489  13.321  1.00  0.00    -0.248 NA
ATOM     56  C   UNL     1      11.428  10.198  12.488  1.00  0.00     0.031 C 
ATOM     57  C   UNL     1       7.893  10.381  17.414  1.00  0.00     0.029 A 
ATOM     58  C   UNL     1       8.386  10.094  16.152  1.00  0.00     0.049 A 
ATOM     59  H   UNL     1       7.438   9.107  14.547  1.00  0.00     0.167 HD
ATOM     60  C   UNL     1      10.066  10.139  14.331  1.00  0.00     0.074 A 
ATOM     61  C   UNL     1      11.349  10.513  13.773  1.00  0.00     0.031 C 
ATOM     62  C   UNL     1       9.680  10.408  15.603  1.00  0.00     0.034 A 
BRANCH  49  63
ATOM     63  C   UNL     1       3.918   8.592  16.916  1.00  0.00     0.023 A 
ATOM     64  C   UNL     1       3.571   7.372  17.533  1.00  0.00     0.012 A 
ATOM     65  C   UNL     1       3.233   9.768  17.280  1.00  0.00     0.148 A 
ATOM     66  C   UNL     1       2.534   7.315  18.464  1.00  0.00     0.002 A 
ATOM     67  C   UNL     1       2.235   9.712  18.246  1.00  0.00     0.091 A 
ATOM     68  F   UNL     1       3.563  10.915  16.670  1.00  0.00    -0.205 F 
ATOM     69  C   UNL     1       1.874   8.485  18.827  1.00  0.00     0.022 A 
BRANCH  67  70
ATOM     70  S   UNL     1       1.383  11.175  18.846  1.00  0.00     0.127 S 
ATOM     71  O   UNL     1       0.042  10.982  18.296  1.00  0.00    -0.237 OA
ATOM     72  O   UNL     1       1.477  11.010  20.297  1.00  0.00    -0.237 OA
ATOM     73  O   UNL     1       2.118  12.315  18.315  1.00  0.00    -0.744 OA
ENDBRANCH  67  70
ENDBRANCH  49  63
BRANCH  50  74
ATOM     74  C   UNL     1      10.988   8.963   9.865  1.00  0.00     0.023 A 
ATOM     75  C   UNL     1      12.220   8.303  10.046  1.00  0.00     0.012 A 
ATOM     76  C   UNL     1      10.767   9.688   8.678  1.00  0.00     0.148 A 
ATOM     77  C   UNL     1      13.227   8.398   9.085  1.00  0.00     0.002 A 
ATOM     78  C   UNL     1      11.752   9.731   7.699  1.00  0.00     0.091 A 
ATOM     79  F   UNL     1       9.591  10.313   8.528  1.00  0.00    -0.205 F 
ATOM     80  C   UNL     1      12.990   9.103   7.909  1.00  0.00     0.022 A 
BRANCH  78  81
ATOM     81  S   UNL     1      11.491  10.507   6.101  1.00  0.00     0.127 S 
ATOM     82  O   UNL     1      12.376  11.666   6.183  1.00  0.00    -0.237 OA
ATOM     83  O   UNL     1      11.933   9.457   5.181  1.00  0.00    -0.237 OA
ATOM     84  O   UNL     1      10.066  10.802   6.035  1.00  0.00    -0.744 OA
ENDBRANCH  78  81
ENDBRANCH  50  74
BRANCH  62  85
ATOM     85  C   UNL     1      10.676  11.087  16.508  1.00  0.00     0.023 A 
ATOM     86  C   UNL     1      11.012  12.440  16.306  1.00  0.00     0.012 A 
ATOM     87  C   UNL     1      11.230  10.392  17.602  1.00  0.00     0.148 A 
ATOM     88  C   UNL     1      11.917  13.079  17.154  1.00  0.00     0.002 A 
ATOM     89  C   UNL     1      12.088  11.051  18.474  1.00  0.00     0.091 A 
ATOM     90  F   UNL     1      10.914   9.100  17.767  1.00  0.00    -0.205 F 
ATOM     91  C   UNL     1      12.445  12.389  18.243  1.00  0.00     0.022 A 
BRANCH  89  92
ATOM     92  S   UNL     1      12.732  10.270  19.958  1.00  0.00     0.127 S 
ATOM     93  O   UNL     1      14.123  10.020  19.584  1.00  0.00    -0.237 OA
ATOM     94  O   UNL     1      12.549  11.316  20.965  1.00  0.00    -0.237 OA
ATOM     95  O   UNL     1      11.917   9.081  20.170  1.00  0.00    -0.744 OA
ENDBRANCH  89  92
ENDBRANCH  62  85
ENDBRANCH  36  37
ENDBRANCH  28  31
ENDBRANCH  26  27
ENDBRANCH  25  26
ENDBRANCH   1  25
TORSDOF 18
