REMARK SMILES O=C(NCCCCNC(=O)[C@@H](CCCCO)c1ccc(Cl)cc1)c1ccc(-c2c3nc(c(-c4cccc(S(=O)(=O)[O-])c4F)c4ccc([nH]4)c(-c4cccc(S(=O)(=O)[O-])c4F)c4nc(c(-c5cccc(S(=O)(=O)[O-])c5F)c5ccc2[nH]5)C=C4)C=C3)cc1
REMARK SMILES IDX 6 1 5 2 4 3 3 4 1 5 2 6 24 8 25 9 86 10 26 11 85 12 27 13
REMARK SMILES IDX 28 14 29 15 79 16 30 17 84 18 78 19 80 20 31 21 83 22 77 23
REMARK SMILES IDX 76 24 32 26 64 27 44 28 63 29 45 30 48 31 62 32 81 33 46 34
REMARK SMILES IDX 47 35 61 37 82 38 49 39 33 40 34 41 42 42 35 43 37 44 43 45
REMARK SMILES IDX 36 46 38 47 39 48 40 49 41 50 65 51 66 52 74 53 67 54 69 55
REMARK SMILES IDX 75 56 68 57 70 58 71 59 72 60 73 61 50 62 51 63 59 64 52 65
REMARK SMILES IDX 54 66 60 67 53 68 55 69 56 70 57 71 58 72 7 73 8 74 9 75
REMARK SMILES IDX 10 77 11 78 12 79 13 80 14 81 15 82 16 83 17 85 18 86 23 87
REMARK SMILES IDX 19 88 22 89 20 90 21 91
REMARK H PARENT 3 7 80 25 48 36 8 76 16 84
REMARK Flexibility Score: inf
ROOT
ATOM      1  C   UNL     1       4.915   3.520   0.601  1.00  0.00     0.023 C 
ENDROOT
BRANCH   1   2
ATOM      2  C   UNL     1       5.240   2.386  -0.360  1.00  0.00     0.023 C 
BRANCH   2   3
ATOM      3  C   UNL     1       4.705   1.028   0.058  1.00  0.00     0.116 C 
BRANCH   3   4
ATOM      4  N   UNL     1       3.260   0.988   0.223  1.00  0.00    -0.352 N 
ATOM      5  O   UNL     1       1.206   0.062   0.009  1.00  0.00    -0.269 OA
ATOM      6  C   UNL     1       2.410  -0.054  -0.097  1.00  0.00     0.251 C 
ATOM      7  H   UNL     1       2.840   1.792   0.605  1.00  0.00     0.163 HD
BRANCH   6   8
ATOM      8  C   UNL     1       3.026  -1.296  -0.614  1.00  0.00     0.039 A 
ATOM      9  C   UNL     1       4.079  -1.886   0.089  1.00  0.00     0.014 A 
ATOM     10  C   UNL     1       2.625  -1.793  -1.855  1.00  0.00     0.014 A 
ATOM     11  C   UNL     1       4.834  -2.875  -0.521  1.00  0.00     0.010 A 
ATOM     12  C   UNL     1       3.327  -2.858  -2.422  1.00  0.00     0.010 A 
ATOM     13  C   UNL     1       4.454  -3.387  -1.773  1.00  0.00    -0.014 A 
BRANCH  13  14
ATOM     14  C   UNL     1       5.182  -4.558  -2.317  1.00  0.00     0.031 A 
ATOM     15  C   UNL     1       5.956  -4.487  -3.602  1.00  0.00     0.074 A 
ATOM     16  C   UNL     1       5.120  -5.707  -1.615  1.00  0.00     0.049 A 
ATOM     17  N   UNL     1       6.644  -5.431  -4.192  1.00  0.00    -0.248 NA
ATOM     18  C   UNL     1       5.957  -3.205  -4.326  1.00  0.00     0.031 C 
ATOM     19  C   UNL     1       4.348  -5.893  -0.382  1.00  0.00     0.029 A 
ATOM     20  N   UNL     1       5.702  -6.928  -1.827  1.00  0.00    -0.354 N 
ATOM     21  C   UNL     1       7.117  -4.880  -5.376  1.00  0.00     0.074 A 
ATOM     22  C   UNL     1       6.649  -3.510  -5.419  1.00  0.00     0.031 C 
ATOM     23  C   UNL     1       4.527  -7.141   0.067  1.00  0.00     0.029 A 
ATOM     24  C   UNL     1       5.370  -7.863  -0.876  1.00  0.00     0.049 A 
ATOM     25  H   UNL     1       6.301  -7.117  -2.586  1.00  0.00     0.167 HD
ATOM     26  C   UNL     1       7.878  -5.466  -6.330  1.00  0.00     0.034 A 
ATOM     27  C   UNL     1       5.683  -9.168  -0.784  1.00  0.00     0.034 A 
ATOM     28  C   UNL     1       8.381  -6.813  -6.246  1.00  0.00     0.049 A 
ATOM     29  C   UNL     1       6.560  -9.771  -1.839  1.00  0.00     0.074 A 
ATOM     30  C   UNL     1       9.244  -7.463  -7.112  1.00  0.00     0.029 A 
ATOM     31  N   UNL     1       8.059  -7.719  -5.247  1.00  0.00    -0.354 N 
ATOM     32  N   UNL     1       7.118  -9.190  -2.872  1.00  0.00    -0.248 NA
ATOM     33  C   UNL     1       6.864 -11.201  -1.709  1.00  0.00     0.031 C 
ATOM     34  C   UNL     1       9.430  -8.769  -6.645  1.00  0.00     0.029 A 
ATOM     35  C   UNL     1       8.690  -8.929  -5.484  1.00  0.00     0.049 A 
ATOM     36  H   UNL     1       7.470  -7.530  -4.482  1.00  0.00     0.167 HD
ATOM     37  C   UNL     1       7.842 -10.182  -3.517  1.00  0.00     0.074 A 
ATOM     38  C   UNL     1       7.686 -11.390  -2.732  1.00  0.00     0.031 C 
ATOM     39  C   UNL     1       8.547 -10.109  -4.672  1.00  0.00     0.034 A 
BRANCH  26  40
ATOM     40  C   UNL     1       8.264  -4.656  -7.540  1.00  0.00     0.023 A 
ATOM     41  C   UNL     1       9.311  -3.718  -7.440  1.00  0.00     0.012 A 
ATOM     42  C   UNL     1       7.679  -4.910  -8.796  1.00  0.00     0.148 A 
ATOM     43  C   UNL     1       9.765  -3.040  -8.572  1.00  0.00     0.002 A 
ATOM     44  C   UNL     1       8.157  -4.253  -9.925  1.00  0.00     0.091 A 
ATOM     45  F   UNL     1       6.673  -5.794  -8.864  1.00  0.00    -0.205 F 
ATOM     46  C   UNL     1       9.197  -3.315  -9.813  1.00  0.00     0.022 A 
BRANCH  44  47
ATOM     47  S   UNL     1       7.540  -4.585 -11.580  1.00  0.00     0.127 S 
ATOM     48  O   UNL     1       6.838  -3.339 -11.886  1.00  0.00    -0.237 OA
ATOM     49  O   UNL     1       8.776  -4.789 -12.335  1.00  0.00    -0.237 OA
ATOM     50  O   UNL     1       6.694  -5.764 -11.465  1.00  0.00    -0.744 OA
ENDBRANCH  44  47
ENDBRANCH  26  40
BRANCH  27  51
ATOM     51  C   UNL     1       5.174  -9.964   0.366  1.00  0.00     0.023 A 
ATOM     52  C   UNL     1       6.072 -10.409   1.353  1.00  0.00     0.012 A 
ATOM     53  C   UNL     1       3.798 -10.216   0.525  1.00  0.00     0.148 A 
ATOM     54  C   UNL     1       5.608 -11.104   2.472  1.00  0.00     0.002 A 
ATOM     55  C   UNL     1       3.337 -10.850   1.672  1.00  0.00     0.091 A 
ATOM     56  F   UNL     1       2.956  -9.807  -0.435  1.00  0.00    -0.205 F 
ATOM     57  C   UNL     1       4.240 -11.309   2.640  1.00  0.00     0.022 A 
BRANCH  55  58
ATOM     58  S   UNL     1       1.577 -10.979   2.012  1.00  0.00     0.127 S 
ATOM     59  O   UNL     1       1.251 -12.278   1.433  1.00  0.00    -0.237 OA
ATOM     60  O   UNL     1       1.531 -10.927   3.474  1.00  0.00    -0.237 OA
ATOM     61  O   UNL     1       0.991  -9.813   1.362  1.00  0.00    -0.744 OA
ENDBRANCH  55  58
ENDBRANCH  27  51
BRANCH  39  62
ATOM     62  C   UNL     1       9.189 -11.378  -5.159  1.00  0.00     0.023 A 
ATOM     63  C   UNL     1       8.382 -12.372  -5.746  1.00  0.00     0.012 A 
ATOM     64  C   UNL     1      10.581 -11.566  -5.083  1.00  0.00     0.148 A 
ATOM     65  C   UNL     1       8.949 -13.551  -6.224  1.00  0.00     0.002 A 
ATOM     66  C   UNL     1      11.144 -12.727  -5.600  1.00  0.00     0.091 A 
ATOM     67  F   UNL     1      11.326 -10.617  -4.499  1.00  0.00    -0.205 F 
ATOM     68  C   UNL     1      10.329 -13.724  -6.161  1.00  0.00     0.022 A 
BRANCH  66  69
ATOM     69  S   UNL     1      12.920 -12.993  -5.631  1.00  0.00     0.127 S 
ATOM     70  O   UNL     1      13.103 -13.918  -4.514  1.00  0.00    -0.237 OA
ATOM     71  O   UNL     1      13.126 -13.585  -6.954  1.00  0.00    -0.237 OA
ATOM     72  O   UNL     1      13.520 -11.676  -5.463  1.00  0.00    -0.744 OA
ENDBRANCH  66  69
ENDBRANCH  39  62
ENDBRANCH  13  14
ENDBRANCH   6   8
ENDBRANCH   3   4
ENDBRANCH   2   3
ENDBRANCH   1   2
BRANCH   1  73
ATOM     73  C   UNL     1       5.494   3.362   2.005  1.00  0.00     0.116 C 
BRANCH  73  74
ATOM     74  N   UNL     1       6.817   3.940   2.107  1.00  0.00    -0.356 N 
ATOM     75  C   UNL     1       7.292   4.951   2.881  1.00  0.00     0.227 C 
ATOM     76  H   UNL     1       7.488   3.530   1.513  1.00  0.00     0.163 HD
ATOM     77  O   UNL     1       8.505   5.180   2.793  1.00  0.00    -0.274 OA
BRANCH  75  78
ATOM     78  C   UNL     1       6.417   5.826   3.797  1.00  0.00     0.108 C 
BRANCH  78  79
ATOM     79  C   UNL     1       5.617   6.914   3.025  1.00  0.00     0.018 C 
BRANCH  79  80
ATOM     80  C   UNL     1       4.352   6.567   2.229  1.00  0.00     0.004 C 
BRANCH  80  81
ATOM     81  C   UNL     1       3.158   5.955   2.971  1.00  0.00     0.028 C 
BRANCH  81  82
ATOM     82  C   UNL     1       2.346   6.962   3.776  1.00  0.00     0.156 C 
BRANCH  82  83
ATOM     83  O   UNL     1       1.478   7.709   2.934  1.00  0.00    -0.396 OA
ATOM     84  H   UNL     1       2.002   8.199   2.282  1.00  0.00     0.210 HD
ENDBRANCH  82  83
ENDBRANCH  81  82
ENDBRANCH  80  81
ENDBRANCH  79  80
ENDBRANCH  78  79
BRANCH  78  85
ATOM     85  C   UNL     1       5.738   5.170   4.998  1.00  0.00    -0.035 A 
ATOM     86  C   UNL     1       5.008   5.975   5.896  1.00  0.00     0.006 A 
ATOM     87  C   UNL     1       5.856   3.805   5.303  1.00  0.00     0.006 A 
ATOM     88  C   UNL     1       4.335   5.425   6.989  1.00  0.00     0.021 A 
ATOM     89  C   UNL     1       5.181   3.249   6.396  1.00  0.00     0.021 A 
ATOM     90  C   UNL     1       4.411   4.058   7.225  1.00  0.00     0.041 A 
ATOM     91  Cl  UNL     1       3.564   3.374   8.556  1.00  0.00    -0.084 Cl
ENDBRANCH  78  85
ENDBRANCH  75  78
ENDBRANCH  73  74
ENDBRANCH   1  73
TORSDOF 20
