REMARK SMILES Cc1noc(C)c1CSCC(=O)N1CC[C@H](C(=O)NCCCCNC(=O)c2ccc(-c3c4nc(c(-c5cccc(S(=O)(=O)[O-])c5F)c5ccc([nH]5)c(-c5cccc(S(=O)(=O)[O-])c5F)c5nc(c(-c6cccc(S(=O)(=O)[O-])c6F)c6ccc3[nH]6)C=C5)C=C4)cc2)[C@@H]1C
REMARK SMILES IDX 20 1 19 2 17 3 18 4 16 6 13 7 14 8 90 9 15 10 91 11 11 12
REMARK SMILES IDX 12 13 10 14 9 15 8 16 7 17 1 18 2 19 3 20 4 21 5 22 6 23
REMARK SMILES IDX 21 24 22 25 23 26 24 27 25 28 26 30 27 31 28 32 89 33 29 34
REMARK SMILES IDX 88 35 30 36 31 37 32 38 82 39 33 40 87 41 81 42 83 43 34 44
REMARK SMILES IDX 86 45 80 46 79 47 35 49 67 50 47 51 66 52 48 53 51 54 65 55
REMARK SMILES IDX 84 56 49 57 50 58 64 60 85 61 52 62 36 63 37 64 45 65 38 66
REMARK SMILES IDX 40 67 46 68 39 69 41 70 42 71 43 72 44 73 68 74 69 75 77 76
REMARK SMILES IDX 70 77 72 78 78 79 71 80 73 81 74 82 75 83 76 84 53 85 54 86
REMARK SMILES IDX 62 87 55 88 57 89 63 90 56 91 58 92 59 93 60 94 61 95
REMARK H PARENT 19 5 24 29 83 48 51 59
REMARK Flexibility Score: inf
ROOT
ATOM      1  C   UNL     1       3.445   9.388  -3.066  1.00  0.00     0.116 C 
ENDROOT
BRANCH   1   2
ATOM      2  N   UNL     1       3.381   8.678  -1.806  1.00  0.00    -0.356 N 
ATOM      3  C   UNL     1       2.724   7.544  -1.449  1.00  0.00     0.225 C 
ATOM      4  O   UNL     1       2.935   7.149  -0.305  1.00  0.00    -0.275 OA
ATOM      5  H   UNL     1       3.906   9.088  -1.081  1.00  0.00     0.163 HD
BRANCH   3   6
ATOM      6  C   UNL     1       1.782   6.862  -2.448  1.00  0.00     0.102 C 
ATOM      7  N   UNL     1       1.645   4.457  -2.599  1.00  0.00    -0.338 N 
ATOM      8  C   UNL     1       2.877   4.884  -3.228  1.00  0.00     0.120 C 
ATOM      9  C   UNL     1       0.971   5.612  -1.968  1.00  0.00     0.094 C 
ATOM     10  C   UNL     1       2.587   6.315  -3.633  1.00  0.00     0.037 C 
ATOM     11  C   UNL     1       0.880   5.486  -0.447  1.00  0.00     0.032 C 
BRANCH   7  12
ATOM     12  C   UNL     1       1.276   3.135  -2.724  1.00  0.00     0.232 C 
ATOM     13  O   UNL     1       2.133   2.274  -2.959  1.00  0.00    -0.274 OA
BRANCH  12  14
ATOM     14  C   UNL     1      -0.186   2.735  -2.810  1.00  0.00     0.170 C 
BRANCH  14  15
ATOM     15  S   UNL     1      -1.218   2.905  -1.345  1.00  0.00    -0.147 SA
BRANCH  15  16
ATOM     16  C   UNL     1      -0.154   2.163  -0.067  1.00  0.00     0.111 C 
BRANCH  16  17
ATOM     17  C   UNL     1      -0.129   0.684  -0.088  1.00  0.00     0.027 A 
ATOM     18  C   UNL     1      -2.664   0.045   0.066  1.00  0.00     0.071 C 
ATOM     19  C   UNL     1      -1.211  -0.239  -0.017  1.00  0.00     0.085 A 
ATOM     20  N   UNL     1      -0.775  -1.504  -0.011  1.00  0.00    -0.085 NA
ATOM     21  O   UNL     1       0.604  -1.428  -0.047  1.00  0.00    -0.361 OA
ATOM     22  C   UNL     1       0.987  -0.126  -0.078  1.00  0.00     0.137 A 
ATOM     23  C   UNL     1       2.440   0.138  -0.055  1.00  0.00     0.091 C 
ENDBRANCH  16  17
ENDBRANCH  15  16
ENDBRANCH  14  15
ENDBRANCH  12  14
ENDBRANCH   7  12
ENDBRANCH   3   6
ENDBRANCH   1   2
BRANCH   1  24
ATOM     24  C   UNL     1       3.284  10.893  -2.886  1.00  0.00     0.023 C 
BRANCH  24  25
ATOM     25  C   UNL     1       4.210  11.535  -1.849  1.00  0.00     0.023 C 
BRANCH  25  26
ATOM     26  C   UNL     1       5.687  11.171  -1.961  1.00  0.00     0.116 C 
BRANCH  26  27
ATOM     27  N   UNL     1       6.257  11.521  -3.252  1.00  0.00    -0.352 N 
ATOM     28  C   UNL     1       7.324  12.337  -3.539  1.00  0.00     0.251 C 
ATOM     29  H   UNL     1       5.815  11.115  -4.032  1.00  0.00     0.163 HD
ATOM     30  O   UNL     1       7.567  12.633  -4.707  1.00  0.00    -0.269 OA
BRANCH  28  31
ATOM     31  C   UNL     1       8.155  12.880  -2.445  1.00  0.00     0.039 A 
ATOM     32  C   UNL     1       8.458  14.244  -2.443  1.00  0.00     0.014 A 
ATOM     33  C   UNL     1       8.616  12.057  -1.414  1.00  0.00     0.014 A 
ATOM     34  C   UNL     1       9.161  14.794  -1.369  1.00  0.00     0.010 A 
ATOM     35  C   UNL     1       9.248  12.621  -0.309  1.00  0.00     0.010 A 
ATOM     36  C   UNL     1       9.527  13.996  -0.273  1.00  0.00    -0.014 A 
BRANCH  36  37
ATOM     37  C   UNL     1      10.174  14.587   0.928  1.00  0.00     0.031 A 
ATOM     38  C   UNL     1      11.554  14.153   1.344  1.00  0.00     0.074 A 
ATOM     39  C   UNL     1       9.481  15.453   1.696  1.00  0.00     0.049 A 
ATOM     40  N   UNL     1      12.252  14.519   2.388  1.00  0.00    -0.248 NA
ATOM     41  C   UNL     1      12.230  13.160   0.492  1.00  0.00     0.031 C 
ATOM     42  C   UNL     1       8.104  15.888   1.450  1.00  0.00     0.029 A 
ATOM     43  N   UNL     1       9.827  16.099   2.857  1.00  0.00    -0.354 N 
ATOM     44  C   UNL     1      13.426  13.778   2.341  1.00  0.00     0.074 A 
ATOM     45  C   UNL     1      13.337  12.919   1.181  1.00  0.00     0.031 C 
ATOM     46  C   UNL     1       7.724  16.727   2.427  1.00  0.00     0.029 A 
ATOM     47  C   UNL     1       8.814  16.866   3.387  1.00  0.00     0.049 A 
ATOM     48  H   UNL     1      10.717  16.022   3.272  1.00  0.00     0.167 HD
ATOM     49  C   UNL     1      14.493  13.825   3.173  1.00  0.00     0.034 A 
ATOM     50  C   UNL     1       8.762  17.588   4.524  1.00  0.00     0.034 A 
ATOM     51  C   UNL     1      14.599  14.713   4.300  1.00  0.00     0.049 A 
ATOM     52  C   UNL     1       9.981  17.656   5.404  1.00  0.00     0.074 A 
ATOM     53  C   UNL     1      15.681  14.906   5.141  1.00  0.00     0.029 A 
ATOM     54  N   UNL     1      13.588  15.544   4.752  1.00  0.00    -0.354 N 
ATOM     55  N   UNL     1      11.147  17.080   5.244  1.00  0.00    -0.248 NA
ATOM     56  C   UNL     1       9.890  18.502   6.603  1.00  0.00     0.031 C 
ATOM     57  C   UNL     1      15.314  15.834   6.120  1.00  0.00     0.029 A 
ATOM     58  C   UNL     1      14.014  16.243   5.869  1.00  0.00     0.049 A 
ATOM     59  H   UNL     1      12.697  15.626   4.340  1.00  0.00     0.167 HD
ATOM     60  C   UNL     1      11.938  17.522   6.298  1.00  0.00     0.074 A 
ATOM     61  C   UNL     1      11.127  18.433   7.077  1.00  0.00     0.031 C 
ATOM     62  C   UNL     1      13.217  17.190   6.603  1.00  0.00     0.034 A 
BRANCH  49  63
ATOM     63  C   UNL     1      15.665  12.927   2.873  1.00  0.00     0.023 A 
ATOM     64  C   UNL     1      16.497  13.213   1.772  1.00  0.00     0.012 A 
ATOM     65  C   UNL     1      15.993  11.858   3.730  1.00  0.00     0.148 A 
ATOM     66  C   UNL     1      17.623  12.433   1.512  1.00  0.00     0.002 A 
ATOM     67  C   UNL     1      17.143  11.114   3.491  1.00  0.00     0.091 A 
ATOM     68  F   UNL     1      15.179  11.592   4.761  1.00  0.00    -0.205 F 
ATOM     69  C   UNL     1      17.953  11.393   2.378  1.00  0.00     0.022 A 
BRANCH  67  70
ATOM     70  S   UNL     1      17.701   9.808   4.590  1.00  0.00     0.127 S 
ATOM     71  O   UNL     1      17.523   8.622   3.753  1.00  0.00    -0.237 OA
ATOM     72  O   UNL     1      19.096  10.182   4.827  1.00  0.00    -0.237 OA
ATOM     73  O   UNL     1      16.843   9.874   5.765  1.00  0.00    -0.744 OA
ENDBRANCH  67  70
ENDBRANCH  49  63
BRANCH  50  74
ATOM     74  C   UNL     1       7.527  18.347   4.875  1.00  0.00     0.023 A 
ATOM     75  C   UNL     1       7.545  19.755   4.848  1.00  0.00     0.012 A 
ATOM     76  C   UNL     1       6.337  17.683   5.230  1.00  0.00     0.148 A 
ATOM     77  C   UNL     1       6.414  20.488   5.209  1.00  0.00     0.002 A 
ATOM     78  C   UNL     1       5.196  18.419   5.530  1.00  0.00     0.091 A 
ATOM     79  F   UNL     1       6.341  16.343   5.262  1.00  0.00    -0.205 F 
ATOM     80  C   UNL     1       5.238  19.821   5.541  1.00  0.00     0.022 A 
BRANCH  78  81
ATOM     81  S   UNL     1       3.606  17.641   5.834  1.00  0.00     0.127 S 
ATOM     82  O   UNL     1       3.455  17.819   7.275  1.00  0.00    -0.237 OA
ATOM     83  O   UNL     1       2.708  18.455   5.014  1.00  0.00    -0.237 OA
ATOM     84  O   UNL     1       3.751  16.266   5.374  1.00  0.00    -0.744 OA
ENDBRANCH  78  81
ENDBRANCH  50  74
BRANCH  62  85
ATOM     85  C   UNL     1      13.841  17.843   7.809  1.00  0.00     0.023 A 
ATOM     86  C   UNL     1      13.428  17.471   9.103  1.00  0.00     0.012 A 
ATOM     87  C   UNL     1      14.890  18.772   7.657  1.00  0.00     0.148 A 
ATOM     88  C   UNL     1      14.025  18.040  10.228  1.00  0.00     0.002 A 
ATOM     89  C   UNL     1      15.515  19.295   8.782  1.00  0.00     0.091 A 
ATOM     90  F   UNL     1      15.257  19.125   6.416  1.00  0.00    -0.205 F 
ATOM     91  C   UNL     1      15.075  18.941  10.068  1.00  0.00     0.022 A 
BRANCH  89  92
ATOM     92  S   UNL     1      16.939  20.386   8.673  1.00  0.00     0.127 S 
ATOM     93  O   UNL     1      16.365  21.666   9.083  1.00  0.00    -0.237 OA
ATOM     94  O   UNL     1      17.859  19.791   9.643  1.00  0.00    -0.237 OA
ATOM     95  O   UNL     1      17.392  20.318   7.290  1.00  0.00    -0.744 OA
ENDBRANCH  89  92
ENDBRANCH  62  85
ENDBRANCH  36  37
ENDBRANCH  28  31
ENDBRANCH  26  27
ENDBRANCH  25  26
ENDBRANCH  24  25
ENDBRANCH   1  24
TORSDOF 19
