REMARK SMILES C[C@](O)(C(=O)NCCCCNC(=O)c1ccc(-c2c3nc(c(-c4cccc(S(=O)(=O)[O-])c4F)c4ccc([nH]4)c(-c4cccc(S(=O)(=O)[O-])c4F)c4nc(c(-c5cccc(S(=O)(=O)[O-])c5F)c5ccc2[nH]5)C=C4)C=C3)cc1)c1ccc(O)cc1
REMARK SMILES IDX 9 1 8 2 7 3 6 4 4 5 5 6 2 8 1 9 77 10 78 11 83 12 79 13
REMARK SMILES IDX 82 14 80 15 81 16 3 18 10 20 11 21 12 22 13 24 14 25 15 26
REMARK SMILES IDX 76 27 16 28 75 29 17 30 18 31 19 32 69 33 20 34 74 35 68 36
REMARK SMILES IDX 70 37 21 38 73 39 67 40 66 41 22 43 54 44 34 45 53 46 35 47
REMARK SMILES IDX 38 48 52 49 71 50 36 51 37 52 51 54 72 55 39 56 23 57 24 58
REMARK SMILES IDX 32 59 25 60 27 61 33 62 26 63 28 64 29 65 30 66 31 67 55 68
REMARK SMILES IDX 56 69 64 70 57 71 59 72 65 73 58 74 60 75 61 76 62 77 63 78
REMARK SMILES IDX 40 79 41 80 49 81 42 82 44 83 50 84 43 85 45 86 46 87 47 88
REMARK SMILES IDX 48 89
REMARK H PARENT 6 7 81 17 3 19 11 23 70 42 38 53
REMARK Flexibility Score: inf
ROOT
ATOM      1  C   UNL     1      -2.848  -0.977   2.677  1.00  0.00     0.023 C 
ENDROOT
BRANCH   1   2
ATOM      2  C   UNL     1      -1.355  -0.895   2.360  1.00  0.00     0.023 C 
BRANCH   2   3
ATOM      3  C   UNL     1      -0.891  -1.750   1.186  1.00  0.00     0.116 C 
BRANCH   3   4
ATOM      4  N   UNL     1      -1.487  -1.347  -0.076  1.00  0.00    -0.353 N 
ATOM      5  C   UNL     1      -0.898  -1.056  -1.280  1.00  0.00     0.256 C 
ATOM      6  O   UNL     1      -1.657  -0.846  -2.231  1.00  0.00    -0.271 OA
ATOM      7  H   UNL     1      -2.469  -1.271  -0.066  1.00  0.00     0.163 HD
BRANCH   5   8
ATOM      8  C   UNL     1       0.666  -0.991  -1.413  1.00  0.00     0.165 C 
ATOM      9  C   UNL     1       1.219  -2.423  -1.283  1.00  0.00     0.058 C 
BRANCH   8  10
ATOM     10  C   UNL     1       1.108  -0.273  -2.704  1.00  0.00    -0.007 A 
ATOM     11  C   UNL     1       1.872  -0.903  -3.704  1.00  0.00     0.011 A 
ATOM     12  C   UNL     1       0.742   1.073  -2.925  1.00  0.00     0.011 A 
ATOM     13  C   UNL     1       2.246  -0.228  -4.870  1.00  0.00     0.046 A 
ATOM     14  C   UNL     1       1.125   1.754  -4.087  1.00  0.00     0.046 A 
ATOM     15  C   UNL     1       1.872   1.094  -5.052  1.00  0.00     0.115 A 
BRANCH  15  16
ATOM     16  O   UNL     1       2.257   1.714  -6.204  1.00  0.00    -0.508 OA
ATOM     17  H   UNL     1       2.762   1.247  -6.840  1.00  0.00     0.293 HD
ENDBRANCH  15  16
ENDBRANCH   8  10
BRANCH   8  18
ATOM     18  O   UNL     1       1.235  -0.239  -0.328  1.00  0.00    -0.376 OA
ATOM     19  H   UNL     1       0.915   0.676  -0.365  1.00  0.00     0.212 HD
ENDBRANCH   8  18
ENDBRANCH   5   8
ENDBRANCH   3   4
ENDBRANCH   2   3
ENDBRANCH   1   2
BRANCH   1  20
ATOM     20  C   UNL     1      -3.406  -2.382   2.881  1.00  0.00     0.116 C 
BRANCH  20  21
ATOM     21  N   UNL     1      -2.750  -3.109   3.959  1.00  0.00    -0.352 N 
ATOM     22  C   UNL     1      -3.310  -3.793   5.013  1.00  0.00     0.251 C 
ATOM     23  H   UNL     1      -1.766  -3.111   3.929  1.00  0.00     0.163 HD
ATOM     24  O   UNL     1      -2.590  -4.247   5.899  1.00  0.00    -0.269 OA
BRANCH  22  25
ATOM     25  C   UNL     1      -4.779  -3.952   5.096  1.00  0.00     0.039 A 
ATOM     26  C   UNL     1      -5.420  -3.686   6.309  1.00  0.00     0.014 A 
ATOM     27  C   UNL     1      -5.524  -4.341   3.980  1.00  0.00     0.014 A 
ATOM     28  C   UNL     1      -6.814  -3.738   6.382  1.00  0.00     0.010 A 
ATOM     29  C   UNL     1      -6.915  -4.317   4.034  1.00  0.00     0.010 A 
ATOM     30  C   UNL     1      -7.577  -4.015   5.235  1.00  0.00    -0.014 A 
BRANCH  30  31
ATOM     31  C   UNL     1      -9.063  -3.971   5.264  1.00  0.00     0.031 A 
ATOM     32  C   UNL     1      -9.867  -5.208   4.962  1.00  0.00     0.074 A 
ATOM     33  C   UNL     1      -9.691  -2.796   5.470  1.00  0.00     0.049 A 
ATOM     34  N   UNL     1     -11.165  -5.347   4.880  1.00  0.00    -0.248 NA
ATOM     35  C   UNL     1      -9.115  -6.443   4.688  1.00  0.00     0.031 C 
ATOM     36  C   UNL     1      -9.027  -1.510   5.694  1.00  0.00     0.029 A 
ATOM     37  N   UNL     1     -11.028  -2.486   5.497  1.00  0.00    -0.354 N 
ATOM     38  C   UNL     1     -11.384  -6.668   4.509  1.00  0.00     0.074 A 
ATOM     39  C   UNL     1     -10.084  -7.282   4.351  1.00  0.00     0.031 C 
ATOM     40  C   UNL     1      -9.957  -0.553   5.840  1.00  0.00     0.029 A 
ATOM     41  C   UNL     1     -11.282  -1.147   5.688  1.00  0.00     0.049 A 
ATOM     42  H   UNL     1     -11.739  -3.158   5.388  1.00  0.00     0.167 HD
ATOM     43  C   UNL     1     -12.559  -7.321   4.343  1.00  0.00     0.034 A 
ATOM     44  C   UNL     1     -12.447  -0.471   5.730  1.00  0.00     0.034 A 
ATOM     45  C   UNL     1     -13.851  -6.721   4.545  1.00  0.00     0.049 A 
ATOM     46  C   UNL     1     -13.739  -1.229   5.582  1.00  0.00     0.074 A 
ATOM     47  C   UNL     1     -15.095  -7.324   4.496  1.00  0.00     0.029 A 
ATOM     48  N   UNL     1     -14.066  -5.381   4.826  1.00  0.00    -0.354 N 
ATOM     49  N   UNL     1     -13.926  -2.514   5.398  1.00  0.00    -0.248 NA
ATOM     50  C   UNL     1     -14.982  -0.451   5.684  1.00  0.00     0.031 C 
ATOM     51  C   UNL     1     -16.066  -6.342   4.721  1.00  0.00     0.029 A 
ATOM     52  C   UNL     1     -15.424  -5.134   4.940  1.00  0.00     0.049 A 
ATOM     53  H   UNL     1     -13.359  -4.704   4.928  1.00  0.00     0.167 HD
ATOM     54  C   UNL     1     -15.303  -2.703   5.400  1.00  0.00     0.074 A 
ATOM     55  C   UNL     1     -15.903  -1.404   5.624  1.00  0.00     0.031 C 
ATOM     56  C   UNL     1     -16.008  -3.847   5.219  1.00  0.00     0.034 A 
BRANCH  43  57
ATOM     57  C   UNL     1     -12.505  -8.780   3.970  1.00  0.00     0.023 A 
ATOM     58  C   UNL     1     -12.075  -9.726   4.922  1.00  0.00     0.012 A 
ATOM     59  C   UNL     1     -12.937  -9.222   2.704  1.00  0.00     0.148 A 
ATOM     60  C   UNL     1     -12.041 -11.085   4.611  1.00  0.00     0.002 A 
ATOM     61  C   UNL     1     -12.944 -10.582   2.416  1.00  0.00     0.091 A 
ATOM     62  F   UNL     1     -13.323  -8.307   1.804  1.00  0.00    -0.205 F 
ATOM     63  C   UNL     1     -12.486 -11.513   3.363  1.00  0.00     0.022 A 
BRANCH  61  64
ATOM     64  S   UNL     1     -13.574 -11.242   0.869  1.00  0.00     0.127 S 
ATOM     65  O   UNL     1     -12.344 -11.692   0.218  1.00  0.00    -0.237 OA
ATOM     66  O   UNL     1     -14.450 -12.320   1.328  1.00  0.00    -0.237 OA
ATOM     67  O   UNL     1     -14.261 -10.139   0.211  1.00  0.00    -0.744 OA
ENDBRANCH  61  64
ENDBRANCH  43  57
BRANCH  44  68
ATOM     68  C   UNL     1     -12.450   0.997   5.989  1.00  0.00     0.023 A 
ATOM     69  C   UNL     1     -12.938   1.480   7.219  1.00  0.00     0.012 A 
ATOM     70  C   UNL     1     -11.957   1.913   5.039  1.00  0.00     0.148 A 
ATOM     71  C   UNL     1     -12.967   2.849   7.486  1.00  0.00     0.002 A 
ATOM     72  C   UNL     1     -11.938   3.271   5.334  1.00  0.00     0.091 A 
ATOM     73  F   UNL     1     -11.508   1.435   3.870  1.00  0.00    -0.205 F 
ATOM     74  C   UNL     1     -12.459   3.743   6.548  1.00  0.00     0.022 A 
BRANCH  72  75
ATOM     75  S   UNL     1     -11.182   4.482   4.243  1.00  0.00     0.127 S 
ATOM     76  O   UNL     1     -12.349   5.200   3.738  1.00  0.00    -0.237 OA
ATOM     77  O   UNL     1     -10.343   5.242   5.170  1.00  0.00    -0.237 OA
ATOM     78  O   UNL     1     -10.437   3.711   3.257  1.00  0.00    -0.744 OA
ENDBRANCH  72  75
ENDBRANCH  44  68
BRANCH  56  79
ATOM     79  C   UNL     1     -17.511  -3.764   5.295  1.00  0.00     0.023 A 
ATOM     80  C   UNL     1     -18.235  -3.154   4.252  1.00  0.00     0.012 A 
ATOM     81  C   UNL     1     -18.208  -4.361   6.365  1.00  0.00     0.148 A 
ATOM     82  C   UNL     1     -19.628  -3.109   4.289  1.00  0.00     0.002 A 
ATOM     83  C   UNL     1     -19.598  -4.356   6.369  1.00  0.00     0.091 A 
ATOM     84  F   UNL     1     -17.501  -4.920   7.357  1.00  0.00    -0.205 F 
ATOM     85  C   UNL     1     -20.309  -3.720   5.339  1.00  0.00     0.022 A 
BRANCH  83  86
ATOM     86  S   UNL     1     -20.559  -5.203   7.629  1.00  0.00     0.127 S 
ATOM     87  O   UNL     1     -21.096  -4.082   8.398  1.00  0.00    -0.237 OA
ATOM     88  O   UNL     1     -21.550  -5.926   6.830  1.00  0.00    -0.237 OA
ATOM     89  O   UNL     1     -19.620  -6.058   8.343  1.00  0.00    -0.744 OA
ENDBRANCH  83  86
ENDBRANCH  56  79
ENDBRANCH  30  31
ENDBRANCH  22  25
ENDBRANCH  20  21
ENDBRANCH   1  20
TORSDOF 17
