REMARK SMILES CNC(=O)NC(=O)CCSc1csc(C(=O)NCCCCNC(=O)c2ccc(-c3c4nc(c(-c5cccc(S(=O)(=O)[O-])c5F)c5ccc([nH]5)c(-c5cccc(S(=O)(=O)[O-])c5F)c5nc(c(-c6cccc(S(=O)(=O)[O-])c6F)c6ccc3[nH]6)C=C5)C=C4)cc2)c1
REMARK SMILES IDX 19 1 18 2 17 3 15 4 16 5 14 7 11 8 12 9 88 10 13 11 10 12
REMARK SMILES IDX 9 13 8 14 6 15 1 16 2 17 3 18 4 20 5 21 7 23 20 24 21 25
REMARK SMILES IDX 22 26 23 27 24 29 25 30 26 31 87 32 27 33 86 34 28 35 29 36
REMARK SMILES IDX 30 37 80 38 31 39 85 40 79 41 81 42 32 43 84 44 78 45 77 46
REMARK SMILES IDX 33 48 65 49 45 50 64 51 46 52 49 53 63 54 82 55 47 56 48 57
REMARK SMILES IDX 62 59 83 60 50 61 34 62 35 63 43 64 36 65 38 66 44 67 37 68
REMARK SMILES IDX 39 69 40 70 41 71 42 72 66 73 67 74 75 75 68 76 70 77 76 78
REMARK SMILES IDX 69 79 71 80 72 81 73 82 74 83 51 84 52 85 60 86 53 87 55 88
REMARK SMILES IDX 61 89 54 90 56 91 57 92 58 93 59 94
REMARK H PARENT 17 6 2 19 5 22 22 28 81 47 49 58
REMARK Flexibility Score: inf
ROOT
ATOM      1  C   UNL     1      -2.098  -0.511   5.793  1.00  0.00     0.023 C 
ENDROOT
BRANCH   1   2
ATOM      2  C   UNL     1      -2.476   0.435   4.656  1.00  0.00     0.116 C 
BRANCH   2   3
ATOM      3  N   UNL     1      -2.662   1.792   5.128  1.00  0.00    -0.351 N 
ATOM      4  C   UNL     1      -2.028   2.974   4.831  1.00  0.00     0.261 C 
ATOM      5  O   UNL     1      -2.544   3.978   5.330  1.00  0.00    -0.268 OA
ATOM      6  H   UNL     1      -3.385   1.886   5.790  1.00  0.00     0.163 HD
BRANCH   4   7
ATOM      7  C   UNL     1      -0.856   3.035   3.964  1.00  0.00     0.093 A 
ATOM      8  C   UNL     1       1.011   2.599   2.617  1.00  0.00     0.019 A 
ATOM      9  C   UNL     1       0.823   3.934   2.368  1.00  0.00     0.080 A 
ATOM     10  C   UNL     1       0.117   2.112   3.617  1.00  0.00     0.040 A 
ATOM     11  S   UNL     1      -0.515   4.558   3.220  1.00  0.00    -0.137 S 
BRANCH   8  12
ATOM     12  S   UNL     1       2.203   1.559   1.851  1.00  0.00    -0.125 SA
BRANCH  12  13
ATOM     13  C   UNL     1       2.245   2.181   0.139  1.00  0.00     0.085 C 
BRANCH  13  14
ATOM     14  C   UNL     1       1.105   1.823  -0.809  1.00  0.00     0.112 C 
BRANCH  14  15
ATOM     15  C   UNL     1      -0.286   2.121  -0.340  1.00  0.00     0.228 C 
ATOM     16  C   UNL     1       0.831  -1.326  -0.125  1.00  0.00     0.144 C 
ATOM     17  N   UNL     1      -0.136  -0.945   0.869  1.00  0.00    -0.341 N 
ATOM     18  C   UNL     1      -1.101  -0.024   0.905  1.00  0.00     0.321 C 
ATOM     19  H   UNL     1      -0.073  -1.475   1.696  1.00  0.00     0.165 HD
ATOM     20  O   UNL     1      -2.056  -0.255   1.653  1.00  0.00    -0.248 OA
ATOM     21  N   UNL     1      -1.102   1.167   0.240  1.00  0.00    -0.278 N 
ATOM     22  H   UNL     1      -2.037   1.456   0.132  1.00  0.00     0.174 HD
ATOM     23  O   UNL     1      -0.735   3.264  -0.475  1.00  0.00    -0.275 OA
ENDBRANCH  14  15
ENDBRANCH  13  14
ENDBRANCH  12  13
ENDBRANCH   8  12
ENDBRANCH   4   7
ENDBRANCH   2   3
ENDBRANCH   1   2
BRANCH   1  24
ATOM     24  C   UNL     1      -3.243  -0.824   6.760  1.00  0.00     0.023 C 
BRANCH  24  25
ATOM     25  C   UNL     1      -4.455  -1.512   6.137  1.00  0.00     0.116 C 
BRANCH  25  26
ATOM     26  N   UNL     1      -4.137  -2.798   5.532  1.00  0.00    -0.352 N 
ATOM     27  C   UNL     1      -4.768  -4.013   5.681  1.00  0.00     0.251 C 
ATOM     28  H   UNL     1      -3.358  -2.799   4.930  1.00  0.00     0.163 HD
ATOM     29  O   UNL     1      -4.278  -5.022   5.193  1.00  0.00    -0.269 OA
BRANCH  27  30
ATOM     30  C   UNL     1      -6.027  -4.097   6.459  1.00  0.00     0.039 A 
ATOM     31  C   UNL     1      -6.170  -5.115   7.405  1.00  0.00     0.014 A 
ATOM     32  C   UNL     1      -7.052  -3.167   6.270  1.00  0.00     0.014 A 
ATOM     33  C   UNL     1      -7.310  -5.153   8.214  1.00  0.00     0.010 A 
ATOM     34  C   UNL     1      -8.147  -3.159   7.130  1.00  0.00     0.010 A 
ATOM     35  C   UNL     1      -8.290  -4.151   8.112  1.00  0.00    -0.014 A 
BRANCH  35  36
ATOM     36  C   UNL     1      -9.453  -4.109   9.038  1.00  0.00     0.031 A 
ATOM     37  C   UNL     1     -10.857  -4.218   8.506  1.00  0.00     0.074 A 
ATOM     38  C   UNL     1      -9.250  -3.881  10.352  1.00  0.00     0.049 A 
ATOM     39  N   UNL     1     -11.992  -4.144   9.152  1.00  0.00    -0.248 NA
ATOM     40  C   UNL     1     -11.008  -4.409   7.054  1.00  0.00     0.031 C 
ATOM     41  C   UNL     1      -7.945  -3.676  10.985  1.00  0.00     0.029 A 
ATOM     42  N   UNL     1     -10.142  -3.755  11.390  1.00  0.00    -0.354 N 
ATOM     43  C   UNL     1     -12.988  -4.241   8.188  1.00  0.00     0.074 A 
ATOM     44  C   UNL     1     -12.324  -4.347   6.907  1.00  0.00     0.031 C 
ATOM     45  C   UNL     1      -8.120  -3.456  12.297  1.00  0.00     0.029 A 
ATOM     46  C   UNL     1      -9.548  -3.468  12.597  1.00  0.00     0.049 A 
ATOM     47  H   UNL     1     -11.114  -3.860  11.279  1.00  0.00     0.167 HD
ATOM     48  C   UNL     1     -14.332  -4.269   8.352  1.00  0.00     0.034 A 
ATOM     49  C   UNL     1     -10.090  -3.228  13.808  1.00  0.00     0.034 A 
ATOM     50  C   UNL     1     -14.990  -4.201   9.630  1.00  0.00     0.049 A 
ATOM     51  C   UNL     1     -11.585  -3.296  13.968  1.00  0.00     0.074 A 
ATOM     52  C   UNL     1     -16.341  -4.312   9.907  1.00  0.00     0.029 A 
ATOM     53  N   UNL     1     -14.349  -3.992  10.841  1.00  0.00    -0.354 N 
ATOM     54  N   UNL     1     -12.501  -3.552  13.066  1.00  0.00    -0.248 NA
ATOM     55  C   UNL     1     -12.120  -3.077  15.320  1.00  0.00     0.031 C 
ATOM     56  C   UNL     1     -16.521  -4.137  11.283  1.00  0.00     0.029 A 
ATOM     57  C   UNL     1     -15.278  -3.957  11.867  1.00  0.00     0.049 A 
ATOM     58  H   UNL     1     -13.377  -3.885  10.955  1.00  0.00     0.167 HD
ATOM     59  C   UNL     1     -13.714  -3.564  13.746  1.00  0.00     0.074 A 
ATOM     60  C   UNL     1     -13.413  -3.310  15.140  1.00  0.00     0.031 C 
ATOM     61  C   UNL     1     -14.964  -3.756  13.259  1.00  0.00     0.034 A 
BRANCH  48  62
ATOM     62  C   UNL     1     -15.188  -4.425   7.121  1.00  0.00     0.023 A 
ATOM     63  C   UNL     1     -15.202  -5.656   6.433  1.00  0.00     0.012 A 
ATOM     64  C   UNL     1     -16.025  -3.380   6.684  1.00  0.00     0.148 A 
ATOM     65  C   UNL     1     -16.008  -5.833   5.309  1.00  0.00     0.002 A 
ATOM     66  C   UNL     1     -16.862  -3.581   5.592  1.00  0.00     0.091 A 
ATOM     67  F   UNL     1     -15.986  -2.211   7.339  1.00  0.00    -0.205 F 
ATOM     68  C   UNL     1     -16.845  -4.801   4.896  1.00  0.00     0.022 A 
BRANCH  66  69
ATOM     69  S   UNL     1     -18.038  -2.345   5.029  1.00  0.00     0.127 S 
ATOM     70  O   UNL     1     -17.460  -1.951   3.745  1.00  0.00    -0.237 OA
ATOM     71  O   UNL     1     -19.274  -3.122   4.928  1.00  0.00    -0.237 OA
ATOM     72  O   UNL     1     -18.053  -1.308   6.051  1.00  0.00    -0.744 OA
ENDBRANCH  66  69
ENDBRANCH  48  62
BRANCH  49  73
ATOM     73  C   UNL     1      -9.211  -2.955  14.981  1.00  0.00     0.023 A 
ATOM     74  C   UNL     1      -9.115  -3.910  16.013  1.00  0.00     0.012 A 
ATOM     75  C   UNL     1      -8.461  -1.767  15.074  1.00  0.00     0.148 A 
ATOM     76  C   UNL     1      -8.319  -3.670  17.134  1.00  0.00     0.002 A 
ATOM     77  C   UNL     1      -7.625  -1.560  16.166  1.00  0.00     0.091 A 
ATOM     78  F   UNL     1      -8.573  -0.867  14.088  1.00  0.00    -0.205 F 
ATOM     79  C   UNL     1      -7.568  -2.500  17.206  1.00  0.00     0.022 A 
BRANCH  77  80
ATOM     80  S   UNL     1      -6.523  -0.146  16.281  1.00  0.00     0.127 S 
ATOM     81  O   UNL     1      -7.131   0.618  17.367  1.00  0.00    -0.237 OA
ATOM     82  O   UNL     1      -5.249  -0.785  16.613  1.00  0.00    -0.237 OA
ATOM     83  O   UNL     1      -6.554   0.485  14.969  1.00  0.00    -0.744 OA
ENDBRANCH  77  80
ENDBRANCH  49  73
BRANCH  61  84
ATOM     84  C   UNL     1     -16.108  -3.748  14.239  1.00  0.00     0.023 A 
ATOM     85  C   UNL     1     -16.517  -2.540  14.839  1.00  0.00     0.012 A 
ATOM     86  C   UNL     1     -16.826  -4.931  14.509  1.00  0.00     0.148 A 
ATOM     87  C   UNL     1     -17.599  -2.516  15.718  1.00  0.00     0.002 A 
ATOM     88  C   UNL     1     -17.935  -4.889  15.345  1.00  0.00     0.091 A 
ATOM     89  F   UNL     1     -16.412  -6.074  13.943  1.00  0.00    -0.205 F 
ATOM     90  C   UNL     1     -18.315  -3.686  15.961  1.00  0.00     0.022 A 
BRANCH  88  91
ATOM     91  S   UNL     1     -18.977  -6.323  15.637  1.00  0.00     0.127 S 
ATOM     92  O   UNL     1     -18.659  -6.644  17.028  1.00  0.00    -0.237 OA
ATOM     93  O   UNL     1     -20.319  -5.779  15.428  1.00  0.00    -0.237 OA
ATOM     94  O   UNL     1     -18.570  -7.323  14.659  1.00  0.00    -0.744 OA
ENDBRANCH  88  91
ENDBRANCH  61  84
ENDBRANCH  35  36
ENDBRANCH  27  30
ENDBRANCH  25  26
ENDBRANCH  24  25
ENDBRANCH   1  24
TORSDOF 18
