REMARK SMILES Cc1c(-c2nn(-c3ccccc3)cc2/C=N/O)nnn1-c1ccc(C(=O)NCCCCNC(=O)c2ccc(-c3c4nc(c(-c5cccc(S(=O)(=O)[O-])c5F)c5ccc([nH]5)c(-c5cccc(S(=O)(=O)[O-])c5F)c5nc(c(-c6cccc(S(=O)(=O)[O-])c6F)c6ccc3[nH]6)C=C5)C=C4)cc2)cc1
REMARK SMILES IDX 29 1 28 2 27 3 25 4 26 5 24 7 21 8 22 9 99 10 23 11 98 12
REMARK SMILES IDX 20 13 1 14 2 15 3 16 18 17 19 18 4 19 5 20 14 21 6 22 13 23
REMARK SMILES IDX 15 24 16 25 17 26 7 28 8 29 12 30 9 31 11 32 10 33 30 34
REMARK SMILES IDX 31 35 32 36 33 37 34 39 35 40 36 41 97 42 37 43 96 44 38 45
REMARK SMILES IDX 39 46 40 47 90 48 41 49 95 50 89 51 91 52 42 53 94 54 88 55
REMARK SMILES IDX 87 56 43 58 75 59 55 60 74 61 56 62 59 63 73 64 92 65 57 66
REMARK SMILES IDX 58 67 72 69 93 70 60 71 44 72 45 73 53 74 46 75 48 76 54 77
REMARK SMILES IDX 47 78 49 79 50 80 51 81 52 82 76 83 77 84 85 85 78 86 80 87
REMARK SMILES IDX 86 88 79 89 81 90 82 91 83 92 84 93 61 94 62 95 70 96 63 97
REMARK SMILES IDX 65 98 71 99 64 100 66 101 67 102 68 103 69 104
REMARK H PARENT 27 6 17 27 32 38 91 57 59 68
REMARK Flexibility Score: inf
ROOT
ATOM      1  C   UNL     1       4.806   2.086  -6.043  1.00  0.00     0.023 C 
ENDROOT
BRANCH   1   2
ATOM      2  C   UNL     1       5.461   1.429  -4.821  1.00  0.00     0.116 C 
BRANCH   2   3
ATOM      3  N   UNL     1       6.163   2.414  -4.022  1.00  0.00    -0.352 N 
ATOM      4  C   UNL     1       5.823   3.167  -2.928  1.00  0.00     0.251 C 
ATOM      5  O   UNL     1       6.654   3.990  -2.536  1.00  0.00    -0.269 OA
ATOM      6  H   UNL     1       7.082   2.578  -4.332  1.00  0.00     0.163 HD
BRANCH   4   7
ATOM      7  C   UNL     1       4.541   3.041  -2.171  1.00  0.00     0.039 A 
ATOM      8  C   UNL     1       2.252   2.842  -0.547  1.00  0.00     0.067 A 
ATOM      9  C   UNL     1       3.394   3.469  -0.050  1.00  0.00     0.029 A 
ATOM     10  C   UNL     1       2.224   2.366  -1.861  1.00  0.00     0.029 A 
ATOM     11  C   UNL     1       4.539   3.530  -0.850  1.00  0.00     0.016 A 
ATOM     12  C   UNL     1       3.351   2.513  -2.680  1.00  0.00     0.016 A 
BRANCH   8  13
ATOM     13  N   UNL     1       1.115   2.711   0.274  1.00  0.00    -0.217 N 
ATOM     14  C   UNL     1       0.669   0.223   0.052  1.00  0.00     0.069 C 
ATOM     15  C   UNL     1       0.310   1.603   0.458  1.00  0.00     0.071 A 
ATOM     16  C   UNL     1      -0.753   2.104   1.181  1.00  0.00     0.137 A 
ATOM     17  N   UNL     1      -0.540   3.417   1.488  1.00  0.00    -0.128 NA
ATOM     18  N   UNL     1       0.642   3.760   0.990  1.00  0.00    -0.061 NA
BRANCH  16  19
ATOM     19  C   UNL     1      -1.906   1.383   1.704  1.00  0.00     0.124 A 
ATOM     20  N   UNL     1      -1.800   0.589   2.774  1.00  0.00    -0.165 NA
ATOM     21  C   UNL     1      -3.214   1.392   1.166  1.00  0.00     0.044 A 
ATOM     22  N   UNL     1      -2.998  -0.020   2.867  1.00  0.00    -0.240 N 
ATOM     23  C   UNL     1      -3.881   0.437   1.915  1.00  0.00     0.125 A 
BRANCH  21  24
ATOM     24  C   UNL     1      -3.806   2.162   0.103  1.00  0.00     0.166 C 
ATOM     25  N   UNL     1      -3.074   2.939  -0.624  1.00  0.00    -0.097 NA
BRANCH  25  26
ATOM     26  O   UNL     1      -3.883   3.602  -1.556  1.00  0.00    -0.411 OA
ATOM     27  H   UNL     1      -3.501   4.207  -2.162  1.00  0.00     0.330 HD
ENDBRANCH  25  26
ENDBRANCH  21  24
BRANCH  22  28
ATOM     28  C   UNL     1      -3.219  -1.018   3.845  1.00  0.00     0.065 A 
ATOM     29  C   UNL     1      -2.519  -0.948   5.057  1.00  0.00     0.028 A 
ATOM     30  C   UNL     1      -4.092  -2.084   3.596  1.00  0.00     0.028 A 
ATOM     31  C   UNL     1      -2.706  -1.931   6.027  1.00  0.00     0.002 A 
ATOM     32  C   UNL     1      -4.234  -3.091   4.553  1.00  0.00     0.002 A 
ATOM     33  C   UNL     1      -3.551  -3.010   5.769  1.00  0.00     0.000 A 
ENDBRANCH  22  28
ENDBRANCH  16  19
ENDBRANCH   8  13
ENDBRANCH   4   7
ENDBRANCH   2   3
ENDBRANCH   1   2
BRANCH   1  34
ATOM     34  C   UNL     1       5.778   2.439  -7.181  1.00  0.00     0.023 C 
BRANCH  34  35
ATOM     35  C   UNL     1       6.358   1.235  -7.920  1.00  0.00     0.116 C 
BRANCH  35  36
ATOM     36  N   UNL     1       5.325   0.435  -8.580  1.00  0.00    -0.352 N 
ATOM     37  C   UNL     1       5.421  -0.851  -9.078  1.00  0.00     0.251 C 
ATOM     38  H   UNL     1       4.447   0.869  -8.682  1.00  0.00     0.163 HD
ATOM     39  O   UNL     1       4.638  -1.255  -9.921  1.00  0.00    -0.269 OA
BRANCH  37  40
ATOM     40  C   UNL     1       6.483  -1.732  -8.559  1.00  0.00     0.039 A 
ATOM     41  C   UNL     1       7.244  -2.526  -9.422  1.00  0.00     0.014 A 
ATOM     42  C   UNL     1       6.727  -1.726  -7.187  1.00  0.00     0.014 A 
ATOM     43  C   UNL     1       8.315  -3.247  -8.901  1.00  0.00     0.010 A 
ATOM     44  C   UNL     1       7.854  -2.337  -6.695  1.00  0.00     0.010 A 
ATOM     45  C   UNL     1       8.630  -3.129  -7.538  1.00  0.00    -0.014 A 
BRANCH  45  46
ATOM     46  C   UNL     1       9.866  -3.705  -7.012  1.00  0.00     0.031 A 
ATOM     47  C   UNL     1      11.101  -3.213  -7.684  1.00  0.00     0.074 A 
ATOM     48  C   UNL     1       9.904  -4.420  -5.866  1.00  0.00     0.049 A 
ATOM     49  N   UNL     1      11.915  -3.881  -8.433  1.00  0.00    -0.248 NA
ATOM     50  C   UNL     1      11.376  -1.767  -7.656  1.00  0.00     0.031 C 
ATOM     51  C   UNL     1       8.788  -4.674  -4.944  1.00  0.00     0.029 A 
ATOM     52  N   UNL     1      10.972  -4.939  -5.196  1.00  0.00    -0.354 N 
ATOM     53  C   UNL     1      12.946  -2.993  -8.748  1.00  0.00     0.074 A 
ATOM     54  C   UNL     1      12.442  -1.681  -8.454  1.00  0.00     0.031 C 
ATOM     55  C   UNL     1       9.274  -5.048  -3.741  1.00  0.00     0.029 A 
ATOM     56  C   UNL     1      10.706  -5.234  -3.860  1.00  0.00     0.049 A 
ATOM     57  H   UNL     1      11.849  -5.091  -5.616  1.00  0.00     0.167 HD
ATOM     58  C   UNL     1      14.221  -3.437  -8.935  1.00  0.00     0.034 A 
ATOM     59  C   UNL     1      11.601  -5.574  -2.902  1.00  0.00     0.034 A 
ATOM     60  C   UNL     1      14.242  -4.874  -9.062  1.00  0.00     0.049 A 
ATOM     61  C   UNL     1      12.816  -6.053  -3.589  1.00  0.00     0.074 A 
ATOM     62  C   UNL     1      13.760  -5.806  -9.953  1.00  0.00     0.029 A 
ATOM     63  N   UNL     1      14.536  -5.537  -7.898  1.00  0.00    -0.354 N 
ATOM     64  N   UNL     1      12.855  -7.146  -4.297  1.00  0.00    -0.248 NA
ATOM     65  C   UNL     1      13.919  -5.129  -3.798  1.00  0.00     0.031 C 
ATOM     66  C   UNL     1      13.469  -6.961  -9.168  1.00  0.00     0.029 A 
ATOM     67  C   UNL     1      13.836  -6.708  -7.844  1.00  0.00     0.049 A 
ATOM     68  H   UNL     1      15.159  -5.218  -7.206  1.00  0.00     0.167 HD
ATOM     69  C   UNL     1      13.695  -6.830  -5.353  1.00  0.00     0.074 A 
ATOM     70  C   UNL     1      14.451  -5.669  -4.898  1.00  0.00     0.031 C 
ATOM     71  C   UNL     1      13.467  -7.344  -6.596  1.00  0.00     0.034 A 
BRANCH  58  72
ATOM     72  C   UNL     1      15.496  -2.698  -8.547  1.00  0.00     0.023 A 
ATOM     73  C   UNL     1      16.721  -3.348  -8.839  1.00  0.00     0.012 A 
ATOM     74  C   UNL     1      15.567  -1.593  -7.668  1.00  0.00     0.148 A 
ATOM     75  C   UNL     1      17.925  -2.978  -8.229  1.00  0.00     0.002 A 
ATOM     76  C   UNL     1      16.778  -1.182  -7.118  1.00  0.00     0.091 A 
ATOM     77  F   UNL     1      14.453  -0.996  -7.245  1.00  0.00    -0.205 F 
ATOM     78  C   UNL     1      17.954  -1.892  -7.366  1.00  0.00     0.022 A 
BRANCH  76  79
ATOM     79  S   UNL     1      16.884   0.241  -6.023  1.00  0.00     0.127 S 
ATOM     80  O   UNL     1      17.137  -0.400  -4.736  1.00  0.00    -0.237 OA
ATOM     81  O   UNL     1      18.020   0.968  -6.590  1.00  0.00    -0.237 OA
ATOM     82  O   UNL     1      15.608   0.933  -6.152  1.00  0.00    -0.744 OA
ENDBRANCH  76  79
ENDBRANCH  58  72
BRANCH  59  83
ATOM     83  C   UNL     1      11.562  -5.362  -1.439  1.00  0.00     0.023 A 
ATOM     84  C   UNL     1      12.296  -6.207  -0.584  1.00  0.00     0.012 A 
ATOM     85  C   UNL     1      11.029  -4.169  -0.906  1.00  0.00     0.148 A 
ATOM     86  C   UNL     1      12.524  -5.857   0.752  1.00  0.00     0.002 A 
ATOM     87  C   UNL     1      11.255  -3.826   0.423  1.00  0.00     0.091 A 
ATOM     88  F   UNL     1      10.376  -3.336  -1.728  1.00  0.00    -0.205 F 
ATOM     89  C   UNL     1      12.014  -4.662   1.252  1.00  0.00     0.022 A 
BRANCH  87  90
ATOM     90  S   UNL     1      10.657  -2.288   1.137  1.00  0.00     0.127 S 
ATOM     91  O   UNL     1       9.936  -2.766   2.316  1.00  0.00    -0.237 OA
ATOM     92  O   UNL     1      11.905  -1.585   1.424  1.00  0.00    -0.237 OA
ATOM     93  O   UNL     1       9.811  -1.679   0.118  1.00  0.00    -0.744 OA
ENDBRANCH  87  90
ENDBRANCH  59  83
BRANCH  71  94
ATOM     94  C   UNL     1      12.579  -8.555  -6.700  1.00  0.00     0.023 A 
ATOM     95  C   UNL     1      11.205  -8.531  -6.389  1.00  0.00     0.012 A 
ATOM     96  C   UNL     1      13.130  -9.713  -7.274  1.00  0.00     0.148 A 
ATOM     97  C   UNL     1      10.402  -9.649  -6.631  1.00  0.00     0.002 A 
ATOM     98  C   UNL     1      12.319 -10.800  -7.562  1.00  0.00     0.091 A 
ATOM     99  F   UNL     1      14.442  -9.717  -7.556  1.00  0.00    -0.205 F 
ATOM    100  C   UNL     1      10.955 -10.778  -7.232  1.00  0.00     0.022 A 
BRANCH  98 101
ATOM    101  S   UNL     1      12.952 -12.219  -8.458  1.00  0.00     0.127 S 
ATOM    102  O   UNL     1      13.090 -13.213  -7.397  1.00  0.00    -0.237 OA
ATOM    103  O   UNL     1      11.879 -12.489  -9.416  1.00  0.00    -0.237 OA
ATOM    104  O   UNL     1      14.198 -11.778  -9.074  1.00  0.00    -0.744 OA
ENDBRANCH  98 101
ENDBRANCH  71  94
ENDBRANCH  45  46
ENDBRANCH  37  40
ENDBRANCH  35  36
ENDBRANCH  34  35
ENDBRANCH   1  34
TORSDOF 19
