REMARK SMILES O=C(Nc1cccc(C(=O)NCCCCNC(=O)c2ccc(-c3c4nc(c(-c5cccc(S(=O)(=O)[O-])c5F)c5ccc([nH]5)c(-c5cccc(S(=O)(=O)[O-])c5F)c5nc(c(-c6cccc(S(=O)(=O)[O-])c6F)c6ccc3[nH]6)C=C5)C=C4)cc2)c1)Nc1cc(Cl)c(Cl)cc1Cl
REMARK SMILES IDX 14 1 13 2 12 3 11 4 9 5 10 6 8 8 4 9 5 10 82 11 6 12 7 13
REMARK SMILES IDX 3 14 1 15 2 16 83 17 84 20 85 21 91 22 86 23 90 24 92 25
REMARK SMILES IDX 87 26 88 27 89 28 15 29 16 30 17 31 18 33 19 34 20 35 81 36
REMARK SMILES IDX 21 37 80 38 22 39 23 40 24 41 74 42 25 43 79 44 73 45 75 46
REMARK SMILES IDX 26 47 78 48 72 49 71 50 27 52 59 53 39 54 58 55 40 56 43 57
REMARK SMILES IDX 57 58 76 59 41 60 42 61 56 63 77 64 44 65 28 66 29 67 37 68
REMARK SMILES IDX 30 69 32 70 38 71 31 72 33 73 34 74 35 75 36 76 60 77 61 78
REMARK SMILES IDX 69 79 62 80 64 81 70 82 63 83 65 84 66 85 67 86 68 87 45 88
REMARK SMILES IDX 46 89 54 90 47 91 49 92 55 93 48 94 50 95 51 96 52 97 53 98
REMARK H PARENT 11 7 3 18 83 19 16 32 75 51 43 62
REMARK Flexibility Score: inf
ROOT
ATOM      1  C   UNL     1       4.553   4.933  -2.260  1.00  0.00     0.023 C 
ENDROOT
BRANCH   1   2
ATOM      2  C   UNL     1       4.383   3.559  -1.606  1.00  0.00     0.023 C 
BRANCH   2   3
ATOM      3  C   UNL     1       5.331   2.483  -2.142  1.00  0.00     0.116 C 
BRANCH   3   4
ATOM      4  N   UNL     1       6.611   2.520  -1.463  1.00  0.00    -0.352 N 
ATOM      5  C   UNL     1       7.099   1.922  -0.330  1.00  0.00     0.251 C 
ATOM      6  O   UNL     1       8.277   2.149  -0.047  1.00  0.00    -0.269 OA
ATOM      7  H   UNL     1       7.270   3.098  -1.911  1.00  0.00     0.163 HD
BRANCH   5   8
ATOM      8  C   UNL     1       6.323   1.001   0.560  1.00  0.00     0.041 A 
ATOM      9  C   UNL     1       4.306  -0.100   1.384  1.00  0.00     0.043 A 
ATOM     10  C   UNL     1       5.046  -0.751   2.368  1.00  0.00     0.026 A 
ATOM     11  C   UNL     1       4.940   0.814   0.530  1.00  0.00     0.040 A 
ATOM     12  C   UNL     1       6.424  -0.564   2.433  1.00  0.00     0.003 A 
ATOM     13  C   UNL     1       7.056   0.290   1.526  1.00  0.00     0.014 A 
BRANCH   9  14
ATOM     14  N   UNL     1       2.929  -0.369   1.298  1.00  0.00    -0.308 N 
ATOM     15  O   UNL     1       0.875  -0.372   0.383  1.00  0.00    -0.248 OA
ATOM     16  C   UNL     1       2.088  -0.303   0.210  1.00  0.00     0.323 C 
ATOM     17  N   UNL     1       2.713  -0.355  -1.014  1.00  0.00    -0.306 N 
ATOM     18  H   UNL     1       2.502  -0.645   2.141  1.00  0.00     0.171 HD
ATOM     19  H   UNL     1       3.687  -0.500  -1.007  1.00  0.00     0.171 HD
BRANCH  17  20
ATOM     20  C   UNL     1       2.100  -0.222  -2.278  1.00  0.00     0.063 A 
ATOM     21  C   UNL     1       2.611  -1.050  -3.289  1.00  0.00     0.049 A 
ATOM     22  C   UNL     1       1.070   0.680  -2.599  1.00  0.00     0.066 A 
ATOM     23  C   UNL     1       2.053  -1.048  -4.571  1.00  0.00     0.061 A 
ATOM     24  C   UNL     1       0.522   0.690  -3.888  1.00  0.00     0.044 A 
ATOM     25  Cl  UNL     1       0.547   1.936  -1.532  1.00  0.00    -0.082 Cl
ATOM     26  Cl  UNL     1       2.710  -2.148  -5.730  1.00  0.00    -0.083 Cl
ATOM     27  C   UNL     1       0.996  -0.185  -4.868  1.00  0.00     0.061 A 
ATOM     28  Cl  UNL     1       0.249  -0.142  -6.424  1.00  0.00    -0.083 Cl
ENDBRANCH  17  20
ENDBRANCH   9  14
ENDBRANCH   5   8
ENDBRANCH   3   4
ENDBRANCH   2   3
ENDBRANCH   1   2
BRANCH   1  29
ATOM     29  C   UNL     1       4.194   4.983  -3.741  1.00  0.00     0.116 C 
BRANCH  29  30
ATOM     30  N   UNL     1       2.819   4.593  -4.024  1.00  0.00    -0.352 N 
ATOM     31  C   UNL     1       2.082   4.894  -5.150  1.00  0.00     0.251 C 
ATOM     32  H   UNL     1       2.366   4.056  -3.334  1.00  0.00     0.163 HD
ATOM     33  O   UNL     1       0.912   4.565  -5.244  1.00  0.00    -0.269 OA
BRANCH  31  34
ATOM     34  C   UNL     1       2.742   5.675  -6.220  1.00  0.00     0.039 A 
ATOM     35  C   UNL     1       2.219   6.923  -6.571  1.00  0.00     0.014 A 
ATOM     36  C   UNL     1       3.925   5.210  -6.796  1.00  0.00     0.014 A 
ATOM     37  C   UNL     1       2.929   7.742  -7.454  1.00  0.00     0.010 A 
ATOM     38  C   UNL     1       4.656   6.051  -7.628  1.00  0.00     0.010 A 
ATOM     39  C   UNL     1       4.171   7.327  -7.960  1.00  0.00    -0.014 A 
BRANCH  39  40
ATOM     40  C   UNL     1       5.000   8.198  -8.831  1.00  0.00     0.031 A 
ATOM     41  C   UNL     1       5.302   7.766 -10.240  1.00  0.00     0.074 A 
ATOM     42  C   UNL     1       5.590   9.296  -8.318  1.00  0.00     0.049 A 
ATOM     43  N   UNL     1       6.130   8.290 -11.104  1.00  0.00    -0.248 NA
ATOM     44  C   UNL     1       4.606   6.562 -10.729  1.00  0.00     0.031 C 
ATOM     45  C   UNL     1       5.434   9.783  -6.945  1.00  0.00     0.029 A 
ATOM     46  N   UNL     1       6.477  10.181  -8.882  1.00  0.00    -0.354 N 
ATOM     47  C   UNL     1       6.105   7.449 -12.210  1.00  0.00     0.074 A 
ATOM     48  C   UNL     1       5.184   6.375 -11.907  1.00  0.00     0.031 C 
ATOM     49  C   UNL     1       6.205  10.870  -6.772  1.00  0.00     0.029 A 
ATOM     50  C   UNL     1       6.932  11.143  -8.008  1.00  0.00     0.049 A 
ATOM     51  H   UNL     1       6.761  10.132  -9.823  1.00  0.00     0.167 HD
ATOM     52  C   UNL     1       6.771   7.572 -13.382  1.00  0.00     0.034 A 
ATOM     53  C   UNL     1       7.840  12.124  -8.181  1.00  0.00     0.034 A 
ATOM     54  C   UNL     1       7.615   8.687 -13.713  1.00  0.00     0.049 A 
ATOM     55  C   UNL     1       8.504  12.280  -9.524  1.00  0.00     0.074 A 
ATOM     56  C   UNL     1       8.237   8.963 -14.918  1.00  0.00     0.029 A 
ATOM     57  N   UNL     1       7.947   9.713 -12.844  1.00  0.00    -0.354 N 
ATOM     58  N   UNL     1       8.338  11.569 -10.613  1.00  0.00    -0.248 NA
ATOM     59  C   UNL     1       9.456  13.392  -9.674  1.00  0.00     0.031 C 
ATOM     60  C   UNL     1       8.950  10.157 -14.776  1.00  0.00     0.029 A 
ATOM     61  C   UNL     1       8.765  10.625 -13.485  1.00  0.00     0.049 A 
ATOM     62  H   UNL     1       7.646   9.782 -11.910  1.00  0.00     0.167 HD
ATOM     63  C   UNL     1       9.125  12.174 -11.586  1.00  0.00     0.074 A 
ATOM     64  C   UNL     1       9.761  13.316 -10.963  1.00  0.00     0.031 C 
ATOM     65  C   UNL     1       9.318  11.806 -12.876  1.00  0.00     0.034 A 
BRANCH  52  66
ATOM     66  C   UNL     1       6.567   6.510 -14.425  1.00  0.00     0.023 A 
ATOM     67  C   UNL     1       5.365   6.482 -15.159  1.00  0.00     0.012 A 
ATOM     68  C   UNL     1       7.593   5.596 -14.737  1.00  0.00     0.148 A 
ATOM     69  C   UNL     1       5.176   5.545 -16.174  1.00  0.00     0.002 A 
ATOM     70  C   UNL     1       7.411   4.689 -15.776  1.00  0.00     0.091 A 
ATOM     71  F   UNL     1       8.720   5.626 -14.012  1.00  0.00    -0.205 F 
ATOM     72  C   UNL     1       6.202   4.658 -16.489  1.00  0.00     0.022 A 
BRANCH  70  73
ATOM     73  S   UNL     1       8.699   3.556 -16.308  1.00  0.00     0.127 S 
ATOM     74  O   UNL     1       8.174   2.273 -15.841  1.00  0.00    -0.237 OA
ATOM     75  O   UNL     1       8.683   3.729 -17.761  1.00  0.00    -0.237 OA
ATOM     76  O   UNL     1       9.922   4.004 -15.657  1.00  0.00    -0.744 OA
ENDBRANCH  70  73
ENDBRANCH  52  66
BRANCH  53  77
ATOM     77  C   UNL     1       8.122  13.092  -7.082  1.00  0.00     0.023 A 
ATOM     78  C   UNL     1       7.672  14.421  -7.212  1.00  0.00     0.012 A 
ATOM     79  C   UNL     1       8.818  12.716  -5.918  1.00  0.00     0.148 A 
ATOM     80  C   UNL     1       7.941  15.365  -6.221  1.00  0.00     0.002 A 
ATOM     81  C   UNL     1       9.039  13.650  -4.911  1.00  0.00     0.091 A 
ATOM     82  F   UNL     1       9.258  11.453  -5.816  1.00  0.00    -0.205 F 
ATOM     83  C   UNL     1       8.616  14.979  -5.067  1.00  0.00     0.022 A 
BRANCH  81  84
ATOM     84  S   UNL     1       9.790  13.190  -3.345  1.00  0.00     0.127 S 
ATOM     85  O   UNL     1      11.183  13.575  -3.554  1.00  0.00    -0.237 OA
ATOM     86  O   UNL     1       9.058  14.023  -2.389  1.00  0.00    -0.237 OA
ATOM     87  O   UNL     1       9.529  11.763  -3.208  1.00  0.00    -0.744 OA
ENDBRANCH  81  84
ENDBRANCH  53  77
BRANCH  65  88
ATOM     88  C   UNL     1      10.204  12.667 -13.733  1.00  0.00     0.023 A 
ATOM     89  C   UNL     1      11.602  12.589 -13.587  1.00  0.00     0.012 A 
ATOM     90  C   UNL     1       9.655  13.464 -14.757  1.00  0.00     0.148 A 
ATOM     91  C   UNL     1      12.442  13.304 -14.440  1.00  0.00     0.002 A 
ATOM     92  C   UNL     1      10.499  14.140 -15.630  1.00  0.00     0.091 A 
ATOM     93  F   UNL     1       8.320  13.539 -14.864  1.00  0.00    -0.205 F 
ATOM     94  C   UNL     1      11.892  14.067 -15.468  1.00  0.00     0.022 A 
BRANCH  92  95
ATOM     95  S   UNL     1       9.879  15.066 -17.039  1.00  0.00     0.127 S 
ATOM     96  O   UNL     1      10.045  16.446 -16.586  1.00  0.00    -0.237 OA
ATOM     97  O   UNL     1      10.792  14.660 -18.107  1.00  0.00    -0.237 OA
ATOM     98  O   UNL     1       8.501  14.630 -17.227  1.00  0.00    -0.744 OA
ENDBRANCH  92  95
ENDBRANCH  65  88
ENDBRANCH  39  40
ENDBRANCH  31  34
ENDBRANCH  29  30
ENDBRANCH   1  29
TORSDOF 16
