REMARK SMILES CCCCCN(C)S(=O)(=O)c1cc(Cl)cc(C(=O)NCCCCNC(=O)c2ccc(-c3c4nc(c(-c5cccc(S(=O)(=O)[O-])c5F)c5ccc([nH]5)c(-c5cccc(S(=O)(=O)[O-])c5F)c5nc(c(-c6cccc(S(=O)(=O)[O-])c6F)c6ccc3[nH]6)C=C5)C=C4)cc2)c1F
REMARK SMILES IDX 20 1 19 2 17 3 18 4 16 6 11 7 12 8 90 9 13 10 91 11 14 12
REMARK SMILES IDX 15 13 8 14 9 15 10 16 6 17 7 18 5 19 4 20 3 21 2 22 1 23
REMARK SMILES IDX 21 24 22 25 23 26 24 27 25 28 26 30 27 31 28 32 89 33 29 34
REMARK SMILES IDX 88 35 30 36 31 37 32 38 82 39 33 40 87 41 81 42 83 43 34 44
REMARK SMILES IDX 86 45 80 46 79 47 35 49 67 50 47 51 66 52 48 53 51 54 65 55
REMARK SMILES IDX 84 56 49 57 50 58 64 60 85 61 52 62 36 63 37 64 45 65 38 66
REMARK SMILES IDX 40 67 46 68 39 69 41 70 42 71 43 72 44 73 68 74 69 75 77 76
REMARK SMILES IDX 70 77 72 78 78 79 71 80 73 81 74 82 75 83 76 84 53 85 54 86
REMARK SMILES IDX 62 87 55 88 57 89 63 90 56 91 58 92 59 93 60 94 61 95
REMARK H PARENT 19 5 24 29 83 48 51 59
REMARK Flexibility Score: inf
ROOT
ATOM      1  C   UNL     1       1.702   7.503  -1.062  1.00  0.00     0.116 C 
ENDROOT
BRANCH   1   2
ATOM      2  N   UNL     1       0.801   8.617  -1.299  1.00  0.00    -0.352 N 
ATOM      3  C   UNL     1      -0.560   8.737  -1.249  1.00  0.00     0.254 C 
ATOM      4  O   UNL     1      -1.046   9.828  -1.555  1.00  0.00    -0.269 OA
ATOM      5  H   UNL     1       1.262   9.451  -1.544  1.00  0.00     0.163 HD
BRANCH   3   6
ATOM      6  C   UNL     1      -1.491   7.681  -0.772  1.00  0.00     0.078 A 
ATOM      7  C   UNL     1      -2.247   5.422  -0.363  1.00  0.00     0.120 A 
ATOM      8  C   UNL     1      -3.403   5.887   0.269  1.00  0.00     0.045 A 
ATOM      9  C   UNL     1      -1.323   6.304  -0.921  1.00  0.00     0.156 A 
ATOM     10  C   UNL     1      -3.611   7.255   0.359  1.00  0.00     0.043 A 
ATOM     11  F   UNL     1      -0.312   5.798  -1.632  1.00  0.00    -0.205 F 
ATOM     12  Cl  UNL     1      -5.030   7.850   1.125  1.00  0.00    -0.084 Cl
ATOM     13  C   UNL     1      -2.661   8.146  -0.138  1.00  0.00     0.037 A 
BRANCH   7  14
ATOM     14  S   UNL     1      -1.837   3.711  -0.256  1.00  0.00     0.245 S 
ATOM     15  O   UNL     1      -2.970   3.024   0.319  1.00  0.00    -0.207 OA
ATOM     16  O   UNL     1      -0.545   3.663   0.401  1.00  0.00    -0.207 OA
BRANCH  14  17
ATOM     17  N   UNL     1      -1.690   3.151  -1.872  1.00  0.00    -0.201 NA
ATOM     18  C   UNL     1      -2.948   3.292  -2.656  1.00  0.00     0.124 C 
BRANCH  17  19
ATOM     19  C   UNL     1      -1.173   1.741  -1.973  1.00  0.00     0.102 C 
BRANCH  19  20
ATOM     20  C   UNL     1       0.309   1.674  -2.348  1.00  0.00     0.017 C 
BRANCH  20  21
ATOM     21  C   UNL     1       1.331   1.853  -1.219  1.00  0.00     0.001 C 
BRANCH  21  22
ATOM     22  C   UNL     1       1.102   1.019   0.046  1.00  0.00    -0.003 C 
ATOM     23  C   UNL     1       1.220  -0.480  -0.172  1.00  0.00     0.004 C 
ENDBRANCH  21  22
ENDBRANCH  20  21
ENDBRANCH  19  20
ENDBRANCH  17  19
ENDBRANCH  14  17
ENDBRANCH   7  14
ENDBRANCH   3   6
ENDBRANCH   1   2
BRANCH   1  24
ATOM     24  C   UNL     1       2.098   6.849  -2.389  1.00  0.00     0.023 C 
BRANCH  24  25
ATOM     25  C   UNL     1       3.162   7.619  -3.180  1.00  0.00     0.023 C 
BRANCH  25  26
ATOM     26  C   UNL     1       4.550   7.624  -2.547  1.00  0.00     0.116 C 
BRANCH  26  27
ATOM     27  N   UNL     1       5.115   6.290  -2.407  1.00  0.00    -0.352 N 
ATOM     28  C   UNL     1       6.433   5.905  -2.475  1.00  0.00     0.251 C 
ATOM     29  H   UNL     1       4.468   5.567  -2.242  1.00  0.00     0.163 HD
ATOM     30  O   UNL     1       6.727   4.713  -2.446  1.00  0.00    -0.269 OA
BRANCH  28  31
ATOM     31  C   UNL     1       7.489   6.929  -2.623  1.00  0.00     0.039 A 
ATOM     32  C   UNL     1       8.474   6.741  -3.597  1.00  0.00     0.014 A 
ATOM     33  C   UNL     1       7.501   8.073  -1.822  1.00  0.00     0.014 A 
ATOM     34  C   UNL     1       9.434   7.732  -3.812  1.00  0.00     0.010 A 
ATOM     35  C   UNL     1       8.421   9.085  -2.076  1.00  0.00     0.010 A 
ATOM     36  C   UNL     1       9.395   8.926  -3.073  1.00  0.00    -0.014 A 
BRANCH  36  37
ATOM     37  C   UNL     1      10.350  10.030  -3.338  1.00  0.00     0.031 A 
ATOM     38  C   UNL     1      11.348  10.435  -2.290  1.00  0.00     0.074 A 
ATOM     39  C   UNL     1      10.248  10.733  -4.483  1.00  0.00     0.049 A 
ATOM     40  N   UNL     1      12.210  11.418  -2.310  1.00  0.00    -0.248 NA
ATOM     41  C   UNL     1      11.359   9.652  -1.043  1.00  0.00     0.031 C 
ATOM     42  C   UNL     1       9.263  10.491  -5.539  1.00  0.00     0.029 A 
ATOM     43  N   UNL     1      10.959  11.816  -4.934  1.00  0.00    -0.354 N 
ATOM     44  C   UNL     1      12.837  11.397  -1.071  1.00  0.00     0.074 A 
ATOM     45  C   UNL     1      12.239  10.321  -0.312  1.00  0.00     0.031 C 
ATOM     46  C   UNL     1       9.432  11.398  -6.515  1.00  0.00     0.029 A 
ATOM     47  C   UNL     1      10.522  12.296  -6.147  1.00  0.00     0.049 A 
ATOM     48  H   UNL     1      11.711  12.212  -4.438  1.00  0.00     0.167 HD
ATOM     49  C   UNL     1      13.843  12.182  -0.617  1.00  0.00     0.034 A 
ATOM     50  C   UNL     1      10.953  13.342  -6.880  1.00  0.00     0.034 A 
ATOM     51  C   UNL     1      14.479  13.209  -1.397  1.00  0.00     0.049 A 
ATOM     52  C   UNL     1      12.119  14.152  -6.383  1.00  0.00     0.074 A 
ATOM     53  C   UNL     1      15.571  13.990  -1.065  1.00  0.00     0.029 A 
ATOM     54  N   UNL     1      14.083  13.594  -2.668  1.00  0.00    -0.354 N 
ATOM     55  N   UNL     1      12.811  14.009  -5.279  1.00  0.00    -0.248 NA
ATOM     56  C   UNL     1      12.588  15.244  -7.249  1.00  0.00     0.031 C 
ATOM     57  C   UNL     1      15.836  14.850  -2.137  1.00  0.00     0.029 A 
ATOM     58  C   UNL     1      14.908  14.602  -3.136  1.00  0.00     0.049 A 
ATOM     59  H   UNL     1      13.326  13.208  -3.165  1.00  0.00     0.167 HD
ATOM     60  C   UNL     1      13.816  14.968  -5.332  1.00  0.00     0.074 A 
ATOM     61  C   UNL     1      13.654  15.675  -6.586  1.00  0.00     0.031 C 
ATOM     62  C   UNL     1      14.773  15.251  -4.415  1.00  0.00     0.034 A 
BRANCH  49  63
ATOM     63  C   UNL     1      14.370  11.905   0.765  1.00  0.00     0.023 A 
ATOM     64  C   UNL     1      15.177  10.768   0.976  1.00  0.00     0.012 A 
ATOM     65  C   UNL     1      14.113  12.780   1.837  1.00  0.00     0.148 A 
ATOM     66  C   UNL     1      15.693  10.488   2.240  1.00  0.00     0.002 A 
ATOM     67  C   UNL     1      14.662  12.513   3.087  1.00  0.00     0.091 A 
ATOM     68  F   UNL     1      13.320  13.840   1.625  1.00  0.00    -0.205 F 
ATOM     69  C   UNL     1      15.444  11.365   3.292  1.00  0.00     0.022 A 
BRANCH  67  70
ATOM     70  S   UNL     1      14.448  13.625   4.483  1.00  0.00     0.127 S 
ATOM     71  O   UNL     1      13.392  12.953   5.238  1.00  0.00    -0.237 OA
ATOM     72  O   UNL     1      15.767  13.590   5.117  1.00  0.00    -0.237 OA
ATOM     73  O   UNL     1      14.093  14.914   3.907  1.00  0.00    -0.744 OA
ENDBRANCH  67  70
ENDBRANCH  49  63
BRANCH  50  74
ATOM     74  C   UNL     1      10.338  13.615  -8.209  1.00  0.00     0.023 A 
ATOM     75  C   UNL     1      11.068  13.312  -9.374  1.00  0.00     0.012 A 
ATOM     76  C   UNL     1       9.030  14.121  -8.329  1.00  0.00     0.148 A 
ATOM     77  C   UNL     1      10.515  13.530 -10.636  1.00  0.00     0.002 A 
ATOM     78  C   UNL     1       8.467  14.290  -9.589  1.00  0.00     0.091 A 
ATOM     79  F   UNL     1       8.356  14.419  -7.208  1.00  0.00    -0.205 F 
ATOM     80  C   UNL     1       9.212  14.007 -10.745  1.00  0.00     0.022 A 
BRANCH  78  81
ATOM     81  S   UNL     1       6.752  14.778  -9.813  1.00  0.00     0.127 S 
ATOM     82  O   UNL     1       6.885  16.184 -10.181  1.00  0.00    -0.237 OA
ATOM     83  O   UNL     1       6.319  13.895 -10.897  1.00  0.00    -0.237 OA
ATOM     84  O   UNL     1       6.106  14.510  -8.534  1.00  0.00    -0.744 OA
ENDBRANCH  78  81
ENDBRANCH  50  74
BRANCH  62  85
ATOM     85  C   UNL     1      15.740  16.359  -4.735  1.00  0.00     0.023 A 
ATOM     86  C   UNL     1      15.319  17.698  -4.621  1.00  0.00     0.012 A 
ATOM     87  C   UNL     1      17.081  16.079  -5.062  1.00  0.00     0.148 A 
ATOM     88  C   UNL     1      16.213  18.743  -4.849  1.00  0.00     0.002 A 
ATOM     89  C   UNL     1      17.976  17.125  -5.250  1.00  0.00     0.091 A 
ATOM     90  F   UNL     1      17.456  14.797  -5.190  1.00  0.00    -0.205 F 
ATOM     91  C   UNL     1      17.543  18.457  -5.151  1.00  0.00     0.022 A 
BRANCH  89  92
ATOM     92  S   UNL     1      19.724  16.839  -5.556  1.00  0.00     0.127 S 
ATOM     93  O   UNL     1      19.808  17.022  -7.003  1.00  0.00    -0.237 OA
ATOM     94  O   UNL     1      20.360  17.898  -4.770  1.00  0.00    -0.237 OA
ATOM     95  O   UNL     1      19.992  15.492  -5.071  1.00  0.00    -0.744 OA
ENDBRANCH  89  92
ENDBRANCH  62  85
ENDBRANCH  36  37
ENDBRANCH  28  31
ENDBRANCH  26  27
ENDBRANCH  25  26
ENDBRANCH  24  25
ENDBRANCH   1  24
TORSDOF 20
