REMARK SMILES C[C@]12C(=O)N(c3ccc(C(=O)NCCCCNC(=O)c4ccc(-c5c6nc(c(-c7cccc(S(=O)(=O)[O-])c7F)c7ccc([nH]7)c(-c7cccc(S(=O)(=O)[O-])c7F)c7nc(c(-c8cccc(S(=O)(=O)[O-])c8F)c8ccc5[nH]8)C=C7)C=C6)cc4)cc3)C(=O)[C@H]1[C@H]1c3ccccc3[C@@H]2c2ccccc21
REMARK SMILES IDX 15 1 14 2 13 3 12 4 10 5 11 6 9 8 6 9 7 10 84 11 8 12 83 13
REMARK SMILES IDX 5 14 1 15 2 16 3 17 87 18 95 19 4 20 85 21 88 22 94 23 96 24
REMARK SMILES IDX 86 25 89 26 101 27 93 28 97 29 90 30 100 31 92 32 98 33
REMARK SMILES IDX 91 34 99 35 16 36 17 37 18 38 19 40 20 41 21 42 82 43 22 44
REMARK SMILES IDX 81 45 23 46 24 47 25 48 75 49 26 50 80 51 74 52 76 53 27 54
REMARK SMILES IDX 79 55 73 56 72 57 28 59 60 60 40 61 59 62 41 63 44 64 58 65
REMARK SMILES IDX 77 66 42 67 43 68 57 70 78 71 45 72 29 73 30 74 38 75 31 76
REMARK SMILES IDX 33 77 39 78 32 79 34 80 35 81 36 82 37 83 61 84 62 85 70 86
REMARK SMILES IDX 63 87 65 88 71 89 64 90 66 91 67 92 68 93 69 94 46 95 47 96
REMARK SMILES IDX 55 97 48 98 50 99 56 100 49 101 51 102 52 103 53 104 54 105
REMARK H PARENT 12 7 17 39 76 58 44 69
REMARK Flexibility Score: inf
ROOT
ATOM      1  C   UNL     1       4.795  11.361   2.463  1.00  0.00     0.023 C 
ENDROOT
BRANCH   1   2
ATOM      2  C   UNL     1       4.413   9.889   2.548  1.00  0.00     0.023 C 
BRANCH   2   3
ATOM      3  C   UNL     1       3.006   9.549   2.081  1.00  0.00     0.116 C 
BRANCH   3   4
ATOM      4  N   UNL     1       2.786   9.816   0.670  1.00  0.00    -0.352 N 
ATOM      5  C   UNL     1       2.485   8.955  -0.355  1.00  0.00     0.251 C 
ATOM      6  O   UNL     1       2.424   9.371  -1.509  1.00  0.00    -0.269 OA
ATOM      7  H   UNL     1       2.866  10.761   0.408  1.00  0.00     0.163 HD
BRANCH   5   8
ATOM      8  C   UNL     1       2.244   7.520  -0.092  1.00  0.00     0.039 A 
ATOM      9  C   UNL     1       1.763   4.759   0.327  1.00  0.00     0.052 A 
ATOM     10  C   UNL     1       2.537   5.212  -0.759  1.00  0.00     0.027 A 
ATOM     11  C   UNL     1       1.246   5.730   1.195  1.00  0.00     0.027 A 
ATOM     12  C   UNL     1       2.778   6.577  -0.967  1.00  0.00     0.016 A 
ATOM     13  C   UNL     1       1.442   7.092   0.963  1.00  0.00     0.016 A 
BRANCH   9  14
ATOM     14  N   UNL     1       1.333   3.404   0.439  1.00  0.00    -0.250 N 
ATOM     15  C   UNL     1       1.098  -0.000  -0.342  1.00  0.00     0.024 C 
ATOM     16  C   UNL     1       0.499   1.408  -0.426  1.00  0.00     0.071 C 
ATOM     17  C   UNL     1       1.603   2.430  -0.495  1.00  0.00     0.241 C 
ATOM     18  C   UNL     1      -0.272   1.731   0.884  1.00  0.00     0.107 C 
ATOM     19  C   UNL     1      -0.421   1.678  -1.667  1.00  0.00     0.066 C 
ATOM     20  O   UNL     1       2.511   2.351  -1.303  1.00  0.00    -0.273 OA
ATOM     21  C   UNL     1       0.491   2.919   1.421  1.00  0.00     0.238 C 
ATOM     22  C   UNL     1      -1.776   2.037   0.568  1.00  0.00     0.063 C 
ATOM     23  C   UNL     1      -1.028   3.088  -1.526  1.00  0.00    -0.036 A 
ATOM     24  C   UNL     1      -1.571   0.699  -1.506  1.00  0.00    -0.036 A 
ATOM     25  O   UNL     1       0.362   3.300   2.579  1.00  0.00    -0.274 OA
ATOM     26  C   UNL     1      -1.781   3.268  -0.335  1.00  0.00    -0.036 A 
ATOM     27  C   UNL     1      -2.288   0.866  -0.289  1.00  0.00    -0.036 A 
ATOM     28  C   UNL     1      -0.830   4.155  -2.392  1.00  0.00     0.005 A 
ATOM     29  C   UNL     1      -1.907  -0.283  -2.426  1.00  0.00     0.005 A 
ATOM     30  C   UNL     1      -2.364   4.492  -0.032  1.00  0.00     0.004 A 
ATOM     31  C   UNL     1      -3.357   0.029  -0.006  1.00  0.00     0.004 A 
ATOM     32  C   UNL     1      -1.397   5.393  -2.072  1.00  0.00     0.000 A 
ATOM     33  C   UNL     1      -2.977  -1.121  -2.131  1.00  0.00     0.000 A 
ATOM     34  C   UNL     1      -2.167   5.557  -0.910  1.00  0.00     0.000 A 
ATOM     35  C   UNL     1      -3.694  -0.966  -0.933  1.00  0.00     0.000 A 
ENDBRANCH   9  14
ENDBRANCH   5   8
ENDBRANCH   3   4
ENDBRANCH   2   3
ENDBRANCH   1   2
BRANCH   1  36
ATOM     36  C   UNL     1       3.771  12.344   3.017  1.00  0.00     0.116 C 
BRANCH  36  37
ATOM     37  N   UNL     1       3.351  12.065   4.385  1.00  0.00    -0.352 N 
ATOM     38  C   UNL     1       3.281  12.912   5.468  1.00  0.00     0.251 C 
ATOM     39  H   UNL     1       3.077  11.136   4.559  1.00  0.00     0.163 HD
ATOM     40  O   UNL     1       2.936  12.482   6.564  1.00  0.00    -0.269 OA
BRANCH  38  41
ATOM     41  C   UNL     1       3.686  14.324   5.306  1.00  0.00     0.039 A 
ATOM     42  C   UNL     1       3.209  15.077   4.234  1.00  0.00     0.014 A 
ATOM     43  C   UNL     1       4.637  14.859   6.179  1.00  0.00     0.014 A 
ATOM     44  C   UNL     1       3.844  16.268   3.905  1.00  0.00     0.010 A 
ATOM     45  C   UNL     1       5.203  16.105   5.900  1.00  0.00     0.010 A 
ATOM     46  C   UNL     1       4.864  16.786   4.720  1.00  0.00    -0.014 A 
BRANCH  46  47
ATOM     47  C   UNL     1       5.576  18.023   4.302  1.00  0.00     0.031 A 
ATOM     48  C   UNL     1       7.055  18.006   4.004  1.00  0.00     0.074 A 
ATOM     49  C   UNL     1       4.874  19.162   4.143  1.00  0.00     0.049 A 
ATOM     50  N   UNL     1       7.822  18.992   3.615  1.00  0.00    -0.248 NA
ATOM     51  C   UNL     1       7.770  16.727   4.164  1.00  0.00     0.031 C 
ATOM     52  C   UNL     1       3.445  19.316   4.426  1.00  0.00     0.029 A 
ATOM     53  N   UNL     1       5.260  20.401   3.699  1.00  0.00    -0.354 N 
ATOM     54  C   UNL     1       9.108  18.472   3.535  1.00  0.00     0.074 A 
ATOM     55  C   UNL     1       9.025  17.078   3.908  1.00  0.00     0.031 C 
ATOM     56  C   UNL     1       3.067  20.565   4.118  1.00  0.00     0.029 A 
ATOM     57  C   UNL     1       4.234  21.316   3.665  1.00  0.00     0.049 A 
ATOM     58  H   UNL     1       6.182  20.614   3.430  1.00  0.00     0.167 HD
ATOM     59  C   UNL     1      10.251  19.094   3.164  1.00  0.00     0.034 A 
ATOM     60  C   UNL     1       4.228  22.619   3.324  1.00  0.00     0.034 A 
ATOM     61  C   UNL     1      10.325  20.458   2.716  1.00  0.00     0.049 A 
ATOM     62  C   UNL     1       5.501  23.267   2.868  1.00  0.00     0.074 A 
ATOM     63  C   UNL     1      11.435  21.148   2.260  1.00  0.00     0.029 A 
ATOM     64  N   UNL     1       9.255  21.333   2.655  1.00  0.00    -0.354 N 
ATOM     65  N   UNL     1       6.686  22.728   2.717  1.00  0.00    -0.248 NA
ATOM     66  C   UNL     1       5.438  24.694   2.521  1.00  0.00     0.031 C 
ATOM     67  C   UNL     1      11.035  22.443   1.921  1.00  0.00     0.029 A 
ATOM     68  C   UNL     1       9.677  22.557   2.167  1.00  0.00     0.049 A 
ATOM     69  H   UNL     1       8.331  21.117   2.919  1.00  0.00     0.167 HD
ATOM     70  C   UNL     1       7.508  23.747   2.254  1.00  0.00     0.074 A 
ATOM     71  C   UNL     1       6.682  24.928   2.120  1.00  0.00     0.031 C 
ATOM     72  C   UNL     1       8.835  23.709   1.990  1.00  0.00     0.034 A 
BRANCH  59  73
ATOM     73  C   UNL     1      11.532  18.306   3.156  1.00  0.00     0.023 A 
ATOM     74  C   UNL     1      11.836  17.506   2.038  1.00  0.00     0.012 A 
ATOM     75  C   UNL     1      12.494  18.484   4.170  1.00  0.00     0.148 A 
ATOM     76  C   UNL     1      13.084  16.895   1.925  1.00  0.00     0.002 A 
ATOM     77  C   UNL     1      13.745  17.893   4.038  1.00  0.00     0.091 A 
ATOM     78  F   UNL     1      12.176  19.251   5.222  1.00  0.00    -0.205 F 
ATOM     79  C   UNL     1      14.040  17.098   2.918  1.00  0.00     0.022 A 
BRANCH  77  80
ATOM     80  S   UNL     1      15.070  18.134   5.227  1.00  0.00     0.127 S 
ATOM     81  O   UNL     1      15.332  16.761   5.659  1.00  0.00    -0.237 OA
ATOM     82  O   UNL     1      16.120  18.723   4.397  1.00  0.00    -0.237 OA
ATOM     83  O   UNL     1      14.534  19.009   6.260  1.00  0.00    -0.744 OA
ENDBRANCH  77  80
ENDBRANCH  59  73
BRANCH  60  84
ATOM     84  C   UNL     1       2.950  23.376   3.380  1.00  0.00     0.023 A 
ATOM     85  C   UNL     1       2.288  23.710   2.185  1.00  0.00     0.012 A 
ATOM     86  C   UNL     1       2.351  23.691   4.615  1.00  0.00     0.148 A 
ATOM     87  C   UNL     1       1.051  24.355   2.218  1.00  0.00     0.002 A 
ATOM     88  C   UNL     1       1.097  24.287   4.642  1.00  0.00     0.091 A 
ATOM     89  F   UNL     1       3.010  23.375   5.739  1.00  0.00    -0.205 F 
ATOM     90  C   UNL     1       0.450  24.630   3.445  1.00  0.00     0.022 A 
BRANCH  88  91
ATOM     91  S   UNL     1       0.196  24.554   6.173  1.00  0.00     0.127 S 
ATOM     92  O   UNL     1       0.294  26.003   6.328  1.00  0.00    -0.237 OA
ATOM     93  O   UNL     1      -1.138  24.059   5.830  1.00  0.00    -0.237 OA
ATOM     94  O   UNL     1       0.889  23.759   7.177  1.00  0.00    -0.744 OA
ENDBRANCH  88  91
ENDBRANCH  60  84
BRANCH  72  95
ATOM     95  C   UNL     1       9.499  24.974   1.528  1.00  0.00     0.023 A 
ATOM     96  C   UNL     1       9.859  25.943   2.484  1.00  0.00     0.012 A 
ATOM     97  C   UNL     1       9.879  25.143   0.183  1.00  0.00     0.148 A 
ATOM     98  C   UNL     1      10.586  27.070   2.105  1.00  0.00     0.002 A 
ATOM     99  C   UNL     1      10.630  26.253  -0.181  1.00  0.00     0.091 A 
ATOM    100  F   UNL     1       9.513  24.207  -0.705  1.00  0.00    -0.205 F 
ATOM    101  C   UNL     1      10.981  27.219   0.777  1.00  0.00     0.022 A 
BRANCH  99 102
ATOM    102  S   UNL     1      11.248  26.497  -1.850  1.00  0.00     0.127 S 
ATOM    103  O   UNL     1      10.468  27.653  -2.290  1.00  0.00    -0.237 OA
ATOM    104  O   UNL     1      12.666  26.770  -1.618  1.00  0.00    -0.237 OA
ATOM    105  O   UNL     1      10.977  25.258  -2.566  1.00  0.00    -0.744 OA
ENDBRANCH  99 102
ENDBRANCH  72  95
ENDBRANCH  46  47
ENDBRANCH  38  41
ENDBRANCH  36  37
ENDBRANCH   1  36
TORSDOF 15
