REMARK SMILES O=Cc1ccc2c(c1)C=C(C(=O)NCCCCNC(=O)c1ccc(-c3c4nc(c(-c5cccc(S(=O)(=O)[O-])c5F)c5ccc([nH]5)c(-c5cccc(S(=O)(=O)[O-])c5F)c5nc(c(-c6cccc(S(=O)(=O)[O-])c6F)c6ccc3[nH]6)C=C5)C=C4)cc1)[C@H](C(F)(F)F)O2
REMARK SMILES IDX 16 1 15 2 14 3 13 4 11 5 12 6 10 8 3 9 4 10 8 11 5 12 7 13
REMARK SMILES IDX 6 14 9 15 89 16 84 17 2 18 1 19 85 20 86 21 87 22 88 23
REMARK SMILES IDX 17 24 18 25 19 26 20 28 21 29 22 30 83 31 23 32 82 33 24 34
REMARK SMILES IDX 25 35 26 36 76 37 27 38 81 39 75 40 77 41 28 42 80 43 74 44
REMARK SMILES IDX 73 45 29 47 61 48 41 49 60 50 42 51 45 52 59 53 78 54 43 55
REMARK SMILES IDX 44 56 58 58 79 59 46 60 30 61 31 62 39 63 32 64 34 65 40 66
REMARK SMILES IDX 33 67 35 68 36 69 37 70 38 71 62 72 63 73 71 74 64 75 66 76
REMARK SMILES IDX 72 77 65 78 67 79 68 80 69 81 70 82 47 83 48 84 56 85 49 86
REMARK SMILES IDX 51 87 57 88 50 89 52 90 53 91 54 92 55 93
REMARK H PARENT 13 7 18 27 77 46 45 57
REMARK Flexibility Score: inf
ROOT
ATOM      1  C   UNL     1       8.515   5.526   1.071  1.00  0.00     0.023 C 
ENDROOT
BRANCH   1   2
ATOM      2  C   UNL     1       7.627   4.284   1.196  1.00  0.00     0.023 C 
BRANCH   2   3
ATOM      3  C   UNL     1       8.301   3.091   1.885  1.00  0.00     0.116 C 
BRANCH   3   4
ATOM      4  N   UNL     1       8.290   3.273   3.326  1.00  0.00    -0.352 N 
ATOM      5  C   UNL     1       7.399   2.927   4.291  1.00  0.00     0.251 C 
ATOM      6  O   UNL     1       7.585   3.348   5.431  1.00  0.00    -0.270 OA
ATOM      7  H   UNL     1       9.085   3.739   3.671  1.00  0.00     0.163 HD
BRANCH   5   8
ATOM      8  C   UNL     1       6.249   2.012   4.052  1.00  0.00     0.067 C 
ATOM      9  C   UNL     1       2.734   0.045   1.384  1.00  0.00     0.015 A 
ATOM     10  C   UNL     1       2.435  -0.846   2.417  1.00  0.00     0.015 A 
ATOM     11  C   UNL     1       3.740   1.001   1.544  1.00  0.00     0.023 A 
ATOM     12  C   UNL     1       3.157  -0.787   3.610  1.00  0.00     0.048 A 
ATOM     13  C   UNL     1       4.458   1.057   2.746  1.00  0.00     0.018 A 
ATOM     14  C   UNL     1       4.167   0.163   3.772  1.00  0.00     0.128 A 
ATOM     15  C   UNL     1       5.556   1.995   2.905  1.00  0.00     0.025 C 
ATOM     16  O   UNL     1       4.862   0.115   4.941  1.00  0.00    -0.475 OA
ATOM     17  C   UNL     1       5.784   1.201   5.261  1.00  0.00     0.314 C 
BRANCH   9  18
ATOM     18  C   UNL     1       2.008  -0.030   0.100  1.00  0.00     0.260 C 
ATOM     19  O   UNL     1       1.082  -0.811  -0.079  1.00  0.00    -0.298 OA
ENDBRANCH   9  18
BRANCH  17  20
ATOM     20  C   UNL     1       6.896   0.600   6.152  1.00  0.00     0.429 C 
ATOM     21  F   UNL     1       7.349   1.462   7.088  1.00  0.00    -0.167 F 
ATOM     22  F   UNL     1       6.428  -0.473   6.850  1.00  0.00    -0.167 F 
ATOM     23  F   UNL     1       7.953   0.159   5.431  1.00  0.00    -0.167 F 
ENDBRANCH  17  20
ENDBRANCH   5   8
ENDBRANCH   3   4
ENDBRANCH   2   3
ENDBRANCH   1   2
BRANCH   1  24
ATOM     24  C   UNL     1       9.721   5.359   0.153  1.00  0.00     0.116 C 
BRANCH  24  25
ATOM     25  N   UNL     1       9.356   4.990  -1.207  1.00  0.00    -0.352 N 
ATOM     26  C   UNL     1      10.016   5.287  -2.378  1.00  0.00     0.251 C 
ATOM     27  H   UNL     1       8.531   4.461  -1.302  1.00  0.00     0.163 HD
ATOM     28  O   UNL     1       9.521   4.991  -3.455  1.00  0.00    -0.269 OA
BRANCH  26  29
ATOM     29  C   UNL     1      11.307   6.005  -2.312  1.00  0.00     0.039 A 
ATOM     30  C   UNL     1      11.484   7.143  -3.102  1.00  0.00     0.014 A 
ATOM     31  C   UNL     1      12.317   5.578  -1.447  1.00  0.00     0.014 A 
ATOM     32  C   UNL     1      12.654   7.893  -2.975  1.00  0.00     0.010 A 
ATOM     33  C   UNL     1      13.452   6.363  -1.274  1.00  0.00     0.010 A 
ATOM     34  C   UNL     1      13.632   7.527  -2.036  1.00  0.00    -0.014 A 
BRANCH  34  35
ATOM     35  C   UNL     1      14.848   8.352  -1.826  1.00  0.00     0.031 A 
ATOM     36  C   UNL     1      16.205   7.786  -2.140  1.00  0.00     0.074 A 
ATOM     37  C   UNL     1      14.734   9.574  -1.269  1.00  0.00     0.049 A 
ATOM     38  N   UNL     1      17.383   8.323  -1.961  1.00  0.00    -0.248 NA
ATOM     39  C   UNL     1      16.246   6.426  -2.705  1.00  0.00     0.031 C 
ATOM     40  C   UNL     1      13.478  10.201  -0.851  1.00  0.00     0.029 A 
ATOM     41  N   UNL     1      15.692  10.498  -0.935  1.00  0.00    -0.354 N 
ATOM     42  C   UNL     1      18.304   7.362  -2.361  1.00  0.00     0.074 A 
ATOM     43  C   UNL     1      17.549   6.193  -2.756  1.00  0.00     0.031 C 
ATOM     44  C   UNL     1      13.742  11.407  -0.322  1.00  0.00     0.029 A 
ATOM     45  C   UNL     1      15.184  11.630  -0.341  1.00  0.00     0.049 A 
ATOM     46  H   UNL     1      16.652  10.364  -1.105  1.00  0.00     0.167 HD
ATOM     47  C   UNL     1      19.653   7.456  -2.430  1.00  0.00     0.034 A 
ATOM     48  C   UNL     1      15.812  12.724   0.134  1.00  0.00     0.034 A 
ATOM     49  C   UNL     1      20.395   8.636  -2.082  1.00  0.00     0.049 A 
ATOM     50  C   UNL     1      17.309  12.816   0.009  1.00  0.00     0.074 A 
ATOM     51  C   UNL     1      21.758   8.856  -2.181  1.00  0.00     0.029 A 
ATOM     52  N   UNL     1      19.838   9.798  -1.572  1.00  0.00    -0.354 N 
ATOM     53  N   UNL     1      18.149  11.954  -0.512  1.00  0.00    -0.248 NA
ATOM     54  C   UNL     1      17.942  14.048   0.503  1.00  0.00     0.031 C 
ATOM     55  C   UNL     1      22.025  10.152  -1.724  1.00  0.00     0.029 A 
ATOM     56  C   UNL     1      20.827  10.741  -1.354  1.00  0.00     0.049 A 
ATOM     57  H   UNL     1      18.880   9.933  -1.391  1.00  0.00     0.167 HD
ATOM     58  C   UNL     1      19.401  12.554  -0.446  1.00  0.00     0.074 A 
ATOM     59  C   UNL     1      19.207  13.861   0.148  1.00  0.00     0.031 C 
ATOM     60  C   UNL     1      20.606  12.062  -0.825  1.00  0.00     0.034 A 
BRANCH  47  61
ATOM     61  C   UNL     1      20.406   6.271  -2.974  1.00  0.00     0.023 A 
ATOM     62  C   UNL     1      20.333   5.983  -4.352  1.00  0.00     0.012 A 
ATOM     63  C   UNL     1      21.224   5.478  -2.145  1.00  0.00     0.148 A 
ATOM     64  C   UNL     1      21.034   4.907  -4.894  1.00  0.00     0.002 A 
ATOM     65  C   UNL     1      21.953   4.431  -2.700  1.00  0.00     0.091 A 
ATOM     66  F   UNL     1      21.264   5.752  -0.834  1.00  0.00    -0.205 F 
ATOM     67  C   UNL     1      21.851   4.138  -4.070  1.00  0.00     0.022 A 
BRANCH  65  68
ATOM     68  S   UNL     1      23.090   3.426  -1.738  1.00  0.00     0.127 S 
ATOM     69  O   UNL     1      22.366   2.158  -1.657  1.00  0.00    -0.237 OA
ATOM     70  O   UNL     1      24.276   3.397  -2.595  1.00  0.00    -0.237 OA
ATOM     71  O   UNL     1      23.272   4.125  -0.474  1.00  0.00    -0.744 OA
ENDBRANCH  65  68
ENDBRANCH  47  61
BRANCH  48  72
ATOM     72  C   UNL     1      15.022  13.858   0.693  1.00  0.00     0.023 A 
ATOM     73  C   UNL     1      14.949  15.064  -0.031  1.00  0.00     0.012 A 
ATOM     74  C   UNL     1      14.333  13.749   1.916  1.00  0.00     0.148 A 
ATOM     75  C   UNL     1      14.235  16.153   0.468  1.00  0.00     0.002 A 
ATOM     76  C   UNL     1      13.580  14.821   2.383  1.00  0.00     0.091 A 
ATOM     77  F   UNL     1      14.426  12.600   2.599  1.00  0.00    -0.205 F 
ATOM     78  C   UNL     1      13.543  16.029   1.670  1.00  0.00     0.022 A 
BRANCH  76  79
ATOM     79  S   UNL     1      12.555  14.699   3.853  1.00  0.00     0.127 S 
ATOM     80  O   UNL     1      13.351  15.429   4.835  1.00  0.00    -0.237 OA
ATOM     81  O   UNL     1      11.327  15.375   3.429  1.00  0.00    -0.237 OA
ATOM     82  O   UNL     1      12.394  13.271   4.094  1.00  0.00    -0.744 OA
ENDBRANCH  76  79
ENDBRANCH  48  72
BRANCH  60  83
ATOM     83  C   UNL     1      21.809  12.950  -0.650  1.00  0.00     0.023 A 
ATOM     84  C   UNL     1      22.333  13.169   0.639  1.00  0.00     0.012 A 
ATOM     85  C   UNL     1      22.464  13.502  -1.768  1.00  0.00     0.148 A 
ATOM     86  C   UNL     1      23.476  13.948   0.815  1.00  0.00     0.002 A 
ATOM     87  C   UNL     1      23.628  14.240  -1.589  1.00  0.00     0.091 A 
ATOM     88  F   UNL     1      21.937  13.299  -2.985  1.00  0.00    -0.205 F 
ATOM     89  C   UNL     1      24.129  14.473  -0.298  1.00  0.00     0.022 A 
BRANCH  87  90
ATOM     90  S   UNL     1      24.585  14.873  -2.971  1.00  0.00     0.127 S 
ATOM     91  O   UNL     1      24.259  16.297  -2.933  1.00  0.00    -0.237 OA
ATOM     92  O   UNL     1      25.957  14.550  -2.575  1.00  0.00    -0.237 OA
ATOM     93  O   UNL     1      24.114  14.151  -4.146  1.00  0.00    -0.744 OA
ENDBRANCH  87  90
ENDBRANCH  60  83
ENDBRANCH  34  35
ENDBRANCH  26  29
ENDBRANCH  24  25
ENDBRANCH   1  24
TORSDOF 16
