REMARK SMILES C[C@@H]1[C@H](C(=O)NCCCCNC(=O)c2ccc(-c3c4nc(c(-c5cccc(S(=O)(=O)[O-])c5F)c5ccc([nH]5)c(-c5cccc(S(=O)(=O)[O-])c5F)c5nc(c(-c6cccc(S(=O)(=O)[O-])c6F)c6ccc3[nH]6)C=C5)C=C4)cc2)CCN1C(=O)/C=C/c1cccc(Br)c1
REMARK SMILES IDX 8 1 7 2 6 3 4 4 5 5 3 7 1 8 2 9 79 10 77 11 78 12 80 13
REMARK SMILES IDX 81 14 82 15 83 16 84 17 85 18 90 19 86 20 88 21 87 22 89 23
REMARK SMILES IDX 9 24 10 25 11 26 12 27 13 29 14 30 15 31 76 32 16 33 75 34
REMARK SMILES IDX 17 35 18 36 19 37 69 38 20 39 74 40 68 41 70 42 21 43 73 44
REMARK SMILES IDX 67 45 66 46 22 48 54 49 34 50 53 51 35 52 38 53 52 54 71 55
REMARK SMILES IDX 36 56 37 57 51 59 72 60 39 61 23 62 24 63 32 64 25 65 27 66
REMARK SMILES IDX 33 67 26 68 28 69 29 70 30 71 31 72 55 73 56 74 64 75 57 76
REMARK SMILES IDX 59 77 65 78 58 79 60 80 61 81 62 82 63 83 40 84 41 85 49 86
REMARK SMILES IDX 42 87 44 88 50 89 43 90 45 91 46 92 47 93 48 94
REMARK H PARENT 6 6 11 28 70 47 38 58
REMARK Flexibility Score: inf
ROOT
ATOM      1  C   UNL     1       2.723   1.385   2.557  1.00  0.00     0.023 C 
ENDROOT
BRANCH   1   2
ATOM      2  C   UNL     1       1.286   1.854   2.293  1.00  0.00     0.116 C 
BRANCH   2   3
ATOM      3  N   UNL     1       1.151   2.587   1.046  1.00  0.00    -0.356 N 
ATOM      4  C   UNL     1       0.565   2.315  -0.147  1.00  0.00     0.225 C 
ATOM      5  O   UNL     1       0.660   3.201  -1.007  1.00  0.00    -0.275 OA
ATOM      6  H   UNL     1       1.579   3.473   1.072  1.00  0.00     0.163 HD
BRANCH   4   7
ATOM      7  C   UNL     1      -0.149   1.019  -0.523  1.00  0.00     0.102 C 
ATOM      8  C   UNL     1       1.937  -0.365   0.052  1.00  0.00     0.032 C 
ATOM      9  C   UNL     1       0.726  -0.209  -0.834  1.00  0.00     0.094 C 
ATOM     10  N   UNL     1      -0.182  -1.354  -0.690  1.00  0.00    -0.336 N 
ATOM     11  C   UNL     1      -1.271   0.491   0.360  1.00  0.00     0.037 C 
ATOM     12  C   UNL     1      -1.468  -0.935  -0.147  1.00  0.00     0.121 C 
BRANCH  10  13
ATOM     13  C   UNL     1       0.037  -2.685  -0.990  1.00  0.00     0.246 C 
ATOM     14  O   UNL     1      -0.830  -3.546  -0.841  1.00  0.00    -0.270 OA
BRANCH  13  15
ATOM     15  C   UNL     1       1.411  -3.140  -1.357  1.00  0.00     0.072 C 
ATOM     16  C   UNL     1       2.183  -2.606  -2.315  1.00  0.00     0.014 C 
BRANCH  16  17
ATOM     17  C   UNL     1       3.582  -3.004  -2.518  1.00  0.00    -0.024 A 
ATOM     18  C   UNL     1       4.619  -2.360  -1.823  1.00  0.00     0.008 A 
ATOM     19  C   UNL     1       3.900  -3.995  -3.448  1.00  0.00     0.023 A 
ATOM     20  C   UNL     1       5.955  -2.689  -2.066  1.00  0.00     0.002 A 
ATOM     21  C   UNL     1       5.238  -4.313  -3.692  1.00  0.00     0.018 A 
ATOM     22  C   UNL     1       6.266  -3.663  -3.009  1.00  0.00     0.016 A 
ATOM     23  Br  UNL     1       5.663  -5.624  -4.986  1.00  0.00    -0.051 Br
ENDBRANCH  16  17
ENDBRANCH  13  15
ENDBRANCH  10  13
ENDBRANCH   4   7
ENDBRANCH   2   3
ENDBRANCH   1   2
BRANCH   1  24
ATOM     24  C   UNL     1       3.674   2.426   3.112  1.00  0.00     0.023 C 
BRANCH  24  25
ATOM     25  C   UNL     1       3.287   2.953   4.476  1.00  0.00     0.116 C 
BRANCH  25  26
ATOM     26  N   UNL     1       3.088   1.905   5.471  1.00  0.00    -0.352 N 
ATOM     27  C   UNL     1       3.502   1.892   6.784  1.00  0.00     0.251 C 
ATOM     28  H   UNL     1       2.598   1.107   5.166  1.00  0.00     0.163 HD
ATOM     29  O   UNL     1       3.356   0.900   7.481  1.00  0.00    -0.269 OA
BRANCH  27  30
ATOM     30  C   UNL     1       4.162   3.104   7.309  1.00  0.00     0.039 A 
ATOM     31  C   UNL     1       5.402   2.989   7.936  1.00  0.00     0.014 A 
ATOM     32  C   UNL     1       3.594   4.355   7.062  1.00  0.00     0.014 A 
ATOM     33  C   UNL     1       6.111   4.147   8.255  1.00  0.00     0.010 A 
ATOM     34  C   UNL     1       4.351   5.495   7.270  1.00  0.00     0.010 A 
ATOM     35  C   UNL     1       5.605   5.406   7.891  1.00  0.00    -0.014 A 
BRANCH  35  36
ATOM     36  C   UNL     1       6.338   6.660   8.182  1.00  0.00     0.031 A 
ATOM     37  C   UNL     1       5.689   7.699   9.058  1.00  0.00     0.074 A 
ATOM     38  C   UNL     1       7.516   6.910   7.579  1.00  0.00     0.049 A 
ATOM     39  N   UNL     1       6.098   8.904   9.350  1.00  0.00    -0.248 NA
ATOM     40  C   UNL     1       4.380   7.354   9.642  1.00  0.00     0.031 C 
ATOM     41  C   UNL     1       8.194   6.021   6.632  1.00  0.00     0.029 A 
ATOM     42  N   UNL     1       8.341   8.003   7.655  1.00  0.00    -0.354 N 
ATOM     43  C   UNL     1       5.077   9.476  10.099  1.00  0.00     0.074 A 
ATOM     44  C   UNL     1       4.008   8.508  10.173  1.00  0.00     0.031 C 
ATOM     45  C   UNL     1       9.337   6.599   6.227  1.00  0.00     0.029 A 
ATOM     46  C   UNL     1       9.463   7.905   6.866  1.00  0.00     0.049 A 
ATOM     47  H   UNL     1       8.148   8.785   8.221  1.00  0.00     0.167 HD
ATOM     48  C   UNL     1       5.049  10.682  10.711  1.00  0.00     0.034 A 
ATOM     49  C   UNL     1      10.481   8.770   6.689  1.00  0.00     0.034 A 
ATOM     50  C   UNL     1       6.153  11.599  10.707  1.00  0.00     0.049 A 
ATOM     51  C   UNL     1      10.474  10.061   7.464  1.00  0.00     0.074 A 
ATOM     52  C   UNL     1       6.277  12.800  11.379  1.00  0.00     0.029 A 
ATOM     53  N   UNL     1       7.332  11.404  10.005  1.00  0.00    -0.354 N 
ATOM     54  N   UNL     1       9.569  10.518   8.296  1.00  0.00    -0.248 NA
ATOM     55  C   UNL     1      11.646  10.934   7.312  1.00  0.00     0.031 C 
ATOM     56  C   UNL     1       7.536  13.334  11.082  1.00  0.00     0.029 A 
ATOM     57  C   UNL     1       8.197  12.458  10.234  1.00  0.00     0.049 A 
ATOM     58  H   UNL     1       7.525  10.630   9.429  1.00  0.00     0.167 HD
ATOM     59  C   UNL     1      10.078  11.710   8.797  1.00  0.00     0.074 A 
ATOM     60  C   UNL     1      11.380  11.895   8.187  1.00  0.00     0.031 C 
ATOM     61  C   UNL     1       9.516  12.583   9.669  1.00  0.00     0.034 A 
BRANCH  48  62
ATOM     62  C   UNL     1       3.815  11.031  11.500  1.00  0.00     0.023 A 
ATOM     63  C   UNL     1       3.549  10.351  12.707  1.00  0.00     0.012 A 
ATOM     64  C   UNL     1       2.934  12.039  11.067  1.00  0.00     0.148 A 
ATOM     65  C   UNL     1       2.404  10.637  13.448  1.00  0.00     0.002 A 
ATOM     66  C   UNL     1       1.818  12.352  11.836  1.00  0.00     0.091 A 
ATOM     67  F   UNL     1       3.186  12.656   9.904  1.00  0.00    -0.205 F 
ATOM     68  C   UNL     1       1.545  11.644  13.018  1.00  0.00     0.022 A 
BRANCH  66  69
ATOM     69  S   UNL     1       0.694  13.685  11.406  1.00  0.00     0.127 S 
ATOM     70  O   UNL     1      -0.466  12.946  10.911  1.00  0.00    -0.237 OA
ATOM     71  O   UNL     1       0.490  14.347  12.696  1.00  0.00    -0.237 OA
ATOM     72  O   UNL     1       1.395  14.493  10.418  1.00  0.00    -0.744 OA
ENDBRANCH  66  69
ENDBRANCH  48  62
BRANCH  49  73
ATOM     73  C   UNL     1      11.637   8.394   5.827  1.00  0.00     0.023 A 
ATOM     74  C   UNL     1      12.870   8.083   6.433  1.00  0.00     0.012 A 
ATOM     75  C   UNL     1      11.519   8.302   4.427  1.00  0.00     0.148 A 
ATOM     76  C   UNL     1      13.973   7.718   5.661  1.00  0.00     0.002 A 
ATOM     77  C   UNL     1      12.608   7.888   3.667  1.00  0.00     0.091 A 
ATOM     78  F   UNL     1      10.341   8.611   3.866  1.00  0.00    -0.205 F 
ATOM     79  C   UNL     1      13.840   7.611   4.280  1.00  0.00     0.022 A 
BRANCH  77  80
ATOM     80  S   UNL     1      12.492   7.597   1.897  1.00  0.00     0.127 S 
ATOM     81  O   UNL     1      13.221   8.741   1.357  1.00  0.00    -0.237 OA
ATOM     82  O   UNL     1      13.172   6.309   1.755  1.00  0.00    -0.237 OA
ATOM     83  O   UNL     1      11.065   7.555   1.603  1.00  0.00    -0.744 OA
ENDBRANCH  77  80
ENDBRANCH  49  73
BRANCH  61  84
ATOM     84  C   UNL     1      10.315  13.796  10.056  1.00  0.00     0.023 A 
ATOM     85  C   UNL     1      10.454  14.861   9.144  1.00  0.00     0.012 A 
ATOM     86  C   UNL     1      10.848  13.919  11.354  1.00  0.00     0.148 A 
ATOM     87  C   UNL     1      11.134  16.020   9.511  1.00  0.00     0.002 A 
ATOM     88  C   UNL     1      11.485  15.096  11.727  1.00  0.00     0.091 A 
ATOM     89  F   UNL     1      10.723  12.885  12.199  1.00  0.00    -0.205 F 
ATOM     90  C   UNL     1      11.638  16.143  10.804  1.00  0.00     0.022 A 
BRANCH  88  91
ATOM     91  S   UNL     1      12.074  15.373  13.401  1.00  0.00     0.127 S 
ATOM     92  O   UNL     1      13.512  15.165  13.250  1.00  0.00    -0.237 OA
ATOM     93  O   UNL     1      11.680  16.761  13.647  1.00  0.00    -0.237 OA
ATOM     94  O   UNL     1      11.380  14.397  14.232  1.00  0.00    -0.744 OA
ENDBRANCH  88  91
ENDBRANCH  61  84
ENDBRANCH  35  36
ENDBRANCH  27  30
ENDBRANCH  25  26
ENDBRANCH  24  25
ENDBRANCH   1  24
TORSDOF 17
