REMARK SMILES O=C(/C=C\c1ccc([N+](=O)[O-])cc1)NCCCCNC(=O)c1ccc(-c2c3nc(c(-c4cccc(S(=O)(=O)[O-])c4F)c4ccc([nH]4)c(-c4cccc(S(=O)(=O)[O-])c4F)c4nc(c(-c5cccc(S(=O)(=O)[O-])c5F)c5ccc2[nH]5)C=C4)C=C3)cc1
REMARK SMILES IDX 17 1 16 2 15 3 14 4 1 5 2 6 3 8 4 9 5 10 6 11 13 12 7 13
REMARK SMILES IDX 12 14 8 15 9 16 10 17 11 18 18 19 19 20 20 21 21 23 22 24
REMARK SMILES IDX 23 25 84 26 24 27 83 28 25 29 26 30 27 31 77 32 28 33 82 34
REMARK SMILES IDX 76 35 78 36 29 37 81 38 75 39 74 40 30 42 62 43 42 44 61 45
REMARK SMILES IDX 43 46 46 47 60 48 79 49 44 50 45 51 59 53 80 54 47 55 31 56
REMARK SMILES IDX 32 57 40 58 33 59 35 60 41 61 34 62 36 63 37 64 38 65 39 66
REMARK SMILES IDX 63 67 64 68 72 69 65 70 67 71 73 72 66 73 68 74 69 75 70 76
REMARK SMILES IDX 71 77 48 78 49 79 57 80 50 81 52 82 58 83 51 84 53 85 54 86
REMARK SMILES IDX 55 87 56 88
REMARK H PARENT 14 7 19 22 78 41 46 52
REMARK Flexibility Score: inf
ROOT
ATOM      1  C   UNL     1       3.508  -3.514   1.849  1.00  0.00     0.023 C 
ENDROOT
BRANCH   1   2
ATOM      2  C   UNL     1       2.053  -3.084   1.645  1.00  0.00     0.023 C 
BRANCH   2   3
ATOM      3  C   UNL     1       1.768  -1.596   1.861  1.00  0.00     0.116 C 
BRANCH   3   4
ATOM      4  N   UNL     1       2.565  -0.723   1.019  1.00  0.00    -0.353 N 
ATOM      5  O   UNL     1       0.892  -0.207  -0.461  1.00  0.00    -0.270 OA
ATOM      6  C   UNL     1       2.053  -0.091  -0.082  1.00  0.00     0.243 C 
ATOM      7  H   UNL     1       3.511  -0.579   1.249  1.00  0.00     0.163 HD
BRANCH   6   8
ATOM      8  C   UNL     1       2.945   0.872  -0.788  1.00  0.00     0.072 C 
ATOM      9  C   UNL     1       4.282   0.946  -0.897  1.00  0.00     0.014 C 
BRANCH   9  10
ATOM     10  C   UNL     1       5.278   0.039  -0.331  1.00  0.00    -0.025 A 
ATOM     11  C   UNL     1       6.134   0.502   0.676  1.00  0.00     0.015 A 
ATOM     12  C   UNL     1       5.378  -1.285  -0.775  1.00  0.00     0.015 A 
ATOM     13  C   UNL     1       7.037  -0.370   1.289  1.00  0.00     0.086 A 
ATOM     14  C   UNL     1       6.287  -2.162  -0.175  1.00  0.00     0.086 A 
ATOM     15  C   UNL     1       7.090  -1.707   0.876  1.00  0.00     0.269 A 
BRANCH  15  16
ATOM     16  N   UNL     1       7.915  -2.661   1.624  1.00  0.00     0.062 N 
ATOM     17  O   UNL     1       8.791  -2.196   2.363  1.00  0.00    -0.258 OA
ATOM     18  O   UNL     1       7.605  -3.858   1.544  1.00  0.00    -0.258 OA
ENDBRANCH  15  16
ENDBRANCH   9  10
ENDBRANCH   6   8
ENDBRANCH   3   4
ENDBRANCH   2   3
ENDBRANCH   1   2
BRANCH   1  19
ATOM     19  C   UNL     1       4.121  -3.208   3.212  1.00  0.00     0.116 C 
BRANCH  19  20
ATOM     20  N   UNL     1       3.644  -4.102   4.253  1.00  0.00    -0.352 N 
ATOM     21  C   UNL     1       4.348  -4.947   5.080  1.00  0.00     0.251 C 
ATOM     22  H   UNL     1       2.668  -4.103   4.386  1.00  0.00     0.163 HD
ATOM     23  O   UNL     1       3.729  -5.750   5.776  1.00  0.00    -0.269 OA
BRANCH  21  24
ATOM     24  C   UNL     1       5.833  -4.920   5.137  1.00  0.00     0.039 A 
ATOM     25  C   UNL     1       6.523  -6.135   5.218  1.00  0.00     0.014 A 
ATOM     26  C   UNL     1       6.553  -3.724   5.163  1.00  0.00     0.014 A 
ATOM     27  C   UNL     1       7.924  -6.151   5.263  1.00  0.00     0.010 A 
ATOM     28  C   UNL     1       7.952  -3.745   5.138  1.00  0.00     0.010 A 
ATOM     29  C   UNL     1       8.660  -4.957   5.186  1.00  0.00    -0.014 A 
BRANCH  29  30
ATOM     30  C   UNL     1      10.154  -4.967   5.138  1.00  0.00     0.031 A 
ATOM     31  C   UNL     1      10.973  -4.258   6.189  1.00  0.00     0.074 A 
ATOM     32  C   UNL     1      10.792  -5.559   4.106  1.00  0.00     0.049 A 
ATOM     33  N   UNL     1      12.275  -4.135   6.282  1.00  0.00    -0.248 NA
ATOM     34  C   UNL     1      10.236  -3.579   7.266  1.00  0.00     0.031 C 
ATOM     35  C   UNL     1      10.138  -6.206   2.967  1.00  0.00     0.029 A 
ATOM     36  N   UNL     1      12.134  -5.692   3.833  1.00  0.00    -0.354 N 
ATOM     37  C   UNL     1      12.508  -3.334   7.394  1.00  0.00     0.074 A 
ATOM     38  C   UNL     1      11.212  -2.974   7.928  1.00  0.00     0.031 C 
ATOM     39  C   UNL     1      11.075  -6.675   2.128  1.00  0.00     0.029 A 
ATOM     40  C   UNL     1      12.397  -6.333   2.644  1.00  0.00     0.049 A 
ATOM     41  H   UNL     1      12.841  -5.359   4.434  1.00  0.00     0.167 HD
ATOM     42  C   UNL     1      13.688  -2.954   7.945  1.00  0.00     0.034 A 
ATOM     43  C   UNL     1      13.565  -6.606   2.027  1.00  0.00     0.034 A 
ATOM     44  C   UNL     1      14.982  -3.345   7.451  1.00  0.00     0.049 A 
ATOM     45  C   UNL     1      14.863  -6.215   2.683  1.00  0.00     0.074 A 
ATOM     46  C   UNL     1      16.227  -3.081   7.998  1.00  0.00     0.029 A 
ATOM     47  N   UNL     1      15.204  -4.074   6.293  1.00  0.00    -0.354 N 
ATOM     48  N   UNL     1      15.060  -5.598   3.822  1.00  0.00    -0.248 NA
ATOM     49  C   UNL     1      16.102  -6.591   1.985  1.00  0.00     0.031 C 
ATOM     50  C   UNL     1      17.201  -3.630   7.158  1.00  0.00     0.029 A 
ATOM     51  C   UNL     1      16.563  -4.263   6.104  1.00  0.00     0.049 A 
ATOM     52  H   UNL     1      14.498  -4.408   5.693  1.00  0.00     0.167 HD
ATOM     53  C   UNL     1      16.440  -5.543   3.993  1.00  0.00     0.074 A 
ATOM     54  C   UNL     1      17.030  -6.210   2.852  1.00  0.00     0.031 C 
ATOM     55  C   UNL     1      17.150  -4.975   4.998  1.00  0.00     0.034 A 
BRANCH  42  56
ATOM     56  C   UNL     1      13.637  -2.110   9.195  1.00  0.00     0.023 A 
ATOM     57  C   UNL     1      13.205  -2.689  10.406  1.00  0.00     0.012 A 
ATOM     58  C   UNL     1      14.072  -0.769   9.189  1.00  0.00     0.148 A 
ATOM     59  C   UNL     1      13.166  -1.939  11.581  1.00  0.00     0.002 A 
ATOM     60  C   UNL     1      14.075  -0.041  10.374  1.00  0.00     0.091 A 
ATOM     61  F   UNL     1      14.467  -0.229   8.027  1.00  0.00    -0.205 F 
ATOM     62  C   UNL     1      13.610  -0.620  11.567  1.00  0.00     0.022 A 
BRANCH  60  63
ATOM     63  S   UNL     1      14.703   1.639  10.481  1.00  0.00     0.127 S 
ATOM     64  O   UNL     1      13.471   2.404  10.665  1.00  0.00    -0.237 OA
ATOM     65  O   UNL     1      15.562   1.573  11.663  1.00  0.00    -0.237 OA
ATOM     66  O   UNL     1      15.410   1.884   9.230  1.00  0.00    -0.744 OA
ENDBRANCH  60  63
ENDBRANCH  42  56
BRANCH  43  67
ATOM     67  C   UNL     1      13.565  -7.344   0.730  1.00  0.00     0.023 A 
ATOM     68  C   UNL     1      14.042  -8.669   0.688  1.00  0.00     0.012 A 
ATOM     69  C   UNL     1      13.079  -6.751  -0.451  1.00  0.00     0.148 A 
ATOM     70  C   UNL     1      14.069  -9.377  -0.514  1.00  0.00     0.002 A 
ATOM     71  C   UNL     1      13.054  -7.482  -1.633  1.00  0.00     0.091 A 
ATOM     72  F   UNL     1      12.642  -5.485  -0.393  1.00  0.00    -0.205 F 
ATOM     73  C   UNL     1      13.566  -8.789  -1.671  1.00  0.00     0.022 A 
BRANCH  71  74
ATOM     74  S   UNL     1      12.308  -6.852  -3.141  1.00  0.00     0.127 S 
ATOM     75  O   UNL     1      13.477  -6.653  -3.993  1.00  0.00    -0.237 OA
ATOM     76  O   UNL     1      11.441  -7.963  -3.535  1.00  0.00    -0.237 OA
ATOM     77  O   UNL     1      11.595  -5.642  -2.755  1.00  0.00    -0.744 OA
ENDBRANCH  71  74
ENDBRANCH  43  67
BRANCH  55  78
ATOM     78  C   UNL     1      18.654  -5.077   4.946  1.00  0.00     0.023 A 
ATOM     79  C   UNL     1      19.378  -4.321   4.002  1.00  0.00     0.012 A 
ATOM     80  C   UNL     1      19.355  -5.864   5.882  1.00  0.00     0.148 A 
ATOM     81  C   UNL     1      20.772  -4.372   3.969  1.00  0.00     0.002 A 
ATOM     82  C   UNL     1      20.745  -5.871   5.875  1.00  0.00     0.091 A 
ATOM     83  F   UNL     1      18.651  -6.590   6.762  1.00  0.00    -0.205 F 
ATOM     84  C   UNL     1      21.455  -5.136   4.912  1.00  0.00     0.022 A 
BRANCH  82  85
ATOM     85  S   UNL     1      21.713  -6.749   7.109  1.00  0.00     0.127 S 
ATOM     86  O   UNL     1      22.260  -7.856   6.327  1.00  0.00    -0.237 OA
ATOM     87  O   UNL     1      22.695  -5.740   7.509  1.00  0.00    -0.237 OA
ATOM     88  O   UNL     1      20.776  -7.129   8.159  1.00  0.00    -0.744 OA
ENDBRANCH  82  85
ENDBRANCH  55  78
ENDBRANCH  29  30
ENDBRANCH  21  24
ENDBRANCH  19  20
ENDBRANCH   1  19
TORSDOF 16
