REMARK SMILES O=C(Cn1cccc1C(=O)N1CCC2(CCCC2)CC1)NCCCCNC(=O)c1ccc(-c2c3nc(c(-c4cccc(S(=O)(=O)[O-])c4F)c4ccc([nH]4)c(-c4cccc(S(=O)(=O)[O-])c4F)c4nc(c(-c5cccc(S(=O)(=O)[O-])c5F)c5ccc2[nH]5)C=C4)C=C3)cc1
REMARK SMILES IDX 24 1 23 2 22 3 21 4 1 5 2 6 3 8 4 9 5 10 8 11 6 12 7 13 9 14
REMARK SMILES IDX 10 15 11 16 12 17 20 18 13 19 19 20 14 21 15 22 18 23 16 24
REMARK SMILES IDX 17 25 25 26 26 27 27 28 28 30 29 31 30 32 91 33 31 34 90 35
REMARK SMILES IDX 32 36 33 37 34 38 84 39 35 40 89 41 83 42 85 43 36 44 88 45
REMARK SMILES IDX 82 46 81 47 37 49 69 50 49 51 68 52 50 53 53 54 67 55 86 56
REMARK SMILES IDX 51 57 52 58 66 60 87 61 54 62 38 63 39 64 47 65 40 66 42 67
REMARK SMILES IDX 48 68 41 69 43 70 44 71 45 72 46 73 70 74 71 75 79 76 72 77
REMARK SMILES IDX 74 78 80 79 73 80 75 81 76 82 77 83 78 84 55 85 56 86 64 87
REMARK SMILES IDX 57 88 59 89 65 90 58 91 60 92 61 93 62 94 63 95
REMARK H PARENT 21 7 26 29 85 48 53 59
REMARK Flexibility Score: inf
ROOT
ATOM      1  C   UNL     1       3.106  -3.553   2.767  1.00  0.00     0.023 C 
ENDROOT
BRANCH   1   2
ATOM      2  C   UNL     1       1.834  -2.706   2.596  1.00  0.00     0.023 C 
BRANCH   2   3
ATOM      3  C   UNL     1       1.888  -1.171   2.759  1.00  0.00     0.116 C 
BRANCH   3   4
ATOM      4  N   UNL     1       2.528  -0.400   1.697  1.00  0.00    -0.355 N 
ATOM      5  O   UNL     1       0.625  -0.178   0.466  1.00  0.00    -0.273 OA
ATOM      6  C   UNL     1       1.815   0.116   0.633  1.00  0.00     0.239 C 
ATOM      7  H   UNL     1       3.499  -0.243   1.742  1.00  0.00     0.163 HD
BRANCH   6   8
ATOM      8  C   UNL     1       2.521   0.933  -0.443  1.00  0.00     0.222 C 
BRANCH   8   9
ATOM      9  N   UNL     1       3.665   1.757  -0.083  1.00  0.00    -0.334 N 
ATOM     10  C   UNL     1       3.576   3.133  -0.014  1.00  0.00     0.087 A 
ATOM     11  C   UNL     1       4.980   1.366   0.136  1.00  0.00     0.107 A 
ATOM     12  C   UNL     1       4.773   3.619   0.448  1.00  0.00     0.020 A 
ATOM     13  C   UNL     1       5.638   2.513   0.573  1.00  0.00     0.033 A 
BRANCH  11  14
ATOM     14  C   UNL     1       5.558   0.035   0.124  1.00  0.00     0.270 C 
ATOM     15  O   UNL     1       6.473  -0.287   0.901  1.00  0.00    -0.267 OA
ATOM     16  N   UNL     1       4.941  -0.946  -0.638  1.00  0.00    -0.337 N 
ATOM     17  C   UNL     1       4.833  -2.246  -0.036  1.00  0.00     0.120 C 
ATOM     18  C   UNL     1       5.029  -0.990  -2.088  1.00  0.00     0.120 C 
ATOM     19  C   UNL     1       3.493  -2.825  -0.438  1.00  0.00     0.028 C 
ATOM     20  C   UNL     1       3.851  -1.759  -2.726  1.00  0.00     0.028 C 
ATOM     21  C   UNL     1       3.290  -2.980  -1.946  1.00  0.00    -0.026 C 
ATOM     22  C   UNL     1       1.764  -3.163  -2.209  1.00  0.00     0.007 C 
ATOM     23  C   UNL     1       3.882  -4.342  -2.367  1.00  0.00     0.007 C 
ATOM     24  C   UNL     1       1.515  -4.651  -2.439  1.00  0.00     0.001 C 
ATOM     25  C   UNL     1       2.789  -5.351  -2.006  1.00  0.00     0.001 C 
ENDBRANCH  11  14
ENDBRANCH   8   9
ENDBRANCH   6   8
ENDBRANCH   3   4
ENDBRANCH   2   3
ENDBRANCH   1   2
BRANCH   1  26
ATOM     26  C   UNL     1       4.063  -3.185   3.878  1.00  0.00     0.116 C 
BRANCH  26  27
ATOM     27  N   UNL     1       3.707  -3.888   5.090  1.00  0.00    -0.352 N 
ATOM     28  C   UNL     1       4.490  -4.028   6.210  1.00  0.00     0.251 C 
ATOM     29  H   UNL     1       2.817  -4.308   5.115  1.00  0.00     0.163 HD
ATOM     30  O   UNL     1       4.449  -5.087   6.819  1.00  0.00    -0.269 OA
BRANCH  28  31
ATOM     31  C   UNL     1       5.329  -2.907   6.694  1.00  0.00     0.039 A 
ATOM     32  C   UNL     1       6.362  -3.216   7.588  1.00  0.00     0.014 A 
ATOM     33  C   UNL     1       5.041  -1.571   6.385  1.00  0.00     0.014 A 
ATOM     34  C   UNL     1       7.103  -2.191   8.159  1.00  0.00     0.010 A 
ATOM     35  C   UNL     1       5.806  -0.548   6.915  1.00  0.00     0.010 A 
ATOM     36  C   UNL     1       6.825  -0.863   7.808  1.00  0.00    -0.014 A 
BRANCH  36  37
ATOM     37  C   UNL     1       7.751   0.192   8.250  1.00  0.00     0.031 A 
ATOM     38  C   UNL     1       9.019   0.155   7.369  1.00  0.00     0.074 A 
ATOM     39  C   UNL     1       7.358   0.923   9.340  1.00  0.00     0.049 A 
ATOM     40  N   UNL     1      10.271   0.227   7.704  1.00  0.00    -0.248 NA
ATOM     41  C   UNL     1       8.886  -0.191   5.922  1.00  0.00     0.031 C 
ATOM     42  C   UNL     1       6.019   0.854   9.978  1.00  0.00     0.029 A 
ATOM     43  N   UNL     1       7.967   1.874  10.132  1.00  0.00    -0.354 N 
ATOM     44  C   UNL     1      11.027   0.211   6.503  1.00  0.00     0.074 A 
ATOM     45  C   UNL     1      10.146  -0.254   5.482  1.00  0.00     0.031 C 
ATOM     46  C   UNL     1       5.958   1.636  11.081  1.00  0.00     0.029 A 
ATOM     47  C   UNL     1       7.233   2.299  11.274  1.00  0.00     0.049 A 
ATOM     48  H   UNL     1       8.857   2.237   9.919  1.00  0.00     0.167 HD
ATOM     49  C   UNL     1      12.261   0.794   6.400  1.00  0.00     0.034 A 
ATOM     50  C   UNL     1       7.649   3.087  12.320  1.00  0.00     0.034 A 
ATOM     51  C   UNL     1      12.574   1.399   7.655  1.00  0.00     0.049 A 
ATOM     52  C   UNL     1       8.984   3.551  11.926  1.00  0.00     0.074 A 
ATOM     53  C   UNL     1      12.877   0.887   8.888  1.00  0.00     0.029 A 
ATOM     54  N   UNL     1      12.140   2.700   7.779  1.00  0.00    -0.354 N 
ATOM     55  N   UNL     1       9.215   4.454  11.019  1.00  0.00    -0.248 NA
ATOM     56  C   UNL     1      10.153   2.857  12.480  1.00  0.00     0.031 C 
ATOM     57  C   UNL     1      12.151   1.728   9.755  1.00  0.00     0.029 A 
ATOM     58  C   UNL     1      11.694   2.856   9.060  1.00  0.00     0.049 A 
ATOM     59  H   UNL     1      12.150   3.389   7.075  1.00  0.00     0.167 HD
ATOM     60  C   UNL     1      10.498   4.144  10.649  1.00  0.00     0.074 A 
ATOM     61  C   UNL     1      11.102   3.459  11.771  1.00  0.00     0.031 C 
ATOM     62  C   UNL     1      10.784   3.936   9.338  1.00  0.00     0.034 A 
BRANCH  49  63
ATOM     63  C   UNL     1      13.145   1.214   5.242  1.00  0.00     0.023 A 
ATOM     64  C   UNL     1      14.450   1.658   5.614  1.00  0.00     0.012 A 
ATOM     65  C   UNL     1      12.726   1.496   3.932  1.00  0.00     0.148 A 
ATOM     66  C   UNL     1      15.227   2.476   4.798  1.00  0.00     0.002 A 
ATOM     67  C   UNL     1      13.539   2.267   3.092  1.00  0.00     0.091 A 
ATOM     68  F   UNL     1      11.523   1.091   3.519  1.00  0.00    -0.205 F 
ATOM     69  C   UNL     1      14.760   2.796   3.539  1.00  0.00     0.022 A 
BRANCH  67  70
ATOM     70  S   UNL     1      13.102   2.663   1.394  1.00  0.00     0.127 S 
ATOM     71  O   UNL     1      12.840   4.097   1.473  1.00  0.00    -0.237 OA
ATOM     72  O   UNL     1      14.333   2.310   0.682  1.00  0.00    -0.237 OA
ATOM     73  O   UNL     1      11.964   1.814   1.067  1.00  0.00    -0.744 OA
ENDBRANCH  67  70
ENDBRANCH  49  63
BRANCH  50  74
ATOM     74  C   UNL     1       7.190   3.473  13.715  1.00  0.00     0.023 A 
ATOM     75  C   UNL     1       5.873   3.368  14.181  1.00  0.00     0.012 A 
ATOM     76  C   UNL     1       8.149   3.922  14.682  1.00  0.00     0.148 A 
ATOM     77  C   UNL     1       5.557   3.606  15.540  1.00  0.00     0.002 A 
ATOM     78  C   UNL     1       7.864   4.027  16.038  1.00  0.00     0.091 A 
ATOM     79  F   UNL     1       9.364   4.308  14.286  1.00  0.00    -0.205 F 
ATOM     80  C   UNL     1       6.555   3.885  16.476  1.00  0.00     0.022 A 
BRANCH  78  81
ATOM     81  S   UNL     1       9.173   4.202  17.273  1.00  0.00     0.127 S 
ATOM     82  O   UNL     1       8.729   5.364  18.039  1.00  0.00    -0.237 OA
ATOM     83  O   UNL     1       9.078   2.926  17.981  1.00  0.00    -0.237 OA
ATOM     84  O   UNL     1      10.416   4.390  16.535  1.00  0.00    -0.744 OA
ENDBRANCH  78  81
ENDBRANCH  50  74
BRANCH  62  85
ATOM     85  C   UNL     1       9.904   4.690   8.345  1.00  0.00     0.023 A 
ATOM     86  C   UNL     1       9.949   6.096   8.420  1.00  0.00     0.012 A 
ATOM     87  C   UNL     1       8.986   4.119   7.426  1.00  0.00     0.148 A 
ATOM     88  C   UNL     1       9.130   6.905   7.628  1.00  0.00     0.002 A 
ATOM     89  C   UNL     1       8.149   4.930   6.646  1.00  0.00     0.091 A 
ATOM     90  F   UNL     1       8.930   2.792   7.316  1.00  0.00    -0.205 F 
ATOM     91  C   UNL     1       8.231   6.325   6.742  1.00  0.00     0.022 A 
BRANCH  89  92
ATOM     92  S   UNL     1       6.867   4.294   5.536  1.00  0.00     0.127 S 
ATOM     93  O   UNL     1       5.696   5.086   5.920  1.00  0.00    -0.237 OA
ATOM     94  O   UNL     1       7.404   4.627   4.220  1.00  0.00    -0.237 OA
ATOM     95  O   UNL     1       6.739   2.869   5.826  1.00  0.00    -0.744 OA
ENDBRANCH  89  92
ENDBRANCH  62  85
ENDBRANCH  36  37
ENDBRANCH  28  31
ENDBRANCH  26  27
ENDBRANCH   1  26
TORSDOF 16
