REMARK SMILES Cc1ccc(C(C)(C)C)c(OCC(=O)c2nc(C)c(C(=O)NCCCCNC(=O)c3ccc(-c4c5nc(c(-c6cccc(S(=O)(=O)[O-])c6F)c6ccc([nH]6)c(-c6cccc(S(=O)(=O)[O-])c6F)c6nc(c(-c7cccc(S(=O)(=O)[O-])c7F)c7ccc4[nH]7)C=C6)C=C5)cc3)s2)c1
REMARK SMILES IDX 23 1 22 2 20 3 21 4 19 6 15 7 16 8 93 9 17 10 18 11 13 12
REMARK SMILES IDX 14 13 12 14 11 15 10 16 1 17 2 18 3 19 94 20 4 21 5 22 6 23
REMARK SMILES IDX 7 24 8 25 9 26 24 27 25 28 26 29 27 30 28 31 29 33 30 34
REMARK SMILES IDX 31 35 92 36 32 37 91 38 33 39 34 40 35 41 85 42 36 43 90 44
REMARK SMILES IDX 84 45 86 46 37 47 89 48 83 49 82 50 38 52 70 53 50 54 69 55
REMARK SMILES IDX 51 56 54 57 68 58 87 59 52 60 53 61 67 63 88 64 55 65 39 66
REMARK SMILES IDX 40 67 48 68 41 69 43 70 49 71 42 72 44 73 45 74 46 75 47 76
REMARK SMILES IDX 71 77 72 78 80 79 73 80 75 81 81 82 74 83 76 84 77 85 78 86
REMARK SMILES IDX 79 87 56 88 57 89 65 90 58 91 60 92 66 93 59 94 61 95 62 96
REMARK SMILES IDX 63 97 64 98
REMARK H PARENT 22 5 27 32 86 51 54 62
REMARK Flexibility Score: inf
ROOT
ATOM      1  C   UNL     1      -2.448   4.057   7.717  1.00  0.00     0.116 C 
ENDROOT
BRANCH   1   2
ATOM      2  N   UNL     1      -3.070   3.182   6.757  1.00  0.00    -0.351 N 
ATOM      3  C   UNL     1      -2.896   2.935   5.424  1.00  0.00     0.263 C 
ATOM      4  O   UNL     1      -3.700   2.086   5.010  1.00  0.00    -0.268 OA
ATOM      5  H   UNL     1      -3.787   2.635   7.153  1.00  0.00     0.163 HD
BRANCH   3   6
ATOM      6  C   UNL     1      -1.907   3.557   4.536  1.00  0.00     0.115 A 
ATOM      7  C   UNL     1      -0.668   3.886   2.416  1.00  0.00     0.164 A 
ATOM      8  N   UNL     1      -0.244   4.713   3.334  1.00  0.00    -0.237 NA
ATOM      9  S   UNL     1      -1.907   2.856   2.919  1.00  0.00    -0.105 S 
ATOM     10  C   UNL     1      -0.939   4.565   4.535  1.00  0.00     0.062 A 
ATOM     11  C   UNL     1      -0.454   5.556   5.524  1.00  0.00     0.068 C 
BRANCH   7  12
ATOM     12  C   UNL     1      -0.079   3.885   1.088  1.00  0.00     0.228 C 
ATOM     13  O   UNL     1       1.095   4.214   0.872  1.00  0.00    -0.288 OA
BRANCH  12  14
ATOM     14  C   UNL     1      -0.982   3.603  -0.120  1.00  0.00     0.313 C 
BRANCH  14  15
ATOM     15  O   UNL     1      -1.693   2.393  -0.249  1.00  0.00    -0.485 OA
BRANCH  15  16
ATOM     16  C   UNL     1      -1.032   1.200  -0.206  1.00  0.00     0.123 A 
ATOM     17  C   UNL     1       2.535  -0.172  -0.080  1.00  0.00     0.044 C 
ATOM     18  C   UNL     1       1.037  -0.108  -0.104  1.00  0.00    -0.047 A 
ATOM     19  C   UNL     1       0.281  -1.267   0.017  1.00  0.00     0.004 A 
ATOM     20  C   UNL     1       0.372   1.113  -0.251  1.00  0.00     0.050 A 
ATOM     21  C   UNL     1      -1.114  -1.197   0.007  1.00  0.00     0.008 A 
ATOM     22  C   UNL     1      -1.814   0.030  -0.096  1.00  0.00    -0.000 A 
BRANCH  22  23
ATOM     23  C   UNL     1      -3.365  -0.024  -0.090  1.00  0.00    -0.010 C 
ATOM     24  C   UNL     1      -3.833  -0.811  -1.337  1.00  0.00     0.016 C 
ATOM     25  C   UNL     1      -3.857  -0.751   1.185  1.00  0.00     0.016 C 
ATOM     26  C   UNL     1      -4.124   1.323  -0.129  1.00  0.00     0.016 C 
ENDBRANCH  22  23
ENDBRANCH  15  16
ENDBRANCH  14  15
ENDBRANCH  12  14
ENDBRANCH   7  12
ENDBRANCH   3   6
ENDBRANCH   1   2
BRANCH   1  27
ATOM     27  C   UNL     1      -3.077   5.456   7.694  1.00  0.00     0.023 C 
BRANCH  27  28
ATOM     28  C   UNL     1      -4.404   5.627   8.447  1.00  0.00     0.023 C 
BRANCH  28  29
ATOM     29  C   UNL     1      -4.300   5.702   9.969  1.00  0.00     0.116 C 
BRANCH  29  30
ATOM     30  N   UNL     1      -3.426   6.792  10.413  1.00  0.00    -0.352 N 
ATOM     31  C   UNL     1      -2.694   6.932  11.573  1.00  0.00     0.251 C 
ATOM     32  H   UNL     1      -3.349   7.543   9.782  1.00  0.00     0.163 HD
ATOM     33  O   UNL     1      -2.449   8.078  11.972  1.00  0.00    -0.269 OA
BRANCH  31  34
ATOM     34  C   UNL     1      -2.142   5.750  12.258  1.00  0.00     0.039 A 
ATOM     35  C   UNL     1      -1.617   5.774  13.556  1.00  0.00     0.014 A 
ATOM     36  C   UNL     1      -1.995   4.607  11.488  1.00  0.00     0.014 A 
ATOM     37  C   UNL     1      -0.864   4.684  14.004  1.00  0.00     0.010 A 
ATOM     38  C   UNL     1      -1.522   3.455  12.018  1.00  0.00     0.010 A 
ATOM     39  C   UNL     1      -0.776   3.565  13.182  1.00  0.00    -0.014 A 
BRANCH  39  40
ATOM     40  C   UNL     1       0.178   2.479  13.276  1.00  0.00     0.031 A 
ATOM     41  C   UNL     1      -0.028   1.412  14.254  1.00  0.00     0.074 A 
ATOM     42  C   UNL     1       0.965   2.337  12.178  1.00  0.00     0.049 A 
ATOM     43  N   UNL     1       0.876   0.564  14.588  1.00  0.00    -0.248 NA
ATOM     44  C   UNL     1      -1.309   1.208  14.922  1.00  0.00     0.031 C 
ATOM     45  C   UNL     1       1.572   1.129  11.648  1.00  0.00     0.029 A 
ATOM     46  N   UNL     1       1.371   3.324  11.263  1.00  0.00    -0.354 N 
ATOM     47  C   UNL     1       0.224  -0.468  15.230  1.00  0.00     0.074 A 
ATOM     48  C   UNL     1      -1.094   0.040  15.536  1.00  0.00     0.031 C 
ATOM     49  C   UNL     1       2.478   1.477  10.714  1.00  0.00     0.029 A 
ATOM     50  C   UNL     1       2.620   2.925  10.780  1.00  0.00     0.049 A 
ATOM     51  H   UNL     1       0.874   4.136  11.013  1.00  0.00     0.167 HD
ATOM     52  C   UNL     1       0.790  -1.707  15.224  1.00  0.00     0.034 A 
ATOM     53  C   UNL     1       3.771   3.600  11.088  1.00  0.00     0.034 A 
ATOM     54  C   UNL     1       2.037  -1.690  14.438  1.00  0.00     0.049 A 
ATOM     55  C   UNL     1       4.727   2.745  11.907  1.00  0.00     0.074 A 
ATOM     56  C   UNL     1       2.307  -2.041  13.123  1.00  0.00     0.029 A 
ATOM     57  N   UNL     1       3.123  -0.938  14.870  1.00  0.00    -0.354 N 
ATOM     58  N   UNL     1       4.407   1.592  12.426  1.00  0.00    -0.248 NA
ATOM     59  C   UNL     1       6.103   3.118  12.218  1.00  0.00     0.031 C 
ATOM     60  C   UNL     1       3.534  -1.431  12.747  1.00  0.00     0.029 A 
ATOM     61  C   UNL     1       4.027  -0.732  13.836  1.00  0.00     0.049 A 
ATOM     62  H   UNL     1       3.236  -0.596  15.786  1.00  0.00     0.167 HD
ATOM     63  C   UNL     1       5.413   1.136  13.231  1.00  0.00     0.074 A 
ATOM     64  C   UNL     1       6.487   2.089  12.996  1.00  0.00     0.031 C 
ATOM     65  C   UNL     1       5.241   0.054  14.056  1.00  0.00     0.034 A 
BRANCH  52  66
ATOM     66  C   UNL     1       0.055  -2.988  15.580  1.00  0.00     0.023 A 
ATOM     67  C   UNL     1       0.520  -4.186  14.991  1.00  0.00     0.012 A 
ATOM     68  C   UNL     1      -1.074  -3.112  16.424  1.00  0.00     0.148 A 
ATOM     69  C   UNL     1      -0.144  -5.407  15.135  1.00  0.00     0.002 A 
ATOM     70  C   UNL     1      -1.780  -4.318  16.515  1.00  0.00     0.091 A 
ATOM     71  F   UNL     1      -1.429  -2.090  17.211  1.00  0.00    -0.205 F 
ATOM     72  C   UNL     1      -1.317  -5.467  15.868  1.00  0.00     0.022 A 
BRANCH  70  73
ATOM     73  S   UNL     1      -3.355  -4.457  17.380  1.00  0.00     0.127 S 
ATOM     74  O   UNL     1      -4.181  -5.178  16.408  1.00  0.00    -0.237 OA
ATOM     75  O   UNL     1      -2.998  -5.234  18.565  1.00  0.00    -0.237 OA
ATOM     76  O   UNL     1      -3.797  -3.090  17.628  1.00  0.00    -0.744 OA
ENDBRANCH  70  73
ENDBRANCH  52  66
BRANCH  53  77
ATOM     77  C   UNL     1       3.550   5.072  11.284  1.00  0.00     0.023 A 
ATOM     78  C   UNL     1       3.093   5.803  10.160  1.00  0.00     0.012 A 
ATOM     79  C   UNL     1       3.328   5.600  12.569  1.00  0.00     0.148 A 
ATOM     80  C   UNL     1       2.261   6.915  10.322  1.00  0.00     0.002 A 
ATOM     81  C   UNL     1       2.496   6.710  12.721  1.00  0.00     0.091 A 
ATOM     82  F   UNL     1       3.858   4.970  13.624  1.00  0.00    -0.205 F 
ATOM     83  C   UNL     1       1.919   7.334  11.604  1.00  0.00     0.022 A 
BRANCH  81  84
ATOM     84  S   UNL     1       2.037   7.293  14.360  1.00  0.00     0.127 S 
ATOM     85  O   UNL     1       3.115   8.235  14.647  1.00  0.00    -0.237 OA
ATOM     86  O   UNL     1       0.731   7.912  14.135  1.00  0.00    -0.237 OA
ATOM     87  O   UNL     1       1.990   6.090  15.175  1.00  0.00    -0.744 OA
ENDBRANCH  81  84
ENDBRANCH  53  77
BRANCH  65  88
ATOM     88  C   UNL     1       6.195  -0.376  15.158  1.00  0.00     0.023 A 
ATOM     89  C   UNL     1       7.166   0.487  15.697  1.00  0.00     0.012 A 
ATOM     90  C   UNL     1       6.051  -1.639  15.793  1.00  0.00     0.148 A 
ATOM     91  C   UNL     1       7.998   0.100  16.754  1.00  0.00     0.002 A 
ATOM     92  C   UNL     1       6.787  -1.966  16.928  1.00  0.00     0.091 A 
ATOM     93  F   UNL     1       5.215  -2.557  15.287  1.00  0.00    -0.205 F 
ATOM     94  C   UNL     1       7.791  -1.116  17.387  1.00  0.00     0.022 A 
BRANCH  92  95
ATOM     95  S   UNL     1       6.367  -3.402  17.926  1.00  0.00     0.127 S 
ATOM     96  O   UNL     1       7.308  -4.402  17.427  1.00  0.00    -0.237 OA
ATOM     97  O   UNL     1       6.644  -2.929  19.284  1.00  0.00    -0.237 OA
ATOM     98  O   UNL     1       4.958  -3.654  17.660  1.00  0.00    -0.744 OA
ENDBRANCH  92  95
ENDBRANCH  65  88
ENDBRANCH  39  40
ENDBRANCH  31  34
ENDBRANCH  29  30
ENDBRANCH  28  29
ENDBRANCH  27  28
ENDBRANCH   1  27
TORSDOF 19
