REMARK SMILES O=C(NCCCCNC(=O)c1cc(-c2ccn(C(F)F)c(=O)c2)ccc1O)c1ccc(-c2c3nc(c(-c4cccc(S(=O)(=O)[O-])c4F)c4ccc([nH]4)c(-c4cccc(S(=O)(=O)[O-])c4F)c4nc(c(-c5cccc(S(=O)(=O)[O-])c5F)c5ccc2[nH]5)C=C4)C=C3)cc1
REMARK SMILES IDX 5 1 4 2 3 3 1 4 2 5 28 7 29 8 90 9 30 10 89 11 31 12 32 13
REMARK SMILES IDX 33 14 83 15 34 16 88 17 82 18 84 19 35 20 87 21 81 22 80 23
REMARK SMILES IDX 36 25 68 26 48 27 67 28 49 29 52 30 66 31 85 32 50 33 51 34
REMARK SMILES IDX 65 36 86 37 53 38 37 39 38 40 46 41 39 42 41 43 47 44 40 45
REMARK SMILES IDX 42 46 43 47 44 48 45 49 69 50 70 51 78 52 71 53 73 54 79 55
REMARK SMILES IDX 72 56 74 57 75 58 76 59 77 60 54 61 55 62 63 63 56 64 58 65
REMARK SMILES IDX 64 66 57 67 59 68 60 69 61 70 62 71 6 72 7 73 8 74 9 75
REMARK SMILES IDX 10 77 11 78 12 79 26 80 13 81 25 82 24 83 27 84 14 86 15 87
REMARK SMILES IDX 23 88 16 89 21 90 17 91 22 92 18 93 19 94 20 95
REMARK H PARENT 3 6 84 24 52 35 8 76 27 85
REMARK Flexibility Score: inf
ROOT
ATOM      1  C   UNL     1       4.971   2.040  -1.470  1.00  0.00     0.023 C 
ENDROOT
BRANCH   1   2
ATOM      2  C   UNL     1       4.614   1.128  -0.300  1.00  0.00     0.116 C 
BRANCH   2   3
ATOM      3  N   UNL     1       3.180   1.034  -0.077  1.00  0.00    -0.352 N 
ATOM      4  O   UNL     1       1.152   0.077   0.044  1.00  0.00    -0.269 OA
ATOM      5  C   UNL     1       2.371  -0.072  -0.004  1.00  0.00     0.251 C 
ATOM      6  H   UNL     1       2.719   1.897   0.039  1.00  0.00     0.163 HD
BRANCH   5   7
ATOM      7  C   UNL     1       2.948  -1.436   0.005  1.00  0.00     0.039 A 
ATOM      8  C   UNL     1       2.313  -2.439  -0.734  1.00  0.00     0.014 A 
ATOM      9  C   UNL     1       4.076  -1.745   0.771  1.00  0.00     0.014 A 
ATOM     10  C   UNL     1       2.828  -3.739  -0.733  1.00  0.00     0.010 A 
ATOM     11  C   UNL     1       4.629  -3.023   0.714  1.00  0.00     0.010 A 
ATOM     12  C   UNL     1       3.998  -4.039  -0.019  1.00  0.00    -0.014 A 
BRANCH  12  13
ATOM     13  C   UNL     1       4.545  -5.420   0.022  1.00  0.00     0.031 A 
ATOM     14  C   UNL     1       4.582  -6.172   1.326  1.00  0.00     0.074 A 
ATOM     15  C   UNL     1       5.053  -5.982  -1.092  1.00  0.00     0.049 A 
ATOM     16  N   UNL     1       5.077  -7.355   1.581  1.00  0.00    -0.248 NA
ATOM     17  C   UNL     1       4.007  -5.499   2.504  1.00  0.00     0.031 C 
ATOM     18  C   UNL     1       5.127  -5.341  -2.407  1.00  0.00     0.029 A 
ATOM     19  N   UNL     1       5.617  -7.217  -1.292  1.00  0.00    -0.354 N 
ATOM     20  C   UNL     1       4.915  -7.548   2.947  1.00  0.00     0.074 A 
ATOM     21  C   UNL     1       4.296  -6.354   3.475  1.00  0.00     0.031 C 
ATOM     22  C   UNL     1       5.687  -6.195  -3.280  1.00  0.00     0.029 A 
ATOM     23  C   UNL     1       6.034  -7.432  -2.585  1.00  0.00     0.049 A 
ATOM     24  H   UNL     1       5.714  -7.887  -0.577  1.00  0.00     0.167 HD
ATOM     25  C   UNL     1       5.219  -8.636   3.691  1.00  0.00     0.034 A 
ATOM     26  C   UNL     1       6.624  -8.505  -3.149  1.00  0.00     0.034 A 
ATOM     27  C   UNL     1       5.756  -9.856   3.158  1.00  0.00     0.049 A 
ATOM     28  C   UNL     1       6.903  -9.722  -2.311  1.00  0.00     0.074 A 
ATOM     29  C   UNL     1       6.014 -11.041   3.823  1.00  0.00     0.029 A 
ATOM     30  N   UNL     1       6.102 -10.054   1.832  1.00  0.00    -0.354 N 
ATOM     31  N   UNL     1       6.642  -9.923  -1.043  1.00  0.00    -0.248 NA
ATOM     32  C   UNL     1       7.535 -10.867  -2.984  1.00  0.00     0.031 C 
ATOM     33  C   UNL     1       6.515 -11.959   2.896  1.00  0.00     0.029 A 
ATOM     34  C   UNL     1       6.567 -11.344   1.656  1.00  0.00     0.049 A 
ATOM     35  H   UNL     1       6.027  -9.377   1.121  1.00  0.00     0.167 HD
ATOM     36  C   UNL     1       7.058 -11.221  -0.769  1.00  0.00     0.074 A 
ATOM     37  C   UNL     1       7.574 -11.766  -2.007  1.00  0.00     0.031 C 
ATOM     38  C   UNL     1       7.029 -11.891   0.407  1.00  0.00     0.034 A 
BRANCH  25  39
ATOM     39  C   UNL     1       4.899  -8.594   5.159  1.00  0.00     0.023 A 
ATOM     40  C   UNL     1       3.566  -8.787   5.573  1.00  0.00     0.012 A 
ATOM     41  C   UNL     1       5.915  -8.450   6.122  1.00  0.00     0.148 A 
ATOM     42  C   UNL     1       3.245  -8.825   6.928  1.00  0.00     0.002 A 
ATOM     43  C   UNL     1       5.591  -8.519   7.472  1.00  0.00     0.091 A 
ATOM     44  F   UNL     1       7.172  -8.253   5.701  1.00  0.00    -0.205 F 
ATOM     45  C   UNL     1       4.257  -8.701   7.876  1.00  0.00     0.022 A 
BRANCH  43  46
ATOM     46  S   UNL     1       6.822  -8.424   8.777  1.00  0.00     0.127 S 
ATOM     47  O   UNL     1       6.450  -7.174   9.441  1.00  0.00    -0.237 OA
ATOM     48  O   UNL     1       6.541  -9.633   9.551  1.00  0.00    -0.237 OA
ATOM     49  O   UNL     1       8.116  -8.408   8.111  1.00  0.00    -0.744 OA
ENDBRANCH  43  46
ENDBRANCH  25  39
BRANCH  26  50
ATOM     50  C   UNL     1       6.909  -8.497  -4.609  1.00  0.00     0.023 A 
ATOM     51  C   UNL     1       6.066  -9.223  -5.471  1.00  0.00     0.012 A 
ATOM     52  C   UNL     1       7.957  -7.730  -5.151  1.00  0.00     0.148 A 
ATOM     53  C   UNL     1       6.266  -9.193  -6.851  1.00  0.00     0.002 A 
ATOM     54  C   UNL     1       8.128  -7.674  -6.530  1.00  0.00     0.091 A 
ATOM     55  F   UNL     1       8.748  -7.052  -4.308  1.00  0.00    -0.205 F 
ATOM     56  C   UNL     1       7.290  -8.412  -7.381  1.00  0.00     0.022 A 
BRANCH  54  57
ATOM     57  S   UNL     1       9.353  -6.620  -7.316  1.00  0.00     0.127 S 
ATOM     58  O   UNL     1      10.224  -7.602  -7.957  1.00  0.00    -0.237 OA
ATOM     59  O   UNL     1       8.526  -5.837  -8.235  1.00  0.00    -0.237 OA
ATOM     60  O   UNL     1       9.962  -5.850  -6.241  1.00  0.00    -0.744 OA
ENDBRANCH  54  57
ENDBRANCH  26  50
BRANCH  38  61
ATOM     61  C   UNL     1       7.560 -13.296   0.439  1.00  0.00     0.023 A 
ATOM     62  C   UNL     1       8.950 -13.501   0.521  1.00  0.00     0.012 A 
ATOM     63  C   UNL     1       6.686 -14.397   0.532  1.00  0.00     0.148 A 
ATOM     64  C   UNL     1       9.465 -14.785   0.693  1.00  0.00     0.002 A 
ATOM     65  C   UNL     1       7.205 -15.669   0.735  1.00  0.00     0.091 A 
ATOM     66  F   UNL     1       5.367 -14.172   0.443  1.00  0.00    -0.205 F 
ATOM     67  C   UNL     1       8.594 -15.865   0.812  1.00  0.00     0.022 A 
BRANCH  65  68
ATOM     68  S   UNL     1       6.164 -17.113   0.980  1.00  0.00     0.127 S 
ATOM     69  O   UNL     1       6.437 -17.886  -0.231  1.00  0.00    -0.237 OA
ATOM     70  O   UNL     1       6.715 -17.687   2.207  1.00  0.00    -0.237 OA
ATOM     71  O   UNL     1       4.801 -16.613   1.102  1.00  0.00    -0.744 OA
ENDBRANCH  65  68
ENDBRANCH  38  61
ENDBRANCH  12  13
ENDBRANCH   5   7
ENDBRANCH   2   3
ENDBRANCH   1   2
BRANCH   1  72
ATOM     72  C   UNL     1       4.481   3.483  -1.355  1.00  0.00     0.023 C 
BRANCH  72  73
ATOM     73  C   UNL     1       4.866   4.207  -0.070  1.00  0.00     0.116 C 
BRANCH  73  74
ATOM     74  N   UNL     1       6.303   4.340   0.091  1.00  0.00    -0.352 N 
ATOM     75  C   UNL     1       7.025   5.466   0.399  1.00  0.00     0.255 C 
ATOM     76  H   UNL     1       6.827   3.517  -0.037  1.00  0.00     0.163 HD
ATOM     77  O   UNL     1       8.252   5.433   0.449  1.00  0.00    -0.269 OA
BRANCH  75  78
ATOM     78  C   UNL     1       6.334   6.756   0.592  1.00  0.00     0.082 A 
ATOM     79  C   UNL     1       6.686   7.806  -0.269  1.00  0.00     0.026 A 
ATOM     80  C   UNL     1       5.379   6.955   1.595  1.00  0.00     0.128 A 
ATOM     81  C   UNL     1       6.041   9.041  -0.160  1.00  0.00    -0.017 A 
ATOM     82  C   UNL     1       4.724   8.179   1.700  1.00  0.00     0.047 A 
ATOM     83  C   UNL     1       5.050   9.213   0.820  1.00  0.00     0.012 A 
BRANCH  80  84
ATOM     84  O   UNL     1       5.073   5.952   2.471  1.00  0.00    -0.507 OA
ATOM     85  H   UNL     1       5.509   5.125   2.407  1.00  0.00     0.293 HD
ENDBRANCH  80  84
BRANCH  81  86
ATOM     86  C   UNL     1       6.377  10.178  -1.036  1.00  0.00    -0.011 A 
ATOM     87  C   UNL     1       6.946  11.406  -0.514  1.00  0.00     0.027 A 
ATOM     88  C   UNL     1       6.077  10.100  -2.344  1.00  0.00     0.080 A 
ATOM     89  C   UNL     1       7.100  12.474  -1.303  1.00  0.00     0.095 A 
ATOM     90  C   UNL     1       6.263  11.277  -3.241  1.00  0.00     0.255 A 
ATOM     91  N   UNL     1       6.748  12.427  -2.639  1.00  0.00    -0.258 N 
ATOM     92  O   UNL     1       5.953  11.170  -4.424  1.00  0.00    -0.269 OA
BRANCH  91  93
ATOM     93  C   UNL     1       6.847  13.605  -3.460  1.00  0.00     0.451 C 
ATOM     94  F   UNL     1       7.657  13.404  -4.527  1.00  0.00    -0.185 F 
ATOM     95  F   UNL     1       5.627  13.978  -3.921  1.00  0.00    -0.185 F 
ENDBRANCH  91  93
ENDBRANCH  81  86
ENDBRANCH  75  78
ENDBRANCH  73  74
ENDBRANCH  72  73
ENDBRANCH   1  72
TORSDOF 17
