REMARK SMILES CC(C)C[C@H](NC(=O)[C@H](Cc1ccccc1)NC(=O)CNC(=O)C[NH3+])C(=O)NCCCCNC(=O)c1ccc(-c2c3nc(c(-c4cccc(S(=O)(=O)[O-])c4F)c4ccc([nH]4)c(-c4cccc(S(=O)(=O)[O-])c4F)c4nc(c(-c5cccc(S(=O)(=O)[O-])c5F)c5ccc2[nH]5)C=C4)C=C3)cc1
REMARK SMILES IDX 26 1 27 2 28 3 5 5 4 6 2 7 1 8 3 9 6 10 7 11 8 13 9 14 17 15
REMARK SMILES IDX 18 16 19 18 20 19 21 20 22 21 23 23 24 24 25 25 10 29 11 30
REMARK SMILES IDX 12 31 16 32 13 33 15 34 14 35 29 36 30 37 31 38 32 39 33 40
REMARK SMILES IDX 34 41 35 43 36 44 37 45 98 46 38 47 97 48 39 49 40 50 41 51
REMARK SMILES IDX 91 52 42 53 96 54 90 55 92 56 43 57 95 58 89 59 88 60 44 62
REMARK SMILES IDX 76 63 56 64 75 65 57 66 60 67 74 68 93 69 58 70 59 71 73 73
REMARK SMILES IDX 94 74 61 75 45 76 46 77 54 78 47 79 49 80 55 81 48 82 50 83
REMARK SMILES IDX 51 84 52 85 53 86 77 87 78 88 86 89 79 90 81 91 87 92 80 93
REMARK SMILES IDX 82 94 83 95 84 96 85 97 62 98 63 99 71 100 64 101 66 102
REMARK SMILES IDX 72 103 65 104 67 105 68 106 69 107 70 108
REMARK H PARENT 28 4 6 12 17 17 21 22 25 26 25 27 25 28 33 42 92 61 60 72
REMARK Flexibility Score: inf
ROOT
ATOM      1  C   UNL     1       0.646  -6.120   0.189  1.00  0.00     0.242 C 
ATOM      2  O   UNL     1       0.377  -6.907  -0.722  1.00  0.00    -0.273 OA
ATOM      3  N   UNL     1       0.898  -6.624   1.429  1.00  0.00    -0.354 N 
ATOM      4  H   UNL     1       0.937  -7.606   1.488  1.00  0.00     0.163 HD
ENDROOT
BRANCH   1   5
ATOM      5  C   UNL     1       0.692  -4.604  -0.066  1.00  0.00     0.171 C 
BRANCH   5   6
ATOM      6  C   UNL     1       2.069  -4.004   0.158  1.00  0.00     0.038 C 
BRANCH   6   7
ATOM      7  C   UNL     1       3.382  -4.755  -0.134  1.00  0.00    -0.015 C 
ATOM      8  C   UNL     1       3.448  -5.487  -1.466  1.00  0.00     0.007 C 
ATOM      9  C   UNL     1       4.537  -3.740  -0.061  1.00  0.00     0.007 C 
ENDBRANCH   6   7
ENDBRANCH   5   6
BRANCH   5  10
ATOM     10  N   UNL     1      -0.469  -3.983   0.639  1.00  0.00    -0.343 N 
ATOM     11  C   UNL     1      -0.830  -2.853   1.302  1.00  0.00     0.243 C 
ATOM     12  H   UNL     1      -1.232  -4.604   0.616  1.00  0.00     0.164 HD
ATOM     13  O   UNL     1      -2.041  -2.807   1.572  1.00  0.00    -0.273 OA
BRANCH  11  14
ATOM     14  C   UNL     1       0.124  -1.818   1.968  1.00  0.00     0.175 C 
BRANCH  14  15
ATOM     15  N   UNL     1       1.410  -1.552   1.329  1.00  0.00    -0.342 N 
ATOM     16  C   UNL     1       2.646  -1.451   1.900  1.00  0.00     0.240 C 
ATOM     17  H   UNL     1       1.381  -1.430   0.352  1.00  0.00     0.164 HD
ATOM     18  O   UNL     1       3.512  -0.782   1.333  1.00  0.00    -0.273 OA
BRANCH  16  19
ATOM     19  C   UNL     1       2.912  -2.121   3.244  1.00  0.00     0.216 C 
BRANCH  19  20
ATOM     20  N   UNL     1       2.743  -1.145   4.296  1.00  0.00    -0.342 N 
ATOM     21  C   UNL     1       2.206  -1.342   5.532  1.00  0.00     0.275 C 
ATOM     22  H   UNL     1       3.053  -0.232   4.096  1.00  0.00     0.164 HD
ATOM     23  O   UNL     1       2.008  -0.367   6.257  1.00  0.00    -0.268 OA
BRANCH  21  24
ATOM     24  C   UNL     1       1.831  -2.761   5.971  1.00  0.00     0.360 C 
BRANCH  24  25
ATOM     25  N   UNL     1       0.547  -3.163   5.370  1.00  0.00    -0.350 N 
ATOM     26  H   UNL     1      -0.186  -2.522   5.674  1.00  0.00     0.344 HD
ATOM     27  H   UNL     1       0.315  -4.111   5.665  1.00  0.00     0.344 HD
ATOM     28  H   UNL     1       0.624  -3.132   4.353  1.00  0.00     0.344 HD
ENDBRANCH  24  25
ENDBRANCH  21  24
ENDBRANCH  19  20
ENDBRANCH  16  19
ENDBRANCH  14  15
BRANCH  14  29
ATOM     29  C   UNL     1      -0.608  -0.458   2.263  1.00  0.00     0.070 C 
BRANCH  29  30
ATOM     30  C   UNL     1      -0.338   0.588   1.191  1.00  0.00    -0.045 A 
ATOM     31  C   UNL     1       0.870   1.307   1.226  1.00  0.00     0.004 A 
ATOM     32  C   UNL     1      -1.158   0.692   0.064  1.00  0.00     0.004 A 
ATOM     33  C   UNL     1       1.327   1.979   0.095  1.00  0.00     0.000 A 
ATOM     34  C   UNL     1      -0.723   1.417  -1.048  1.00  0.00     0.000 A 
ATOM     35  C   UNL     1       0.535   2.022  -1.048  1.00  0.00     0.000 A 
ENDBRANCH  29  30
ENDBRANCH  14  29
ENDBRANCH  11  14
ENDBRANCH   5  10
ENDBRANCH   1   5
BRANCH   3  36
ATOM     36  C   UNL     1       1.117  -5.914   2.672  1.00  0.00     0.116 C 
BRANCH  36  37
ATOM     37  C   UNL     1       0.445  -6.617   3.844  1.00  0.00     0.023 C 
BRANCH  37  38
ATOM     38  C   UNL     1       1.062  -7.962   4.216  1.00  0.00     0.023 C 
BRANCH  38  39
ATOM     39  C   UNL     1       2.562  -7.928   4.483  1.00  0.00     0.116 C 
BRANCH  39  40
ATOM     40  N   UNL     1       2.929  -6.988   5.534  1.00  0.00    -0.352 N 
ATOM     41  C   UNL     1       3.708  -7.204   6.651  1.00  0.00     0.251 C 
ATOM     42  H   UNL     1       2.575  -6.075   5.431  1.00  0.00     0.163 HD
ATOM     43  O   UNL     1       3.806  -6.343   7.508  1.00  0.00    -0.269 OA
BRANCH  41  44
ATOM     44  C   UNL     1       4.388  -8.510   6.796  1.00  0.00     0.039 A 
ATOM     45  C   UNL     1       4.228  -9.235   7.978  1.00  0.00     0.014 A 
ATOM     46  C   UNL     1       5.114  -9.045   5.728  1.00  0.00     0.014 A 
ATOM     47  C   UNL     1       4.728 -10.538   8.056  1.00  0.00     0.010 A 
ATOM     48  C   UNL     1       5.531 -10.370   5.777  1.00  0.00     0.010 A 
ATOM     49  C   UNL     1       5.344 -11.132   6.941  1.00  0.00    -0.014 A 
BRANCH  49  50
ATOM     50  C   UNL     1       5.785 -12.551   6.960  1.00  0.00     0.031 A 
ATOM     51  C   UNL     1       7.235 -12.895   6.747  1.00  0.00     0.074 A 
ATOM     52  C   UNL     1       4.869 -13.536   7.068  1.00  0.00     0.049 A 
ATOM     53  N   UNL     1       7.799 -14.072   6.662  1.00  0.00    -0.248 NA
ATOM     54  C   UNL     1       8.169 -11.770   6.574  1.00  0.00     0.031 C 
ATOM     55  C   UNL     1       3.422 -13.338   7.190  1.00  0.00     0.029 A 
ATOM     56  N   UNL     1       5.015 -14.901   7.064  1.00  0.00    -0.354 N 
ATOM     57  C   UNL     1       9.140 -13.831   6.388  1.00  0.00     0.074 A 
ATOM     58  C   UNL     1       9.299 -12.398   6.282  1.00  0.00     0.031 C 
ATOM     59  C   UNL     1       2.818 -14.536   7.258  1.00  0.00     0.029 A 
ATOM     60  C   UNL     1       3.825 -15.586   7.151  1.00  0.00     0.049 A 
ATOM     61  H   UNL     1       5.890 -15.348   7.003  1.00  0.00     0.167 HD
ATOM     62  C   UNL     1      10.155 -14.718   6.269  1.00  0.00     0.034 A 
ATOM     63  C   UNL     1       3.572 -16.910   7.139  1.00  0.00     0.034 A 
ATOM     64  C   UNL     1      10.004 -16.139   6.421  1.00  0.00     0.049 A 
ATOM     65  C   UNL     1       4.724 -17.874   7.047  1.00  0.00     0.074 A 
ATOM     66  C   UNL     1      10.986 -17.114   6.414  1.00  0.00     0.029 A 
ATOM     67  N   UNL     1       8.794 -16.792   6.599  1.00  0.00    -0.354 N 
ATOM     68  N   UNL     1       6.007 -17.621   6.956  1.00  0.00    -0.248 NA
ATOM     69  C   UNL     1       4.398 -19.307   7.094  1.00  0.00     0.031 C 
ATOM     70  C   UNL     1      10.366 -18.359   6.560  1.00  0.00     0.029 A 
ATOM     71  C   UNL     1       9.002 -18.157   6.692  1.00  0.00     0.049 A 
ATOM     72  H   UNL     1       7.916 -16.349   6.652  1.00  0.00     0.167 HD
ATOM     73  C   UNL     1       6.642 -18.857   6.973  1.00  0.00     0.074 A 
ATOM     74  C   UNL     1       5.604 -19.858   7.104  1.00  0.00     0.031 C 
ATOM     75  C   UNL     1       7.965 -19.139   6.876  1.00  0.00     0.034 A 
BRANCH  62  76
ATOM     76  C   UNL     1      11.535 -14.171   6.008  1.00  0.00     0.023 A 
ATOM     77  C   UNL     1      12.209 -13.465   7.027  1.00  0.00     0.012 A 
ATOM     78  C   UNL     1      12.187 -14.403   4.782  1.00  0.00     0.148 A 
ATOM     79  C   UNL     1      13.492 -12.964   6.816  1.00  0.00     0.002 A 
ATOM     80  C   UNL     1      13.486 -13.943   4.596  1.00  0.00     0.091 A 
ATOM     81  F   UNL     1      11.524 -15.057   3.818  1.00  0.00    -0.205 F 
ATOM     82  C   UNL     1      14.134 -13.213   5.606  1.00  0.00     0.022 A 
BRANCH  80  83
ATOM     83  S   UNL     1      14.430 -14.280   3.106  1.00  0.00     0.127 S 
ATOM     84  O   UNL     1      14.494 -12.954   2.491  1.00  0.00    -0.237 OA
ATOM     85  O   UNL     1      15.700 -14.762   3.649  1.00  0.00    -0.237 OA
ATOM     86  O   UNL     1      13.669 -15.275   2.364  1.00  0.00    -0.744 OA
ENDBRANCH  80  83
ENDBRANCH  62  76
BRANCH  63  87
ATOM     87  C   UNL     1       2.173 -17.405   7.283  1.00  0.00     0.023 A 
ATOM     88  C   UNL     1       1.790 -18.062   8.469  1.00  0.00     0.012 A 
ATOM     89  C   UNL     1       1.218 -17.214   6.266  1.00  0.00     0.148 A 
ATOM     90  C   UNL     1       0.492 -18.552   8.625  1.00  0.00     0.002 A 
ATOM     91  C   UNL     1      -0.088 -17.654   6.451  1.00  0.00     0.091 A 
ATOM     92  F   UNL     1       1.604 -16.596   5.141  1.00  0.00    -0.205 F 
ATOM     93  C   UNL     1      -0.448 -18.340   7.621  1.00  0.00     0.022 A 
BRANCH  91  94
ATOM     94  S   UNL     1      -1.397 -17.308   5.271  1.00  0.00     0.127 S 
ATOM     95  O   UNL     1      -1.660 -18.634   4.718  1.00  0.00    -0.237 OA
ATOM     96  O   UNL     1      -2.451 -16.780   6.137  1.00  0.00    -0.237 OA
ATOM     97  O   UNL     1      -0.841 -16.334   4.342  1.00  0.00    -0.744 OA
ENDBRANCH  91  94
ENDBRANCH  63  87
BRANCH  75  98
ATOM     98  C   UNL     1       8.381 -20.585   6.950  1.00  0.00     0.023 A 
ATOM     99  C   UNL     1       8.115 -21.451   5.872  1.00  0.00     0.012 A 
ATOM    100  C   UNL     1       9.105 -21.065   8.060  1.00  0.00     0.148 A 
ATOM    101  C   UNL     1       8.534 -22.781   5.911  1.00  0.00     0.002 A 
ATOM    102  C   UNL     1       9.565 -22.376   8.069  1.00  0.00     0.091 A 
ATOM    103  F   UNL     1       9.332 -20.230   9.085  1.00  0.00    -0.205 F 
ATOM    104  C   UNL     1       9.269 -23.239   7.002  1.00  0.00     0.022 A 
BRANCH 102 105
ATOM    105  S   UNL     1      10.602 -23.023   9.385  1.00  0.00     0.127 S 
ATOM    106  O   UNL     1       9.683 -23.931  10.070  1.00  0.00    -0.237 OA
ATOM    107  O   UNL     1      11.671 -23.687   8.638  1.00  0.00    -0.237 OA
ATOM    108  O   UNL     1      11.034 -21.869  10.162  1.00  0.00    -0.744 OA
ENDBRANCH 102 105
ENDBRANCH  75  98
ENDBRANCH  49  50
ENDBRANCH  41  44
ENDBRANCH  39  40
ENDBRANCH  38  39
ENDBRANCH  37  38
ENDBRANCH  36  37
ENDBRANCH   3  36
TORSDOF 25
