REMARK SMILES O=C(NCCCCNC(=O)c1nccnc1C(=O)Nc1n[nH]c2ncccc12)c1ccc(-c2c3nc(c(-c4cccc(S(=O)(=O)[O-])c4F)c4ccc([nH]4)c(-c4cccc(S(=O)(=O)[O-])c4F)c4nc(c(-c5cccc(S(=O)(=O)[O-])c5F)c5ccc2[nH]5)C=C4)C=C3)cc1
REMARK SMILES IDX 5 1 4 2 3 3 1 4 2 5 29 7 30 8 91 9 31 10 90 11 32 12 33 13
REMARK SMILES IDX 34 14 84 15 35 16 89 17 83 18 85 19 36 20 88 21 82 22 81 23
REMARK SMILES IDX 37 25 69 26 49 27 68 28 50 29 53 30 67 31 86 32 51 33 52 34
REMARK SMILES IDX 66 36 87 37 54 38 38 39 39 40 47 41 40 42 42 43 48 44 41 45
REMARK SMILES IDX 43 46 44 47 45 48 46 49 70 50 71 51 79 52 72 53 74 54 80 55
REMARK SMILES IDX 73 56 75 57 76 58 77 59 78 60 55 61 56 62 64 63 57 64 59 65
REMARK SMILES IDX 65 66 58 67 60 68 61 69 62 70 63 71 6 72 7 73 8 74 9 75
REMARK SMILES IDX 10 77 11 78 12 79 16 80 13 81 15 82 14 83 17 84 18 85 19 86
REMARK SMILES IDX 20 88 21 89 28 90 22 91 23 92 27 93 24 95 26 96 25 97
REMARK H PARENT 3 6 85 24 53 35 8 76 19 87 22 94
REMARK Flexibility Score: inf
ROOT
ATOM      1  C   UNL     1       5.428   0.624   1.910  1.00  0.00     0.023 C 
ENDROOT
BRANCH   1   2
ATOM      2  C   UNL     1       4.606   0.258   0.681  1.00  0.00     0.116 C 
BRANCH   2   3
ATOM      3  N   UNL     1       3.157   0.270   0.832  1.00  0.00    -0.352 N 
ATOM      4  O   UNL     1       1.037   0.120   0.032  1.00  0.00    -0.269 OA
ATOM      5  C   UNL     1       2.234   0.249  -0.193  1.00  0.00     0.251 C 
ATOM      6  H   UNL     1       2.804   0.295   1.751  1.00  0.00     0.163 HD
BRANCH   5   7
ATOM      7  C   UNL     1       2.747   0.523  -1.549  1.00  0.00     0.039 A 
ATOM      8  C   UNL     1       3.784  -0.251  -2.071  1.00  0.00     0.014 A 
ATOM      9  C   UNL     1       2.370   1.725  -2.150  1.00  0.00     0.014 A 
ATOM     10  C   UNL     1       4.585   0.288  -3.065  1.00  0.00     0.010 A 
ATOM     11  C   UNL     1       3.092   2.192  -3.245  1.00  0.00     0.010 A 
ATOM     12  C   UNL     1       4.232   1.500  -3.683  1.00  0.00    -0.014 A 
BRANCH  12  13
ATOM     13  C   UNL     1       5.000   1.972  -4.859  1.00  0.00     0.031 A 
ATOM     14  C   UNL     1       5.655   3.322  -4.888  1.00  0.00     0.074 A 
ATOM     15  C   UNL     1       5.037   1.169  -5.939  1.00  0.00     0.049 A 
ATOM     16  N   UNL     1       6.263   3.915  -5.882  1.00  0.00    -0.248 NA
ATOM     17  C   UNL     1       5.612   4.119  -3.651  1.00  0.00     0.031 C 
ATOM     18  C   UNL     1       4.399  -0.149  -6.026  1.00  0.00     0.029 A 
ATOM     19  N   UNL     1       5.602   1.346  -7.174  1.00  0.00    -0.354 N 
ATOM     20  C   UNL     1       6.624   5.173  -5.417  1.00  0.00     0.074 A 
ATOM     21  C   UNL     1       6.168   5.257  -4.045  1.00  0.00     0.031 C 
ATOM     22  C   UNL     1       4.611  -0.663  -7.241  1.00  0.00     0.029 A 
ATOM     23  C   UNL     1       5.308   0.327  -8.047  1.00  0.00     0.049 A 
ATOM     24  H   UNL     1       6.159   2.122  -7.411  1.00  0.00     0.167 HD
ATOM     25  C   UNL     1       7.269   6.164  -6.080  1.00  0.00     0.034 A 
ATOM     26  C   UNL     1       5.508   0.220  -9.372  1.00  0.00     0.034 A 
ATOM     27  C   UNL     1       7.709   6.057  -7.448  1.00  0.00     0.049 A 
ATOM     28  C   UNL     1       6.203   1.334 -10.086  1.00  0.00     0.074 A 
ATOM     29  C   UNL     1       8.434   6.970  -8.192  1.00  0.00     0.029 A 
ATOM     30  N   UNL     1       7.432   4.988  -8.289  1.00  0.00    -0.354 N 
ATOM     31  N   UNL     1       6.636   2.472  -9.603  1.00  0.00    -0.248 NA
ATOM     32  C   UNL     1       6.463   1.143 -11.517  1.00  0.00     0.031 C 
ATOM     33  C   UNL     1       8.536   6.485  -9.500  1.00  0.00     0.029 A 
ATOM     34  C   UNL     1       7.942   5.234  -9.553  1.00  0.00     0.049 A 
ATOM     35  H   UNL     1       6.944   4.175  -8.026  1.00  0.00     0.167 HD
ATOM     36  C   UNL     1       7.250   3.123 -10.663  1.00  0.00     0.074 A 
ATOM     37  C   UNL     1       7.140   2.245 -11.811  1.00  0.00     0.031 C 
ATOM     38  C   UNL     1       7.850   4.338 -10.680  1.00  0.00     0.034 A 
BRANCH  25  39
ATOM     39  C   UNL     1       7.512   7.461  -5.347  1.00  0.00     0.023 A 
ATOM     40  C   UNL     1       8.403   7.509  -4.254  1.00  0.00     0.012 A 
ATOM     41  C   UNL     1       6.878   8.649  -5.766  1.00  0.00     0.148 A 
ATOM     42  C   UNL     1       8.610   8.699  -3.556  1.00  0.00     0.002 A 
ATOM     43  C   UNL     1       7.130   9.842  -5.099  1.00  0.00     0.091 A 
ATOM     44  F   UNL     1       6.026   8.589  -6.799  1.00  0.00    -0.205 F 
ATOM     45  C   UNL     1       7.981   9.866  -3.983  1.00  0.00     0.022 A 
BRANCH  43  46
ATOM     46  S   UNL     1       6.433  11.412  -5.624  1.00  0.00     0.127 S 
ATOM     47  O   UNL     1       5.482  11.685  -4.548  1.00  0.00    -0.237 OA
ATOM     48  O   UNL     1       7.610  12.282  -5.633  1.00  0.00    -0.237 OA
ATOM     49  O   UNL     1       5.843  11.173  -6.934  1.00  0.00    -0.744 OA
ENDBRANCH  43  46
ENDBRANCH  25  39
BRANCH  26  50
ATOM     50  C   UNL     1       5.013  -0.989 -10.081  1.00  0.00     0.023 A 
ATOM     51  C   UNL     1       5.926  -1.945 -10.558  1.00  0.00     0.012 A 
ATOM     52  C   UNL     1       3.629  -1.232 -10.197  1.00  0.00     0.148 A 
ATOM     53  C   UNL     1       5.468  -3.116 -11.161  1.00  0.00     0.002 A 
ATOM     54  C   UNL     1       3.181  -2.426 -10.742  1.00  0.00     0.091 A 
ATOM     55  F   UNL     1       2.781  -0.306  -9.724  1.00  0.00    -0.205 F 
ATOM     56  C   UNL     1       4.098  -3.362 -11.242  1.00  0.00     0.022 A 
BRANCH  54  57
ATOM     57  S   UNL     1       1.446  -2.890 -10.754  1.00  0.00     0.127 S 
ATOM     58  O   UNL     1       1.162  -2.936 -12.186  1.00  0.00    -0.237 OA
ATOM     59  O   UNL     1       1.483  -4.193 -10.089  1.00  0.00    -0.237 OA
ATOM     60  O   UNL     1       0.750  -1.851 -10.009  1.00  0.00    -0.744 OA
ENDBRANCH  54  57
ENDBRANCH  26  50
BRANCH  38  61
ATOM     61  C   UNL     1       8.495   4.776 -11.967  1.00  0.00     0.023 A 
ATOM     62  C   UNL     1       7.707   5.154 -13.070  1.00  0.00     0.012 A 
ATOM     63  C   UNL     1       9.897   4.891 -12.042  1.00  0.00     0.148 A 
ATOM     64  C   UNL     1       8.308   5.621 -14.239  1.00  0.00     0.002 A 
ATOM     65  C   UNL     1      10.485   5.411 -13.186  1.00  0.00     0.091 A 
ATOM     66  F   UNL     1      10.627   4.504 -10.986  1.00  0.00    -0.205 F 
ATOM     67  C   UNL     1       9.693   5.764 -14.291  1.00  0.00     0.022 A 
BRANCH  65  68
ATOM     68  S   UNL     1      12.248   5.726 -13.305  1.00  0.00     0.127 S 
ATOM     69  O   UNL     1      12.648   4.784 -14.350  1.00  0.00    -0.237 OA
ATOM     70  O   UNL     1      12.281   7.133 -13.705  1.00  0.00    -0.237 OA
ATOM     71  O   UNL     1      12.800   5.454 -11.985  1.00  0.00    -0.744 OA
ENDBRANCH  65  68
ENDBRANCH  38  61
ENDBRANCH  12  13
ENDBRANCH   5   7
ENDBRANCH   2   3
ENDBRANCH   1   2
BRANCH   1  72
ATOM     72  C   UNL     1       5.176  -0.144   3.423  1.00  0.00     0.023 C 
BRANCH  72  73
ATOM     73  C   UNL     1       5.467  -2.194   4.170  1.00  0.00     0.116 C 
BRANCH  73  74
ATOM     74  N   UNL     1       6.787  -3.097   4.381  1.00  0.00    -0.351 N 
ATOM     75  C   UNL     1       7.432  -3.455   5.550  1.00  0.00     0.272 C 
ATOM     76  H   UNL     1       7.193  -3.445   3.555  1.00  0.00     0.163 HD
ATOM     77  O   UNL     1       8.521  -4.013   5.554  1.00  0.00    -0.267 OA
BRANCH  75  78
ATOM     78  C   UNL     1       6.720  -3.171   6.806  1.00  0.00     0.159 A 
ATOM     79  N   UNL     1       5.643  -4.007   6.995  1.00  0.00    -0.247 NA
ATOM     80  C   UNL     1       6.987  -2.082   7.625  1.00  0.00     0.159 A 
ATOM     81  C   UNL     1       4.845  -3.717   8.036  1.00  0.00     0.132 A 
ATOM     82  N   UNL     1       6.149  -1.806   8.678  1.00  0.00    -0.247 NA
ATOM     83  C   UNL     1       5.092  -2.637   8.857  1.00  0.00     0.132 A 
BRANCH  80  84
ATOM     84  C   UNL     1       8.172  -1.166   7.540  1.00  0.00     0.277 C 
ATOM     85  O   UNL     1       8.775  -0.920   8.590  1.00  0.00    -0.267 OA
ATOM     86  N   UNL     1       8.661  -0.617   6.375  1.00  0.00    -0.303 N 
ATOM     87  H   UNL     1       9.549  -0.200   6.453  1.00  0.00     0.172 HD
BRANCH  86  88
ATOM     88  C   UNL     1       8.103  -0.560   5.127  1.00  0.00     0.164 A 
ATOM     89  N   UNL     1       8.923  -0.566   4.062  1.00  0.00    -0.155 NA
ATOM     90  C   UNL     1       6.736  -0.623   4.794  1.00  0.00     0.063 A 
ATOM     91  N   UNL     1       8.237  -1.012   2.966  1.00  0.00    -0.259 N 
ATOM     92  C   UNL     1       6.889  -1.143   3.149  1.00  0.00     0.157 A 
ATOM     93  C   UNL     1       5.097  -0.554   5.513  1.00  0.00     0.017 A 
ATOM     94  H   UNL     1       8.680  -1.222   2.112  1.00  0.00     0.192 HD
ATOM     95  N   UNL     1       5.566  -1.749   2.201  1.00  0.00    -0.237 NA
ATOM     96  C   UNL     1       3.675  -1.113   4.598  1.00  0.00     0.021 A 
ATOM     97  C   UNL     1       3.945  -1.662   2.953  1.00  0.00     0.113 A 
ENDBRANCH  86  88
ENDBRANCH  80  84
ENDBRANCH  75  78
ENDBRANCH  73  74
ENDBRANCH  72  73
ENDBRANCH   1  72
TORSDOF 16
