REMARK SMILES Cc1ccc(CNc2nc(OCC(=O)NCCCCNC(=O)c3ccc(-c4c5nc(c(-c6cccc(S(=O)(=O)[O-])c6F)c6ccc([nH]6)c(-c6cccc(S(=O)(=O)[O-])c6F)c6nc(c(-c7cccc(S(=O)(=O)[O-])c7F)c7ccc4[nH]7)C=C6)C=C5)cc3)cc(C(F)(F)F)n2)cc1
REMARK SMILES IDX 16 1 15 2 13 3 14 4 12 6 11 7 10 8 8 9 9 10 92 11 87 12
REMARK SMILES IDX 86 13 7 14 6 16 5 17 1 18 2 19 3 20 94 21 4 22 93 23 88 24
REMARK SMILES IDX 89 25 90 26 91 27 17 28 18 29 19 30 20 31 21 32 22 34 23 35
REMARK SMILES IDX 24 36 85 37 25 38 84 39 26 40 27 41 28 42 78 43 29 44 83 45
REMARK SMILES IDX 77 46 79 47 30 48 82 49 76 50 75 51 31 53 63 54 43 55 62 56
REMARK SMILES IDX 44 57 47 58 61 59 80 60 45 61 46 62 60 64 81 65 48 66 32 67
REMARK SMILES IDX 33 68 41 69 34 70 36 71 42 72 35 73 37 74 38 75 39 76 40 77
REMARK SMILES IDX 64 78 65 79 73 80 66 81 68 82 74 83 67 84 69 85 70 86 71 87
REMARK SMILES IDX 72 88 49 89 50 90 58 91 51 92 53 93 59 94 52 95 54 96 55 97
REMARK SMILES IDX 56 98 57 99
REMARK H PARENT 15 5 7 15 20 33 79 52 47 63
REMARK Flexibility Score: inf
ROOT
ATOM      1  C   UNL     1      -2.922  -6.807  -1.478  1.00  0.00     0.116 C 
ENDROOT
BRANCH   1   2
ATOM      2  N   UNL     1      -4.167  -7.059  -0.771  1.00  0.00    -0.353 N 
ATOM      3  C   UNL     1      -5.446  -6.781  -1.149  1.00  0.00     0.258 C 
ATOM      4  O   UNL     1      -6.372  -7.053  -0.381  1.00  0.00    -0.271 OA
ATOM      5  H   UNL     1      -4.073  -7.494   0.107  1.00  0.00     0.163 HD
BRANCH   3   6
ATOM      6  C   UNL     1      -5.725  -6.133  -2.509  1.00  0.00     0.331 C 
BRANCH   6   7
ATOM      7  O   UNL     1      -5.178  -4.853  -2.755  1.00  0.00    -0.467 OA
BRANCH   7   8
ATOM      8  C   UNL     1      -5.469  -3.846  -1.883  1.00  0.00     0.219 A 
ATOM      9  C   UNL     1      -4.717  -1.812  -1.139  1.00  0.00     0.226 A 
ATOM     10  N   UNL     1      -4.607  -2.826  -1.995  1.00  0.00    -0.177 NA
ATOM     11  N   UNL     1      -5.663  -1.735  -0.202  1.00  0.00    -0.208 NA
ATOM     12  C   UNL     1      -6.562  -2.750  -0.128  1.00  0.00     0.153 A 
ATOM     13  C   UNL     1      -6.499  -3.841  -0.976  1.00  0.00     0.102 A 
BRANCH   9  14
ATOM     14  N   UNL     1      -3.760  -0.843  -1.250  1.00  0.00    -0.350 N 
ATOM     15  H   UNL     1      -3.349  -0.661  -2.126  1.00  0.00     0.164 HD
BRANCH  14  16
ATOM     16  C   UNL     1      -3.347  -0.084  -0.098  1.00  0.00     0.152 C 
BRANCH  16  17
ATOM     17  C   UNL     1      -1.835  -0.035  -0.053  1.00  0.00    -0.029 A 
ATOM     18  C   UNL     1       2.484   0.022   0.023  1.00  0.00     0.044 C 
ATOM     19  C   UNL     1       0.985   0.015   0.011  1.00  0.00    -0.051 A 
ATOM     20  C   UNL     1       0.299  -1.203   0.040  1.00  0.00     0.004 A 
ATOM     21  C   UNL     1       0.253   1.207  -0.044  1.00  0.00     0.004 A 
ATOM     22  C   UNL     1      -1.096  -1.227   0.015  1.00  0.00     0.006 A 
ATOM     23  C   UNL     1      -1.145   1.183  -0.075  1.00  0.00     0.006 A 
ENDBRANCH  16  17
ENDBRANCH  14  16
ENDBRANCH   9  14
BRANCH  12  24
ATOM     24  C   UNL     1      -7.668  -2.660   0.908  1.00  0.00     0.433 C 
ATOM     25  F   UNL     1      -7.206  -2.428   2.170  1.00  0.00    -0.165 F 
ATOM     26  F   UNL     1      -8.554  -1.656   0.644  1.00  0.00    -0.165 F 
ATOM     27  F   UNL     1      -8.425  -3.792   0.998  1.00  0.00    -0.165 F 
ENDBRANCH  12  24
ENDBRANCH   7   8
ENDBRANCH   6   7
ENDBRANCH   3   6
ENDBRANCH   1   2
BRANCH   1  28
ATOM     28  C   UNL     1      -2.178  -5.564  -0.972  1.00  0.00     0.023 C 
BRANCH  28  29
ATOM     29  C   UNL     1      -1.999  -5.465   0.545  1.00  0.00     0.023 C 
BRANCH  29  30
ATOM     30  C   UNL     1      -1.226  -6.615   1.175  1.00  0.00     0.116 C 
BRANCH  30  31
ATOM     31  N   UNL     1       0.216  -6.461   1.134  1.00  0.00    -0.352 N 
ATOM     32  C   UNL     1       1.216  -7.318   1.558  1.00  0.00     0.251 C 
ATOM     33  H   UNL     1       0.533  -5.614   0.743  1.00  0.00     0.163 HD
ATOM     34  O   UNL     1       2.367  -6.882   1.586  1.00  0.00    -0.269 OA
BRANCH  32  35
ATOM     35  C   UNL     1       0.939  -8.753   1.852  1.00  0.00     0.039 A 
ATOM     36  C   UNL     1       1.910  -9.702   1.491  1.00  0.00     0.014 A 
ATOM     37  C   UNL     1      -0.303  -9.193   2.301  1.00  0.00     0.014 A 
ATOM     38  C   UNL     1       1.551 -11.042   1.324  1.00  0.00     0.010 A 
ATOM     39  C   UNL     1      -0.685 -10.498   2.069  1.00  0.00     0.010 A 
ATOM     40  C   UNL     1       0.218 -11.398   1.499  1.00  0.00    -0.014 A 
BRANCH  40  41
ATOM     41  C   UNL     1      -0.400 -12.587   0.928  1.00  0.00     0.031 A 
ATOM     42  C   UNL     1      -0.715 -13.779   1.732  1.00  0.00     0.074 A 
ATOM     43  C   UNL     1      -0.941 -12.446  -0.303  1.00  0.00     0.049 A 
ATOM     44  N   UNL     1      -0.996 -14.932   1.226  1.00  0.00    -0.248 NA
ATOM     45  C   UNL     1      -0.749 -13.752   3.186  1.00  0.00     0.031 C 
ATOM     46  C   UNL     1      -1.994 -13.248  -0.912  1.00  0.00     0.029 A 
ATOM     47  N   UNL     1      -0.498 -11.619  -1.340  1.00  0.00    -0.354 N 
ATOM     48  C   UNL     1      -1.534 -15.700   2.237  1.00  0.00     0.074 A 
ATOM     49  C   UNL     1      -1.280 -14.951   3.449  1.00  0.00     0.031 C 
ATOM     50  C   UNL     1      -1.939 -13.087  -2.243  1.00  0.00     0.029 A 
ATOM     51  C   UNL     1      -0.734 -12.327  -2.529  1.00  0.00     0.049 A 
ATOM     52  H   UNL     1      -0.101 -10.723  -1.254  1.00  0.00     0.167 HD
ATOM     53  C   UNL     1      -2.290 -16.792   1.921  1.00  0.00     0.034 A 
ATOM     54  C   UNL     1       0.253 -12.694  -3.398  1.00  0.00     0.034 A 
ATOM     55  C   UNL     1      -2.376 -16.981   0.465  1.00  0.00     0.049 A 
ATOM     56  C   UNL     1       0.303 -14.191  -3.648  1.00  0.00     0.074 A 
ATOM     57  C   UNL     1      -3.349 -16.654  -0.467  1.00  0.00     0.029 A 
ATOM     58  N   UNL     1      -1.247 -17.339  -0.260  1.00  0.00    -0.354 N 
ATOM     59  N   UNL     1      -0.423 -15.068  -3.013  1.00  0.00    -0.248 NA
ATOM     60  C   UNL     1       1.208 -14.821  -4.606  1.00  0.00     0.031 C 
ATOM     61  C   UNL     1      -2.776 -16.758  -1.761  1.00  0.00     0.029 A 
ATOM     62  C   UNL     1      -1.460 -17.162  -1.619  1.00  0.00     0.049 A 
ATOM     63  H   UNL     1      -0.410 -17.672   0.137  1.00  0.00     0.167 HD
ATOM     64  C   UNL     1       0.014 -16.335  -3.308  1.00  0.00     0.074 A 
ATOM     65  C   UNL     1       0.962 -16.126  -4.388  1.00  0.00     0.031 C 
ATOM     66  C   UNL     1      -0.387 -17.423  -2.576  1.00  0.00     0.034 A 
BRANCH  53  67
ATOM     67  C   UNL     1      -3.241 -17.478   2.891  1.00  0.00     0.023 A 
ATOM     68  C   UNL     1      -4.377 -18.125   2.349  1.00  0.00     0.012 A 
ATOM     69  C   UNL     1      -3.144 -17.486   4.299  1.00  0.00     0.148 A 
ATOM     70  C   UNL     1      -5.413 -18.625   3.143  1.00  0.00     0.002 A 
ATOM     71  C   UNL     1      -4.213 -17.913   5.095  1.00  0.00     0.091 A 
ATOM     72  F   UNL     1      -1.984 -17.163   4.884  1.00  0.00    -0.205 F 
ATOM     73  C   UNL     1      -5.354 -18.478   4.518  1.00  0.00     0.022 A 
BRANCH  71  74
ATOM     74  S   UNL     1      -4.247 -17.656   6.878  1.00  0.00     0.127 S 
ATOM     75  O   UNL     1      -5.588 -17.106   7.087  1.00  0.00    -0.237 OA
ATOM     76  O   UNL     1      -4.059 -19.008   7.397  1.00  0.00    -0.237 OA
ATOM     77  O   UNL     1      -3.173 -16.711   7.161  1.00  0.00    -0.744 OA
ENDBRANCH  71  74
ENDBRANCH  53  67
BRANCH  54  78
ATOM     78  C   UNL     1       1.440 -11.787  -3.372  1.00  0.00     0.023 A 
ATOM     79  C   UNL     1       1.228 -10.441  -3.759  1.00  0.00     0.012 A 
ATOM     80  C   UNL     1       2.589 -12.104  -2.627  1.00  0.00     0.148 A 
ATOM     81  C   UNL     1       2.064  -9.422  -3.298  1.00  0.00     0.002 A 
ATOM     82  C   UNL     1       3.421 -11.080  -2.175  1.00  0.00     0.091 A 
ATOM     83  F   UNL     1       2.810 -13.383  -2.300  1.00  0.00    -0.205 F 
ATOM     84  C   UNL     1       3.140  -9.738  -2.477  1.00  0.00     0.022 A 
BRANCH  82  85
ATOM     85  S   UNL     1       4.801 -11.425  -1.074  1.00  0.00     0.127 S 
ATOM     86  O   UNL     1       5.891 -11.622  -2.025  1.00  0.00    -0.237 OA
ATOM     87  O   UNL     1       4.890 -10.200  -0.279  1.00  0.00    -0.237 OA
ATOM     88  O   UNL     1       4.378 -12.593  -0.316  1.00  0.00    -0.744 OA
ENDBRANCH  82  85
ENDBRANCH  54  78
BRANCH  66  89
ATOM     89  C   UNL     1       0.202 -18.824  -2.658  1.00  0.00     0.023 A 
ATOM     90  C   UNL     1       1.466 -19.086  -3.219  1.00  0.00     0.012 A 
ATOM     91  C   UNL     1      -0.446 -19.924  -2.032  1.00  0.00     0.148 A 
ATOM     92  C   UNL     1       2.037 -20.365  -3.210  1.00  0.00     0.002 A 
ATOM     93  C   UNL     1       0.176 -21.167  -1.925  1.00  0.00     0.091 A 
ATOM     94  F   UNL     1      -1.689 -19.784  -1.548  1.00  0.00    -0.205 F 
ATOM     95  C   UNL     1       1.405 -21.401  -2.540  1.00  0.00     0.022 A 
BRANCH  93  96
ATOM     96  S   UNL     1      -0.509 -22.444  -0.858  1.00  0.00     0.127 S 
ATOM     97  O   UNL     1      -1.412 -23.151  -1.764  1.00  0.00    -0.237 OA
ATOM     98  O   UNL     1       0.678 -23.207  -0.468  1.00  0.00    -0.237 OA
ATOM     99  O   UNL     1      -1.130 -21.712   0.238  1.00  0.00    -0.744 OA
ENDBRANCH  93  96
ENDBRANCH  66  89
ENDBRANCH  40  41
ENDBRANCH  32  35
ENDBRANCH  30  31
ENDBRANCH  29  30
ENDBRANCH  28  29
ENDBRANCH   1  28
TORSDOF 20
